### 
### Created by X-TOOL on Mon Sep 10 21:12:45 2018
### 

@<TRIPOS>MOLECULE
1cka_ligand
  147   151     1     0     0
SMALL
GAST_HUCK


@<TRIPOS>ATOM
      1 N         123.4010  141.3890   19.5450 N.4       1 PRO         0.2461
      2 CA        122.8660  140.8050   18.3160 C.3       1 PRO         0.0671
      3 C         122.1830  139.4680   18.5490 C.2       1 PRO         0.2293
      4 O         122.4260  138.8000   19.5520 O.2       1 PRO        -0.3905
      5 CB        124.1130  140.6710   17.4470 C.3       1 PRO         0.0127
      6 CG        124.8310  141.9610   17.7610 C.3       1 PRO        -0.0053
      7 CD        124.6710  142.1000   19.2800 C.3       1 PRO        -0.0313
      8 N         121.2660  139.0940   17.6450 N.am      1 PRO        -0.2471
      9 CA        120.4870  137.8550   17.6690 C.3       1 PRO         0.1341
     10 C         121.3150  136.5970   17.5210 C.2       1 PRO         0.2066
     11 O         122.5050  136.6470   17.2210 O.2       1 PRO        -0.3942
     12 CB        119.5650  138.0210   16.4560 C.3       1 PRO        -0.0104
     13 CG        119.3730  139.4830   16.3690 C.3       1 PRO        -0.0281
     14 CD        120.7780  139.9810   16.5750 C.3       1 PRO         0.0371
     15 N         120.6910  135.4380   17.7230 N.am      1 PRO        -0.2498
     16 CA        121.3980  134.1690   17.5880 C.3       1 PRO         0.1338
     17 C         121.5500  133.8670   16.1040 C.2       1 PRO         0.2041
     18 O         121.0330  134.5990   15.2510 O.2       1 PRO        -0.3944
     19 CB        120.4380  133.1880   18.2410 C.3       1 PRO        -0.0104
     20 CG        119.1280  133.7400   17.8360 C.3       1 PRO        -0.0281
     21 CD        119.2930  135.2050   18.1180 C.3       1 PRO         0.0369
     22 N         122.2670  132.7940   15.7980 N.am      1 ALA        -0.2640
     23 CA        122.4840  132.3980   14.4080 C.3       1 ALA         0.1282
     24 C         121.1430  132.0660   13.7410 C.2       1 ALA         0.2036
     25 O         120.2670  131.4580   14.3660 O.2       1 ALA        -0.3944
     26 CB        123.4180  131.1750   14.3550 C.3       1 ALA        -0.0244
     27 H1        123.5673  140.6543   20.2148 H         1 PRO         0.2035
     28 N         120.9890  132.4830   12.4880 N.am      1 LEU        -0.2637
     29 CA        119.7730  132.1890   11.7120 C.3       1 LEU         0.1314
     30 C         119.9450  130.7630   11.1930 C.2       1 LEU         0.2064
     31 O         120.9350  130.4500   10.5380 O.2       1 LEU        -0.3942
     32 CB        119.6700  133.1390   10.5270 C.3       1 LEU        -0.0101
     33 CG        118.3080  133.4950    9.9700 C.3       1 LEU        -0.0425
     34 CD1       117.3770  134.0170   11.0960 C.3       1 LEU        -0.0625
     35 CD2       118.5280  134.5710    8.9120 C.3       1 LEU        -0.0625
     36 H2        122.7298  142.0405   19.9206 H         1 PRO         0.2035
     37 N         118.9930  129.8720   11.4930 N.am      1 PRO        -0.2498
     38 CA        119.1470  128.4930   11.0060 C.3       1 PRO         0.1340
     39 C         118.9980  128.3800    9.4870 C.2       1 PRO         0.2066
     40 O         118.3630  129.2250    8.8570 O.2       1 PRO        -0.3942
     41 CB        118.0230  127.7460   11.7290 C.3       1 PRO        -0.0104
     42 CG        116.9380  128.8350   11.8580 C.3       1 PRO        -0.0281
     43 CD        117.7200  130.0660   12.2120 C.3       1 PRO         0.0369
     44 N         119.6410  127.3720    8.8710 N.am      1 PRO        -0.2498
     45 CA        119.4890  127.2530    7.4150 C.3       1 PRO         0.1338
     46 C         118.0620  126.8050    7.1200 C.2       1 PRO         0.2041
     47 O         117.4280  126.1900    7.9740 O.2       1 PRO        -0.3944
     48 CB        120.4730  126.1240    7.0580 C.3       1 PRO        -0.0104
     49 CG        120.5300  125.2970    8.2900 C.3       1 PRO        -0.0281
     50 CD        120.5710  126.3490    9.3840 C.3       1 PRO         0.0369
     51 N         117.5420  127.1520    5.9500 N.am      1 LYS        -0.2637
     52 CA        116.2140  126.6790    5.5720 C.3       1 LYS         0.1308
     53 C         116.4210  125.3750    4.7960 C.2       1 LYS         0.2019
     54 O         117.4240  125.2040    4.0890 O.2       1 LYS        -0.3945
     55 CB        115.4850  127.7040    4.7090 C.3       1 LYS        -0.0122
     56 CG        114.9600  128.8900    5.4990 C.3       1 LYS        -0.0440
     57 CD        114.1880  129.8270    4.6140 C.3       1 LYS        -0.0124
     58 CE        113.4870  130.8830    5.4200 C.3       1 LYS        -0.0354
     59 NZ        112.8910  131.9130    4.5340 N.4       1 LYS         0.2185
     60 H3        122.1426  141.4897   17.8494 H         1 PRO         0.1099
     61 H4        123.8550  140.6030   16.3799 H         1 PRO         0.0347
     62 H5        124.7130  139.7954   17.7357 H         1 PRO         0.0347
     63 H6        124.3641  142.8083   17.2375 H         1 PRO         0.0320
     64 N         115.5080  124.4340    4.9770 N.am      1 LYS        -0.2823
     65 CA        115.6100  123.1650    4.2790 C.3       1 LYS         0.0393
     66 C         114.7350  123.2050    3.0280 C.3       1 LYS        -0.0420
     67 CB        115.1790  122.0370    5.2050 C.3       1 LYS        -0.0300
     68 CG        115.9040  122.0600    6.5450 C.3       1 LYS        -0.0462
     69 CD        115.6260  120.7920    7.3260 C.3       1 LYS        -0.0126
     70 CE        116.5190  120.6770    8.5530 C.3       1 LYS        -0.0354
     71 NZ        116.3350  119.3590    9.2390 N.4       1 LYS         0.2185
     72 H7        125.8931  141.8977   17.4818 H         1 PRO         0.0320
     73 H8        125.5089  141.6249   19.8113 H         1 PRO         0.0814
     74 H9        124.6018  143.1573   19.5755 H         1 PRO         0.0814
     75 H10       119.9069  137.7889   18.6013 H         1 PRO         0.0802
     76 H11       118.6059  137.5071   16.6174 H         1 PRO         0.0313
     77 H12       120.0407  137.6316   15.5438 H         1 PRO         0.0313
     78 H13       118.6976  139.8475   17.1570 H         1 PRO         0.0287
     79 H14       118.9816  139.7793   15.3846 H         1 PRO         0.0287
     80 H15       121.3787  139.8710   15.6601 H         1 PRO         0.0524
     81 H16       120.7857  141.0336   16.8944 H         1 PRO         0.0524
     82 H17       122.3782  134.1785   18.0872 H         1 PRO         0.0802
     83 H18       120.5509  133.1839   19.3352 H         1 PRO         0.0313
     84 H19       120.5809  132.1684   17.8538 H         1 PRO         0.0313
     85 H20       118.3124  133.3091   18.4352 H         1 PRO         0.0287
     86 H21       118.9334  133.5600   16.7684 H         1 PRO         0.0287
     87 H22       118.6009  135.8087   17.5127 H         1 PRO         0.0524
     88 H23       119.1368  135.4267   19.1840 H         1 PRO         0.0524
     89 H24       122.6668  132.2455   16.5324 H         1 ALA         0.1883
     90 H25       122.9551  133.2320   13.8672 H         1 ALA         0.0797
     91 H26       123.5781  130.8811   13.3072 H         1 ALA         0.0277
     92 H27       122.9596  130.3394   14.9042 H         1 ALA         0.0277
     93 H28       124.3836  131.4308   14.8156 H         1 ALA         0.0277
     94 H29       121.7213  133.0124   12.0597 H         1 LEU         0.1883
     95 H30       118.8766  132.2729   12.3440 H         1 LEU         0.0800
     96 H31       120.2433  132.6868    9.7043 H         1 LEU         0.0315
     97 H32       120.1471  134.0823   10.8313 H         1 LEU         0.0315
     98 H33       117.8507  132.6073    9.5086 H         1 LEU         0.0298
     99 H34       116.3942  134.2697   10.6714 H         1 LEU         0.0232
    100 H35       117.8208  134.9140   11.5524 H         1 LEU         0.0232
    101 H36       117.2558  133.2374   11.8625 H         1 LEU         0.0232
    102 H37       119.1896  134.1810    8.1245 H         1 LEU         0.0232
    103 H38       118.9922  135.4532    9.3771 H         1 LEU         0.0232
    104 H39       117.5610  134.8549    8.4712 H         1 LEU         0.0232
    105 H40       120.1295  128.0922   11.2959 H         1 PRO         0.0802
    106 H41       118.3512  127.3911   12.7171 H         1 PRO         0.0313
    107 H42       117.6636  126.8935   11.1340 H         1 PRO         0.0313
    108 H43       116.2201  128.5830   12.6524 H         1 PRO         0.0287
    109 H44       116.4009  128.9699   10.9076 H         1 PRO         0.0287
    110 H45       117.2051  130.9741   11.8653 H         1 PRO         0.0524
    111 H46       117.8854  130.1301   13.2976 H         1 PRO         0.0524
    112 H47       119.7257  128.1902    6.8900 H         1 PRO         0.0802
    113 H48       121.4650  126.5320    6.8143 H         1 PRO         0.0313
    114 H49       120.1001  125.5342    6.2077 H         1 PRO         0.0313
    115 H50       121.4331  124.6692    8.3070 H         1 PRO         0.0287
    116 H51       119.6384  124.6595    8.3836 H         1 PRO         0.0287
    117 H52       120.2228  125.9395   10.3437 H         1 PRO         0.0524
    118 H53       121.5850  126.7576    9.5059 H         1 PRO         0.0524
    119 H54       118.0601  127.7379    5.3268 H         1 LYS         0.1883
    120 H55       115.6179  126.4856    6.4760 H         1 LYS         0.0800
    121 H56       114.6347  127.2067    4.2195 H         1 LYS         0.0312
    122 H57       116.1825  128.0755    3.9439 H         1 LYS         0.0312
    123 H58       115.8089  129.4313    5.9422 H         1 LYS         0.0269
    124 H59       114.2996  128.5252    6.2994 H         1 LYS         0.0269
    125 H60       113.4399  129.2518    4.0487 H         1 LYS         0.0317
    126 H61       114.8830  130.3130    3.9134 H         1 LYS         0.0317
    127 H62       114.2119  131.3628    6.0939 H         1 LYS         0.0813
    128 H63       112.6894  130.4131    6.0141 H         1 LYS         0.0813
    129 H64       112.4266  132.6103    5.0945 H         1 LYS         0.1994
    130 H65       112.2231  131.4791    3.9162 H         1 LYS         0.1994
    131 H66       113.6183  132.3494    3.9894 H         1 LYS         0.1994
    132 H67       114.7424  124.5983    5.5990 H         1 LYS         0.1854
    133 H68       116.6553  123.0000    3.9789 H         1 LYS         0.0553
    134 H69       114.8103  122.2446    2.4970 H         1 LYS         0.0252
    135 H70       115.0756  124.0165    2.3681 H         1 LYS         0.0252
    136 H71       113.6888  123.3826    3.3178 H         1 LYS         0.0252
    137 H72       115.3874  121.0772    4.7097 H         1 LYS         0.0287
    138 H73       114.0983  122.1276    5.3891 H         1 LYS         0.0287
    139 H74       115.5580  122.9263    7.1280 H         1 LYS         0.0268
    140 H75       116.9864  122.1454    6.3686 H         1 LYS         0.0268
    141 H76       115.8048  119.9251    6.6730 H         1 LYS         0.0317
    142 H77       114.5748  120.7965    7.6499 H         1 LYS         0.0317
    143 H78       116.2676  121.4848    9.2560 H         1 LYS         0.0813
    144 H79       117.5695  120.7753    8.2420 H         1 LYS         0.0813
    145 H80       116.9380  119.3129   10.0454 H         1 LYS         0.1994
    146 H81       116.5681  118.6133    8.6021 H         1 LYS         0.1994
    147 H82       115.3751  119.2635    9.5314 H         1 LYS         0.1994
@<TRIPOS>BOND
     1    1    2 1  
     2    1    7 1  
     3    2    3 1  
     4    2    5 1  
     5    3    4 2  
     6    3    8 am 
     7    5    6 1  
     8    6    7 1  
     9    8    9 1  
    10    8   14 1  
    11    9   10 1  
    12    9   12 1  
    13   10   11 2  
    14   10   15 am 
    15   12   13 1  
    16   13   14 1  
    17   15   16 1  
    18   15   21 1  
    19   16   17 1  
    20   16   19 1  
    21   17   18 2  
    22   17   22 am 
    23   19   20 1  
    24   20   21 1  
    25   22   23 1  
    26    1   27 1  
    27   23   24 1  
    28   23   26 1  
    29   24   25 2  
    30   24   28 am 
    31   28   29 1  
    32    1   36 1  
    33   29   30 1  
    34   29   32 1  
    35   30   31 2  
    36   30   37 am 
    37   32   33 1  
    38   33   34 1  
    39   33   35 1  
    40   37   38 1  
    41   37   43 1  
    42   38   39 1  
    43   38   41 1  
    44   39   40 2  
    45   39   44 am 
    46   41   42 1  
    47   42   43 1  
    48   44   45 1  
    49   44   50 1  
    50   45   46 1  
    51   45   48 1  
    52   46   47 2  
    53   46   51 am 
    54   48   49 1  
    55   49   50 1  
    56   51   52 1  
    57    2   60 1  
    58   52   53 1  
    59   52   55 1  
    60   53   54 2  
    61   53   64 am 
    62   55   56 1  
    63   56   57 1  
    64   57   58 1  
    65   58   59 1  
    66    5   61 1  
    67    5   62 1  
    68    6   63 1  
    69   64   65 1  
    70    6   72 1  
    71   65   66 1  
    72   65   67 1  
    73   67   68 1  
    74   68   69 1  
    75   69   70 1  
    76   70   71 1  
    77    7   73 1  
    78    7   74 1  
    79    9   75 1  
    80   12   76 1  
    81   12   77 1  
    82   13   78 1  
    83   13   79 1  
    84   14   80 1  
    85   14   81 1  
    86   16   82 1  
    87   19   83 1  
    88   19   84 1  
    89   20   85 1  
    90   20   86 1  
    91   21   87 1  
    92   21   88 1  
    93   22   89 1  
    94   23   90 1  
    95   26   91 1  
    96   26   92 1  
    97   26   93 1  
    98   28   94 1  
    99   29   95 1  
   100   32   96 1  
   101   32   97 1  
   102   33   98 1  
   103   34   99 1  
   104   34  100 1  
   105   34  101 1  
   106   35  102 1  
   107   35  103 1  
   108   35  104 1  
   109   38  105 1  
   110   41  106 1  
   111   41  107 1  
   112   42  108 1  
   113   42  109 1  
   114   43  110 1  
   115   43  111 1  
   116   45  112 1  
   117   48  113 1  
   118   48  114 1  
   119   49  115 1  
   120   49  116 1  
   121   50  117 1  
   122   50  118 1  
   123   51  119 1  
   124   52  120 1  
   125   55  121 1  
   126   55  122 1  
   127   56  123 1  
   128   56  124 1  
   129   57  125 1  
   130   57  126 1  
   131   58  127 1  
   132   58  128 1  
   133   59  129 1  
   134   59  130 1  
   135   59  131 1  
   136   64  132 1  
   137   65  133 1  
   138   66  134 1  
   139   66  135 1  
   140   66  136 1  
   141   67  137 1  
   142   67  138 1  
   143   68  139 1  
   144   68  140 1  
   145   69  141 1  
   146   69  142 1  
   147   70  143 1  
   148   70  144 1  
   149   71  145 1  
   150   71  146 1  
   151   71  147 1  
@<TRIPOS>SUBSTRUCTURE
     1 PRO         1

