5q0y_ligand
  -I-interpret- 

 70 75  0  0  0  0  0  0  0  0999 V2000
   10.8300   26.5960    2.5640 C   0  0  0  0  0
   11.9580   25.8720    2.9580 C   0  0  0  0  0
   11.8480   24.9280    3.9710 C   0  0  0  0  0
   13.5050   23.7410    6.5600 C   0  0  0  0  0
   14.3450   22.8100    7.4450 C   0  0  0  0  0
   13.8480   25.6020    8.2990 C   0  0  0  0  0
   13.9540   25.1880    6.7910 C   0  0  0  0  0
   13.1060   19.7510    2.1200 C   0  0  0  0  0
   11.3500   18.9510    0.5000 C   0  0  0  0  0
   10.9030   20.9930    1.9670 C   0  0  0  0  0
   15.3670   24.7450    3.0490 C   0  0  0  0  0
    8.5370   26.9990    2.8680 F   0  0  0  0  0
    9.6430   26.3260    3.2150 C   0  0  0  0  0
   13.2770   25.9270    2.4880 N   0  0  0  0  0
   13.9350   25.0430    3.2090 C   0  0  0  0  0
   16.3670   25.3890    3.7730 C   0  0  0  0  0
   17.6990   25.0470    3.5830 C   0  0  0  0  0
   17.9810   24.0460    2.6520 C   0  0  0  0  0
   17.0460   23.3950    1.9410 N   0  0  0  0  0
   15.7560   23.7520    2.1500 C   0  0  0  0  0
   19.3180   23.6280    2.4030 N   0  0  0  0  0
   19.7500   22.7060    1.5080 C   0  0  0  0  0
   21.1040   22.6360    1.6380 C   0  0  0  0  0
   21.4210   23.5440    2.6430 C   0  0  0  0  0
   20.3520   24.1560    3.1240 N   0  0  0  0  0
   13.1340   24.4050    4.1260 N   0  0  0  0  0
   13.5820   23.3410    5.0670 C   0  0  0  0  0
   14.1760   23.1540    8.9360 C   0  0  0  0  0
   14.5890   24.6020    9.2230 C   0  0  0  0  0
   12.8470   22.0150    4.7300 C   0  0  0  0  0
   12.4270   21.2670    5.6050 O   0  0  0  0  0
   12.7110   21.7670    3.4300 N   0  0  0  0  0
   12.0630   20.5840    2.8810 C   0  0  0  0  0
   12.4740   18.5390    1.4310 C   0  0  0  0  0
   10.2760   19.7560    1.2580 C   0  0  0  0  0
   10.6590   24.6550    4.6280 C   0  0  0  0  0
    9.5610   25.3760    4.2240 C   0  0  0  0  0
    8.3670   25.1510    4.8210 F   0  0  0  0  0
   10.8850   27.3446    1.7737 H   0  0  0  0  0
   12.4557   23.6477    6.8399 H   0  0  0  0  0
   15.3948   22.9306    7.1776 H   0  0  0  0  0
   14.0114   21.7847    7.2852 H   0  0  0  0  0
   12.7946   25.6115    8.5788 H   0  0  0  0  0
   14.3067   26.5836    8.4182 H   0  0  0  0  0
   13.3040   25.8433    6.2111 H   0  0  0  0  0
   14.9971   25.2740    6.4864 H   0  0  0  0  0
   13.8450   19.3910    2.8358 H   0  0  0  0  0
   13.5569   20.3831    1.3550 H   0  0  0  0  0
   10.8894   18.0534    0.0874 H   0  0  0  0  0
   11.7622   19.5755   -0.2926 H   0  0  0  0  0
   11.2852   21.6723    1.2050 H   0  0  0  0  0
   10.1345   21.4703    2.5750 H   0  0  0  0  0
   16.1029   26.1647    4.4918 H   0  0  0  0  0
   18.4948   25.5416    4.1400 H   0  0  0  0  0
   14.9801   23.2353    1.5851 H   0  0  0  0  0
   19.1327   22.1314    0.8174 H   0  0  0  0  0
   21.7914   22.0043    1.0754 H   0  0  0  0  0
   22.4359   23.7300    2.9943 H   0  0  0  0  0
   14.6505   23.1866    4.9166 H   0  0  0  0  0
   14.8123   22.4891    9.5201 H   0  0  0  0  0
   13.1263   23.0328    9.2035 H   0  0  0  0  0
   14.3328   24.8342   10.2567 H   0  0  0  0  0
   15.6599   24.6963    9.0431 H   0  0  0  0  0
   13.0859   22.4517    2.7735 H   0  0  0  0  0
   11.6493   19.9782    3.6872 H   0  0  0  0  0
   12.0635   17.8818    2.1975 H   0  0  0  0  0
   13.2424   18.0371    0.8430 H   0  0  0  0  0
    9.8239   19.1122    2.0125 H   0  0  0  0  0
    9.5299   20.1033    0.5433 H   0  0  0  0  0
   10.5979   23.9098    5.4212 H   0  0  0  0  0
  2  1  4  0  0  0
  1 13  4  0  0  0
  3  2  4  0  0  0
 14  2  4  0  0  0
 26  3  4  0  0  0
  3 36  4  0  0  0
  4  5  1  0  0  0
  4  7  1  0  0  0
 27  4  1  0  0  0
  5 28  1  0  0  0
  7  6  1  0  0  0
  6 29  1  0  0  0
 33  8  1  0  0  0
  8 34  1  0  0  0
 34  9  1  0  0  0
 35  9  1  0  0  0
 33 10  1  0  0  0
 10 35  1  0  0  0
 15 11  1  0  0  0
 11 16  4  0  0  0
 11 20  4  0  0  0
 13 12  1  0  0  0
 13 37  4  0  0  0
 15 14  4  0  0  0
 26 15  4  0  0  0
 16 17  4  0  0  0
 17 18  4  0  0  0
 19 18  4  0  0  0
 18 21  1  0  0  0
 20 19  4  0  0  0
 21 22  4  0  0  0
 21 25  4  0  0  0
 22 23  4  0  0  0
 24 23  4  0  0  0
 25 24  4  0  0  0
 27 26  1  0  0  0
 30 27  1  0  0  0
 28 29  1  0  0  0
 30 31  2  0  0  0
 32 30  1  0  0  0
 32 33  1  0  0  0
 36 37  4  0  0  0
 37 38  1  0  0  0
  1 39  1  0  0  0
  4 40  1  0  0  0
  5 41  1  0  0  0
  5 42  1  0  0  0
  6 43  1  0  0  0
  6 44  1  0  0  0
  7 45  1  0  0  0
  7 46  1  0  0  0
  8 47  1  0  0  0
  8 48  1  0  0  0
  9 49  1  0  0  0
  9 50  1  0  0  0
 10 51  1  0  0  0
 10 52  1  0  0  0
 16 53  1  0  0  0
 17 54  1  0  0  0
 20 55  1  0  0  0
 22 56  1  0  0  0
 23 57  1  0  0  0
 24 58  1  0  0  0
 27 59  1  0  0  0
 28 60  1  0  0  0
 28 61  1  0  0  0
 29 62  1  0  0  0
 29 63  1  0  0  0
 32 64  1  0  0  0
 33 65  1  0  0  0
 34 66  1  0  0  0
 34 67  1  0  0  0
 35 68  1  0  0  0
 35 69  1  0  0  0
 36 70  1  0  0  0
M  END
$$$$
