4ago_ligand
  -I-interpret- 

 69 70  0  0  0  0  0  0  0  0999 V2000
   91.3920   93.3530  -45.3400 C   0  0  0  0  0
   91.5040   92.3070  -46.3020 C   0  0  0  0  0
   91.6520   91.4460  -47.1170 C   0  0  0  0  0
   91.8410   90.3840  -48.1100 C   0  0  0  0  0
   91.6040   90.9580  -49.4160 N   0  0  0  0  0
   90.7290   95.6540  -44.9800 C   0  0  0  0  0
   90.6220   98.1370  -44.7970 N   0  3  0  0  0
   90.9480   96.6360  -42.8080 O   0  0  0  0  0
   91.7760   93.2220  -44.0020 C   0  0  0  0  0
   90.1570   96.9320  -45.5280 C   0  0  0  0  0
   91.8380  102.1460  -43.8410 N   0  3  0  0  0
   89.6020   99.2340  -44.8940 C   0  0  0  0  0
   90.8820   94.5670  -45.8350 C   0  0  0  0  0
   91.6110   94.3260  -43.1650 C   0  0  0  0  0
   91.0980   95.5530  -43.6160 C   0  0  0  0  0
   90.0730  100.3930  -44.0350 C   0  0  0  0  0
   91.3910  100.8890  -44.6110 C   0  0  0  0  0
   93.2610  102.0780  -43.2710 C   0  0  0  0  0
   93.9640  103.3960  -43.5390 C   0  0  0  0  0
   91.5150  103.5180  -44.4200 C   0  0  0  0  0
   90.0580  103.7120  -44.8220 C   0  0  0  0  0
   92.4480   99.7750  -44.4930 C   0  0  0  0  0
   91.9640   98.5780  -45.2900 C   0  0  0  0  0
   92.1580   94.1710  -41.1100 I   0  0  0  0  0
   90.3370   91.1370  -49.8940 C   0  0  0  0  0
   90.3970   91.9600  -50.9680 O   0  0  0  0  0
   89.1960   92.5360  -51.5480 C   0  0  0  0  0
   89.7220   93.4330  -52.6750 C   0  0  0  0  0
   88.4400   93.4270  -50.5530 C   0  0  0  0  0
   88.2930   91.4460  -52.1380 C   0  0  0  0  0
   89.3380   90.6620  -49.3760 O   0  0  0  0  0
   91.1485   89.5630  -47.9246 H   0  0  0  0  0
   92.8527   89.9829  -48.0493 H   0  0  0  0  0
   92.3991   91.2348  -49.9919 H   0  0  0  0  0
   90.7286   97.8994  -43.8108 H   0  0  0  0  0
   91.2385   96.4142  -41.9203 H   0  0  0  0  0
   92.1910   92.2873  -43.6249 H   0  0  0  0  0
   89.0729   96.8804  -45.4268 H   0  0  0  0  0
   90.4849   97.0250  -46.5633 H   0  0  0  0  0
   91.1848  102.0845  -43.0600 H   0  0  0  0  0
   88.6327   98.8776  -44.5454 H   0  0  0  0  0
   89.4923   99.5545  -45.9300 H   0  0  0  0  0
   90.6073   94.6559  -46.8861 H   0  0  0  0  0
   90.2075  100.0702  -43.0026 H   0  0  0  0  0
   89.3326  101.1929  -44.0377 H   0  0  0  0  0
   91.2696  101.1460  -45.6633 H   0  0  0  0  0
   93.8094  101.2654  -43.7474 H   0  0  0  0  0
   93.2185  101.8957  -42.1972 H   0  0  0  0  0
   94.0059  103.5720  -44.6139 H   0  0  0  0  0
   93.4131  104.2045  -43.0584 H   0  0  0  0  0
   94.9761  103.3549  -43.1365 H   0  0  0  0  0
   92.1116  103.6289  -45.3255 H   0  0  0  0  0
   91.7295  104.2498  -43.6412 H   0  0  0  0  0
   89.7912  102.9776  -45.5820 H   0  0  0  0  0
   89.4205  103.5800  -43.9477 H   0  0  0  0  0
   89.9237  104.7167  -45.2228 H   0  0  0  0  0
   92.5868   99.4986  -43.4478 H   0  0  0  0  0
   93.4049  100.1229  -44.8821 H   0  0  0  0  0
   91.8838   98.8577  -46.3404 H   0  0  0  0  0
   92.6742   97.7597  -45.1713 H   0  0  0  0  0
   90.3812   94.1928  -52.2552 H   0  0  0  0  0
   90.2750   92.8265  -53.3923 H   0  0  0  0  0
   88.8824   93.9150  -53.1758 H   0  0  0  0  0
   88.1470   92.8343  -49.6864 H   0  0  0  0  0
   89.0875   94.2438  -50.2340 H   0  0  0  0  0
   87.5505   93.8335  -51.0344 H   0  0  0  0  0
   88.8349   90.9091  -52.9166 H   0  0  0  0  0
   88.0026   90.7508  -51.3503 H   0  0  0  0  0
   87.4019   91.9060  -52.5651 H   0  0  0  0  0
  1  2  1  0  0  0
  1  9  4  0  0  0
 13  1  4  0  0  0
  2  3  3  0  0  0
  3  4  1  0  0  0
  4  5  1  0  0  0
  5 25  1  0  0  0
 10  6  1  0  0  0
  6 13  4  0  0  0
  6 15  4  0  0  0
  7 10  1  0  0  0
 12  7  1  0  0  0
  7 23  1  0  0  0
 15  8  1  0  0  0
 14  9  4  0  0  0
 17 11  1  0  0  0
 11 18  1  0  0  0
 11 20  1  0  0  0
 16 12  1  0  0  0
 15 14  4  0  0  0
 14 24  1  0  0  0
 16 17  1  0  0  0
 17 22  1  0  0  0
 18 19  1  0  0  0
 20 21  1  0  0  0
 22 23  1  0  0  0
 25 26  1  0  0  0
 25 31  2  0  0  0
 26 27  1  0  0  0
 27 28  1  0  0  0
 27 29  1  0  0  0
 27 30  1  0  0  0
  4 32  1  0  0  0
  4 33  1  0  0  0
  5 34  1  0  0  0
  7 35  1  0  0  0
  8 36  1  0  0  0
  9 37  1  0  0  0
 10 38  1  0  0  0
 10 39  1  0  0  0
 11 40  1  0  0  0
 12 41  1  0  0  0
 12 42  1  0  0  0
 13 43  1  0  0  0
 16 44  1  0  0  0
 16 45  1  0  0  0
 17 46  1  0  0  0
 18 47  1  0  0  0
 18 48  1  0  0  0
 19 49  1  0  0  0
 19 50  1  0  0  0
 19 51  1  0  0  0
 20 52  1  0  0  0
 20 53  1  0  0  0
 21 54  1  0  0  0
 21 55  1  0  0  0
 21 56  1  0  0  0
 22 57  1  0  0  0
 22 58  1  0  0  0
 23 59  1  0  0  0
 23 60  1  0  0  0
 28 61  1  0  0  0
 28 62  1  0  0  0
 28 63  1  0  0  0
 29 64  1  0  0  0
 29 65  1  0  0  0
 29 66  1  0  0  0
 30 67  1  0  0  0
 30 68  1  0  0  0
 30 69  1  0  0  0
M  END
$$$$
