4r6t_ligand
  -I-interpret- 

 44 45  0  0  0  0  0  0  0  0999 V2000
   92.2880   71.4320   30.7300 C   0  0  0  0  0
   91.5660   70.3580   31.5500 C   0  0  0  0  0
   92.4210   70.0530   32.7780 C   0  0  0  0  0
   91.4510   69.0500   30.7530 C   0  0  0  0  0
   90.2810   70.8360   32.0230 O   0  0  0  0  0
   89.3050   71.1730   31.1210 C   0  0  0  0  0
   89.4670   70.9960   29.9150 O   0  0  0  0  0
   88.1410   71.7070   31.5490 N   0  0  0  0  0
   87.0760   72.0470   30.5810 C   0  0  0  0  0
   87.1450   73.5090   30.1140 C   0  0  0  0  0
   86.8680   73.7950   28.9520 O   0  0  0  0  0
   87.4970   74.4180   31.0310 N   0  0  0  0  0
   87.5500   75.8140   30.5740 O   0  0  0  0  0
   85.8060   71.7880   31.0920 C   0  0  0  0  0
   85.1630   70.6300   30.6790 C   0  0  0  0  0
   83.8910   70.3340   31.1430 C   0  0  0  0  0
   85.1690   72.6650   31.9650 C   0  0  0  0  0
   83.8920   72.3680   32.4330 C   0  0  0  0  0
   83.2540   71.2000   32.0230 C   0  0  0  0  0
   82.0310   70.9160   32.4620 N   0  0  0  0  0
   81.4890   71.4020   33.4240 N   0  0  0  0  0
   80.2670   70.8900   33.5610 C   0  0  0  0  0
   80.0890   70.0270   32.5730 C   0  0  0  0  0
   81.2120   70.0450   31.8730 C   0  0  0  0  0
   91.6773   71.7010   29.8681 H   0  0  0  0  0
   92.4507   72.3130   31.3508 H   0  0  0  0  0
   93.2478   71.0434   30.3897 H   0  0  0  0  0
   92.5448   70.9614   33.3676 H   0  0  0  0  0
   91.9286   69.2907   33.3818 H   0  0  0  0  0
   93.3977   69.6900   32.4580 H   0  0  0  0  0
   91.0176   68.2766   31.3871 H   0  0  0  0  0
   90.8119   69.2101   29.8847 H   0  0  0  0  0
   92.4422   68.7384   30.4236 H   0  0  0  0  0
   87.9957   71.8766   32.5442 H   0  0  0  0  0
   87.2519   71.4033   29.7192 H   0  0  0  0  0
   87.7160   74.1569   31.9924 H   0  0  0  0  0
   87.8109   76.3791   31.3049 H   0  0  0  0  0
   85.6602   69.9504   29.9869 H   0  0  0  0  0
   83.3905   69.4220   30.8176 H   0  0  0  0  0
   85.6681   73.5810   32.2811 H   0  0  0  0  0
   83.3914   73.0498   33.1205 H   0  0  0  0  0
   79.5472   71.1359   34.3417 H   0  0  0  0  0
   79.2011   69.4259   32.3767 H   0  0  0  0  0
   81.4271   69.4569   30.9808 H   0  0  0  0  0
  1  2  1  0  0  0
  2  3  1  0  0  0
  2  4  1  0  0  0
  2  5  1  0  0  0
  5  6  1  0  0  0
  6  7  2  0  0  0
  6  8  1  0  0  0
  8  9  1  0  0  0
  9 10  1  0  0  0
  9 14  1  0  0  0
 10 11  2  0  0  0
 10 12  1  0  0  0
 12 13  1  0  0  0
 14 15  4  0  0  0
 14 17  4  0  0  0
 15 16  4  0  0  0
 16 19  4  0  0  0
 17 18  4  0  0  0
 18 19  4  0  0  0
 19 20  1  0  0  0
 20 21  4  0  0  0
 20 24  4  0  0  0
 21 22  4  0  0  0
 22 23  4  0  0  0
 23 24  4  0  0  0
  1 25  1  0  0  0
  1 26  1  0  0  0
  1 27  1  0  0  0
  3 28  1  0  0  0
  3 29  1  0  0  0
  3 30  1  0  0  0
  4 31  1  0  0  0
  4 32  1  0  0  0
  4 33  1  0  0  0
  8 34  1  0  0  0
  9 35  1  0  0  0
 12 36  1  0  0  0
 13 37  1  0  0  0
 15 38  1  0  0  0
 16 39  1  0  0  0
 17 40  1  0  0  0
 18 41  1  0  0  0
 22 42  1  0  0  0
 23 43  1  0  0  0
 24 44  1  0  0  0
M  END
$$$$
