4rn6_ligand
  -I-interpret- 

 71 73  0  0  0  0  0  0  0  0999 V2000
   -3.3940    3.4080    6.2250 S   0  0  0  0  0
   -4.0150    4.6840    6.4630 O   0  0  0  0  0
   -4.4040    2.4890    5.7660 O   0  0  0  0  0
   -2.4030    5.9910    9.7330 C   0  0  0  0  0
   -1.1820    5.5740   10.5550 C   0  0  0  0  0
   -1.3410    4.1350   11.0560 C   0  0  0  0  0
   -1.7430    3.2240    9.9110 C   0  0  0  0  0
   -1.5500    1.8470    9.9950 C   0  0  0  0  0
   -1.9220    1.0100    8.9420 C   0  0  0  0  0
   -2.5000    1.4980    7.7690 C   0  0  0  0  0
   -2.7360    2.8610    7.5840 C   0  0  0  0  0
   -2.3560    3.7960    8.6800 C   0  0  0  0  0
   -0.9370    6.5440   11.7050 C   0  0  0  0  0
   -2.5520    5.1310    8.5710 N   0  0  0  0  0
   -2.3080    3.6460    5.0640 N   0  0  0  0  0
   -1.0090    2.9920    5.0190 C   0  0  0  0  0
    0.0200    3.6740    5.8920 C   0  0  0  0  0
   -0.0800    4.8780    6.0640 O   0  0  0  0  0
   -0.5450    2.9200    3.5650 C   0  0  0  0  0
   -0.7020    4.2380    2.8210 C   0  0  0  0  0
    0.6460    4.7750    2.3580 C   0  0  0  0  0
    0.5640    6.2090    2.1530 N   0  0  0  0  0
    1.5870    6.9570    1.7490 C   0  0  0  0  0
    1.3800    7.8550    0.7880 N   0  0  0  0  0
    2.7320    6.8370    2.2660 N   0  0  0  0  0
    1.0200    2.9660    6.4560 N   0  0  0  0  0
    1.2600    1.5520    6.1040 C   0  0  0  0  0
    1.4130    0.6960    7.3740 C   0  0  0  0  0
    2.4390    1.2540    8.3570 C   0  0  0  0  0
    2.0330    2.6840    8.6880 C   0  0  0  0  0
    1.9900    3.5280    7.4140 C   0  0  0  0  0
    2.4410    1.3790    5.1740 C   0  0  0  0  0
    3.0590    2.4000    4.7760 O   0  0  0  0  0
    2.7620    0.2150    4.8220 O   0  0  0  0  0
    2.5540    0.3990    9.6140 C   0  0  0  0  0
   -2.2697    7.0195    9.3976 H   0  0  0  0  0
   -3.2945    5.9046   10.3542 H   0  0  0  0  0
   -0.3039    5.6100    9.9103 H   0  0  0  0  0
   -2.1149    4.1073   11.8231 H   0  0  0  0  0
   -0.3914    3.7932   11.4679 H   0  0  0  0  0
   -1.1038    1.4187   10.8925 H   0  0  0  0  0
   -1.7553   -0.0628    9.0391 H   0  0  0  0  0
   -2.7734    0.7983    6.9792 H   0  0  0  0  0
   -1.7813    6.5098   12.3936 H   0  0  0  0  0
   -0.0258    6.2592   12.2310 H   0  0  0  0  0
   -0.8294    7.5542   11.3099 H   0  0  0  0  0
   -2.8054    5.5351    7.6694 H   0  0  0  0  0
   -2.5438    4.2949    4.3132 H   0  0  0  0  0
   -1.1169    1.9857    5.4238 H   0  0  0  0  0
   -1.1616    2.1782    3.0574 H   0  0  0  0  0
    0.5151    2.6663    3.5683 H   0  0  0  0  0
   -1.1528    4.9660    3.4955 H   0  0  0  0  0
   -1.3284    4.0698    1.9449 H   0  0  0  0  0
    0.9211    4.2934    1.4197 H   0  0  0  0  0
    1.3972    4.5636    3.1190 H   0  0  0  0  0
   -0.3289    6.6697    2.3287 H   0  0  0  0  0
    2.1472    8.4467    0.4690 H   0  0  0  0  0
    0.4542    7.9513    0.3708 H   0  0  0  0  0
    2.8871    6.1559    3.0092 H   0  0  0  0  0
    0.3849    1.2019    5.5565 H   0  0  0  0  0
    1.7545   -0.2924    7.0664 H   0  0  0  0  0
    0.4472    0.6797    7.8791 H   0  0  0  0  0
    3.4288    1.2395    7.9008 H   0  0  0  0  0
    2.7623    3.1122    9.3756 H   0  0  0  0  0
    1.0437    2.6775    9.1456 H   0  0  0  0  0
    1.6869    4.5429    7.6712 H   0  0  0  0  0
    2.9794    3.5302    6.9566 H   0  0  0  0  0
    2.6584    3.1843    5.1580 H   0  0  0  0  0
    1.5873    0.3618   10.1163 H   0  0  0  0  0
    2.8609   -0.6100    9.3387 H   0  0  0  0  0
    3.2957    0.8361   10.2825 H   0  0  0  0  0
  1  2  2  0  0  0
  1  3  2  0  0  0
 11  1  1  0  0  0
  1 15  1  0  0  0
  5  4  1  0  0  0
  4 14  1  0  0  0
  6  5  1  0  0  0
  5 13  1  0  0  0
  7  6  1  0  0  0
  8  7  4  0  0  0
  7 12  4  0  0  0
  9  8  4  0  0  0
 10  9  4  0  0  0
 10 11  4  0  0  0
 11 12  4  0  0  0
 12 14  1  0  0  0
 15 16  1  0  0  0
 16 17  1  0  0  0
 16 19  1  0  0  0
 17 18  2  0  0  0
 17 26  1  0  0  0
 19 20  1  0  0  0
 20 21  1  0  0  0
 21 22  1  0  0  0
 22 23  1  0  0  0
 23 24  1  0  0  0
 23 25  2  0  0  0
 26 27  1  0  0  0
 26 31  1  0  0  0
 27 28  1  0  0  0
 27 32  1  0  0  0
 28 29  1  0  0  0
 29 30  1  0  0  0
 29 35  1  0  0  0
 30 31  1  0  0  0
 32 33  1  0  0  0
 32 34  2  0  0  0
  4 36  1  0  0  0
  4 37  1  0  0  0
  5 38  1  0  0  0
  6 39  1  0  0  0
  6 40  1  0  0  0
  8 41  1  0  0  0
  9 42  1  0  0  0
 10 43  1  0  0  0
 13 44  1  0  0  0
 13 45  1  0  0  0
 13 46  1  0  0  0
 14 47  1  0  0  0
 15 48  1  0  0  0
 16 49  1  0  0  0
 19 50  1  0  0  0
 19 51  1  0  0  0
 20 52  1  0  0  0
 20 53  1  0  0  0
 21 54  1  0  0  0
 21 55  1  0  0  0
 22 56  1  0  0  0
 24 57  1  0  0  0
 24 58  1  0  0  0
 25 59  1  0  0  0
 27 60  1  0  0  0
 28 61  1  0  0  0
 28 62  1  0  0  0
 29 63  1  0  0  0
 30 64  1  0  0  0
 30 65  1  0  0  0
 31 66  1  0  0  0
 31 67  1  0  0  0
 33 68  1  0  0  0
 35 69  1  0  0  0
 35 70  1  0  0  0
 35 71  1  0  0  0
M  END
$$$$
