3rtn_ligand
  -I-interpret- 

 58 61  0  0  0  0  0  0  0  0999 V2000
   68.2660   49.4580    8.9700 C   0  0  0  0  0
   68.3570   48.3380    9.8160 C   0  0  0  0  0
   69.1840   48.3990   10.9570 C   0  0  0  0  0
   66.7800   48.3550    7.5360 C   0  0  0  0  0
   67.6320   47.1810    9.4810 C   0  0  0  0  0
   71.0530   50.8320   14.4590 C   0  0  0  0  0
   72.6270   49.1450   13.7630 C   0  0  0  0  0
   72.4430   47.8850   11.6280 C   0  0  0  0  0
   64.4060   46.8170    9.7580 C   0  0  0  0  0
   64.3080   49.2000   10.6720 C   0  0  0  0  0
   63.1430   51.0900   11.5940 C   0  0  0  0  0
   65.3170   50.2600   12.7070 C   0  0  0  0  0
   62.9310   49.6690   11.0700 C   0  0  0  0  0
   64.0640   51.1210   12.8400 C   0  0  0  0  0
   65.0620   48.9120   11.9700 C   0  0  0  0  0
   64.3560   48.1400    9.6230 N   0  0  0  0  0
   64.3060   46.2170   10.8170 O   0  0  0  0  0
   64.5660   46.0460    8.4450 C   0  0  0  0  0
   66.0270   45.9090    7.9980 C   0  0  0  0  0
   66.8270   47.1830    8.3220 C   0  0  0  0  0
   67.4950   49.4310    7.8780 N   0  0  0  0  0
   66.0450   48.4420    6.4240 N   0  0  0  0  0
   68.9670   50.6220    9.2550 C   0  0  0  0  0
   69.7770   50.6690   10.3830 C   0  0  0  0  0
   69.9090   49.5660   11.2300 C   0  0  0  0  0
   70.7220   49.6940   12.3560 C   0  0  0  0  0
   70.3150   50.6400   13.2970 C   0  0  0  0  0
   72.2070   50.0900   14.6820 C   0  0  0  0  0
   71.8940   48.9500   12.5950 C   0  0  0  0  0
   69.2587   47.5405   11.6244 H   0  0  0  0  0
   67.6910   46.2924   10.1095 H   0  0  0  0  0
   70.7264   51.5653   15.1963 H   0  0  0  0  0
   73.5253   48.5572   13.9518 H   0  0  0  0  0
   73.4484   48.1652   11.3137 H   0  0  0  0  0
   72.4746   46.9195   12.1328 H   0  0  0  0  0
   71.7933   47.8190   10.7553 H   0  0  0  0  0
   64.8265   49.9864   10.1235 H   0  0  0  0  0
   62.1722   51.4955   11.8788 H   0  0  0  0  0
   63.6172   51.6755   10.8063 H   0  0  0  0  0
   65.6639   50.0251   13.7133 H   0  0  0  0  0
   66.0435   50.8235   12.1216 H   0  0  0  0  0
   62.4815   49.0205   11.8220 H   0  0  0  0  0
   62.2342   49.6436   10.2322 H   0  0  0  0  0
   63.4883   50.7271   13.6776 H   0  0  0  0  0
   64.3925   52.1517   12.9738 H   0  0  0  0  0
   66.0117   48.4258   11.7471 H   0  0  0  0  0
   64.4715   48.2494   12.6027 H   0  0  0  0  0
   64.3495   48.4792    8.6611 H   0  0  0  0  0
   64.0344   46.5990    7.6706 H   0  0  0  0  0
   64.1734   45.0414    8.6022 H   0  0  0  0  0
   66.0485   45.7482    6.9201 H   0  0  0  0  0
   66.4770   45.0700    8.5287 H   0  0  0  0  0
   65.4908   47.6433    6.1152 H   0  0  0  0  0
   66.0380   49.3071    5.8837 H   0  0  0  0  0
   68.8828   51.4898    8.6008 H   0  0  0  0  0
   70.3207   51.5856   10.6117 H   0  0  0  0  0
   69.4158   51.2302   13.1205 H   0  0  0  0  0
   72.7869   50.2543   15.5902 H   0  0  0  0  0
  2  1  4  0  0  0
  1 21  4  0  0  0
 23  1  4  0  0  0
  3  2  4  0  0  0
  2  5  4  0  0  0
 25  3  4  0  0  0
 20  4  4  0  0  0
 21  4  4  0  0  0
  4 22  1  0  0  0
  5 20  4  0  0  0
 27  6  4  0  0  0
  6 28  4  0  0  0
 28  7  4  0  0  0
  7 29  4  0  0  0
 29  8  1  0  0  0
  9 16  1  0  0  0
  9 17  2  0  0  0
 18  9  1  0  0  0
 10 13  1  0  0  0
 10 15  1  0  0  0
 16 10  1  0  0  0
 13 11  1  0  0  0
 11 14  1  0  0  0
 12 14  1  0  0  0
 15 12  1  0  0  0
 19 18  1  0  0  0
 20 19  1  0  0  0
 24 23  4  0  0  0
 25 24  4  0  0  0
 26 25  1  0  0  0
 26 27  4  0  0  0
 26 29  4  0  0  0
  3 30  1  0  0  0
  5 31  1  0  0  0
  6 32  1  0  0  0
  7 33  1  0  0  0
  8 34  1  0  0  0
  8 35  1  0  0  0
  8 36  1  0  0  0
 10 37  1  0  0  0
 11 38  1  0  0  0
 11 39  1  0  0  0
 12 40  1  0  0  0
 12 41  1  0  0  0
 13 42  1  0  0  0
 13 43  1  0  0  0
 14 44  1  0  0  0
 14 45  1  0  0  0
 15 46  1  0  0  0
 15 47  1  0  0  0
 16 48  1  0  0  0
 18 49  1  0  0  0
 18 50  1  0  0  0
 19 51  1  0  0  0
 19 52  1  0  0  0
 22 53  1  0  0  0
 22 54  1  0  0  0
 23 55  1  0  0  0
 24 56  1  0  0  0
 27 57  1  0  0  0
 28 58  1  0  0  0
M  END
$$$$
