3wke_ligand
  -I-interpret- 

 62 66  0  0  0  0  0  0  0  0999 V2000
  -16.6670   -9.3110   73.4410 C   0  0  0  0  0
  -15.8340  -11.5260   73.8560 C   0  0  0  0  0
  -16.9020   -9.6390   72.1250 C   0  0  0  0  0
  -16.0810  -11.8400   72.5400 C   0  0  0  0  0
  -16.1360  -10.2550   74.2870 C   0  0  0  0  0
  -16.6120  -10.9070   71.6780 C   0  0  0  0  0
  -15.9070   -9.8750   75.6790 C   0  0  0  0  0
  -17.2640   -8.0950   64.6590 C   0  0  0  0  0
  -18.3770  -10.2340   67.1550 C   0  0  0  0  0
  -16.6450   -8.5750   67.9110 C   0  0  0  0  0
  -18.0760  -11.0650   68.3860 C   0  0  0  0  0
  -16.1680   -9.5730   68.9280 C   0  0  0  0  0
  -17.3460   -5.5350   60.0040 C   0  0  0  0  0
  -15.1610   -6.5300   60.6020 C   0  0  0  0  0
  -15.7210   -4.2540   61.3890 C   0  0  0  0  0
  -17.2850   -7.4250   61.6060 C   0  0  0  0  0
  -17.8590   -5.1710   62.4020 C   0  0  0  0  0
  -15.6550   -6.1510   62.9980 C   0  0  0  0  0
  -16.6370   -6.8370   60.3480 C   0  0  0  0  0
  -17.2010   -4.5660   61.1620 C   0  0  0  0  0
  -15.0070   -5.5460   61.7530 C   0  0  0  0  0
  -17.2640   -9.2950   66.7300 C   0  0  0  0  0
  -17.3420  -10.3250   69.5020 C   0  0  0  0  0
  -17.1440   -6.4560   62.7770 C   0  0  0  0  0
  -17.8250   -8.2860   65.8790 N   0  0  0  0  0
  -17.7500   -6.9930   63.9800 N   0  0  0  0  0
  -16.4410   -8.9120   76.2100 O   0  0  0  0  0
  -16.4160   -8.8640   64.2500 O   0  0  0  0  0
  -15.0670  -10.7810   76.2380 O   0  0  0  0  0
  -16.8120  -11.3220   70.3730 O   0  0  0  0  0
  -16.8999   -8.3117   73.8088 H   0  0  0  0  0
  -15.4109  -12.2634   74.5382 H   0  0  0  0  0
  -17.3156   -8.8980   71.4409 H   0  0  0  0  0
  -15.8532  -12.8413   72.1744 H   0  0  0  0  0
  -19.2389   -9.6123   67.3972 H   0  0  0  0  0
  -18.5313  -10.9327   66.3328 H   0  0  0  0  0
  -15.7982   -7.9817   67.5659 H   0  0  0  0  0
  -17.3925   -7.9265   68.3678 H   0  0  0  0  0
  -17.4234  -11.8769   68.0652 H   0  0  0  0  0
  -19.0361  -11.3790   68.7956 H   0  0  0  0  0
  -15.6511   -9.0477   69.7311 H   0  0  0  0  0
  -15.4901  -10.2786   68.4477 H   0  0  0  0  0
  -18.4026   -5.7313   59.8218 H   0  0  0  0  0
  -16.9014   -5.1025   59.1077 H   0  0  0  0  0
  -14.7326   -6.0894   59.7018 H   0  0  0  0  0
  -14.6474   -7.4564   60.8591 H   0  0  0  0  0
  -15.6127   -3.5287   62.1954 H   0  0  0  0  0
  -15.2864   -3.8307   60.4834 H   0  0  0  0  0
  -16.7879   -8.3619   61.8576 H   0  0  0  0  0
  -18.3437   -7.5983   61.4131 H   0  0  0  0  0
  -18.9062   -5.3862   62.1896 H   0  0  0  0  0
  -17.7945   -4.4642   63.2293 H   0  0  0  0  0
  -15.5705   -5.4308   63.8118 H   0  0  0  0  0
  -15.1449   -7.0862   63.2289 H   0  0  0  0  0
  -16.7191   -7.5568   59.5336 H   0  0  0  0  0
  -17.7019   -3.6238   60.9394 H   0  0  0  0  0
  -13.9535   -5.3421   61.9447 H   0  0  0  0  0
  -16.4997   -9.8921   66.2326 H   0  0  0  0  0
  -18.0173   -9.6343   70.0070 H   0  0  0  0  0
  -18.6230   -7.7280   66.1826 H   0  0  0  0  0
  -18.5825   -6.5313   64.3463 H   0  0  0  0  0
  -14.8072  -11.4258   75.5760 H   0  0  0  0  0
  3  1  4  0  0  0
  1  5  4  0  0  0
  4  2  4  0  0  0
  2  5  4  0  0  0
  6  3  4  0  0  0
  6  4  4  0  0  0
  5  7  1  0  0  0
 30  6  1  0  0  0
  7 27  2  0  0  0
  7 29  1  0  0  0
  8 25  1  0  0  0
 26  8  1  0  0  0
  8 28  2  0  0  0
  9 11  1  0  0  0
 22  9  1  0  0  0
 10 12  1  0  0  0
 22 10  1  0  0  0
 11 23  1  0  0  0
 12 23  1  0  0  0
 19 13  1  0  0  0
 20 13  1  0  0  0
 19 14  1  0  0  0
 21 14  1  0  0  0
 20 15  1  0  0  0
 21 15  1  0  0  0
 16 19  1  0  0  0
 24 16  1  0  0  0
 17 20  1  0  0  0
 24 17  1  0  0  0
 18 21  1  0  0  0
 24 18  1  0  0  0
 25 22  1  0  0  0
 23 30  1  0  0  0
 24 26  1  0  0  0
  1 31  1  0  0  0
  2 32  1  0  0  0
  3 33  1  0  0  0
  4 34  1  0  0  0
  9 35  1  0  0  0
  9 36  1  0  0  0
 10 37  1  0  0  0
 10 38  1  0  0  0
 11 39  1  0  0  0
 11 40  1  0  0  0
 12 41  1  0  0  0
 12 42  1  0  0  0
 13 43  1  0  0  0
 13 44  1  0  0  0
 14 45  1  0  0  0
 14 46  1  0  0  0
 15 47  1  0  0  0
 15 48  1  0  0  0
 16 49  1  0  0  0
 16 50  1  0  0  0
 17 51  1  0  0  0
 17 52  1  0  0  0
 18 53  1  0  0  0
 18 54  1  0  0  0
 19 55  1  0  0  0
 20 56  1  0  0  0
 21 57  1  0  0  0
 22 58  1  0  0  0
 23 59  1  0  0  0
 25 60  1  0  0  0
 26 61  1  0  0  0
 29 62  1  0  0  0
M  END
$$$$
