4kpx_ligand
  -I-interpret- 

 42 44  0  0  0  0  0  0  0  0999 V2000
   -5.8050   20.2050   65.3490 C   0  0  0  0  0
   -5.4630   18.8690   65.4320 C   0  0  0  0  0
   -5.7630   18.1750   66.5850 C   0  0  0  0  0
   -6.3790   18.7250   67.6410 N   0  0  0  0  0
   -6.6910   20.0290   67.5280 C   0  0  0  0  0
   -6.4340   20.8100   66.4200 C   0  0  0  0  0
   -7.3710   20.6320   68.6940 C   0  0  0  0  0
   -7.9710   19.9090   69.4900 O   0  0  0  0  0
   -7.2150   22.0060   68.7770 N   0  0  0  0  0
   -7.9000   22.8130   69.7100 C   0  0  0  0  0
   -8.2850   24.0770   69.3010 C   0  0  0  0  0
   -8.9590   24.8950   70.1850 C   0  0  0  0  0
   -9.2480   24.4830   71.4750 C   0  0  0  0  0
   -8.8150   23.2430   71.8930 C   0  0  0  0  0
   -8.1520   22.4100   71.0110 C   0  0  0  0  0
   -9.9530   25.3080   72.3750 N   0  0  0  0  0
  -10.9060   26.2490   72.0010 C   0  0  0  0  0
  -11.2380   26.4960   70.8530 O   0  0  0  0  0
  -11.5240   27.0460   73.0850 C   0  0  0  0  0
  -12.3340   28.1280   72.7650 C   0  0  0  0  0
  -12.9290   28.8730   73.7640 C   0  0  0  0  0
  -12.6840   28.5370   75.0810 C   0  0  0  0  0
  -11.8740   27.4630   75.3990 C   0  0  0  0  0
  -11.2930   26.7070   74.4010 C   0  0  0  0  0
  -11.6240   27.0560   76.7770 N   0  0  0  0  0
  -12.5450   27.1060   77.5870 O   0  0  0  0  0
  -10.5000   26.6430   77.0640 O   0  0  0  0  0
  -13.2930   29.2700   76.0690 O   0  0  0  0  0
   -5.5809   20.7758   64.4479 H   0  0  0  0  0
   -4.9644   18.3719   64.5999 H   0  0  0  0  0
   -5.4844   17.1227   66.6409 H   0  0  0  0  0
   -6.7160   21.8625   66.3908 H   0  0  0  0  0
   -6.5704   22.4586   68.1289 H   0  0  0  0  0
   -8.0588   24.4230   68.2924 H   0  0  0  0  0
   -9.2708   25.8877   69.8604 H   0  0  0  0  0
   -8.9952   22.9194   72.9181 H   0  0  0  0  0
   -7.8239   21.4251   71.3432 H   0  0  0  0  0
   -9.7499   25.2077   73.3695 H   0  0  0  0  0
  -12.5008   28.3904   71.7203 H   0  0  0  0  0
  -13.5805   29.7114   73.5175 H   0  0  0  0  0
  -10.6609   25.8546   74.6498 H   0  0  0  0  0
  -13.0332   28.9266   76.9270 H   0  0  0  0  0
  1  2  4  0  0  0
  1  6  4  0  0  0
  2  3  4  0  0  0
  3  4  4  0  0  0
  4  5  4  0  0  0
  5  6  4  0  0  0
  5  7  1  0  0  0
  7  8  2  0  0  0
  7  9  1  0  0  0
  9 10  1  0  0  0
 10 11  4  0  0  0
 10 15  4  0  0  0
 11 12  4  0  0  0
 12 13  4  0  0  0
 13 14  4  0  0  0
 13 16  1  0  0  0
 14 15  4  0  0  0
 16 17  1  0  0  0
 17 18  2  0  0  0
 17 19  1  0  0  0
 19 20  4  0  0  0
 19 24  4  0  0  0
 20 21  4  0  0  0
 21 22  4  0  0  0
 22 23  4  0  0  0
 22 28  1  0  0  0
 23 24  4  0  0  0
 23 25  1  0  0  0
 25 26  2  0  0  0
 25 27  2  0  0  0
  1 29  1  0  0  0
  2 30  1  0  0  0
  3 31  1  0  0  0
  6 32  1  0  0  0
  9 33  1  0  0  0
 11 34  1  0  0  0
 12 35  1  0  0  0
 14 36  1  0  0  0
 15 37  1  0  0  0
 16 38  1  0  0  0
 20 39  1  0  0  0
 21 40  1  0  0  0
 24 41  1  0  0  0
 28 42  1  0  0  0
M  END
$$$$
