6n5g_ligand
  -I-interpret- 

 53 56  0  0  0  0  0  0  0  0999 V2000
   10.8460   84.6310  108.1160 C   0  0  0  0  0
    7.6870   89.3190  102.5010 C   0  0  0  0  0
    4.8580   90.3260  100.4090 C   0  0  0  0  0
    3.5830   90.8010  100.7360 C   0  0  0  0  0
    1.5460   89.4960   98.0170 C   0  0  0  0  0
    2.9150   88.2520   96.4660 C   0  0  0  0  0
    3.9200   89.2880   98.4350 C   0  0  0  0  0
    6.6180   85.7670  105.6040 O   0  0  0  0  0
    7.4230   86.5340  105.1940 C   0  0  0  0  0
    8.8380   86.4180  105.5190 N   0  0  0  0  0
    9.3900   85.3570  106.3510 C   0  0  0  0  0
    9.0160   84.0460  106.1120 C   0  0  0  0  0
    9.5420   83.0250  106.8810 C   0  0  0  0  0
   10.4540   83.3230  107.8780 C   0  0  0  0  0
   10.9900   82.2870  108.6410 O   0  0  0  0  0
   12.2890   81.9620  108.2400 C   0  0  0  0  0
   12.5190   82.4670  106.9920 F   0  0  0  0  0
   13.1770   82.4920  109.1310 F   0  0  0  0  0
   12.4340   80.6090  108.1920 F   0  0  0  0  0
   10.3140   85.6490  107.3430 C   0  0  0  0  0
    7.0200   87.6280  104.3270 N   0  0  0  0  0
    8.0320   88.6160  103.8090 C   0  0  0  0  0
    6.2830   89.7670  102.5160 C   0  0  0  0  0
    6.0560   90.6740  101.3020 C   0  0  0  0  0
    2.5530   90.5090   99.9520 N   0  0  0  0  0
    2.7010   89.7670   98.8150 C   0  0  0  0  0
    1.6660   88.7430   96.8550 C   0  0  0  0  0
    4.0430   88.5160   97.2420 C   0  0  0  0  0
    5.0570   89.5760   99.2510 C   0  0  0  0  0
    5.4100   88.5770  102.5650 C   0  0  0  0  0
    5.5930   87.8810  103.9140 C   0  0  0  0  0
   11.5655   84.8558  108.9034 H   0  0  0  0  0
    7.8296   88.6229  101.6745 H   0  0  0  0  0
    8.3361   90.1864  102.3812 H   0  0  0  0  0
    3.4367   91.4075  101.6298 H   0  0  0  0  0
    0.5718   89.8798   98.3198 H   0  0  0  0  0
    3.0077   87.6616   95.5544 H   0  0  0  0  0
    9.4777   87.1181  105.1435 H   0  0  0  0  0
    8.3061   83.8185  105.3167 H   0  0  0  0  0
    9.2406   81.9927  106.7033 H   0  0  0  0  0
   10.6216   86.6806  107.5143 H   0  0  0  0  0
    8.1031   89.3994  104.5635 H   0  0  0  0  0
    8.9399   88.0449  103.6148 H   0  0  0  0  0
    6.0387   90.3602  103.3972 H   0  0  0  0  0
    5.8596   91.6699  101.6993 H   0  0  0  0  0
    6.9420   90.5706  100.6756 H   0  0  0  0  0
    0.7855   88.5354   96.2469 H   0  0  0  0  0
    5.0170   88.1331   96.9375 H   0  0  0  0  0
    6.0499   89.2200   98.9763 H   0  0  0  0  0
    5.6756   87.8927  101.7592 H   0  0  0  0  0
    4.3696   88.8791  102.4453 H   0  0  0  0  0
    5.1660   88.5450  104.6656 H   0  0  0  0  0
    5.1183   86.9038  103.8254 H   0  0  0  0  0
  1 14  4  0  0  0
 20  1  4  0  0  0
  2 22  1  0  0  0
 23  2  1  0  0  0
  3  4  4  0  0  0
 24  3  1  0  0  0
  3 29  4  0  0  0
  4 25  4  0  0  0
 26  5  4  0  0  0
  5 27  4  0  0  0
  6 27  4  0  0  0
 28  6  4  0  0  0
  7 26  4  0  0  0
  7 28  4  0  0  0
 29  7  4  0  0  0
  9  8  2  0  0  0
  9 10  1  0  0  0
 21  9  1  0  0  0
 10 11  1  0  0  0
 11 12  4  0  0  0
 11 20  4  0  0  0
 12 13  4  0  0  0
 13 14  4  0  0  0
 14 15  1  0  0  0
 15 16  1  0  0  0
 16 17  1  0  0  0
 16 18  1  0  0  0
 16 19  1  0  0  0
 22 21  1  0  0  0
 21 31  1  0  0  0
 23 24  1  0  0  0
 23 30  1  0  0  0
 25 26  4  0  0  0
 30 31  1  0  0  0
  1 32  1  0  0  0
  2 33  1  0  0  0
  2 34  1  0  0  0
  4 35  1  0  0  0
  5 36  1  0  0  0
  6 37  1  0  0  0
 10 38  1  0  0  0
 12 39  1  0  0  0
 13 40  1  0  0  0
 20 41  1  0  0  0
 22 42  1  0  0  0
 22 43  1  0  0  0
 23 44  1  0  0  0
 24 45  1  0  0  0
 24 46  1  0  0  0
 27 47  1  0  0  0
 28 48  1  0  0  0
 29 49  1  0  0  0
 30 50  1  0  0  0
 30 51  1  0  0  0
 31 52  1  0  0  0
 31 53  1  0  0  0
M  END
$$$$
