5j5t_ligand
  -I-interpret- 

 48 51  0  0  0  0  0  0  0  0999 V2000
   20.1890   -9.0500   15.3710 C   0  0  0  0  0
   17.9350   -8.7470   14.7120 C   0  0  0  0  0
   18.3330   -8.4620   13.4100 C   0  0  0  0  0
   13.7470   -6.1240   10.3840 C   0  0  0  0  0
   19.6850   -8.4880   13.0770 C   0  0  0  0  0
   20.6110   -8.7760   14.0760 C   0  0  0  0  0
   22.3280   -8.5530   12.5110 C   0  0  0  0  0
   23.6970   -8.7620   12.3630 C   0  0  0  0  0
   24.3380   -8.3960   11.1840 C   0  0  0  0  0
   18.8890   -9.0360   15.6950 N   0  0  0  0  0
   21.1400   -9.3210   16.2620 N   0  0  0  0  0
   12.9950   -8.0890   11.6810 C   0  0  0  0  0
   17.4120   -8.1940   12.4870 C   0  0  0  0  0
   16.5450   -7.6400   10.4970 N   0  0  0  0  0
   14.0130   -7.5930   10.6670 C   0  0  0  0  0
   15.4230   -7.7790   11.2110 C   0  0  0  0  0
   17.6630   -7.8680   11.2150 C   0  0  0  0  0
   11.3470   -6.4700   10.8220 N   0  3  0  0  0
   11.6020   -7.8900   11.1070 C   0  0  0  0  0
   26.4380   -9.1940   12.0740 N   0  0  0  0  0
   12.3330   -5.9800    9.8440 C   0  0  0  0  0
   15.7920   -8.1920   12.7480 S   0  0  0  0  0
   21.9570   -8.8300   13.8670 O   0  0  0  0  0
   25.7050   -8.6080   11.0360 C   0  0  0  0  0
   25.7900   -9.5630   13.2580 C   0  0  0  0  0
   24.4230   -9.3470   13.3950 C   0  0  0  0  0
   16.8755   -8.7453   14.9681 H   0  0  0  0  0
   14.4630   -5.7525    9.6509 H   0  0  0  0  0
   13.8539   -5.5449   11.3012 H   0  0  0  0  0
   20.0111   -8.2872   12.0565 H   0  0  0  0  0
   21.7808   -9.2134   11.8383 H   0  0  0  0  0
   22.0860   -7.5183   12.2680 H   0  0  0  0  0
   23.7676   -7.9418   10.3738 H   0  0  0  0  0
   22.1198   -9.3200   15.9784 H   0  0  0  0  0
   20.8890   -9.5297   17.2283 H   0  0  0  0  0
   13.0960   -7.5307   12.6117 H   0  0  0  0  0
   13.1631   -9.1457   11.8891 H   0  0  0  0  0
   13.9235   -8.1644    9.7431 H   0  0  0  0  0
   18.6686   -7.7941   10.8009 H   0  0  0  0  0
   11.4268   -5.9308   11.6842 H   0  0  0  0  0
   10.4074   -6.3637   10.4396 H   0  0  0  0  0
   10.8704   -8.2370   11.8367 H   0  0  0  0  0
   11.5235   -8.4528   10.1768 H   0  0  0  0  0
   12.2441   -6.5681    8.9306 H   0  0  0  0  0
   12.1380   -4.9259    9.6464 H   0  0  0  0  0
   26.2048   -8.3178   10.1119 H   0  0  0  0  0
   26.3553  -10.0186   14.0710 H   0  0  0  0  0
   23.9179   -9.6377   14.3161 H   0  0  0  0  0
  6  1  4  0  0  0
 10  1  4  0  0  0
  1 11  1  0  0  0
  3  2  4  0  0  0
  2 10  4  0  0  0
  3  5  4  0  0  0
 13  3  1  0  0  0
 15  4  1  0  0  0
  4 21  1  0  0  0
  5  6  4  0  0  0
  6 23  1  0  0  0
  7  8  1  0  0  0
 23  7  1  0  0  0
  8  9  4  0  0  0
  8 26  4  0  0  0
  9 24  4  0  0  0
 15 12  1  0  0  0
 12 19  1  0  0  0
 17 13  4  0  0  0
 13 22  4  0  0  0
 16 14  4  0  0  0
 14 17  4  0  0  0
 15 16  1  0  0  0
 16 22  4  0  0  0
 19 18  1  0  0  0
 18 21  1  0  0  0
 24 20  4  0  0  0
 20 25  4  0  0  0
 25 26  4  0  0  0
  2 27  1  0  0  0
  4 28  1  0  0  0
  4 29  1  0  0  0
  5 30  1  0  0  0
  7 31  1  0  0  0
  7 32  1  0  0  0
  9 33  1  0  0  0
 11 34  1  0  0  0
 11 35  1  0  0  0
 12 36  1  0  0  0
 12 37  1  0  0  0
 15 38  1  0  0  0
 17 39  1  0  0  0
 18 40  1  0  0  0
 18 41  1  0  0  0
 19 42  1  0  0  0
 19 43  1  0  0  0
 21 44  1  0  0  0
 21 45  1  0  0  0
 24 46  1  0  0  0
 25 47  1  0  0  0
 26 48  1  0  0  0
M  END
$$$$
