6b2q_ligand
  -I-interpret- 

 37 40  0  0  0  0  0  0  0  0999 V2000
  -20.0220  -38.7740  -11.8110 C   0  0  0  0  0
  -19.8400  -37.6700  -10.8570 C   0  0  0  0  0
  -20.5290  -36.3200   -9.1060 C   0  0  0  0  0
  -18.4090  -35.9630  -10.1890 C   0  0  0  0  0
  -17.2090  -35.2680  -10.3180 N   0  0  0  0  0
  -16.2160  -35.5660  -11.2700 C   0  0  0  0  0
  -14.9120  -36.6240  -12.7430 C   0  0  0  0  0
  -15.1390  -38.7940  -14.1920 C   0  0  0  0  0
  -14.7460  -37.6180  -15.0880 C   0  0  0  0  0
  -21.0850  -39.5890  -11.9470 C   0  0  0  0  0
  -20.9500  -40.5350  -12.9440 C   0  0  0  0  0
  -19.7950  -40.5050  -13.6310 C   0  0  0  0  0
  -18.8090  -39.1910  -13.0090 S   0  0  0  0  0
  -20.7380  -37.3550   -9.9210 N   0  0  0  0  0
  -19.3410  -35.5940   -9.2090 C   0  0  0  0  0
  -18.7060  -36.9910  -10.9740 N   0  0  0  0  0
  -15.9790  -36.7840  -11.9310 C   0  0  0  0  0
  -14.4730  -35.3590  -12.6080 N   0  0  0  0  0
  -15.2980  -34.7260  -11.6760 N   0  0  0  0  0
  -14.2830  -37.6560  -13.6370 C   0  0  0  0  0
  -18.9740  -34.2720   -8.1410 Cl  0  0  0  0  0
  -19.3290  -41.5720  -14.9720 S   0  0  0  0  0
  -18.9650  -42.8500  -14.4390 O   0  0  0  0  0
  -20.3440  -41.4010  -15.9600 O   0  0  0  0  0
  -17.9340  -40.9390  -15.6240 N   0  0  0  0  0
  -21.2796  -36.0433   -8.3656 H   0  0  0  0  0
  -17.0383  -34.4909   -9.6798 H   0  0  0  0  0
  -15.1347  -39.8836  -14.2211 H   0  0  0  0  0
  -16.0338  -39.3539  -13.9203 H   0  0  0  0  0
  -15.2233  -36.9194  -15.7752 H   0  0  0  0  0
  -14.3199  -37.4515  -16.0774 H   0  0  0  0  0
  -21.9756  -39.5090  -11.3237 H   0  0  0  0  0
  -21.7327  -41.2620  -13.1607 H   0  0  0  0  0
  -16.5571  -37.7000  -11.8090 H   0  0  0  0  0
  -13.3331  -37.6314  -13.1030 H   0  0  0  0  0
  -17.0640  -41.4695  -15.5798 H   0  0  0  0  0
  -17.9494  -40.0207  -16.0676 H   0  0  0  0  0
  2  1  1  0  0  0
  1 10  4  0  0  0
  1 13  4  0  0  0
  2 14  4  0  0  0
 16  2  4  0  0  0
  3 14  4  0  0  0
 15  3  4  0  0  0
  5  4  1  0  0  0
  4 15  4  0  0  0
  4 16  4  0  0  0
  6  5  1  0  0  0
 17  6  4  0  0  0
  6 19  4  0  0  0
  7 17  4  0  0  0
  7 18  4  0  0  0
 20  7  1  0  0  0
  8  9  1  0  0  0
  8 20  1  0  0  0
  9 20  1  0  0  0
 10 11  4  0  0  0
 11 12  4  0  0  0
 12 13  4  0  0  0
 12 22  1  0  0  0
 15 21  1  0  0  0
 18 19  4  0  0  0
 22 23  2  0  0  0
 22 24  2  0  0  0
 22 25  1  0  0  0
  3 26  1  0  0  0
  5 27  1  0  0  0
  8 28  1  0  0  0
  8 29  1  0  0  0
  9 30  1  0  0  0
  9 31  1  0  0  0
 10 32  1  0  0  0
 11 33  1  0  0  0
 17 34  1  0  0  0
 20 35  1  0  0  0
 25 36  1  0  0  0
 25 37  1  0  0  0
M  END
$$$$
