6ghv_ligand
  -I-interpret- 

100104  0  0  0  0  0  0  0  0999 V2000
   11.4820   -6.7100   15.9630 C   0  0  0  0  0
   12.5630   -7.7870   15.8360 C   0  0  0  0  0
   13.2200   -7.8910   17.1570 C   0  0  0  0  0
    9.2190   -8.5590   15.6040 N   0  0  0  0  0
   10.5880   -6.7520   14.7220 C   0  0  0  0  0
    8.6740  -14.3110    9.1070 C   0  0  0  0  0
    8.3100  -15.4570    9.8090 C   0  0  0  0  0
    9.2350  -16.3920   10.2060 C   0  0  0  0  0
    8.7800  -17.4910   10.9270 C   0  0  0  0  0
    9.3270  -18.6960   10.4140 O   0  0  0  0  0
   10.5770  -16.1520    9.9060 C   0  0  0  0  0
   10.9570  -15.0000    9.1950 C   0  0  0  0  0
   10.0090  -14.0480    8.8040 C   0  0  0  0  0
   10.3310  -12.8900    8.1140 C   0  0  0  0  0
   11.0140  -11.9370    9.0310 N   0  0  0  0  0
   10.4300  -10.9210    9.7360 C   0  0  0  0  0
    9.2130  -10.6670    9.7030 O   0  0  0  0  0
   11.3980  -10.0730   10.6010 C   0  0  0  0  0
   11.8250  -10.8430   11.7670 C   0  0  0  0  0
   12.6470   -9.5630    9.8360 C   0  0  0  0  0
   12.1970   -8.6890    8.6660 C   0  0  0  0  0
   11.4540   -7.7420    8.8980 O   0  0  0  0  0
   12.7070   -8.9120    7.4200 N   0  0  0  0  0
   12.2370   -8.0920    6.2600 C   0  0  0  0  0
   13.0790   -7.0150    5.8860 C   0  0  0  0  0
   13.9050   -6.3660    6.8040 C   0  0  0  0  0
   14.7570   -5.3240    6.4190 C   0  0  0  0  0
   14.7970   -4.9050    5.0990 C   0  0  0  0  0
   15.6850   -3.8800    4.7250 C   0  0  0  0  0
   14.9490   -2.7060    4.4530 O   0  0  0  0  0
   13.9740   -5.5590    4.1580 C   0  0  0  0  0
   13.1270   -6.5930    4.5510 C   0  0  0  0  0
   13.4270   -8.6610   10.6770 C   0  0  0  0  0
   13.8750   -9.3340   11.9180 C   0  0  0  0  0
   14.9170  -10.3600   11.6640 O   0  0  0  0  0
   15.8010  -10.4280   12.7700 C   0  0  0  0  0
   16.4980  -11.7920   12.7230 C   0  0  0  0  0
   15.3460  -13.1170   12.2620 Cl  0  0  0  0  0
   12.6430   -9.9420   12.6790 C   0  0  0  0  0
   11.8370   -8.8730   13.1520 O   0  0  0  0  0
   11.1330   -9.1320   14.4210 C   0  0  0  0  0
   11.9720   -9.0640   15.5830 O   0  0  0  0  0
   14.4420   -8.5160   16.8530 O   0  0  0  0  0
   12.0710   -5.4250   16.0840 O   0  0  0  0  0
    9.5950   -5.8180   14.9150 O   0  0  0  0  0
   10.0070   -8.1570   14.5240 C   0  0  0  0  0
    8.0010   -8.9750   15.3200 C   0  0  0  0  0
    9.3810   -8.6440   16.9170 N   0  0  0  0  0
    8.2720   -9.1180   17.4550 N   0  0  0  0  0
    7.4110   -9.3160   16.4560 C   0  0  0  0  0
    5.9860   -9.8620   16.4980 C   0  0  0  0  0
    5.3060   -9.3620   17.6900 N   0  3  0  0  0
   10.8887   -6.9033   16.8567 H   0  0  0  0  0
   13.2456   -7.5240   15.0280 H   0  0  0  0  0
   12.6276   -8.4505   17.8810 H   0  0  0  0  0
   13.3491   -6.9236   17.6423 H   0  0  0  0  0
   11.1542   -6.5209   13.8197 H   0  0  0  0  0
    7.9032  -13.6087    8.7895 H   0  0  0  0  0
    7.2593  -15.6172   10.0509 H   0  0  0  0  0
    7.6939  -17.5373   10.8467 H   0  0  0  0  0
    9.0894  -17.3805   11.9663 H   0  0  0  0  0
    8.9992  -19.4386   10.9265 H   0  0  0  0  0
   11.3375  -16.8643   10.2259 H   0  0  0  0  0
   12.0066  -14.8461    8.9445 H   0  0  0  0  0
    9.4198  -12.4324    7.7287 H   0  0  0  0  0
   10.9953  -13.1347    7.2852 H   0  0  0  0  0
   12.0208  -12.0537    9.1453 H   0  0  0  0  0
   10.8362   -9.1886   10.9014 H   0  0  0  0  0
   12.4304  -11.6911   11.4472 H   0  0  0  0  0
   10.9519  -11.2151   12.3030 H   0  0  0  0  0
   13.2206  -10.4370    9.5275 H   0  0  0  0  0
   13.4092   -9.6383    7.2793 H   0  0  0  0  0
   11.2865   -7.6505    6.5596 H   0  0  0  0  0
   12.1976   -8.7644    5.4030 H   0  0  0  0  0
   13.8865   -6.6783    7.8481 H   0  0  0  0  0
   15.3919   -4.8401    7.1612 H   0  0  0  0  0
   16.2372   -4.1806    3.8346 H   0  0  0  0  0
   16.3889   -3.6914    5.5356 H   0  0  0  0  0
   15.5517   -2.0039    4.1973 H   0  0  0  0  0
   14.0011   -5.2520    3.1125 H   0  0  0  0  0
   12.4933   -7.0801    3.8099 H   0  0  0  0  0
   12.8000   -7.8122   10.9498 H   0  0  0  0  0
   14.3070   -8.3408   10.1191 H   0  0  0  0  0
   14.3404   -8.5795   12.5522 H   0  0  0  0  0
   15.2508  -10.3142   13.7040 H   0  0  0  0  0
   16.5352   -9.6239   12.7199 H   0  0  0  0  0
   16.8942  -12.0102   13.7147 H   0  0  0  0  0
   17.2893  -11.7483   11.9746 H   0  0  0  0  0
   12.9989  -10.5489   13.5115 H   0  0  0  0  0
   10.7714  -10.1601   14.3999 H   0  0  0  0  0
   14.9508   -8.6305   17.6590 H   0  0  0  0  0
   12.6309   -5.4030   16.8635 H   0  0  0  0  0
    9.9910   -4.9518   15.0354 H   0  0  0  0  0
    9.3930   -8.1304   13.6238 H   0  0  0  0  0
    7.5574   -9.0289   14.3258 H   0  0  0  0  0
    6.0157  -10.9512   16.5275 H   0  0  0  0  0
    5.4463   -9.5358   15.6089 H   0  0  0  0  0
    4.3543   -9.7281   17.7158 H   0  0  0  0  0
    5.8116   -9.6672   18.5216 H   0  0  0  0  0
    5.2788   -8.3427   17.6621 H   0  0  0  0  0
  2  1  1  0  0  0
  1  5  1  0  0  0
  1 44  1  0  0  0
  2  3  1  0  0  0
 42  2  1  0  0  0
  3 43  1  0  0  0
 46  4  1  0  0  0
  4 47  4  0  0  0
  4 48  4  0  0  0
  5 45  1  0  0  0
  5 46  1  0  0  0
  6  7  4  0  0  0
 13  6  4  0  0  0
  7  8  4  0  0  0
  8  9  1  0  0  0
 11  8  4  0  0  0
  9 10  1  0  0  0
 12 11  4  0  0  0
 13 12  4  0  0  0
 14 13  1  0  0  0
 15 14  1  0  0  0
 16 15  1  0  0  0
 16 17  2  0  0  0
 18 16  1  0  0  0
 19 18  1  0  0  0
 18 20  1  0  0  0
 39 19  1  0  0  0
 20 21  1  0  0  0
 33 20  1  0  0  0
 21 22  2  0  0  0
 21 23  1  0  0  0
 23 24  1  0  0  0
 24 25  1  0  0  0
 25 26  4  0  0  0
 25 32  4  0  0  0
 26 27  4  0  0  0
 27 28  4  0  0  0
 28 29  1  0  0  0
 31 28  4  0  0  0
 29 30  1  0  0  0
 32 31  4  0  0  0
 34 33  1  0  0  0
 34 35  1  0  0  0
 39 34  1  0  0  0
 35 36  1  0  0  0
 36 37  1  0  0  0
 37 38  1  0  0  0
 40 39  1  0  0  0
 41 40  1  0  0  0
 41 42  1  0  0  0
 41 46  1  0  0  0
 47 50  4  0  0  0
 48 49  4  0  0  0
 49 50  4  0  0  0
 50 51  1  0  0  0
 51 52  1  0  0  0
  1 53  1  0  0  0
  2 54  1  0  0  0
  3 55  1  0  0  0
  3 56  1  0  0  0
  5 57  1  0  0  0
  6 58  1  0  0  0
  7 59  1  0  0  0
  9 60  1  0  0  0
  9 61  1  0  0  0
 10 62  1  0  0  0
 11 63  1  0  0  0
 12 64  1  0  0  0
 14 65  1  0  0  0
 14 66  1  0  0  0
 15 67  1  0  0  0
 18 68  1  0  0  0
 19 69  1  0  0  0
 19 70  1  0  0  0
 20 71  1  0  0  0
 23 72  1  0  0  0
 24 73  1  0  0  0
 24 74  1  0  0  0
 26 75  1  0  0  0
 27 76  1  0  0  0
 29 77  1  0  0  0
 29 78  1  0  0  0
 30 79  1  0  0  0
 31 80  1  0  0  0
 32 81  1  0  0  0
 33 82  1  0  0  0
 33 83  1  0  0  0
 34 84  1  0  0  0
 36 85  1  0  0  0
 36 86  1  0  0  0
 37 87  1  0  0  0
 37 88  1  0  0  0
 39 89  1  0  0  0
 41 90  1  0  0  0
 43 91  1  0  0  0
 44 92  1  0  0  0
 45 93  1  0  0  0
 46 94  1  0  0  0
 47 95  1  0  0  0
 51 96  1  0  0  0
 51 97  1  0  0  0
 52 98  1  0  0  0
 52 99  1  0  0  0
 52100  1  0  0  0
M  END
$$$$
