4n9a_ligand
  -I-interpret- 

 28 30  0  0  0  0  0  0  0  0999 V2000
   10.8890   -6.4000  -11.2550 C   0  0  0  0  0
   10.6510   -5.6300  -10.0160 C   0  0  0  0  0
   11.3560   -5.8950   -8.7180 C   0  0  0  0  0
   11.9480   -7.3050   -8.7600 C   0  0  0  0  0
   12.6940   -7.6310  -10.0630 C   0  0  0  0  0
   11.1010   -8.7880  -11.5980 C   0  0  0  0  0
    9.9040   -8.8730  -11.3880 O   0  0  0  0  0
   11.7360   -9.8550  -12.0620 O   0  0  0  0  0
   11.8560   -7.5170  -11.3430 C   0  0  0  0  0
    9.6310   -4.6410  -10.3970 C   0  0  0  0  0
    8.9750   -3.6330   -9.7100 C   0  0  0  0  0
   10.1050   -5.9290  -12.2550 N   0  0  0  0  0
    9.3450   -4.9040  -11.8280 C   0  0  0  0  0
    8.4050   -4.1000  -12.4660 C   0  0  0  0  0
    7.7580   -3.0980  -11.7490 C   0  0  0  0  0
    8.0310   -2.8710  -10.4020 C   0  0  0  0  0
    7.1290   -1.5480   -9.6130 Cl  0  0  0  0  0
   10.6510   -5.8140   -7.8906 H   0  0  0  0  0
   12.1512   -5.1638   -8.5727 H   0  0  0  0  0
   11.1179   -8.0067   -8.6784 H   0  0  0  0  0
   12.6706   -7.3766   -7.9471 H   0  0  0  0  0
   13.0120   -8.6710   -9.9892 H   0  0  0  0  0
   13.5006   -6.9033  -10.1517 H   0  0  0  0  0
   12.6657   -9.6466  -12.1799 H   0  0  0  0  0
   12.5480   -7.3278  -12.1636 H   0  0  0  0  0
    9.1894   -3.4399   -8.6589 H   0  0  0  0  0
    8.1770   -4.2542  -13.5207 H   0  0  0  0  0
    7.0194   -2.4754  -12.2539 H   0  0  0  0  0
  1  2  4  0  0  0
  9  1  1  0  0  0
  1 12  4  0  0  0
  2  3  1  0  0  0
  2 10  4  0  0  0
  4  3  1  0  0  0
  5  4  1  0  0  0
  9  5  1  0  0  0
  6  7  2  0  0  0
  6  8  1  0  0  0
  6  9  1  0  0  0
 10 11  4  0  0  0
 10 13  4  0  0  0
 11 16  4  0  0  0
 12 13  4  0  0  0
 13 14  4  0  0  0
 14 15  4  0  0  0
 15 16  4  0  0  0
 16 17  1  0  0  0
  3 18  1  0  0  0
  3 19  1  0  0  0
  4 20  1  0  0  0
  4 21  1  0  0  0
  5 22  1  0  0  0
  5 23  1  0  0  0
  8 24  1  0  0  0
  9 25  1  0  0  0
 11 26  1  0  0  0
 14 27  1  0  0  0
 15 28  1  0  0  0
M  END
$$$$
