6d4q_ligand
  -I-interpret- 

 55 58  0  0  0  0  0  0  0  0999 V2000
  133.7700   15.2120    4.4180 C   0  0  0  0  0
  129.5100   18.4160    4.2750 C   0  0  0  0  0
  130.7410   19.0880    4.2100 C   0  0  0  0  0
  130.9420   20.1520    3.2890 C   0  0  0  0  0
  128.7390   19.8950    2.4650 C   0  0  0  0  0
  127.2280   18.1410    3.4170 C   0  0  0  0  0
  128.0360   16.6950    5.2140 C   0  0  0  0  0
  133.0480   12.0190    2.8110 O   0  0  0  0  0
  133.6300   13.0970    2.9450 C   0  0  0  0  0
  134.6820   13.4370    1.8950 C   0  0  0  0  0
  134.1070   14.4340    0.9030 C   0  0  0  0  0
  134.6000   14.1100   -0.5190 C   0  0  0  0  0
  135.9800   14.7270   -0.7760 C   0  0  0  0  0
  137.0290   14.2460    0.1720 C   0  0  0  0  0
  136.8750   14.7650    1.5880 C   0  0  0  0  0
  136.0270   13.8240    2.4890 C   0  0  0  0  0
  133.2370   13.9210    4.0860 N   0  0  0  0  0
  132.2210   13.3960    4.9550 C   0  0  0  0  0
  131.1100   14.3750    5.3150 C   0  0  0  0  0
  131.5740   15.7530    5.4720 N   0  0  0  0  0
  133.0220   15.9350    5.5420 C   0  0  0  0  0
  130.5370   16.7780    6.3430 S   0  0  0  0  0
  129.9100   16.0520    7.4280 O   0  0  0  0  0
  131.2760   17.8910    6.9240 O   0  0  0  0  0
  129.2600   17.3410    5.1880 C   0  0  0  0  0
  129.9390   20.5360    2.4390 N   0  0  0  0  0
  128.5030   18.8120    3.4000 C   0  0  0  0  0
  126.9940   17.1100    4.3020 C   0  0  0  0  0
  133.6845   15.8325    3.5260 H   0  0  0  0  0
  134.7926   15.0571    4.7622 H   0  0  0  0  0
  131.5526   18.7902    4.8739 H   0  0  0  0  0
  131.9024   20.6666    3.2590 H   0  0  0  0  0
  127.9491   20.1979    1.7777 H   0  0  0  0  0
  126.4438   18.4503    2.7261 H   0  0  0  0  0
  127.8594   15.8803    5.9162 H   0  0  0  0  0
  134.9234   12.5337    1.3348 H   0  0  0  0  0
  134.4336   15.4378    1.1747 H   0  0  0  0  0
  133.0189   14.3748    0.9264 H   0  0  0  0  0
  133.8925   14.5242   -1.2373 H   0  0  0  0  0
  134.6756   13.0278   -0.6248 H   0  0  0  0  0
  135.8879   15.8052   -0.6455 H   0  0  0  0  0
  136.2875   14.4384   -1.7811 H   0  0  0  0  0
  137.9877   14.6077   -0.1998 H   0  0  0  0  0
  136.9467   13.1601    0.2176 H   0  0  0  0  0
  136.3634   15.7261    1.5363 H   0  0  0  0  0
  137.8705   14.8369    2.0261 H   0  0  0  0  0
  136.5972   12.9043    2.6197 H   0  0  0  0  0
  135.8264   14.3613    3.4159 H   0  0  0  0  0
  132.7151   13.1249    5.8880 H   0  0  0  0  0
  131.7505   12.5685    4.4240 H   0  0  0  0  0
  130.6925   14.0592    6.2711 H   0  0  0  0  0
  130.3870   14.3640    4.4994 H   0  0  0  0  0
  133.2280   17.0011    5.4463 H   0  0  0  0  0
  133.3638   15.5193    6.4898 H   0  0  0  0  0
  126.0259   16.6092    4.3140 H   0  0  0  0  0
  1 17  1  0  0  0
 21  1  1  0  0  0
  2  3  4  0  0  0
 25  2  4  0  0  0
  2 27  4  0  0  0
  3  4  4  0  0  0
  4 26  4  0  0  0
  5 26  4  0  0  0
 27  5  4  0  0  0
 27  6  4  0  0  0
 28  6  4  0  0  0
 25  7  4  0  0  0
  7 28  4  0  0  0
  9  8  2  0  0  0
  9 10  1  0  0  0
 17  9  1  0  0  0
 10 11  1  0  0  0
 10 16  1  0  0  0
 11 12  1  0  0  0
 12 13  1  0  0  0
 14 13  1  0  0  0
 15 14  1  0  0  0
 16 15  1  0  0  0
 18 17  1  0  0  0
 19 18  1  0  0  0
 20 19  1  0  0  0
 20 21  1  0  0  0
 22 20  1  0  0  0
 22 23  2  0  0  0
 22 24  2  0  0  0
 22 25  1  0  0  0
  1 29  1  0  0  0
  1 30  1  0  0  0
  3 31  1  0  0  0
  4 32  1  0  0  0
  5 33  1  0  0  0
  6 34  1  0  0  0
  7 35  1  0  0  0
 10 36  1  0  0  0
 11 37  1  0  0  0
 11 38  1  0  0  0
 12 39  1  0  0  0
 12 40  1  0  0  0
 13 41  1  0  0  0
 13 42  1  0  0  0
 14 43  1  0  0  0
 14 44  1  0  0  0
 15 45  1  0  0  0
 15 46  1  0  0  0
 16 47  1  0  0  0
 16 48  1  0  0  0
 18 49  1  0  0  0
 18 50  1  0  0  0
 19 51  1  0  0  0
 19 52  1  0  0  0
 21 53  1  0  0  0
 21 54  1  0  0  0
 28 55  1  0  0  0
M  END
$$$$
