5osk_ligand
  -I-interpret- 

 50 52  0  0  0  0  0  0  0  0999 V2000
   18.4750   66.9690   44.8170 C   0  0  0  0  0
   16.1910   66.6640   39.0120 C   0  0  0  0  0
   17.9390   65.8630   44.1390 C   0  0  0  0  0
   17.4250   64.8020   44.8980 C   0  0  0  0  0
   18.0930   67.2750   40.5600 C   0  0  0  0  0
   18.8930   68.1490   42.6550 C   0  0  0  0  0
   17.9190   65.8060   42.6370 C   0  0  0  0  0
   16.6340   67.1270   40.2600 C   0  0  0  0  0
   15.6980   67.4390   41.2340 C   0  0  0  0  0
   18.4930   67.0180   46.2200 C   0  0  0  0  0
   17.4390   64.8410   46.3080 C   0  0  0  0  0
   14.8280   66.5160   38.7320 C   0  0  0  0  0
   13.9000   66.8330   39.7110 C   0  0  0  0  0
   14.3400   67.2920   40.9580 C   0  0  0  0  0
   17.9710   65.9660   46.9780 C   0  0  0  0  0
   12.1280   67.1070   41.8210 C   0  0  0  0  0
   16.8380   66.8160   36.7150 C   0  0  0  0  0
   16.7290   62.5460   46.2840 C   0  0  0  0  0
   15.5760   66.0430   49.4310 N   0  0  0  0  0
   19.0170   68.0850   44.0720 N   0  0  0  0  0
   18.3470   67.0710   41.9960 N   0  0  0  0  0
   13.4480   67.6140   41.9640 O   0  0  0  0  0
   17.1270   66.3660   38.0400 O   0  0  0  0  0
   16.9150   63.7620   47.0110 O   0  0  0  0  0
   18.0460   66.0930   48.3720 O   0  0  0  0  0
   17.5600   66.9290   50.7400 O   0  0  0  0  0
   16.7950   68.2540   48.8320 O   0  0  0  0  0
   19.2480   69.1520   42.0070 O   0  0  0  0  0
   17.0260   66.9110   49.3730 S   0  0  0  0  0
   17.0077   63.9326   44.3900 H   0  0  0  0  0
   18.4115   68.2800   40.2831 H   0  0  0  0  0
   18.6489   66.5288   39.9923 H   0  0  0  0  0
   16.8917   65.6120   42.3287 H   0  0  0  0  0
   18.6169   65.0279   42.3279 H   0  0  0  0  0
   16.0227   67.7975   42.2108 H   0  0  0  0  0
   18.9187   67.8859   46.7236 H   0  0  0  0  0
   14.5006   66.1561   37.7566 H   0  0  0  0  0
   12.8339   66.7256   39.5113 H   0  0  0  0  0
   11.6913   67.4893   40.8984 H   0  0  0  0  0
   12.1603   66.0181   41.7852 H   0  0  0  0  0
   11.5236   67.4261   42.6701 H   0  0  0  0  0
   15.9039   66.3680   36.3762 H   0  0  0  0  0
   16.7431   67.9019   36.7141 H   0  0  0  0  0
   17.6474   66.5202   36.0476 H   0  0  0  0  0
   16.0414   62.7205   45.4564 H   0  0  0  0  0
   17.6889   62.2062   45.8951 H   0  0  0  0  0
   16.3153   61.7869   46.9479 H   0  0  0  0  0
   15.2477   65.6570   50.3162 H   0  0  0  0  0
   15.0296   65.9054   48.5807 H   0  0  0  0  0
   19.4948   68.8366   44.5692 H   0  0  0  0  0
  1  3  4  0  0  0
 10  1  4  0  0  0
  1 20  1  0  0  0
  8  2  4  0  0  0
  2 12  4  0  0  0
  2 23  1  0  0  0
  4  3  4  0  0  0
  3  7  1  0  0  0
 11  4  4  0  0  0
  5  8  1  0  0  0
 21  5  1  0  0  0
 20  6  1  0  0  0
  6 21  1  0  0  0
  6 28  2  0  0  0
  7 21  1  0  0  0
  8  9  4  0  0  0
  9 14  4  0  0  0
 15 10  4  0  0  0
 15 11  4  0  0  0
 11 24  1  0  0  0
 12 13  4  0  0  0
 14 13  4  0  0  0
 14 22  1  0  0  0
 25 15  1  0  0  0
 22 16  1  0  0  0
 23 17  1  0  0  0
 24 18  1  0  0  0
 29 19  1  0  0  0
 25 29  1  0  0  0
 29 26  2  0  0  0
 29 27  2  0  0  0
  4 30  1  0  0  0
  5 31  1  0  0  0
  5 32  1  0  0  0
  7 33  1  0  0  0
  7 34  1  0  0  0
  9 35  1  0  0  0
 10 36  1  0  0  0
 12 37  1  0  0  0
 13 38  1  0  0  0
 16 39  1  0  0  0
 16 40  1  0  0  0
 16 41  1  0  0  0
 17 42  1  0  0  0
 17 43  1  0  0  0
 17 44  1  0  0  0
 18 45  1  0  0  0
 18 46  1  0  0  0
 18 47  1  0  0  0
 19 48  1  0  0  0
 19 49  1  0  0  0
 20 50  1  0  0  0
M  END
$$$$
