5cxz_ligand
  -I-interpret- 

 48 50  0  0  0  0  0  0  0  0999 V2000
    1.3320   -1.0590   15.9100 C   0  0  0  0  0
    6.1890    0.2840   15.9420 C   0  0  0  0  0
    3.8600    0.0190   15.3700 C   0  0  0  0  0
    1.9370    1.9620   12.4530 C   0  0  0  0  0
    1.0710    3.1470   12.8640 C   0  0  0  0  0
    1.4150    3.9130   14.1380 C   0  0  0  0  0
   -5.1160   -2.5000   15.8430 C   0  0  0  0  0
   -3.9960   -2.9140   16.6790 N   0  0  0  0  0
   -4.2960   -3.6070   17.9260 C   0  0  0  0  0
   -2.6270   -2.4610   16.3900 C   0  0  0  0  0
   -2.3450   -1.4840   15.4070 C   0  0  0  0  0
   -1.0280   -0.9970   15.2730 C   0  0  0  0  0
    0.0180   -1.4990   16.0920 C   0  0  0  0  0
   -0.2580   -2.5180   17.0100 C   0  0  0  0  0
   -1.5670   -3.0010   17.1430 C   0  0  0  0  0
    2.4310   -1.3460   16.7550 C   0  0  0  0  0
    3.6890   -0.8530   16.4390 C   0  0  0  0  0
    4.7640   -1.1240   17.2530 N   0  0  0  0  0
    6.0090   -0.5740   17.0260 C   0  0  0  0  0
    5.1250    0.5640   15.1170 C   0  0  0  0  0
    2.7290    0.3650   14.6160 C   0  0  0  0  0
    2.6640    1.2690   13.4920 N   0  0  0  0  0
    1.1420    5.3510   14.0970 N   0  3  0  0  0
    1.5170   -0.1870   14.8800 N   0  0  0  0  0
    7.1652    0.7293   15.7499 H   0  0  0  0  0
    2.6976    2.3729   11.7892 H   0  0  0  0  0
    1.2473    1.2263   12.0392 H   0  0  0  0  0
    0.0854    2.7210   13.0516 H   0  0  0  0  0
    1.1915    3.8732   12.0602 H   0  0  0  0  0
    2.4891    3.8035   14.2874 H   0  0  0  0  0
    0.7898    3.4992   14.9292 H   0  0  0  0  0
   -5.6928   -3.3772   15.5501 H   0  0  0  0  0
   -5.7526   -1.8155   16.4036 H   0  0  0  0  0
   -4.7371   -1.9987   14.9523 H   0  0  0  0  0
   -4.9032   -2.9623   18.5615 H   0  0  0  0  0
   -4.8434   -4.5240   17.7080 H   0  0  0  0  0
   -3.3650   -3.8510   18.4377 H   0  0  0  0  0
   -3.1380   -1.1108   14.7590 H   0  0  0  0  0
   -0.8107   -0.2270   14.5328 H   0  0  0  0  0
    0.5430   -2.9353   17.6203 H   0  0  0  0  0
   -1.7685   -3.8112   17.8437 H   0  0  0  0  0
    2.2896   -1.9517   17.6501 H   0  0  0  0  0
    6.8432   -0.8080   17.6874 H   0  0  0  0  0
    5.2678    1.2175   14.2564 H   0  0  0  0  0
    3.6282    1.5774   13.3668 H   0  0  0  0  0
    1.4036    5.7711   14.9889 H   0  0  0  0  0
    1.6852    5.7777   13.3465 H   0  0  0  0  0
    0.1477    5.5024   13.9272 H   0  0  0  0  0
  1 13  1  0  0  0
 16  1  4  0  0  0
  1 24  4  0  0  0
  2 19  4  0  0  0
 20  2  4  0  0  0
  3 17  4  0  0  0
  3 20  4  0  0  0
 21  3  4  0  0  0
  4  5  1  0  0  0
 22  4  1  0  0  0
  5  6  1  0  0  0
  6 23  1  0  0  0
  8  7  1  0  0  0
  8  9  1  0  0  0
 10  8  1  0  0  0
 11 10  4  0  0  0
 15 10  4  0  0  0
 12 11  4  0  0  0
 13 12  4  0  0  0
 13 14  4  0  0  0
 14 15  4  0  0  0
 17 16  4  0  0  0
 17 18  4  0  0  0
 18 19  4  0  0  0
 21 22  1  0  0  0
 21 24  4  0  0  0
  2 25  1  0  0  0
  4 26  1  0  0  0
  4 27  1  0  0  0
  5 28  1  0  0  0
  5 29  1  0  0  0
  6 30  1  0  0  0
  6 31  1  0  0  0
  7 32  1  0  0  0
  7 33  1  0  0  0
  7 34  1  0  0  0
  9 35  1  0  0  0
  9 36  1  0  0  0
  9 37  1  0  0  0
 11 38  1  0  0  0
 12 39  1  0  0  0
 14 40  1  0  0  0
 15 41  1  0  0  0
 16 42  1  0  0  0
 19 43  1  0  0  0
 20 44  1  0  0  0
 22 45  1  0  0  0
 23 46  1  0  0  0
 23 47  1  0  0  0
 23 48  1  0  0  0
M  END
$$$$
