3mi3_ligand
  -I-interpret- 

 26 25  0  0  0  0  0  0  0  0999 V2000
  -43.4470    9.7920  -15.3680 N   0  3  0  0  0
  -44.7910   10.0750  -15.9450 C   0  0  0  0  0
  -45.6660   10.4960  -14.7860 C   0  0  0  0  0
  -45.3200   10.1900  -13.6320 O   0  0  0  0  0
  -45.3570    8.8140  -16.6210 C   0  0  0  0  0
  -46.7800    8.9130  -17.1660 C   0  0  0  0  0
  -47.1510    7.6200  -17.8780 C   0  0  0  0  0
  -48.4960    7.7090  -18.5930 C   0  0  0  0  0
  -48.7780    6.4600  -19.4070 N   0  3  0  0  0
  -46.7060   11.1320  -14.9620 O   0  0  0  0  0
  -43.0845   10.6356  -14.9238 H   0  0  0  0  0
  -43.5258    9.0482  -14.6745 H   0  0  0  0  0
  -42.8137    9.4991  -16.1120 H   0  0  0  0  0
  -44.7437   10.8538  -16.7061 H   0  0  0  0  0
  -44.4949    9.7004  -13.6657 H   0  0  0  0  0
  -45.3821    8.0439  -15.8500 H   0  0  0  0  0
  -44.7171    8.6201  -17.4818 H   0  0  0  0  0
  -46.8388    9.7422  -17.8711 H   0  0  0  0  0
  -47.4712    9.0805  -16.3400 H   0  0  0  0  0
  -47.2214    6.8323  -17.1279 H   0  0  0  0  0
  -46.3855    7.4181  -18.6273 H   0  0  0  0  0
  -48.4710    8.5632  -19.2696 H   0  0  0  0  0
  -49.2792    7.8156  -17.8424 H   0  0  0  0  0
  -49.6821    6.5541  -19.8697 H   0  0  0  0  0
  -48.0468    6.3402  -20.1080 H   0  0  0  0  0
  -48.7940    5.6490  -18.7886 H   0  0  0  0  0
  1  2  1  0  0  0
  2  3  1  0  0  0
  2  5  1  0  0  0
  3  4  1  0  0  0
  3 10  2  0  0  0
  5  6  1  0  0  0
  6  7  1  0  0  0
  7  8  1  0  0  0
  8  9  1  0  0  0
  1 11  1  0  0  0
  1 12  1  0  0  0
  1 13  1  0  0  0
  2 14  1  0  0  0
  4 15  1  0  0  0
  5 16  1  0  0  0
  5 17  1  0  0  0
  6 18  1  0  0  0
  6 19  1  0  0  0
  7 20  1  0  0  0
  7 21  1  0  0  0
  8 22  1  0  0  0
  8 23  1  0  0  0
  9 24  1  0  0  0
  9 25  1  0  0  0
  9 26  1  0  0  0
M  END
$$$$
