3uda_ligand
  -I-interpret- 

 64 65  0  0  0  0  0  0  0  0999 V2000
   -2.2260   10.0650   16.5490 N   0  0  0  0  0
   -2.3210   12.3580   17.3670 C   0  0  0  0  0
   -3.5310    9.1720   16.3070 S   0  0  0  0  0
   -2.2140   11.4560   16.1430 C   0  0  0  0  0
   -2.7520   17.2840   15.7050 S   0  0  0  0  0
   -0.9470   11.7570   15.3510 C   0  0  0  0  0
   -1.0010   11.0940   14.1090 O   0  0  0  0  0
   -0.4300    9.8310   13.7780 S   0  0  0  0  0
   -0.7910   13.2560   15.1210 C   0  0  0  0  0
    0.4990   13.5220   14.6160 O   0  0  0  0  0
   -0.9990   14.0330   16.4160 C   0  0  0  0  0
   -2.2570   13.7070   16.9630 O   0  0  0  0  0
   -0.9240   15.5340   16.1710 C   0  0  0  0  0
   -2.1370   16.1350   16.5630 O   0  0  0  0  0
   -4.6760    9.9790   16.7170 O   0  0  0  0  0
   -3.5610    8.8490   14.8830 O   0  0  0  0  0
   -3.3850    7.9770   17.1330 O   0  0  0  0  0
   -2.0720   17.2660   14.4130 O   0  0  0  0  0
   -4.1720   16.9880   15.5440 O   0  0  0  0  0
   -2.5270   18.5310   16.4310 O   0  0  0  0  0
    0.7730   10.1360   13.0480 O   0  0  0  0  0
   -0.0860    8.8400   14.7710 O   0  0  0  0  0
   -1.3490    9.2760   12.8080 O   0  0  0  0  0
   -0.3830    7.7840   18.9530 S   0  0  0  0  0
    0.4940   10.0290   20.9690 C   0  0  0  0  0
    0.1170   10.0040   22.4130 O   0  0  0  0  0
   -0.8660    9.9210   20.3180 C   0  0  0  0  0
   -0.6840    9.3040   19.0150 O   0  0  0  0  0
   -1.4340   11.2990   20.2700 C   0  0  0  0  0
   -2.7440   11.4790   20.9960 O   0  0  0  0  0
   -0.6860   12.5180   19.8100 C   0  0  0  0  0
   -1.2560   12.0810   18.2480 O   0  0  0  0  0
    0.7000   12.5140   20.4560 C   0  0  0  0  0
    1.2780   11.1790   20.5600 O   0  0  0  0  0
    1.6040   13.3920   19.6120 C   0  0  0  0  0
    1.4060   10.6300   22.9550 C   0  0  0  0  0
    2.2100   12.9290   18.5850 O   0  0  0  0  0
    1.8580   14.6490   19.9500 O   0  0  0  0  0
    0.1420    7.4660   17.6000 O   0  0  0  0  0
   -1.6270    7.0350   19.2180 O   0  0  0  0  0
    0.6090    7.3780   19.9900 O   0  0  0  0  0
   -1.4022    9.6552   16.9892 H   0  0  0  0  0
   -3.2690   12.1744   17.8727 H   0  0  0  0  0
   -3.0725   11.6506   15.5002 H   0  0  0  0  0
   -0.0894   11.4047   15.9241 H   0  0  0  0  0
   -1.5465   13.5746   14.4028 H   0  0  0  0  0
    0.6294   13.0325   13.8006 H   0  0  0  0  0
   -0.2074   13.7587   17.1133 H   0  0  0  0  0
   -0.7516   15.7210   15.1111 H   0  0  0  0  0
   -0.1045   15.9566   16.7524 H   0  0  0  0  0
   -2.7919    8.3195   14.6599 H   0  0  0  0  0
   -2.9906   18.4990   17.2710 H   0  0  0  0  0
   -2.1751    9.0525   13.2429 H   0  0  0  0  0
    1.1834    9.2351   20.6818 H   0  0  0  0  0
   -1.5719    9.2952   20.8641 H   0  0  0  0  0
   -1.4884   11.2641   19.1819 H   0  0  0  0  0
   -3.0323   12.3909   20.9123 H   0  0  0  0  0
   -0.7632   13.5902   19.9906 H   0  0  0  0  0
    0.6035   12.8888   21.4750 H   0  0  0  0  0
    2.2550   10.0022   22.6844 H   0  0  0  0  0
    1.5350   11.6231   22.5245 H   0  0  0  0  0
    1.3418   10.7086   24.0403 H   0  0  0  0  0
    1.3477   14.8788   20.7300 H   0  0  0  0  0
    0.2632    7.5864   20.8610 H   0  0  0  0  0
  1  3  1  0  0  0
  4  1  1  0  0  0
  2  4  1  0  0  0
  2 12  1  0  0  0
 32  2  1  0  0  0
  3 15  2  0  0  0
  3 16  1  0  0  0
  3 17  2  0  0  0
  4  6  1  0  0  0
 14  5  1  0  0  0
  5 18  2  0  0  0
  5 19  2  0  0  0
  5 20  1  0  0  0
  6  7  1  0  0  0
  6  9  1  0  0  0
  7  8  1  0  0  0
  8 21  2  0  0  0
  8 22  2  0  0  0
  8 23  1  0  0  0
  9 10  1  0  0  0
 11  9  1  0  0  0
 12 11  1  0  0  0
 11 13  1  0  0  0
 13 14  1  0  0  0
 28 24  1  0  0  0
 24 39  2  0  0  0
 24 40  2  0  0  0
 24 41  1  0  0  0
 25 26  1  0  0  0
 27 25  1  0  0  0
 25 34  1  0  0  0
 26 36  1  0  0  0
 27 28  1  0  0  0
 29 27  1  0  0  0
 29 30  1  0  0  0
 31 29  1  0  0  0
 31 32  1  0  0  0
 31 33  1  0  0  0
 33 34  1  0  0  0
 33 35  1  0  0  0
 35 37  2  0  0  0
 35 38  1  0  0  0
  1 42  1  0  0  0
  2 43  1  0  0  0
  4 44  1  0  0  0
  6 45  1  0  0  0
  9 46  1  0  0  0
 10 47  1  0  0  0
 11 48  1  0  0  0
 13 49  1  0  0  0
 13 50  1  0  0  0
 16 51  1  0  0  0
 20 52  1  0  0  0
 23 53  1  0  0  0
 25 54  1  0  0  0
 27 55  1  0  0  0
 29 56  1  0  0  0
 30 57  1  0  0  0
 31 58  1  0  0  0
 33 59  1  0  0  0
 36 60  1  0  0  0
 36 61  1  0  0  0
 36 62  1  0  0  0
 38 63  1  0  0  0
 41 64  1  0  0  0
M  END
$$$$
