4ajk_ligand
  -I-interpret- 

 33 34  0  0  0  0  0  0  0  0999 V2000
   21.9800   -5.3940    0.9900 C   0  0  0  0  0
   20.7020   -5.3430    1.5300 C   0  0  0  0  0
   19.8480   -6.7140   -0.2870 C   0  0  0  0  0
   22.2060   -6.1070   -0.1950 C   0  0  0  0  0
   19.6340   -6.0060    0.9050 C   0  0  0  0  0
   21.1290   -6.7460   -0.8180 C   0  0  0  0  0
   23.2760   -6.9210   -1.9670 C   0  0  0  0  0
   17.4330   -6.9550    1.5790 C   0  0  0  0  0
   14.9630   -9.5250    3.7530 C   0  0  0  0  0
   24.4100   -7.2100   -2.8850 C   0  0  0  0  0
   16.2480   -6.6180    2.4630 C   0  0  0  0  0
   15.0840   -7.5580    2.2680 C   0  0  0  0  0
   23.4200   -6.2250   -0.8640 N   0  0  0  0  0
   15.1390  -10.8540    3.8190 N   0  0  0  0  0
   18.3380   -5.9540    1.4820 N   0  0  0  0  0
   15.4410   -8.9210    2.6590 N   0  0  0  0  0
   17.5550   -8.0590    1.0050 O   0  0  0  0  0
   14.3910   -8.8850    4.6580 O   0  0  0  0  0
   21.6700   -7.5160   -2.2740 S   0  0  0  0  0
   22.8043   -4.8815    1.4858 H   0  0  0  0  0
   20.5261   -4.7827    2.4483 H   0  0  0  0  0
   19.0257   -7.2277   -0.7850 H   0  0  0  0  0
   24.8300   -6.2720   -3.2481 H   0  0  0  0  0
   25.1766   -7.7692   -2.3486 H   0  0  0  0  0
   24.0516   -7.7998   -3.7287 H   0  0  0  0  0
   15.9127   -5.6142    2.2020 H   0  0  0  0  0
   16.5724   -6.7004    3.5003 H   0  0  0  0  0
   14.8066   -7.5576    1.2139 H   0  0  0  0  0
   14.2544   -7.2215    2.8898 H   0  0  0  0  0
   14.8002  -11.3737    4.6286 H   0  0  0  0  0
   15.6116  -11.3442    3.0596 H   0  0  0  0  0
   18.0552   -5.0541    1.8700 H   0  0  0  0  0
   16.0892   -9.4391    2.0659 H   0  0  0  0  0
  2  1  4  0  0  0
  1  4  4  0  0  0
  5  2  4  0  0  0
  5  3  4  0  0  0
  3  6  4  0  0  0
  6  4  4  0  0  0
  4 13  4  0  0  0
 15  5  1  0  0  0
  6 19  4  0  0  0
  7 10  1  0  0  0
  7 13  4  0  0  0
 19  7  4  0  0  0
 11  8  1  0  0  0
  8 15  1  0  0  0
  8 17  2  0  0  0
  9 14  1  0  0  0
 16  9  1  0  0  0
  9 18  2  0  0  0
 12 11  1  0  0  0
 12 16  1  0  0  0
  1 20  1  0  0  0
  2 21  1  0  0  0
  3 22  1  0  0  0
 10 23  1  0  0  0
 10 24  1  0  0  0
 10 25  1  0  0  0
 11 26  1  0  0  0
 11 27  1  0  0  0
 12 28  1  0  0  0
 12 29  1  0  0  0
 14 30  1  0  0  0
 14 31  1  0  0  0
 15 32  1  0  0  0
 16 33  1  0  0  0
M  END
$$$$
