### 
### Created by X-TOOL on Mon Sep 10 21:13:14 2018
### 

@<TRIPOS>MOLECULE
4lp6_ligand
  149   158     1     0     0
SMALL
GAST_HUCK


@<TRIPOS>ATOM
      1 CCM        -1.5540   -0.2230   61.2280 C.3       1 Q4I        -0.0363
      2 CBW        -2.1090   -1.6950   61.2420 C.3       1 Q4I         0.0726
      3 OCK        -3.2010   -1.6910   62.2150 O.3       1 Q4I        -0.3040
      4 CDH        -3.8450   -2.8950   62.4660 C.ar      1 Q4I         0.1201
      5 CBL        -3.4180   -4.1490   62.1640 C.ar      1 Q4I         0.0039
      6 CCY        -4.1600   -5.2630   62.5220 C.ar      1 Q4I         0.0629
      7 CCN        -3.6030   -6.4700   62.1510 C.2       1 Q4I         0.0764
      8 OAF        -2.5450   -6.4860   61.4710 O.co2     1 Q4I        -0.5572
      9 OAO        -4.1810   -7.5600   62.3790 O.co2     1 Q4I        -0.5572
     10 NBY        -5.3590   -5.1570   63.1740 N.ar      1 Q4I        -0.3011
     11 CDO        -5.7970   -3.9060   63.4810 C.ar      1 Q4I         0.0692
     12 CDL        -5.0340   -2.7760   63.1070 C.ar      1 Q4I         0.0307
     13 CBH        -5.4290   -1.4580   63.3800 C.ar      1 Q4I        -0.0645
     14 CAU        -6.6490   -1.2850   63.9940 C.ar      1 Q4I        -0.0773
     15 CBB        -7.4370   -2.3730   64.3750 C.ar      1 Q4I        -0.0396
     16 CDE        -7.0510   -3.6870   64.0990 C.ar      1 Q4I         0.0919
     17 NCH        -7.6870   -4.7940   64.5470 N.am      1 Q4I        -0.2253
     18 CCR        -8.7640   -4.8330   65.3410 C.2       1 Q4I         0.2501
     19 OAJ        -9.6390   -4.0230   65.3590 O.2       1 Q4I        -0.3654
     20 CDA        -8.9920   -6.0720   65.8990 C.ar      1 Q4I         0.1097
     21 CBM       -10.2150   -6.4610   66.4550 C.ar      1 Q4I         0.0090
     22 CDG       -10.2930   -7.7780   66.9710 C.ar      1 Q4I         0.1175
     23 OCJ       -11.4420   -8.2940   67.5000 O.3       1 Q4I        -0.3188
     24 NCB        -7.9280   -6.9150   65.9030 N.ar      1 Q4I        -0.2945
     25 CDQ        -7.9870   -8.1610   66.4060 C.ar      1 Q4I         0.0714
     26 CDK        -9.1830   -8.6310   66.9500 C.ar      1 Q4I         0.0315
     27 CBG        -9.2310   -9.9380   67.4690 C.ar      1 Q4I        -0.0639
     28 CAT        -8.0950  -10.7370   67.4250 C.ar      1 Q4I        -0.0768
     29 CBC        -6.8920  -10.2470   66.8770 C.ar      1 Q4I        -0.0390
     30 CDF        -6.8270   -8.9460   66.3510 C.ar      1 Q4I         0.0930
     31 NCF        -5.7530   -8.2810   65.8260 N.am      1 Q4I        -0.2248
     32 CCQ        -4.4670   -8.6470   65.9910 C.2       1 Q4I         0.2504
     33 OAI        -4.1480   -9.7690   66.2960 O.2       1 Q4I        -0.3653
     34 CCZ        -3.4670   -7.6850   65.6130 C.ar      1 Q4I         0.1097
     35 CBK        -2.2600   -8.0340   64.9560 C.ar      1 Q4I         0.0090
     36 CCV        -1.3110   -7.0550   64.5970 C.ar      1 Q4I         0.1175
     37 OAP        -0.0540   -7.2900   63.9210 O.3       1 Q4I        -0.3188
     38 NBZ        -3.7000   -6.3760   65.9260 N.ar      1 Q4I        -0.2944
     39 CDN        -2.8200   -5.4120   65.6050 C.ar      1 Q4I         0.0714
     40 CDJ        -1.6320   -5.7400   64.9340 C.ar      1 Q4I         0.0315
     41 CBF        -0.7490   -4.7370   64.6090 C.ar      1 Q4I        -0.0639
     42 CAR        -1.0480   -3.4370   64.9860 C.ar      1 Q4I        -0.0768
     43 CBA        -2.2540   -3.0800   65.6190 C.ar      1 Q4I        -0.0390
     44 CDD        -3.1510   -4.0810   65.9300 C.ar      1 Q4I         0.0930
     45 NCG        -4.3510   -3.9220   66.5560 N.am      1 Q4I        -0.2248
     46 CCS        -4.9760   -2.7590   66.8240 C.2       1 Q4I         0.2503
     47 OAK        -4.6480   -1.6210   66.4940 O.2       1 Q4I        -0.3653
     48 CDB        -6.2070   -2.9210   67.4360 C.ar      1 Q4I         0.1097
     49 CBN        -7.1300   -1.9050   67.4550 C.ar      1 Q4I         0.0092
     50 CDI        -8.3720   -2.1070   68.0250 C.ar      1 Q4I         0.1208
     51 OCL        -9.3920   -1.2210   68.0760 O.3       1 Q4I        -0.3035
     52 CBX        -9.2300    0.1570   67.7200 C.3       1 Q4I         0.0776
     53 CDR        -9.7000    0.4490   66.2830 C.3       1 Q4I        -0.0180
     54 CAA        -9.9250    1.9530   66.1920 C.3       1 Q4I        -0.0602
     55 CAB       -11.0140   -0.2270   65.8720 C.3       1 Q4I        -0.0602
     56 NCA        -6.5320   -4.0980   67.9660 N.ar      1 Q4I        -0.2945
     57 CDP        -7.7260   -4.2920   68.5480 C.ar      1 Q4I         0.0711
     58 CDM        -8.6730   -3.3030   68.5780 C.ar      1 Q4I         0.0314
     59 CBI        -9.9160   -3.5050   69.1900 C.ar      1 Q4I        -0.0642
     60 CAS       -10.1740   -4.7680   69.7500 C.ar      1 Q4I        -0.0772
     61 CAZ        -9.1990   -5.7610   69.7200 C.ar      1 Q4I        -0.0395
     62 CDC        -7.9650   -5.5390   69.1200 C.ar      1 Q4I         0.0933
     63 NCE        -6.9120   -6.4030   69.0000 N.am      1 Q4I        -0.2130
     64 CCO        -6.8860   -7.6360   69.5840 C.2       1 Q4I         0.2913
     65 OAG        -7.8520   -8.1240   70.1840 O.2       1 Q4I        -0.3886
     66 NCC        -5.7600   -8.3640   69.4400 N.am      1 Q4I        -0.2671
     67 CBS        -5.7020   -9.7440   69.9900 C.3       1 Q4I         0.0320
     68 CBQ        -4.3530  -10.0990   70.6390 C.3       1 Q4I        -0.0305
     69 CBR        -4.3400   -9.6810   72.1210 C.3       1 Q4I        -0.0233
     70 CBU        -3.2340  -10.4220   72.8580 C.3       1 Q4I         0.0703
     71 OCI        -2.0170   -9.6610   72.8950 O.3       1 Q4I        -0.3198
     72 CCU        -1.6510   -8.9740   74.0150 C.ar      1 Q4I         0.0845
     73 CBJ        -0.4070   -8.3930   73.9710 C.ar      1 Q4I        -0.0303
     74 CAW        -2.4380   -8.8010   75.1600 C.ar      1 Q4I        -0.0401
     75 CAQ        -1.9540   -8.0620   76.2450 C.ar      1 Q4I        -0.0771
     76 CAV        -0.6870   -7.4600   76.1560 C.ar      1 Q4I        -0.0695
     77 CCT         0.0780   -7.6020   75.0170 C.ar      1 Q4I        -0.0300
     78 CBV         1.3820   -6.9690   74.8650 C.3       1 Q4I         0.0616
     79 NCD         2.0860   -6.7040   76.1370 N.am      1 Q4I        -0.2750
     80 CCP         2.7120   -7.7020   76.7930 C.2       1 Q4I         0.2068
     81 OAH         2.7140   -8.8620   76.3270 O.2       1 Q4I        -0.3845
     82 CCW         3.3760   -7.3890   78.0240 C.ar      1 Q4I         0.0501
     83 CAX         3.4120   -6.0660   78.6030 C.ar      1 Q4I        -0.0401
     84 CBD         4.0950   -5.8440   79.8050 C.ar      1 Q4I        -0.0295
     85 CCX         4.8090   -6.8510   80.4110 C.ar      1 Q4I         0.1122
     86 SDS         5.6850   -6.5460   81.9330 S.o2      1 Q4I         0.0677
     87 OAL         4.5010   -6.4130   82.8380 O.2       1 Q4I        -0.1499
     88 OAM         6.6690   -7.6680   82.0650 O.2       1 Q4I        -0.1499
     89 NAD         6.3770   -5.1230   81.9760 N.am      1 Q4I        -0.2605
     90 CBE         4.7970   -8.1450   79.8570 C.ar      1 Q4I        -0.0295
     91 CAY         4.1040   -8.3940   78.6760 C.ar      1 Q4I        -0.0401
     92 H          -0.7225   -0.1515   60.5114 H         1 Q4I         0.0256
     93 H          -1.1956    0.0433   62.2333 H         1 Q4I         0.0256
     94 H          -2.3558    0.4684   60.9294 H         1 Q4I         0.0256
     95 H          -1.3224   -2.3997   61.5497 H         1 Q4I         0.0621
     96 H          -2.4826   -1.9746   60.2459 H         1 Q4I         0.0621
     97 H          -2.4814   -4.2801   61.6342 H         1 Q4I         0.0595
     98 H          -4.8016   -0.6134   63.1191 H         1 Q4I         0.0481
     99 H          -7.0065   -0.2799   64.1863 H         1 Q4I         0.0568
    100 H          -8.3700   -2.1939   64.8971 H         1 Q4I         0.0476
    101 H          -7.3137   -5.6745   64.2546 H         1 Q4I         0.2306
    102 H         -11.0630   -5.7867   66.4894 H         1 Q4I         0.0605
    103 H         -11.2843   -9.1856   67.7878 H         1 Q4I         0.2560
    104 H         -10.1492  -10.3195   67.9008 H         1 Q4I         0.0482
    105 H          -8.1342  -11.7473   67.8160 H         1 Q4I         0.0572
    106 H          -6.0111  -10.8785   66.8614 H         1 Q4I         0.0477
    107 H          -5.9358   -7.4635   65.2799 H         1 Q4I         0.2309
    108 H          -2.0628   -9.0746   64.7250 H         1 Q4I         0.0605
    109 H           0.3973   -6.4632   63.7976 H         1 Q4I         0.2560
    110 H           0.1638   -4.9589   64.0681 H         1 Q4I         0.0482
    111 H          -0.3200   -2.6596   64.7842 H         1 Q4I         0.0572
    112 H          -2.4721   -2.0449   65.8559 H         1 Q4I         0.0477
    113 H          -4.8172   -4.7573   66.8474 H         1 Q4I         0.2309
    114 H          -6.8837   -0.9423   67.0219 H         1 Q4I         0.0605
    115 H          -8.1656    0.4213   67.8045 H         1 Q4I         0.0626
    116 H          -9.8173    0.7736   68.4163 H         1 Q4I         0.0626
    117 H          -8.9105    0.1367   65.5837 H         1 Q4I         0.0322
    118 H         -10.2636    2.2124   65.1781 H         1 Q4I         0.0233
    119 H          -8.9835    2.4785   66.4097 H         1 Q4I         0.0233
    120 H         -10.6904    2.2541   66.9224 H         1 Q4I         0.0233
    121 H         -10.8961   -1.3194   65.9236 H         1 Q4I         0.0233
    122 H         -11.2709    0.0659   64.8433 H         1 Q4I         0.0233
    123 H         -11.8173    0.0876   66.5544 H         1 Q4I         0.0233
    124 H         -10.6552   -2.7132   69.2306 H         1 Q4I         0.0480
    125 H         -11.1360   -4.9696   70.2071 H         1 Q4I         0.0572
    126 H          -9.4057   -6.7242   70.1724 H         1 Q4I         0.0474
    127 H          -6.1220   -6.1172   68.4575 H         1 Q4I         0.2309
    128 H          -4.9686   -7.9778   68.9660 H         1 Q4I         0.1853
    129 H          -5.8888  -10.4523   69.1694 H         1 Q4I         0.0518
    130 H          -6.4902   -9.8475   70.7503 H         1 Q4I         0.0518
    131 H          -3.5462   -9.5730   70.1076 H         1 Q4I         0.0285
    132 H          -4.1918  -11.1848   70.5679 H         1 Q4I         0.0285
    133 H          -5.3103   -9.9260   72.5777 H         1 Q4I         0.0292
    134 H          -4.1639   -8.5976   72.1930 H         1 Q4I         0.0292
    135 H          -3.0420  -11.3764   72.3459 H         1 Q4I         0.0614
    136 H          -3.5627  -10.6187   73.8891 H         1 Q4I         0.0614
    137 H           0.2173   -8.5525   73.0993 H         1 Q4I         0.0479
    138 H          -3.4273   -9.2418   75.2061 H         1 Q4I         0.0486
    139 H          -2.5496   -7.9549   77.1444 H         1 Q4I         0.0572
    140 H          -0.3080   -6.8794   76.9892 H         1 Q4I         0.0465
    141 H           1.2401   -6.0103   74.3446 H         1 Q4I         0.0681
    142 H           2.0149   -7.6284   74.2529 H         1 Q4I         0.0681
    143 H           2.0982   -5.7779   76.5140 H         1 Q4I         0.1872
    144 H           2.9095   -5.2439   78.1062 H         1 Q4I         0.0670
    145 H           4.0604   -4.8631   80.2650 H         1 Q4I         0.0649
    146 H           6.8970   -4.8441   82.7834 H         1 Q4I         0.1635
    147 H           6.2942   -4.5030   81.1958 H         1 Q4I         0.1635
    148 H           5.3289   -8.9497   80.3515 H         1 Q4I         0.0649
    149 H           4.1278   -9.3903   78.2495 H         1 Q4I         0.0670
@<TRIPOS>BOND
     1    1    2 1  
     2    2    3 1  
     3    3    4 1  
     4    4    5 ar 
     5    4   12 ar 
     6    5    6 ar 
     7    6    7 1  
     8    6   10 ar 
     9    7    8 ar 
    10    7    9 ar 
    11   10   11 ar 
    12   11   12 ar 
    13   11   16 ar 
    14   12   13 ar 
    15   13   14 ar 
    16   14   15 ar 
    17   15   16 ar 
    18   16   17 1  
    19   17   18 am 
    20   18   19 2  
    21   18   20 1  
    22   20   21 ar 
    23   20   24 ar 
    24   21   22 ar 
    25   22   23 1  
    26   22   26 ar 
    27   24   25 ar 
    28   25   26 ar 
    29   25   30 ar 
    30   26   27 ar 
    31   27   28 ar 
    32   28   29 ar 
    33   29   30 ar 
    34   30   31 1  
    35   31   32 am 
    36   32   33 2  
    37   32   34 1  
    38   34   35 ar 
    39   34   38 ar 
    40   35   36 ar 
    41   36   37 1  
    42   36   40 ar 
    43   38   39 ar 
    44   39   40 ar 
    45   39   44 ar 
    46   40   41 ar 
    47   41   42 ar 
    48   42   43 ar 
    49   43   44 ar 
    50   44   45 1  
    51   45   46 am 
    52   46   47 2  
    53   46   48 1  
    54   48   49 ar 
    55   48   56 ar 
    56   49   50 ar 
    57   50   51 1  
    58   50   58 ar 
    59   51   52 1  
    60   52   53 1  
    61   53   54 1  
    62   53   55 1  
    63   56   57 ar 
    64   57   58 ar 
    65   57   62 ar 
    66   58   59 ar 
    67   59   60 ar 
    68   60   61 ar 
    69   61   62 ar 
    70   62   63 1  
    71   63   64 am 
    72   64   65 2  
    73   64   66 am 
    74   66   67 1  
    75   67   68 1  
    76   68   69 1  
    77   69   70 1  
    78   70   71 1  
    79   71   72 1  
    80   72   73 ar 
    81   72   74 ar 
    82   73   77 ar 
    83   74   75 ar 
    84   75   76 ar 
    85   76   77 ar 
    86   77   78 1  
    87   78   79 1  
    88   79   80 am 
    89   80   81 2  
    90   80   82 1  
    91   82   83 ar 
    92   82   91 ar 
    93   83   84 ar 
    94   84   85 ar 
    95   85   86 1  
    96   85   90 ar 
    97   86   87 2  
    98   86   88 2  
    99   86   89 am 
   100   90   91 ar 
   101    1   92 1  
   102    1   93 1  
   103    1   94 1  
   104    2   95 1  
   105    2   96 1  
   106    5   97 1  
   107   13   98 1  
   108   14   99 1  
   109   15  100 1  
   110   17  101 1  
   111   21  102 1  
   112   23  103 1  
   113   27  104 1  
   114   28  105 1  
   115   29  106 1  
   116   31  107 1  
   117   35  108 1  
   118   37  109 1  
   119   41  110 1  
   120   42  111 1  
   121   43  112 1  
   122   45  113 1  
   123   49  114 1  
   124   52  115 1  
   125   52  116 1  
   126   53  117 1  
   127   54  118 1  
   128   54  119 1  
   129   54  120 1  
   130   55  121 1  
   131   55  122 1  
   132   55  123 1  
   133   59  124 1  
   134   60  125 1  
   135   61  126 1  
   136   63  127 1  
   137   66  128 1  
   138   67  129 1  
   139   67  130 1  
   140   68  131 1  
   141   68  132 1  
   142   69  133 1  
   143   69  134 1  
   144   70  135 1  
   145   70  136 1  
   146   73  137 1  
   147   74  138 1  
   148   75  139 1  
   149   76  140 1  
   150   78  141 1  
   151   78  142 1  
   152   79  143 1  
   153   83  144 1  
   154   84  145 1  
   155   89  146 1  
   156   89  147 1  
   157   90  148 1  
   158   91  149 1  
@<TRIPOS>SUBSTRUCTURE
     1 Q4I         1

