4lp6_ligand
  -I-interpret- 

150159  0  0  0  0  0  0  0  0999 V2000
   -1.5540   -0.2230   61.2280 C   0  0  0  0  0
   -2.1090   -1.6950   61.2420 C   0  0  0  0  0
   -3.2010   -1.6910   62.2150 O   0  0  0  0  0
   -3.8450   -2.8950   62.4660 C   0  0  0  0  0
   -3.4180   -4.1490   62.1640 C   0  0  0  0  0
   -4.1600   -5.2630   62.5220 C   0  0  0  0  0
   -3.6030   -6.4700   62.1510 C   0  0  0  0  0
   -2.5450   -6.4860   61.4710 O   0  0  0  0  0
   -4.1810   -7.5600   62.3790 O   0  0  0  0  0
   -5.3590   -5.1570   63.1740 N   0  0  0  0  0
   -5.7970   -3.9060   63.4810 C   0  0  0  0  0
   -5.0340   -2.7760   63.1070 C   0  0  0  0  0
   -5.4290   -1.4580   63.3800 C   0  0  0  0  0
   -6.6490   -1.2850   63.9940 C   0  0  0  0  0
   -7.4370   -2.3730   64.3750 C   0  0  0  0  0
   -7.0510   -3.6870   64.0990 C   0  0  0  0  0
   -7.6870   -4.7940   64.5470 N   0  0  0  0  0
   -8.7640   -4.8330   65.3410 C   0  0  0  0  0
   -9.6390   -4.0230   65.3590 O   0  0  0  0  0
   -8.9920   -6.0720   65.8990 C   0  0  0  0  0
  -10.2150   -6.4610   66.4550 C   0  0  0  0  0
  -10.2930   -7.7780   66.9710 C   0  0  0  0  0
  -11.4420   -8.2940   67.5000 O   0  0  0  0  0
   -7.9280   -6.9150   65.9030 N   0  0  0  0  0
   -7.9870   -8.1610   66.4060 C   0  0  0  0  0
   -9.1830   -8.6310   66.9500 C   0  0  0  0  0
   -9.2310   -9.9380   67.4690 C   0  0  0  0  0
   -8.0950  -10.7370   67.4250 C   0  0  0  0  0
   -6.8920  -10.2470   66.8770 C   0  0  0  0  0
   -6.8270   -8.9460   66.3510 C   0  0  0  0  0
   -5.7530   -8.2810   65.8260 N   0  0  0  0  0
   -4.4670   -8.6470   65.9910 C   0  0  0  0  0
   -4.1480   -9.7690   66.2960 O   0  0  0  0  0
   -3.4670   -7.6850   65.6130 C   0  0  0  0  0
   -2.2600   -8.0340   64.9560 C   0  0  0  0  0
   -1.3110   -7.0550   64.5970 C   0  0  0  0  0
   -0.0540   -7.2900   63.9210 O   0  0  0  0  0
   -3.7000   -6.3760   65.9260 N   0  0  0  0  0
   -2.8200   -5.4120   65.6050 C   0  0  0  0  0
   -1.6320   -5.7400   64.9340 C   0  0  0  0  0
   -0.7490   -4.7370   64.6090 C   0  0  0  0  0
   -1.0480   -3.4370   64.9860 C   0  0  0  0  0
   -2.2540   -3.0800   65.6190 C   0  0  0  0  0
   -3.1510   -4.0810   65.9300 C   0  0  0  0  0
   -4.3510   -3.9220   66.5560 N   0  0  0  0  0
   -4.9760   -2.7590   66.8240 C   0  0  0  0  0
   -4.6480   -1.6210   66.4940 O   0  0  0  0  0
   -6.2070   -2.9210   67.4360 C   0  0  0  0  0
   -7.1300   -1.9050   67.4550 C   0  0  0  0  0
   -8.3720   -2.1070   68.0250 C   0  0  0  0  0
   -9.3920   -1.2210   68.0760 O   0  0  0  0  0
   -9.2300    0.1570   67.7200 C   0  0  0  0  0
   -9.7000    0.4490   66.2830 C   0  0  0  0  0
   -9.9250    1.9530   66.1920 C   0  0  0  0  0
  -11.0140   -0.2270   65.8720 C   0  0  0  0  0
   -6.5320   -4.0980   67.9660 N   0  0  0  0  0
   -7.7260   -4.2920   68.5480 C   0  0  0  0  0
   -8.6730   -3.3030   68.5780 C   0  0  0  0  0
   -9.9160   -3.5050   69.1900 C   0  0  0  0  0
  -10.1740   -4.7680   69.7500 C   0  0  0  0  0
   -9.1990   -5.7610   69.7200 C   0  0  0  0  0
   -7.9650   -5.5390   69.1200 C   0  0  0  0  0
   -6.9120   -6.4030   69.0000 N   0  0  0  0  0
   -6.8860   -7.6360   69.5840 C   0  0  0  0  0
   -7.8520   -8.1240   70.1840 O   0  0  0  0  0
   -5.7600   -8.3640   69.4400 N   0  0  0  0  0
   -5.7020   -9.7440   69.9900 C   0  0  0  0  0
   -4.3530  -10.0990   70.6390 C   0  0  0  0  0
   -4.3400   -9.6810   72.1210 C   0  0  0  0  0
   -3.2340  -10.4220   72.8580 C   0  0  0  0  0
   -2.0170   -9.6610   72.8950 O   0  0  0  0  0
   -1.6510   -8.9740   74.0150 C   0  0  0  0  0
   -0.4070   -8.3930   73.9710 C   0  0  0  0  0
   -2.4380   -8.8010   75.1600 C   0  0  0  0  0
   -1.9540   -8.0620   76.2450 C   0  0  0  0  0
   -0.6870   -7.4600   76.1560 C   0  0  0  0  0
    0.0780   -7.6020   75.0170 C   0  0  0  0  0
    1.3820   -6.9690   74.8650 C   0  0  0  0  0
    2.0860   -6.7040   76.1370 N   0  0  0  0  0
    2.7120   -7.7020   76.7930 C   0  0  0  0  0
    2.7140   -8.8620   76.3270 O   0  0  0  0  0
    3.3760   -7.3890   78.0240 C   0  0  0  0  0
    3.4120   -6.0660   78.6030 C   0  0  0  0  0
    4.0950   -5.8440   79.8050 C   0  0  0  0  0
    4.8090   -6.8510   80.4110 C   0  0  0  0  0
    5.6850   -6.5460   81.9330 S   0  0  0  0  0
    4.5010   -6.4130   82.8380 O   0  0  0  0  0
    6.6690   -7.6680   82.0650 O   0  0  0  0  0
    6.3770   -5.1230   81.9760 N   0  0  0  0  0
    4.7970   -8.1450   79.8570 C   0  0  0  0  0
    4.1040   -8.3940   78.6760 C   0  0  0  0  0
   -2.3494    0.4610   60.9321 H   0  0  0  0  0
   -1.1992    0.0397   62.2246 H   0  0  0  0  0
   -0.7302   -0.1534   60.5176 H   0  0  0  0  0
   -1.3341   -2.4117   61.5139 H   0  0  0  0  0
   -2.4546   -2.0012   60.2546 H   0  0  0  0  0
   -2.4762   -4.2808   61.6313 H   0  0  0  0  0
   -2.2136   -5.5901   61.3757 H   0  0  0  0  0
   -4.7981   -0.6087   63.1177 H   0  0  0  0  0
   -7.0085   -0.2743   64.1874 H   0  0  0  0  0
   -8.3751   -2.1929   64.9000 H   0  0  0  0  0
   -7.3063   -5.6921   64.2488 H   0  0  0  0  0
  -11.0677   -5.7829   66.4896 H   0  0  0  0  0
  -11.2827   -9.1949   67.7908 H   0  0  0  0  0
  -10.1543  -10.3216   67.9032 H   0  0  0  0  0
   -8.1344  -11.7529   67.8181 H   0  0  0  0  0
   -6.0062  -10.8820   66.8613 H   0  0  0  0  0
   -5.9395   -7.4471   65.2689 H   0  0  0  0  0
   -2.0617   -9.0804   64.7237 H   0  0  0  0  0
    0.4021   -6.4545   63.7963 H   0  0  0  0  0
    0.1689   -4.9601   64.0651 H   0  0  0  0  0
   -0.3160   -2.6553   64.7831 H   0  0  0  0  0
   -2.4733   -2.0392   65.8573 H   0  0  0  0  0
   -4.8265   -4.7740   66.8532 H   0  0  0  0  0
   -6.8824   -0.9370   67.0195 H   0  0  0  0  0
   -8.1695    0.4004   67.7848 H   0  0  0  0  0
   -9.8345    0.7555   68.4015 H   0  0  0  0  0
   -8.9313    0.0566   65.6173 H   0  0  0  0  0
  -10.6835    2.2501   66.9162 H   0  0  0  0  0
   -8.9914    2.4725   66.4080 H   0  0  0  0  0
  -10.2605    2.2087   65.1869 H   0  0  0  0  0
  -10.9039   -1.3088   65.9480 H   0  0  0  0  0
  -11.8144    0.1053   66.5331 H   0  0  0  0  0
  -11.2543    0.0437   64.8439 H   0  0  0  0  0
  -10.6593   -2.7088   69.2308 H   0  0  0  0  0
  -11.1414   -4.9707   70.2096 H   0  0  0  0  0
   -9.4068   -6.7295   70.1749 H   0  0  0  0  0
   -6.1062   -6.1115   68.4467 H   0  0  0  0  0
   -4.9528   -7.9701   68.9565 H   0  0  0  0  0
   -5.8528  -10.4317   69.1578 H   0  0  0  0  0
   -6.4644   -9.8166   70.7656 H   0  0  0  0  0
   -3.5578   -9.5689   70.1149 H   0  0  0  0  0
   -4.2017  -11.1765   70.5739 H   0  0  0  0  0
   -5.3009   -9.9275   72.5726 H   0  0  0  0  0
   -4.1621   -8.6079   72.1905 H   0  0  0  0  0
   -3.0383  -11.3568   72.3328 H   0  0  0  0  0
   -3.5614  -10.5957   73.8831 H   0  0  0  0  0
    0.2208   -8.5534   73.0945 H   0  0  0  0  0
   -3.4327   -9.2443   75.2064 H   0  0  0  0  0
   -2.5529   -7.9543   77.1493 H   0  0  0  0  0
   -0.3059   -6.8762   76.9939 H   0  0  0  0  0
    1.2146   -6.0044   74.3858 H   0  0  0  0  0
    2.0053   -7.6557   74.2923 H   0  0  0  0  0
    2.0985   -5.7593   76.5215 H   0  0  0  0  0
    2.9068   -5.2394   78.1035 H   0  0  0  0  0
    4.0602   -4.8576   80.2676 H   0  0  0  0  0
    5.9776   -4.3787   82.5478 H   0  0  0  0  0
    7.2223   -4.9503   81.4319 H   0  0  0  0  0
    5.3319   -8.9541   80.3543 H   0  0  0  0  0
    4.1279   -9.3958   78.2472 H   0  0  0  0  0
  1  2  1  0  0  0
  2  3  1  0  0  0
  3  4  1  0  0  0
  4  5  4  0  0  0
  4 12  4  0  0  0
  5  6  4  0  0  0
  6  7  1  0  0  0
  6 10  4  0  0  0
  7  8  1  0  0  0
  7  9  2  0  0  0
 10 11  4  0  0  0
 11 12  4  0  0  0
 11 16  4  0  0  0
 12 13  4  0  0  0
 13 14  4  0  0  0
 14 15  4  0  0  0
 15 16  4  0  0  0
 16 17  1  0  0  0
 17 18  1  0  0  0
 18 19  2  0  0  0
 18 20  1  0  0  0
 20 21  4  0  0  0
 20 24  4  0  0  0
 21 22  4  0  0  0
 22 23  1  0  0  0
 22 26  4  0  0  0
 24 25  4  0  0  0
 25 26  4  0  0  0
 25 30  4  0  0  0
 26 27  4  0  0  0
 27 28  4  0  0  0
 28 29  4  0  0  0
 29 30  4  0  0  0
 30 31  1  0  0  0
 31 32  1  0  0  0
 32 33  2  0  0  0
 32 34  1  0  0  0
 34 35  4  0  0  0
 34 38  4  0  0  0
 35 36  4  0  0  0
 36 37  1  0  0  0
 36 40  4  0  0  0
 38 39  4  0  0  0
 39 40  4  0  0  0
 39 44  4  0  0  0
 40 41  4  0  0  0
 41 42  4  0  0  0
 42 43  4  0  0  0
 43 44  4  0  0  0
 44 45  1  0  0  0
 45 46  1  0  0  0
 46 47  2  0  0  0
 46 48  1  0  0  0
 48 49  4  0  0  0
 48 56  4  0  0  0
 49 50  4  0  0  0
 50 51  1  0  0  0
 50 58  4  0  0  0
 51 52  1  0  0  0
 52 53  1  0  0  0
 53 54  1  0  0  0
 53 55  1  0  0  0
 56 57  4  0  0  0
 57 58  4  0  0  0
 57 62  4  0  0  0
 58 59  4  0  0  0
 59 60  4  0  0  0
 60 61  4  0  0  0
 61 62  4  0  0  0
 62 63  1  0  0  0
 63 64  1  0  0  0
 64 65  2  0  0  0
 64 66  1  0  0  0
 66 67  1  0  0  0
 67 68  1  0  0  0
 68 69  1  0  0  0
 69 70  1  0  0  0
 70 71  1  0  0  0
 71 72  1  0  0  0
 72 73  4  0  0  0
 72 74  4  0  0  0
 73 77  4  0  0  0
 74 75  4  0  0  0
 75 76  4  0  0  0
 76 77  4  0  0  0
 77 78  1  0  0  0
 78 79  1  0  0  0
 79 80  1  0  0  0
 80 81  2  0  0  0
 80 82  1  0  0  0
 82 83  4  0  0  0
 82 91  4  0  0  0
 83 84  4  0  0  0
 84 85  4  0  0  0
 85 86  1  0  0  0
 85 90  4  0  0  0
 86 87  2  0  0  0
 86 88  2  0  0  0
 86 89  1  0  0  0
 90 91  4  0  0  0
  1 92  1  0  0  0
  1 93  1  0  0  0
  1 94  1  0  0  0
  2 95  1  0  0  0
  2 96  1  0  0  0
  5 97  1  0  0  0
  8 98  1  0  0  0
 13 99  1  0  0  0
 14100  1  0  0  0
 15101  1  0  0  0
 17102  1  0  0  0
 21103  1  0  0  0
 23104  1  0  0  0
 27105  1  0  0  0
 28106  1  0  0  0
 29107  1  0  0  0
 31108  1  0  0  0
 35109  1  0  0  0
 37110  1  0  0  0
 41111  1  0  0  0
 42112  1  0  0  0
 43113  1  0  0  0
 45114  1  0  0  0
 49115  1  0  0  0
 52116  1  0  0  0
 52117  1  0  0  0
 53118  1  0  0  0
 54119  1  0  0  0
 54120  1  0  0  0
 54121  1  0  0  0
 55122  1  0  0  0
 55123  1  0  0  0
 55124  1  0  0  0
 59125  1  0  0  0
 60126  1  0  0  0
 61127  1  0  0  0
 63128  1  0  0  0
 66129  1  0  0  0
 67130  1  0  0  0
 67131  1  0  0  0
 68132  1  0  0  0
 68133  1  0  0  0
 69134  1  0  0  0
 69135  1  0  0  0
 70136  1  0  0  0
 70137  1  0  0  0
 73138  1  0  0  0
 74139  1  0  0  0
 75140  1  0  0  0
 76141  1  0  0  0
 78142  1  0  0  0
 78143  1  0  0  0
 79144  1  0  0  0
 83145  1  0  0  0
 84146  1  0  0  0
 89147  1  0  0  0
 89148  1  0  0  0
 90149  1  0  0  0
 91150  1  0  0  0
M  END
$$$$
