4hnc_ligand
  -I-interpret- 

 29 30  0  0  0  0  0  0  0  0999 V2000
   18.1370   21.6670   63.0190 O   0  0  0  0  0
   19.2540   22.2380   63.1670 C   0  0  0  0  0
   19.3010   23.5110   63.4160 O   0  0  0  0  0
   20.4990   21.3910   63.0270 C   0  0  0  0  0
   20.1520   20.2390   62.2960 O   0  0  0  0  0
   21.5970   22.1240   62.2900 C   0  0  0  0  0
   21.9050   19.9190   64.5300 C   0  0  0  0  0
   22.3530   19.5150   65.7900 C   0  0  0  0  0
   21.8770   20.1330   66.9530 C   0  0  0  0  0
   20.9660   21.1730   66.8420 C   0  0  0  0  0
   20.5290   21.5800   65.5650 C   0  0  0  0  0
   20.9830   20.9620   64.3920 C   0  0  0  0  0
   21.9050   23.4670   62.5310 C   0  0  0  0  0
   22.9250   24.1060   61.8380 C   0  0  0  0  0
   23.6430   23.4080   60.8850 C   0  0  0  0  0
   23.3570   22.0800   60.6320 C   0  0  0  0  0
   22.3430   21.4430   61.3380 C   0  0  0  0  0
   20.2170   23.7859   63.4998 H   0  0  0  0  0
   19.8419   20.4957   61.4245 H   0  0  0  0  0
   22.2799   19.4134   63.6401 H   0  0  0  0  0
   23.0822   18.7087   65.8689 H   0  0  0  0  0
   22.2182   19.8008   67.9335 H   0  0  0  0  0
   20.5908   21.6719   67.7355 H   0  0  0  0  0
   19.8159   22.4008   65.4876 H   0  0  0  0  0
   21.3344   24.0218   63.2758 H   0  0  0  0  0
   23.1578   25.1507   62.0442 H   0  0  0  0  0
   24.4379   23.9072   60.3309 H   0  0  0  0  0
   23.9256   21.5328   59.8801 H   0  0  0  0  0
   22.1304   20.3923   61.1409 H   0  0  0  0  0
  2  1  2  0  0  0
  2  3  1  0  0  0
  4  2  1  0  0  0
  4  5  1  0  0  0
  4  6  1  0  0  0
 12  4  1  0  0  0
  6 13  4  0  0  0
  6 17  4  0  0  0
  7  8  4  0  0  0
  7 12  4  0  0  0
  8  9  4  0  0  0
  9 10  4  0  0  0
 10 11  4  0  0  0
 11 12  4  0  0  0
 13 14  4  0  0  0
 14 15  4  0  0  0
 15 16  4  0  0  0
 16 17  4  0  0  0
  3 18  1  0  0  0
  5 19  1  0  0  0
  7 20  1  0  0  0
  8 21  1  0  0  0
  9 22  1  0  0  0
 10 23  1  0  0  0
 11 24  1  0  0  0
 13 25  1  0  0  0
 14 26  1  0  0  0
 15 27  1  0  0  0
 16 28  1  0  0  0
 17 29  1  0  0  0
M  END
$$$$
