5trs_ligand
  -I-interpret- 

 75 77  0  0  0  0  0  0  0  0999 V2000
   -4.3810  -25.2970   35.8710 C   0  0  0  0  0
   -3.4510  -24.3240   36.2660 C   0  0  0  0  0
   -2.3070  -23.7340   35.5260 C   0  0  0  0  0
   -3.7910  -23.9790   37.5520 O   0  0  0  0  0
   -4.8590  -24.6600   37.9860 N   0  0  0  0  0
   -5.2830  -25.4970   37.0110 C   0  0  0  0  0
   -6.4420  -26.4240   37.0940 C   0  0  0  0  0
   -6.9750  -26.5790   38.2130 O   0  0  0  0  0
   -7.9100  -28.5120   33.9640 O   0  0  0  0  0
   -8.1220  -28.9890   35.0980 C   0  0  0  0  0
   -8.1590  -28.0140   36.2110 C   0  0  0  0  0
   -9.5020  -27.2670   36.1460 C   0  0  0  0  0
  -10.3200  -27.0340   37.3670 C   0  0  0  0  0
  -10.7960  -25.7390   37.6880 N   0  0  0  0  0
  -11.5560  -25.4690   38.7970 O   0  0  0  0  0
  -12.9130  -25.0860   38.4920 C   0  0  0  0  0
  -13.7030  -26.1990   37.8480 C   0  0  0  0  0
  -13.6160  -24.6620   39.7710 C   0  0  0  0  0
  -12.8830  -23.8720   37.5610 C   0  0  0  0  0
  -10.6080  -28.0010   38.1030 O   0  0  0  0  0
   -7.0110  -27.1380   36.0620 N   0  0  0  0  0
   -6.2120  -32.3710   33.9360 O   0  0  0  0  0
   -8.3100  -30.3400   35.1490 N   0  0  0  0  0
   -8.2610  -31.1270   33.9540 C   0  0  0  0  0
   -9.6990  -31.3660   33.4360 C   0  0  0  0  0
  -10.5730  -31.4590   34.3240 O   0  0  0  0  0
   -7.5840  -32.4670   34.2530 C   0  0  0  0  0
   -5.8510  -33.3630   32.9900 C   0  0  0  0  0
  -13.4000  -28.6830   29.2240 C   0  0  0  0  0
  -12.7620  -29.7440   28.6330 C   0  0  0  0  0
  -13.3990  -28.5570   30.6340 C   0  0  0  0  0
  -12.7940  -29.3110   32.7920 C   0  0  0  0  0
  -12.7630  -29.4860   31.3890 C   0  0  0  0  0
  -13.4320  -28.2540   33.3850 C   0  0  0  0  0
  -10.0370  -31.4570   32.1120 N   0  0  0  0  0
  -11.3630  -31.6960   31.5760 C   0  0  0  0  0
  -12.0760  -30.6030   30.7940 C   0  0  0  0  0
  -12.1050  -30.6980   29.4240 C   0  0  0  0  0
  -14.0800  -27.3040   32.5990 C   0  0  0  0  0
  -14.0640  -27.4480   31.2410 C   0  0  0  0  0
   -4.4250  -25.8044   34.9073 H   0  0  0  0  0
   -1.6054  -24.5230   35.2551 H   0  0  0  0  0
   -2.6731  -23.2458   34.6228 H   0  0  0  0  0
   -1.8056  -23.0016   36.1587 H   0  0  0  0  0
   -8.0963  -28.4848   37.1921 H   0  0  0  0  0
  -10.1296  -27.9117   35.5307 H   0  0  0  0  0
   -9.2269  -26.2636   35.8209 H   0  0  0  0  0
  -10.5615  -24.9682   37.0625 H   0  0  0  0  0
  -13.2211  -26.4923   36.9154 H   0  0  0  0  0
  -13.7410  -27.0537   38.5233 H   0  0  0  0  0
  -14.7155  -25.8520   37.6418 H   0  0  0  0  0
  -13.6210  -25.4946   40.4745 H   0  0  0  0  0
  -13.0880  -23.8160   40.2110 H   0  0  0  0  0
  -14.6415  -24.3724   39.5416 H   0  0  0  0  0
  -12.3678  -23.0488   38.0560 H   0  0  0  0  0
  -12.3561  -24.1326   36.6431 H   0  0  0  0  0
  -13.9038  -23.5729   37.3231 H   0  0  0  0  0
   -6.5991  -27.0451   35.1335 H   0  0  0  0  0
   -8.4868  -30.7926   36.0458 H   0  0  0  0  0
   -7.6885  -30.5999   33.1908 H   0  0  0  0  0
   -7.7006  -32.7095   35.3093 H   0  0  0  0  0
   -8.0449  -33.2527   33.6545 H   0  0  0  0  0
   -6.0508  -34.3503   33.4065 H   0  0  0  0  0
   -6.4358  -33.2258   32.0805 H   0  0  0  0  0
   -4.7898  -33.2730   32.7581 H   0  0  0  0  0
  -13.9065  -27.9388   28.6094 H   0  0  0  0  0
  -12.7656  -29.8457   27.5478 H   0  0  0  0  0
  -12.2922  -30.0436   33.4241 H   0  0  0  0  0
  -13.4327  -28.1563   34.4706 H   0  0  0  0  0
   -9.2813  -31.3456   31.4361 H   0  0  0  0  0
  -11.9878  -31.8538   32.4551 H   0  0  0  0  0
  -11.2241  -32.5009   30.8543 H   0  0  0  0  0
  -11.6046  -31.5362   28.9391 H   0  0  0  0  0
  -14.5916  -26.4593   33.0603 H   0  0  0  0  0
  -14.5636  -26.7094   30.6141 H   0  0  0  0  0
  1  2  4  0  0  0
  6  1  4  0  0  0
  2  3  1  0  0  0
  4  2  4  0  0  0
  5  4  4  0  0  0
  6  5  4  0  0  0
  7  6  1  0  0  0
  7  8  2  0  0  0
 21  7  1  0  0  0
 10  9  2  0  0  0
 10 11  1  0  0  0
 23 10  1  0  0  0
 11 12  1  0  0  0
 11 21  1  0  0  0
 12 13  1  0  0  0
 13 14  1  0  0  0
 13 20  2  0  0  0
 14 15  1  0  0  0
 15 16  1  0  0  0
 16 17  1  0  0  0
 16 18  1  0  0  0
 16 19  1  0  0  0
 27 22  1  0  0  0
 22 28  1  0  0  0
 24 23  1  0  0  0
 25 24  1  0  0  0
 24 27  1  0  0  0
 25 26  2  0  0  0
 35 25  1  0  0  0
 29 30  4  0  0  0
 31 29  4  0  0  0
 30 38  4  0  0  0
 33 31  4  0  0  0
 31 40  4  0  0  0
 33 32  4  0  0  0
 32 34  4  0  0  0
 37 33  4  0  0  0
 34 39  4  0  0  0
 36 35  1  0  0  0
 36 37  1  0  0  0
 37 38  4  0  0  0
 39 40  4  0  0  0
  1 41  1  0  0  0
  3 42  1  0  0  0
  3 43  1  0  0  0
  3 44  1  0  0  0
 11 45  1  0  0  0
 12 46  1  0  0  0
 12 47  1  0  0  0
 14 48  1  0  0  0
 17 49  1  0  0  0
 17 50  1  0  0  0
 17 51  1  0  0  0
 18 52  1  0  0  0
 18 53  1  0  0  0
 18 54  1  0  0  0
 19 55  1  0  0  0
 19 56  1  0  0  0
 19 57  1  0  0  0
 21 58  1  0  0  0
 23 59  1  0  0  0
 24 60  1  0  0  0
 27 61  1  0  0  0
 27 62  1  0  0  0
 28 63  1  0  0  0
 28 64  1  0  0  0
 28 65  1  0  0  0
 29 66  1  0  0  0
 30 67  1  0  0  0
 32 68  1  0  0  0
 34 69  1  0  0  0
 35 70  1  0  0  0
 36 71  1  0  0  0
 36 72  1  0  0  0
 38 73  1  0  0  0
 39 74  1  0  0  0
 40 75  1  0  0  0
M  END
$$$$
