4zt5_ligand
  -I-interpret- 

 43 45  0  0  0  0  0  0  0  0999 V2000
  -43.0450   11.7330   10.4670 C   0  0  0  0  0
  -42.6100   12.4950    9.1620 C   0  0  0  0  0
  -41.0310   12.2680    7.2660 C   0  0  0  0  0
  -40.2750   13.5750    7.2770 C   0  0  0  0  0
  -38.8810   13.6120    7.3280 C   0  0  0  0  0
  -38.2290   14.8310    7.3000 C   0  0  0  0  0
  -38.9200   16.0270    7.2520 C   0  0  0  0  0
  -42.6250   13.5340   12.1890 N   0  0  0  0  0
  -42.0080   15.2450   13.7210 N   0  0  0  0  0
  -44.9940   16.2970   15.1870 N   0  0  0  0  0
  -44.1350   14.6410   13.6180 N   0  0  0  0  0
  -40.2980   15.9650    7.2070 C   0  0  0  0  0
  -41.2050   17.4410    7.1190 Cl  0  0  0  0  0
  -36.4750   14.8630    7.2910 Cl  0  0  0  0  0
  -40.9800   14.7680    7.2130 C   0  0  0  0  0
  -41.4350   11.8140    8.6010 N   0  3  0  0  0
  -44.1370   10.7150   10.1500 C   0  0  0  0  0
  -43.6120   12.6680   11.5660 C   0  0  0  0  0
  -42.9180   14.4280   13.1410 C   0  0  0  0  0
  -44.0020   15.6550   14.5410 C   0  0  0  0  0
  -42.6870   16.0360   14.6280 C   0  0  0  0  0
  -44.6440   17.3670   15.9180 C   0  0  0  0  0
  -43.3430   17.8240   16.0390 C   0  0  0  0  0
  -42.3290   17.1440   15.3830 C   0  0  0  0  0
  -42.1367   11.2582   10.8380 H   0  0  0  0  0
  -42.3652   13.5307    9.3975 H   0  0  0  0  0
  -43.4249   12.4926    8.4381 H   0  0  0  0  0
  -40.3682   11.5098    6.8490 H   0  0  0  0  0
  -41.9394   12.4200    6.6830 H   0  0  0  0  0
  -38.3097   12.6858    7.3895 H   0  0  0  0  0
  -38.3964   16.9830    7.2498 H   0  0  0  0  0
  -41.6549   13.4561   11.8837 H   0  0  0  0  0
  -42.0690   14.7584    7.1676 H   0  0  0  0  0
  -41.6809   10.8279    8.5139 H   0  0  0  0  0
  -40.6544   12.0116    9.2271 H   0  0  0  0  0
  -44.3798   10.1520   11.0512 H   0  0  0  0  0
  -45.0261   11.2364    9.7952 H   0  0  0  0  0
  -43.7823   10.0322    9.3780 H   0  0  0  0  0
  -44.0163   12.0289   12.3510 H   0  0  0  0  0
  -44.3466   13.3150   11.0865 H   0  0  0  0  0
  -45.4294   17.9071   16.4467 H   0  0  0  0  0
  -43.1195   18.7049   16.6408 H   0  0  0  0  0
  -41.2906   17.4670   15.4572 H   0  0  0  0  0
  1  2  1  0  0  0
  1 17  1  0  0  0
 18  1  1  0  0  0
  2 16  1  0  0  0
  3  4  1  0  0  0
 16  3  1  0  0  0
  4  5  4  0  0  0
  4 15  4  0  0  0
  5  6  4  0  0  0
  6  7  4  0  0  0
  6 14  1  0  0  0
  7 12  4  0  0  0
  8 18  1  0  0  0
 19  8  1  0  0  0
 19  9  4  0  0  0
  9 21  4  0  0  0
 20 10  4  0  0  0
 10 22  4  0  0  0
 11 19  4  0  0  0
 11 20  4  0  0  0
 12 13  1  0  0  0
 12 15  4  0  0  0
 20 21  4  0  0  0
 21 24  4  0  0  0
 22 23  4  0  0  0
 23 24  4  0  0  0
  1 25  1  0  0  0
  2 26  1  0  0  0
  2 27  1  0  0  0
  3 28  1  0  0  0
  3 29  1  0  0  0
  5 30  1  0  0  0
  7 31  1  0  0  0
  8 32  1  0  0  0
 15 33  1  0  0  0
 16 34  1  0  0  0
 16 35  1  0  0  0
 17 36  1  0  0  0
 17 37  1  0  0  0
 17 38  1  0  0  0
 18 39  1  0  0  0
 18 40  1  0  0  0
 22 41  1  0  0  0
 23 42  1  0  0  0
 24 43  1  0  0  0
M  END
$$$$
