3ce0_ligand
  -I-interpret- 

 55 57  0  0  0  0  0  0  0  0999 V2000
   21.7950   -7.7540   18.0360 C   0  0  0  0  0
   22.0100   -6.3750   17.5780 N   0  3  0  0  0
   21.1840   -5.4460   18.3610 C   0  0  0  0  0
   21.6570   -6.2600   16.1570 C   0  0  0  0  0
   22.8490   -6.2570   15.1840 C   0  0  0  0  0
   23.9550   -6.4330   15.5810 O   0  0  0  0  0
   22.5890   -6.1590   13.7510 N   0  0  0  0  0
   21.2190   -5.9190   13.3130 C   0  0  0  0  0
   20.4030   -7.0530   12.6470 C   0  0  0  0  0
   18.9420   -6.7820   12.2000 C   0  0  0  0  0
   18.1280   -7.8810   11.5410 C   0  0  0  0  0
   18.7740   -9.2750   11.3230 C   0  0  0  0  0
   17.9440  -10.3860   10.6560 C   0  0  0  0  0
   16.5010  -10.1350   10.2080 C   0  0  0  0  0
   15.8680   -8.7560   10.4270 C   0  0  0  0  0
   16.7070   -7.6300   11.1030 C   0  0  0  0  0
   16.0840   -6.2240   11.3330 C   0  0  0  0  0
   14.7630   -5.9630   10.9570 O   0  0  0  0  0
   16.8910   -5.1350   11.9840 N   0  3  0  0  0
   18.3160   -5.3880   12.4260 C   0  0  0  0  0
   19.1340   -4.2500   13.0970 C   0  0  0  0  0
   20.5870   -4.5150   13.5420 C   0  0  0  0  0
   20.7466   -8.0205   17.9025 H   0  0  0  0  0
   22.4203   -8.4306   17.4535 H   0  0  0  0  0
   22.0592   -7.8305   19.0907 H   0  0  0  0  0
   22.9940   -6.1384   17.7053 H   0  0  0  0  0
   21.3648   -4.4262   18.0211 H   0  0  0  0  0
   20.1315   -5.6945   18.2249 H   0  0  0  0  0
   21.4451   -5.5304   19.4159 H   0  0  0  0  0
   21.1523   -5.3015   16.0365 H   0  0  0  0  0
   21.0554   -7.1353   15.9122 H   0  0  0  0  0
   23.3457   -6.2558   13.0739 H   0  0  0  0  0
   20.8565   -6.1885   12.3210 H   0  0  0  0  0
   20.3192   -7.8215   13.4154 H   0  0  0  0  0
   20.9384   -7.2735   11.7235 H   0  0  0  0  0
   18.9114   -7.8686   12.1197 H   0  0  0  0  0
   17.2934   -7.2295   11.2820 H   0  0  0  0  0
   18.9856   -9.6463   12.3257 H   0  0  0  0  0
   19.6040   -9.0960   10.6396 H   0  0  0  0  0
   17.8507  -11.1466   11.4312 H   0  0  0  0  0
   18.4763  -10.5910    9.7272 H   0  0  0  0  0
   15.9019  -10.8128   10.8162 H   0  0  0  0  0
   16.5232  -10.2591    9.1253 H   0  0  0  0  0
   15.0400   -8.9357   11.1127 H   0  0  0  0  0
   15.6591   -8.3834    9.4242 H   0  0  0  0  0
   16.4864   -8.6520   10.7948 H   0  0  0  0  0
   16.5167   -6.6094   10.4098 H   0  0  0  0  0
   14.5447   -5.0528   11.1702 H   0  0  0  0  0
   16.3917   -4.9391   12.8516 H   0  0  0  0  0
   16.9772   -4.4216   11.2601 H   0  0  0  0  0
   19.2022   -5.1344   13.0078 H   0  0  0  0  0
   18.5980   -4.0336   14.0211 H   0  0  0  0  0
   19.2171   -3.4809   12.3291 H   0  0  0  0  0
   21.1887   -3.8397   12.9336 H   0  0  0  0  0
   20.5695   -4.3944   14.6252 H   0  0  0  0  0
  1  2  1  0  0  0
  2  3  1  0  0  0
  2  4  1  0  0  0
  4  5  1  0  0  0
  5  6  2  0  0  0
  5  7  1  0  0  0
  7  8  1  0  0  0
  8  9  1  0  0  0
  8 22  1  0  0  0
  9 10  1  0  0  0
 10 11  1  0  0  0
 10 20  1  0  0  0
 11 12  1  0  0  0
 11 16  1  0  0  0
 12 13  1  0  0  0
 13 14  1  0  0  0
 14 15  1  0  0  0
 15 16  1  0  0  0
 16 17  1  0  0  0
 17 18  1  0  0  0
 17 19  1  0  0  0
 19 20  1  0  0  0
 20 21  1  0  0  0
 21 22  1  0  0  0
  1 23  1  0  0  0
  1 24  1  0  0  0
  1 25  1  0  0  0
  2 26  1  0  0  0
  3 27  1  0  0  0
  3 28  1  0  0  0
  3 29  1  0  0  0
  4 30  1  0  0  0
  4 31  1  0  0  0
  7 32  1  0  0  0
  8 33  1  0  0  0
  9 34  1  0  0  0
  9 35  1  0  0  0
 10 36  1  0  0  0
 11 37  1  0  0  0
 12 38  1  0  0  0
 12 39  1  0  0  0
 13 40  1  0  0  0
 13 41  1  0  0  0
 14 42  1  0  0  0
 14 43  1  0  0  0
 15 44  1  0  0  0
 15 45  1  0  0  0
 16 46  1  0  0  0
 17 47  1  0  0  0
 18 48  1  0  0  0
 19 49  1  0  0  0
 19 50  1  0  0  0
 20 51  1  0  0  0
 21 52  1  0  0  0
 21 53  1  0  0  0
 22 54  1  0  0  0
 22 55  1  0  0  0
M  END
$$$$
