5diq_ligand
  -I-interpret- 

 35 37  0  0  0  0  0  0  0  0999 V2000
    3.3950   76.7520   28.5200 C   0  0  0  0  0
    2.7650   75.4770   28.4890 C   0  0  0  0  0
    2.6440   77.9090   28.1690 C   0  0  0  0  0
    0.6840   76.5280   27.7290 C   0  0  0  0  0
    4.5810   79.3280   28.5740 C   0  0  0  0  0
    5.6660   72.9830   28.2520 C   0  0  0  0  0
    6.8800   73.2950   27.5790 C   0  0  0  0  0
    5.6630   71.9470   29.2200 C   0  0  0  0  0
    8.0630   72.5940   27.8910 C   0  0  0  0  0
    6.9450   74.3690   26.5010 C   0  0  0  0  0
    6.8520   71.2630   29.5340 C   0  0  0  0  0
    8.0470   71.5800   28.8690 C   0  0  0  0  0
    4.7580   76.9230   28.8870 C   0  0  0  0  0
    3.5010   74.1670   28.8820 C   0  0  0  0  0
    1.4260   75.3850   28.0640 C   0  0  0  0  0
    1.3040   77.7850   27.7420 C   0  0  0  0  0
    3.2410   79.1920   28.1790 C   0  0  0  0  0
    5.3470   78.2000   28.9090 C   0  0  0  0  0
    4.4930   73.7050   27.9310 O   0  0  0  0  0
    8.0720   75.0670   26.3210 O   0  0  0  0  0
    5.9750   74.5890   25.7920 O   0  0  0  0  0
   -0.3686   76.4388   27.4602 H   0  0  0  0  0
    5.0315   80.3194   28.6212 H   0  0  0  0  0
    4.7344   71.6788   29.7238 H   0  0  0  0  0
    8.9916   72.8371   27.3746 H   0  0  0  0  0
    6.8451   70.4841   30.2965 H   0  0  0  0  0
    8.9634   71.0411   29.1096 H   0  0  0  0  0
    5.3552   76.0515   29.1553 H   0  0  0  0  0
    2.7409   73.3882   28.9435 H   0  0  0  0  0
    4.0318   74.3738   29.8113 H   0  0  0  0  0
    0.9553   74.4044   27.9936 H   0  0  0  0  0
    0.7508   78.6680   27.4220 H   0  0  0  0  0
    2.6645   80.0681   27.8822 H   0  0  0  0  0
    6.3952   78.3137   29.1854 H   0  0  0  0  0
    8.7325   74.7749   26.9535 H   0  0  0  0  0
  2  1  4  0  0  0
  1  3  4  0  0  0
  1 13  4  0  0  0
 14  2  1  0  0  0
  2 15  4  0  0  0
  3 16  4  0  0  0
  3 17  4  0  0  0
 15  4  4  0  0  0
  4 16  4  0  0  0
 17  5  4  0  0  0
 18  5  4  0  0  0
  6  7  4  0  0  0
  6  8  4  0  0  0
 19  6  1  0  0  0
  7  9  4  0  0  0
  7 10  1  0  0  0
  8 11  4  0  0  0
  9 12  4  0  0  0
 10 20  1  0  0  0
 10 21  2  0  0  0
 11 12  4  0  0  0
 13 18  4  0  0  0
 14 19  1  0  0  0
  4 22  1  0  0  0
  5 23  1  0  0  0
  8 24  1  0  0  0
  9 25  1  0  0  0
 11 26  1  0  0  0
 12 27  1  0  0  0
 13 28  1  0  0  0
 14 29  1  0  0  0
 14 30  1  0  0  0
 15 31  1  0  0  0
 16 32  1  0  0  0
 17 33  1  0  0  0
 18 34  1  0  0  0
 20 35  1  0  0  0
M  END
$$$$
