5i0l_ligand
  -I-interpret- 

 96 98  0  0  0  0  0  0  0  0999 V2000
   13.4410    4.4020   16.5630 C   0  0  0  0  0
   13.0760    4.9460   17.7820 C   0  0  0  0  0
   12.9210    7.1110   16.7690 C   0  0  0  0  0
   12.4300    6.9300   19.1490 C   0  0  0  0  0
   12.3810    6.9750   21.5430 C   0  0  0  0  0
   11.7240    8.1880   21.4980 C   0  0  0  0  0
   11.4320    8.7690   20.2830 C   0  0  0  0  0
   11.7870    8.1400   19.1120 C   0  0  0  0  0
   12.2000    5.7130   12.3680 C   0  0  0  0  0
    7.0430    4.1580    2.8050 O   0  0  0  0  0
    7.0160    4.7590    3.8610 C   0  0  0  0  0
    5.8540    4.6790    4.7990 C   0  0  0  0  0
    8.1510    5.5960    4.2140 O   0  0  0  0  0
    8.8470    5.0670    5.3430 C   0  0  0  0  0
    9.4910    6.1240    6.2490 C   0  0  0  0  0
    8.5490    7.0760    6.8570 N   0  0  0  0  0
    7.2360    6.9400    7.0950 C   0  0  0  0  0
    6.4640    7.8790    7.0200 O   0  0  0  0  0
    6.7720    5.5680    7.4750 C   0  0  0  0  0
    9.9500    4.1680    4.8200 C   0  0  0  0  0
    9.3300    3.3750    3.8020 O   0  0  0  0  0
    9.3550    1.9240    3.8690 C   0  0  0  0  0
   10.3320    1.3540    3.4460 O   0  0  0  0  0
    8.1790    1.1860    4.4230 C   0  0  0  0  0
   10.4990    3.4110    6.0190 C   0  0  0  0  0
   11.5160    2.3310    5.6720 C   0  0  0  0  0
   12.8340    2.8270    5.7620 O   0  0  0  0  0
   13.6760    2.2580    6.7720 C   0  0  0  0  0
   13.2370    2.2370    7.8930 O   0  0  0  0  0
   15.0270    1.7370    6.4140 C   0  0  0  0  0
   11.1130    4.3120    6.9510 O   0  0  0  0  0
   10.3840    5.4810    7.3280 C   0  0  0  0  0
   11.2870    6.4360    7.9530 N   0  0  0  0  0
   11.2420    6.6000    9.2840 C   0  0  0  0  0
    9.8350    6.7610    9.9180 S   0  0  0  0  0
   12.3380    6.6330   10.0660 N   0  0  0  0  0
   12.7660    5.5650   10.9630 C   0  0  0  0  0
   12.6120    4.6300   13.2600 N   0  0  0  0  0
   11.6070    3.5680   13.4870 C   0  0  0  0  0
   11.1890    2.9130   12.1940 C   0  0  0  0  0
   12.3910    2.2470   11.5710 C   0  0  0  0  0
   10.1330    1.8690   12.4630 C   0  0  0  0  0
   10.5510    3.9450   14.3760 C   0  0  0  0  0
   10.1620    3.2950   15.2430 O   0  0  0  0  0
   10.0610    4.9480   14.2210 O   0  0  0  0  0
   13.9380    4.6890   14.0140 S   0  0  0  0  0
   14.8390    5.5910   13.4410 O   0  0  0  0  0
   14.5860    3.4590   14.0850 O   0  0  0  0  0
   13.5490    5.2220   15.4470 C   0  0  0  0  0
   12.8080    6.2950   17.8740 C   0  0  0  0  0
   13.2870    6.5730   15.5570 C   0  0  0  0  0
   12.7330    6.3470   20.3620 C   0  0  0  0  0
   13.6430    3.3342   16.4789 H   0  0  0  0  0
   13.0008    4.3111   18.6648 H   0  0  0  0  0
   12.7210    8.1790   16.8552 H   0  0  0  0  0
   12.6206    6.5155   22.5019 H   0  0  0  0  0
   11.4361    8.6864   22.4236 H   0  0  0  0  0
   10.9183    9.7298   20.2496 H   0  0  0  0  0
   11.5566    8.6046   18.1533 H   0  0  0  0  0
   11.1127    5.6905   12.2946 H   0  0  0  0  0
   12.5748    6.6487   12.7827 H   0  0  0  0  0
    4.9567    5.0383    4.2953 H   0  0  0  0  0
    5.7088    3.6439    5.1081 H   0  0  0  0  0
    6.0525    5.2967    5.6749 H   0  0  0  0  0
    8.1090    4.5453    5.9524 H   0  0  0  0  0
   10.1107    6.7156    5.5752 H   0  0  0  0  0
    8.9528    7.9693    7.1385 H   0  0  0  0  0
    6.3241    5.5994    8.4682 H   0  0  0  0  0
    6.0326    5.2228    6.7523 H   0  0  0  0  0
    7.6227    4.8866    7.4801 H   0  0  0  0  0
   10.8095    4.6611    4.3659 H   0  0  0  0  0
    7.7647    0.5349    3.6532 H   0  0  0  0  0
    8.4970    0.5860    5.2756 H   0  0  0  0  0
    7.4208    1.9008    4.7427 H   0  0  0  0  0
    9.6295    2.9172    6.4529 H   0  0  0  0  0
   11.3372    1.9990    4.6493 H   0  0  0  0  0
   11.4043    1.5072    6.3769 H   0  0  0  0  0
   15.7861    2.2865    6.9706 H   0  0  0  0  0
   15.0852    0.6781    6.6660 H   0  0  0  0  0
   15.1935    1.8670    5.3447 H   0  0  0  0  0
    9.6413    5.1376    8.0481 H   0  0  0  0  0
   11.9445    6.9729    7.3875 H   0  0  0  0  0
   12.9157    7.4728   10.0280 H   0  0  0  0  0
   12.4042    4.6212   10.5550 H   0  0  0  0  0
   13.8529    5.6049   11.0349 H   0  0  0  0  0
   12.0947    2.7738   14.0522 H   0  0  0  0  0
   10.7845    3.6689   11.5208 H   0  0  0  0  0
   13.1581    2.9958   11.3737 H   0  0  0  0  0
   12.7833    1.4947   12.2553 H   0  0  0  0  0
   12.0969    1.7710   10.6355 H   0  0  0  0  0
   10.5356    1.1118   13.1359 H   0  0  0  0  0
    9.2655    2.3418   12.9234 H   0  0  0  0  0
    9.8379    1.4020   11.5234 H   0  0  0  0  0
   10.6555    2.4721   15.2709 H   0  0  0  0  0
   13.3704    7.2156   14.6805 H   0  0  0  0  0
   13.2514    5.3886   20.3898 H   0  0  0  0  0
  1  2  4  0  0  0
 49  1  4  0  0  0
  2 50  4  0  0  0
 50  3  4  0  0  0
  3 51  4  0  0  0
  4  8  4  0  0  0
 50  4  1  0  0  0
  4 52  4  0  0  0
  5  6  4  0  0  0
 52  5  4  0  0  0
  7  6  4  0  0  0
  8  7  4  0  0  0
  9 37  1  0  0  0
 38  9  1  0  0  0
 11 10  2  0  0  0
 11 12  1  0  0  0
 13 11  1  0  0  0
 14 13  1  0  0  0
 15 14  1  0  0  0
 14 20  1  0  0  0
 15 16  1  0  0  0
 32 15  1  0  0  0
 16 17  1  0  0  0
 17 18  2  0  0  0
 17 19  1  0  0  0
 20 21  1  0  0  0
 25 20  1  0  0  0
 21 22  1  0  0  0
 22 23  2  0  0  0
 22 24  1  0  0  0
 25 26  1  0  0  0
 31 25  1  0  0  0
 26 27  1  0  0  0
 27 28  1  0  0  0
 28 29  2  0  0  0
 28 30  1  0  0  0
 32 31  1  0  0  0
 33 32  1  0  0  0
 34 33  1  0  0  0
 34 35  2  0  0  0
 36 34  1  0  0  0
 37 36  1  0  0  0
 38 39  1  0  0  0
 46 38  1  0  0  0
 39 40  1  0  0  0
 39 43  1  0  0  0
 40 41  1  0  0  0
 40 42  1  0  0  0
 43 44  1  0  0  0
 43 45  2  0  0  0
 46 47  2  0  0  0
 46 48  2  0  0  0
 46 49  1  0  0  0
 49 51  4  0  0  0
  1 53  1  0  0  0
  2 54  1  0  0  0
  3 55  1  0  0  0
  5 56  1  0  0  0
  6 57  1  0  0  0
  7 58  1  0  0  0
  8 59  1  0  0  0
  9 60  1  0  0  0
  9 61  1  0  0  0
 12 62  1  0  0  0
 12 63  1  0  0  0
 12 64  1  0  0  0
 14 65  1  0  0  0
 15 66  1  0  0  0
 16 67  1  0  0  0
 19 68  1  0  0  0
 19 69  1  0  0  0
 19 70  1  0  0  0
 20 71  1  0  0  0
 24 72  1  0  0  0
 24 73  1  0  0  0
 24 74  1  0  0  0
 25 75  1  0  0  0
 26 76  1  0  0  0
 26 77  1  0  0  0
 30 78  1  0  0  0
 30 79  1  0  0  0
 30 80  1  0  0  0
 32 81  1  0  0  0
 33 82  1  0  0  0
 36 83  1  0  0  0
 37 84  1  0  0  0
 37 85  1  0  0  0
 39 86  1  0  0  0
 40 87  1  0  0  0
 41 88  1  0  0  0
 41 89  1  0  0  0
 41 90  1  0  0  0
 42 91  1  0  0  0
 42 92  1  0  0  0
 42 93  1  0  0  0
 44 94  1  0  0  0
 51 95  1  0  0  0
 52 96  1  0  0  0
M  END
$$$$
