5e5g_ligand
  -I-interpret- 

 27 28  0  0  0  0  0  0  0  0999 V2000
   92.6110  -39.6180  -19.5630 N   0  3  0  0  0
   93.8710  -39.6860  -18.7660 C   0  0  0  0  0
   95.0510  -39.6720  -19.7230 C   0  0  0  0  0
   96.2440  -39.0440  -19.0490 C   0  0  0  0  0
   96.3740  -37.7470  -18.5630 C   0  0  0  0  0
   97.6130  -37.5490  -18.0890 N   0  0  0  0  0
   98.3660  -38.6810  -18.2900 C   0  0  0  0  0
   99.7190  -38.9500  -17.9790 C   0  0  0  0  0
  100.2040  -40.2120  -18.3150 C   0  0  0  0  0
   99.3990  -41.1720  -18.9320 C   0  0  0  0  0
   98.0830  -40.9000  -19.2000 C   0  0  0  0  0
   97.5520  -39.6590  -18.8810 C   0  0  0  0  0
   93.9140  -40.9330  -17.9280 C   0  0  0  0  0
   93.0460  -41.8600  -18.0900 O   0  0  0  0  0
   94.7400  -40.9220  -17.0140 O   0  0  0  0  0
   92.6086  -38.7640  -20.1208 H   0  0  0  0  0
   92.5561  -40.4285  -20.1798 H   0  0  0  0  0
   91.8102  -39.6152  -18.9312 H   0  0  0  0  0
   93.9142  -38.8283  -18.0948 H   0  0  0  0  0
   94.7906  -39.0935  -20.6094 H   0  0  0  0  0
   95.2952  -40.6946  -20.0106 H   0  0  0  0  0
   95.5818  -36.9983  -18.5669 H   0  0  0  0  0
  100.3529  -38.2046  -17.4987 H   0  0  0  0  0
  101.2419  -40.4572  -18.0898 H   0  0  0  0  0
   99.8190  -42.1411  -19.2013 H   0  0  0  0  0
   97.4533  -41.6591  -19.6640 H   0  0  0  0  0
   92.5095  -41.6633  -18.8614 H   0  0  0  0  0
  1  2  1  0  0  0
  2  3  1  0  0  0
  2 13  1  0  0  0
  3  4  1  0  0  0
  4  5  4  0  0  0
  4 12  4  0  0  0
  5  6  4  0  0  0
  6  7  4  0  0  0
  7  8  4  0  0  0
  7 12  4  0  0  0
  8  9  4  0  0  0
  9 10  4  0  0  0
 10 11  4  0  0  0
 11 12  4  0  0  0
 13 14  1  0  0  0
 13 15  2  0  0  0
  1 16  1  0  0  0
  1 17  1  0  0  0
  1 18  1  0  0  0
  2 19  1  0  0  0
  3 20  1  0  0  0
  3 21  1  0  0  0
  5 22  1  0  0  0
  8 23  1  0  0  0
  9 24  1  0  0  0
 10 25  1  0  0  0
 11 26  1  0  0  0
 14 27  1  0  0  0
M  END
$$$$
