3uhm_ligand
  -I-interpret- 

 47 48  0  0  0  0  0  0  0  0999 V2000
    2.0260  -10.1300   -1.6500 N   0  0  0  0  0
    1.0360  -13.4800   -5.3800 C   0  0  0  0  0
    0.3830  -13.1080   -4.2110 C   0  0  0  0  0
   -0.8810  -13.6280   -3.9510 C   0  0  0  0  0
    0.9660  -12.0960   -3.2940 C   0  0  0  0  0
    0.1360  -11.1090   -2.6590 C   0  0  0  0  0
    2.9070  -11.0510   -2.1960 C   0  0  0  0  0
    2.7500   -7.8330   -1.8140 C   0  0  0  0  0
    2.6030   -6.0720   -0.0040 C   0  0  0  0  0
    4.8490   -6.7760   -0.8760 C   0  0  0  0  0
   -1.4660  -14.5430   -4.8240 C   0  0  0  0  0
   -0.7770  -14.9140   -5.9580 C   0  0  0  0  0
    0.4710  -14.4030   -6.2620 C   0  0  0  0  0
    0.6730  -10.1710   -1.8810 C   0  0  0  0  0
    2.3000  -12.0760   -3.0740 C   0  0  0  0  0
    4.1210  -11.0280   -2.0030 O   0  0  0  0  0
    2.5570   -9.0170   -0.8790 C   0  0  0  0  0
    3.3830   -6.5600   -1.2220 C   0  0  0  0  0
    3.4960   -5.3330   -2.5230 S   0  0  0  0  0
    1.8320   -5.0940   -3.0960 C   0  0  0  0  0
    4.2980   -5.8800   -3.5980 O   0  0  0  0  0
    3.9510   -4.0670   -1.9670 O   0  0  0  0  0
    1.4240   -5.7620   -0.0630 O   0  0  0  0  0
    3.3170   -6.0650    1.1710 N   0  0  0  0  0
    2.5020   -5.6080    2.2600 O   0  0  0  0  0
    2.0072  -13.0431   -5.6125 H   0  0  0  0  0
   -1.4189  -13.3166   -3.0556 H   0  0  0  0  0
   -0.9425  -11.1285   -2.8157 H   0  0  0  0  0
    1.7488   -7.5433   -2.1331 H   0  0  0  0  0
    3.4415   -8.1752   -2.5840 H   0  0  0  0  0
    5.3806   -7.1319   -1.7585 H   0  0  0  0  0
    5.2850   -5.8342   -0.5429 H   0  0  0  0  0
    4.9278   -7.5161   -0.0797 H   0  0  0  0  0
   -2.4516  -14.9581   -4.6134 H   0  0  0  0  0
   -1.2311  -15.6345   -6.6382 H   0  0  0  0  0
    0.9987  -14.7118   -7.1644 H   0  0  0  0  0
    0.4678   -9.2405   -2.4103 H   0  0  0  0  0
    0.2438  -10.3663   -0.8983 H   0  0  0  0  0
    2.7287  -11.8736   -4.0555 H   0  0  0  0  0
    2.4995  -13.0173   -2.5619 H   0  0  0  0  0
    3.5100   -9.2961   -0.4294 H   0  0  0  0  0
    1.8637   -8.7523   -0.0806 H   0  0  0  0  0
    1.8350   -4.4024   -3.9384 H   0  0  0  0  0
    1.4167   -6.0511   -3.4115 H   0  0  0  0  0
    1.2266   -4.6823   -2.2884 H   0  0  0  0  0
    4.2936   -6.3465    1.2569 H   0  0  0  0  0
    3.0194   -5.6111    3.0687 H   0  0  0  0  0
  1  7  1  0  0  0
 14  1  1  0  0  0
  1 17  1  0  0  0
  3  2  4  0  0  0
  2 13  4  0  0  0
  3  4  4  0  0  0
  5  3  1  0  0  0
  4 11  4  0  0  0
  6  5  2  0  0  0
  5 15  1  0  0  0
  6 14  1  0  0  0
  7 15  1  0  0  0
  7 16  2  0  0  0
 17  8  1  0  0  0
  8 18  1  0  0  0
 18  9  1  0  0  0
  9 23  2  0  0  0
  9 24  1  0  0  0
 18 10  1  0  0  0
 11 12  4  0  0  0
 12 13  4  0  0  0
 18 19  1  0  0  0
 19 20  1  0  0  0
 19 21  2  0  0  0
 19 22  2  0  0  0
 24 25  1  0  0  0
  2 26  1  0  0  0
  4 27  1  0  0  0
  6 28  1  0  0  0
  8 29  1  0  0  0
  8 30  1  0  0  0
 10 31  1  0  0  0
 10 32  1  0  0  0
 10 33  1  0  0  0
 11 34  1  0  0  0
 12 35  1  0  0  0
 13 36  1  0  0  0
 14 37  1  0  0  0
 14 38  1  0  0  0
 15 39  1  0  0  0
 15 40  1  0  0  0
 17 41  1  0  0  0
 17 42  1  0  0  0
 20 43  1  0  0  0
 20 44  1  0  0  0
 20 45  1  0  0  0
 24 46  1  0  0  0
 25 47  1  0  0  0
M  END
$$$$
