4yqu_ligand
  -I-interpret- 

 44 45  0  0  0  0  0  0  0  0999 V2000
   15.6480   -8.5690    0.7580 O   0  0  0  0  0
   16.2170   -9.6520    1.5040 S   0  0  0  0  0
   15.5780  -10.1010    2.6970 O   0  0  0  0  0
   16.2890  -10.9280    0.4880 N   0  0  0  0  0
   15.7950  -10.7100   -0.8860 C   0  0  0  0  0
   16.1670  -11.7310   -1.9460 C   0  0  0  0  0
   15.5840  -13.1270   -1.7370 C   0  0  0  0  0
   16.2210  -13.9960   -0.6550 C   0  0  0  0  0
   16.1560  -13.4740    0.7750 C   0  0  0  0  0
   16.9000  -12.1690    1.0060 C   0  0  0  0  0
   17.8840   -9.2320    1.8940 C   0  0  0  0  0
   18.6090   -8.4560    1.0040 C   0  0  0  0  0
   18.4910   -9.7800    3.0210 C   0  0  0  0  0
   19.8510   -9.5970    3.2250 C   0  0  0  0  0
   20.5960   -8.8360    2.3220 C   0  0  0  0  0
   21.9460   -8.6090    2.4040 O   0  0  0  0  0
   22.6290   -9.0250    3.5910 C   0  0  0  0  0
   19.9640   -8.2320    1.2130 C   0  0  0  0  0
   20.7200   -7.3240    0.4370 N   0  0  0  0  0
   20.5060   -6.9340   -0.8320 C   0  0  0  0  0
   19.6730   -7.4470   -1.5820 O   0  0  0  0  0
   21.3930   -5.7960   -1.2900 C   0  0  0  0  0
   16.2499   -9.7748   -1.2124 H   0  0  0  0  0
   14.7082  -10.7511   -0.8130 H   0  0  0  0  0
   17.2514  -11.8364   -1.9122 H   0  0  0  0  0
   15.7658  -11.3624   -2.8901 H   0  0  0  0  0
   15.7451  -13.6579   -2.6752 H   0  0  0  0  0
   14.5521  -12.9721   -1.4220 H   0  0  0  0  0
   17.2806  -14.0537   -0.9039 H   0  0  0  0  0
   15.6626  -14.9321   -0.6568 H   0  0  0  0  0
   16.6261  -14.2251    1.4097 H   0  0  0  0  0
   15.1058  -13.2854    0.9976 H   0  0  0  0  0
   16.9401  -12.0442    2.0881 H   0  0  0  0  0
   17.8444  -12.2737    0.4718 H   0  0  0  0  0
   18.1142   -8.0195    0.1364 H   0  0  0  0  0
   17.9009  -10.3496    3.7390 H   0  0  0  0  0
   20.3379  -10.0472    4.0901 H   0  0  0  0  0
   22.2030   -8.5112    4.4528 H   0  0  0  0  0
   22.5152  -10.1019    3.7156 H   0  0  0  0  0
   23.6871   -8.7776    3.5054 H   0  0  0  0  0
   21.5311   -6.9122    0.8984 H   0  0  0  0  0
   21.9928   -6.1236   -2.1391 H   0  0  0  0  0
   20.7727   -4.9502   -1.5865 H   0  0  0  0  0
   22.0499   -5.4976   -0.4730 H   0  0  0  0  0
  1  2  2  0  0  0
  2  3  2  0  0  0
  2  4  1  0  0  0
  2 11  1  0  0  0
  4  5  1  0  0  0
  4 10  1  0  0  0
  5  6  1  0  0  0
  6  7  1  0  0  0
  7  8  1  0  0  0
  8  9  1  0  0  0
  9 10  1  0  0  0
 11 12  4  0  0  0
 11 13  4  0  0  0
 12 18  4  0  0  0
 13 14  4  0  0  0
 14 15  4  0  0  0
 15 16  1  0  0  0
 15 18  4  0  0  0
 16 17  1  0  0  0
 18 19  1  0  0  0
 19 20  1  0  0  0
 20 21  2  0  0  0
 20 22  1  0  0  0
  5 23  1  0  0  0
  5 24  1  0  0  0
  6 25  1  0  0  0
  6 26  1  0  0  0
  7 27  1  0  0  0
  7 28  1  0  0  0
  8 29  1  0  0  0
  8 30  1  0  0  0
  9 31  1  0  0  0
  9 32  1  0  0  0
 10 33  1  0  0  0
 10 34  1  0  0  0
 12 35  1  0  0  0
 13 36  1  0  0  0
 14 37  1  0  0  0
 17 38  1  0  0  0
 17 39  1  0  0  0
 17 40  1  0  0  0
 19 41  1  0  0  0
 22 42  1  0  0  0
 22 43  1  0  0  0
 22 44  1  0  0  0
M  END
$$$$
