5e73_ligand
  -I-interpret- 

 42 44  0  0  0  0  0  0  0  0999 V2000
  -25.7350  -11.2460    0.4780 C   0  0  0  0  0
  -26.2460   -9.8400    0.7660 C   0  0  0  0  0
  -25.5190   -9.0410    1.3260 O   0  0  0  0  0
  -27.5760   -9.4770    0.3540 N   0  0  0  0  0
  -28.4240  -10.3030   -0.2930 C   0  0  0  0  0
  -29.5930   -9.5860   -0.5350 C   0  0  0  0  0
  -30.7610  -10.0840   -1.2070 N   0  0  0  0  0
  -31.2110   -9.4700   -2.4410 C   0  0  0  0  0
  -32.4340   -9.9880   -3.1710 C   0  0  0  0  0
  -30.6030   -8.5230   -2.9030 O   0  0  0  0  0
  -31.4380  -11.2180   -0.6420 C   0  0  0  0  0
  -31.2230  -12.4840   -1.2060 C   0  0  0  0  0
  -30.3050  -12.6560   -2.4020 C   0  0  0  0  0
  -31.8770  -13.5970   -0.6610 C   0  0  0  0  0
  -32.7240  -13.4410    0.4370 C   0  0  0  0  0
  -32.9240  -12.1770    0.9960 C   0  0  0  0  0
  -32.2760  -11.0590    0.4580 C   0  0  0  0  0
  -33.7830  -12.0290    2.1080 O   0  0  0  0  0
  -29.4300   -8.2670    0.0150 C   0  0  0  0  0
  -28.1540   -8.2400    0.5560 C   0  0  0  0  0
  -27.6700   -7.0560    1.1880 C   0  0  0  0  0
  -28.4850   -5.9240    1.2610 C   0  0  0  0  0
  -29.7790   -5.9520    0.7130 C   0  0  0  0  0
  -30.2590   -7.1110    0.0900 C   0  0  0  0  0
  -24.8554  -11.1873   -0.1631 H   0  0  0  0  0
  -25.4706  -11.7343    1.4159 H   0  0  0  0  0
  -26.5146  -11.8188   -0.0241 H   0  0  0  0  0
  -28.2303  -11.3382   -0.5739 H   0  0  0  0  0
  -33.1774   -9.1939   -3.2406 H   0  0  0  0  0
  -32.1487  -10.3092   -4.1728 H   0  0  0  0  0
  -32.8524  -10.8321   -2.6228 H   0  0  0  0  0
  -30.6825  -12.0647   -3.2362 H   0  0  0  0  0
  -29.3022  -12.3185   -2.1402 H   0  0  0  0  0
  -30.2732  -13.7080   -2.6857 H   0  0  0  0  0
  -31.7241  -14.5851   -1.0949 H   0  0  0  0  0
  -33.2310  -14.3084    0.8596 H   0  0  0  0  0
  -32.4263  -10.0725    0.8966 H   0  0  0  0  0
  -33.8111  -11.1055    2.3686 H   0  0  0  0  0
  -26.6665   -7.0349    1.6129 H   0  0  0  0  0
  -28.1173   -5.0183    1.7433 H   0  0  0  0  0
  -30.4124   -5.0670    0.7732 H   0  0  0  0  0
  -31.2624   -7.1283   -0.3355 H   0  0  0  0  0
  1  2  1  0  0  0
  2  3  2  0  0  0
  2  4  1  0  0  0
  4  5  4  0  0  0
  4 20  4  0  0  0
  5  6  4  0  0  0
  6  7  1  0  0  0
  6 19  4  0  0  0
  7  8  1  0  0  0
  7 11  1  0  0  0
  8  9  1  0  0  0
  8 10  2  0  0  0
 11 12  4  0  0  0
 11 17  4  0  0  0
 12 13  1  0  0  0
 12 14  4  0  0  0
 14 15  4  0  0  0
 15 16  4  0  0  0
 16 17  4  0  0  0
 16 18  1  0  0  0
 19 20  4  0  0  0
 19 24  4  0  0  0
 20 21  4  0  0  0
 21 22  4  0  0  0
 22 23  4  0  0  0
 23 24  4  0  0  0
  1 25  1  0  0  0
  1 26  1  0  0  0
  1 27  1  0  0  0
  5 28  1  0  0  0
  9 29  1  0  0  0
  9 30  1  0  0  0
  9 31  1  0  0  0
 13 32  1  0  0  0
 13 33  1  0  0  0
 13 34  1  0  0  0
 14 35  1  0  0  0
 15 36  1  0  0  0
 17 37  1  0  0  0
 18 38  1  0  0  0
 21 39  1  0  0  0
 22 40  1  0  0  0
 23 41  1  0  0  0
 24 42  1  0  0  0
M  END
$$$$
