5qa5_ligand
  -I-interpret- 

 28 29  0  0  0  0  0  0  0  0999 V2000
   97.0790  255.0560    7.0790 C   0  0  0  0  0
   96.7740  256.0340    7.8140 O   0  0  0  0  0
   96.5600  253.6940    7.4680 C   0  0  0  0  0
   97.7610  249.7240    5.8000 C   0  0  0  0  0
   95.5030  251.2150    8.1270 C   0  0  0  0  0
   95.3220  252.2950    8.9740 C   0  0  0  0  0
   95.8460  253.5300    8.6460 C   0  0  0  0  0
   96.7560  252.5990    6.6280 C   0  0  0  0  0
   96.2340  251.3450    6.9440 C   0  0  0  0  0
   96.4640  250.1760    6.0560 C   0  0  0  0  0
   95.3970  249.4570    5.5250 C   0  0  0  0  0
   95.6200  248.3120    4.7840 C   0  0  0  0  0
   96.9110  247.8700    4.5620 C   0  0  0  0  0
   97.9970  248.5680    5.0620 C   0  0  0  0  0
   99.4050  248.0860    4.8110 C   0  0  0  0  0
   97.7590  255.1320    6.0350 O   0  0  0  0  0
   96.2482  255.7242    8.5551 H   0  0  0  0  0
   98.6080  250.2902    6.1875 H   0  0  0  0  0
   95.0689  250.2496    8.3870 H   0  0  0  0  0
   94.7644  252.1703    9.9023 H   0  0  0  0  0
   95.6981  254.3781    9.3145 H   0  0  0  0  0
   97.3272  252.7251    5.7082 H   0  0  0  0  0
   94.3765  249.8001    5.6951 H   0  0  0  0  0
   94.7766  247.7565    4.3739 H   0  0  0  0  0
   97.0760  246.9597    3.9856 H   0  0  0  0  0
   99.9593  248.8531    4.2702 H   0  0  0  0  0
   99.8946  247.8861    5.7641 H   0  0  0  0  0
   99.3745  247.1719    4.2180 H   0  0  0  0  0
  1  2  1  0  0  0
  3  1  1  0  0  0
  1 16  2  0  0  0
  3  7  4  0  0  0
  8  3  4  0  0  0
 10  4  4  0  0  0
  4 14  4  0  0  0
  5  6  4  0  0  0
  9  5  4  0  0  0
  6  7  4  0  0  0
  9  8  4  0  0  0
  9 10  1  0  0  0
 10 11  4  0  0  0
 11 12  4  0  0  0
 12 13  4  0  0  0
 13 14  4  0  0  0
 14 15  1  0  0  0
  2 17  1  0  0  0
  4 18  1  0  0  0
  5 19  1  0  0  0
  6 20  1  0  0  0
  7 21  1  0  0  0
  8 22  1  0  0  0
 11 23  1  0  0  0
 12 24  1  0  0  0
 13 25  1  0  0  0
 15 26  1  0  0  0
 15 27  1  0  0  0
 15 28  1  0  0  0
M  END
$$$$
