6nzq_ligand
  -I-interpret- 

 64 67  0  0  0  0  0  0  0  0999 V2000
    8.6630   -3.1720   32.0000 C   0  0  0  0  0
   15.8960   -0.3630   30.4100 C   0  0  0  0  0
    6.4240   -4.2990   31.9130 C   0  0  0  0  0
    9.7390   -5.1040   30.5320 C   0  0  0  0  0
    8.4200   -5.1660   30.8840 C   0  0  0  0  0
   17.4340    1.1960   31.4350 C   0  0  0  0  0
   14.7970   -4.1010   28.6290 C   0  0  0  0  0
   13.9650   -5.1460   28.9820 C   0  0  0  0  0
   13.8290   -6.2290   28.1610 C   0  0  0  0  0
   14.5660   -6.3340   27.0150 C   0  0  0  0  0
   15.4680   -5.3450   26.6670 C   0  0  0  0  0
   14.1280   -2.1730   30.2430 C   0  0  0  0  0
    9.9860   -3.1380   31.5930 C   0  0  0  0  0
   16.3340   -5.6890   25.5100 C   0  0  0  0  0
   18.3880   -5.4090   23.2570 C   0  0  0  0  0
   17.9910   -6.2460   22.2370 C   0  0  0  0  0
   18.6490   -4.1180   23.0610 N   0  0  0  0  0
   18.5890   -5.9060   24.6670 C   0  0  0  0  0
   17.8860   -5.7290   20.9710 C   0  0  0  0  0
   18.5370   -3.6490   21.8190 C   0  0  0  0  0
   17.6140   -5.3530   25.5810 N   0  0  0  0  0
   18.1690   -4.4130   20.7530 C   0  0  0  0  0
   14.6140   -1.0040   30.8500 C   0  0  0  0  0
   13.7900   -0.3580   31.7540 C   0  0  0  0  0
   12.5700   -0.7570   32.0890 N   0  0  0  0  0
   12.1010   -1.8150   31.5050 C   0  0  0  0  0
   12.8220   -2.5290   30.5630 C   0  0  0  0  0
   10.8230   -2.1030   31.8900 N   0  0  0  0  0
    7.8840   -4.2410   31.5840 C   0  0  0  0  0
   10.5220   -4.0920   30.8830 N   0  0  0  0  0
    7.6420   -6.1930   30.5370 F   0  0  0  0  0
   16.8130   -0.1050   31.3290 N   0  0  0  0  0
   16.0430    0.0070   29.2650 O   0  0  0  0  0
   14.9580   -2.9190   29.3800 N   0  0  0  0  0
   15.5630   -4.2110   27.4670 C   0  0  0  0  0
   16.4450   -3.2110   27.1870 O   0  0  0  0  0
   15.9520   -2.1530   26.3950 C   0  0  0  0  0
   15.8870   -6.3140   24.5730 O   0  0  0  0  0
    8.2471   -2.3836   32.6274 H   0  0  0  0  0
    6.2963   -4.2946   32.9955 H   0  0  0  0  0
    5.9213   -3.4327   31.4830 H   0  0  0  0  0
    5.9956   -5.2118   31.4991 H   0  0  0  0  0
   10.1634   -5.9157   29.9412 H   0  0  0  0  0
   17.9456    1.4301   30.5014 H   0  0  0  0  0
   16.6690    1.9475   31.6300 H   0  0  0  0  0
   18.1541    1.1879   32.2532 H   0  0  0  0  0
   13.4138   -5.1059   29.9215 H   0  0  0  0  0
   13.1246   -7.0185   28.4228 H   0  0  0  0  0
   14.4420   -7.2040   26.3702 H   0  0  0  0  0
   17.7657   -7.2945   22.4317 H   0  0  0  0  0
   19.5804   -5.5976   24.9989 H   0  0  0  0  0
   18.4776   -6.9903   24.6652 H   0  0  0  0  0
   17.5777   -6.3672   20.1429 H   0  0  0  0  0
   18.7520   -2.5945   21.6462 H   0  0  0  0  0
   17.9178   -4.6908   26.2949 H   0  0  0  0  0
   18.1026   -3.9842   19.7531 H   0  0  0  0  0
   14.1719    0.5469   32.2266 H   0  0  0  0  0
   12.3599   -3.3816   30.0654 H   0  0  0  0  0
   10.4165   -1.4118   32.5204 H   0  0  0  0  0
   17.0881   -0.8421   31.9781 H   0  0  0  0  0
   15.8864   -2.5097   29.2756 H   0  0  0  0  0
   15.6227   -2.5443   25.4324 H   0  0  0  0  0
   15.1113   -1.6813   26.9037 H   0  0  0  0  0
   16.7424   -1.4188   26.2390 H   0  0  0  0  0
 13  1  4  0  0  0
  1 29  4  0  0  0
 23  2  1  0  0  0
  2 32  1  0  0  0
  2 33  2  0  0  0
 29  3  1  0  0  0
  4  5  4  0  0  0
 30  4  4  0  0  0
 29  5  4  0  0  0
  5 31  1  0  0  0
 32  6  1  0  0  0
  7  8  4  0  0  0
 34  7  1  0  0  0
  7 35  4  0  0  0
  8  9  4  0  0  0
  9 10  4  0  0  0
 11 10  4  0  0  0
 11 14  1  0  0  0
 35 11  4  0  0  0
 12 23  4  0  0  0
 27 12  4  0  0  0
 12 34  1  0  0  0
 28 13  1  0  0  0
 13 30  4  0  0  0
 14 21  1  0  0  0
 14 38  2  0  0  0
 15 16  4  0  0  0
 15 17  4  0  0  0
 18 15  1  0  0  0
 16 19  4  0  0  0
 17 20  4  0  0  0
 21 18  1  0  0  0
 19 22  4  0  0  0
 20 22  4  0  0  0
 24 23  4  0  0  0
 25 24  4  0  0  0
 26 25  4  0  0  0
 26 27  4  0  0  0
 26 28  1  0  0  0
 35 36  1  0  0  0
 36 37  1  0  0  0
  1 39  1  0  0  0
  3 40  1  0  0  0
  3 41  1  0  0  0
  3 42  1  0  0  0
  4 43  1  0  0  0
  6 44  1  0  0  0
  6 45  1  0  0  0
  6 46  1  0  0  0
  8 47  1  0  0  0
  9 48  1  0  0  0
 10 49  1  0  0  0
 16 50  1  0  0  0
 18 51  1  0  0  0
 18 52  1  0  0  0
 19 53  1  0  0  0
 20 54  1  0  0  0
 21 55  1  0  0  0
 22 56  1  0  0  0
 24 57  1  0  0  0
 27 58  1  0  0  0
 28 59  1  0  0  0
 32 60  1  0  0  0
 34 61  1  0  0  0
 37 62  1  0  0  0
 37 63  1  0  0  0
 37 64  1  0  0  0
M  END
$$$$
