### 
### Created by X-TOOL on Mon Sep 10 21:12:54 2018
### 

@<TRIPOS>MOLECULE
2azc_ligand
  130   133     1     0     0
SMALL
GAST_HUCK


@<TRIPOS>ATOM
      1 C          97.0300   21.8220   15.0180 C.2       1 3TL         0.3239
      2 O1         98.1280   21.3660   14.4260 O.2       1 3TL        -0.3773
      3 O2         95.6700   21.9970   14.3760 O.3       1 3TL        -0.2506
      4 C1'        95.7910   21.6140   12.9390 C.3       1 3TL         0.1113
      5 C1         96.5440   22.7370   12.1350 C.ar      1 3TL        -0.0130
      6 C2         97.9860   22.8470   12.1040 C.ar      1 3TL        -0.0578
      7 C3         98.6740   23.8490   11.3520 C.ar      1 3TL        -0.0685
      8 C4         98.0030   24.8250   10.5670 C.ar      1 3TL        -0.0687
      9 C5         96.5590   24.7890   10.5430 C.ar      1 3TL        -0.0685
     10 C6         95.8740   23.7560   11.3190 C.ar      1 3TL        -0.0578
     11 N          97.0830   22.1490   16.3310 N.am      1 3TL        -0.2413
     12 CA         98.3070   22.0510   17.1830 C.3       1 3TL         0.1300
     13 C          98.3210   20.7120   18.0750 C.2       1 3TL         0.2036
     14 O          97.3020   20.4620   18.7130 O.2       1 3TL        -0.3944
     15 CB         98.4460   23.2800   18.0840 C.3       1 3TL        -0.0244
     16 N          99.4420   20.0430   17.9830 N.am      1 3TL        -0.2635
     17 CA         99.6860   18.8060   18.6780 C.3       1 3TL         0.1331
     18 C         101.1080   18.9170   19.3390 C.2       1 3TL         0.2024
     19 O         102.2200   19.0270   18.7010 O.2       1 3TL        -0.3945
     20 CB         99.5770   17.5910   17.7440 C.3       1 3TL        -0.0063
     21 CG1        99.9850   16.3820   18.5520 C.3       1 3TL        -0.0584
     22 CG2        98.1720   17.3820   16.9790 C.3       1 3TL        -0.0584
     23 N         101.0430   18.9010   20.7110 N.am      1 3TL        -0.2774
     24 CA        102.2930   19.0160   21.5900 C.3       1 3TL         0.0799
     25 C         102.2160   17.8710   22.6770 C.3       1 3TL         0.1079
     26 O         100.9080   17.8150   23.3250 O.3       1 3TL        -0.3867
     27 CB        102.1270   20.4230   22.2660 C.3       1 3TL         0.0065
     28 CG        102.1580   21.7240   21.3890 C.ar      1 3TL        -0.0408
     29 CD1       101.0310   22.5110   21.4350 C.ar      1 3TL        -0.0603
     30 CD2       103.3090   22.0240   20.6090 C.ar      1 3TL        -0.0603
     31 CE1       100.9610   23.7800   20.6440 C.ar      1 3TL        -0.0686
     32 CE2       103.2180   23.2940   19.8200 C.ar      1 3TL        -0.0686
     33 CZ        102.0670   24.1310   19.8540 C.ar      1 3TL        -0.0687
     34 C         110.0780   13.4250   22.2270 C.2       1 3TL         0.3239
     35 O1        110.8430   14.1550   21.6040 O.2       1 3TL        -0.3773
     36 O2        109.7910   12.1420   21.9060 O.3       1 3TL        -0.2506
     37 C1'       110.4440   11.6250   20.6980 C.3       1 3TL         0.1113
     38 C1        110.8590   12.3700   19.4300 C.ar      1 3TL        -0.0130
     39 C2        109.9680   13.2710   18.7970 C.ar      1 3TL        -0.0578
     40 C3        110.3930   13.9510   17.6220 C.ar      1 3TL        -0.0685
     41 C4        111.6680   13.7050   17.0680 C.ar      1 3TL        -0.0687
     42 C5        112.5630   12.8240   17.7250 C.ar      1 3TL        -0.0685
     43 C6        112.1430   12.1470   18.8850 C.ar      1 3TL        -0.0578
     44 N         109.4300   13.8340   23.3080 N.am      1 3TL        -0.2413
     45 CA        109.4860   15.2900   23.7330 C.3       1 3TL         0.1300
     46 C         108.0900   15.8970   23.6910 C.2       1 3TL         0.2036
     47 O         107.2110   15.3810   24.3850 O.2       1 3TL        -0.3944
     48 CB        110.4720   15.4910   24.8970 C.3       1 3TL        -0.0244
     49 N         107.8550   16.9710   22.9330 N.am      1 3TL        -0.2635
     50 CA        106.5190   17.7290   23.2320 C.3       1 3TL         0.1331
     51 C         105.6010   17.6340   22.0400 C.2       1 3TL         0.2024
     52 O         105.6340   18.3960   21.0690 O.2       1 3TL        -0.3945
     53 CB        107.0590   19.1380   23.4640 C.3       1 3TL        -0.0063
     54 CG1       105.9250   20.0790   23.8630 C.3       1 3TL        -0.0584
     55 CG2       108.1420   19.1370   24.5450 C.3       1 3TL        -0.0584
     56 N         104.7600   16.6140   22.1980 N.am      1 3TL        -0.2774
     57 CA        103.7200   16.1670   21.3220 C.3       1 3TL         0.0799
     58 C         102.3950   16.2140   22.1120 C.3       1 3TL         0.1079
     59 O         102.2320   15.5360   23.1270 O.3       1 3TL        -0.3867
     60 CB        103.9750   14.7350   20.8780 C.3       1 3TL         0.0065
     61 CG        105.0690   14.4750   19.8650 C.ar      1 3TL        -0.0408
     62 CD1       106.4100   14.2970   20.2460 C.ar      1 3TL        -0.0603
     63 CD2       104.7470   14.3780   18.5100 C.ar      1 3TL        -0.0603
     64 CE1       107.3760   14.0100   19.2770 C.ar      1 3TL        -0.0686
     65 CE2       105.7090   14.0860   17.5590 C.ar      1 3TL        -0.0686
     66 CZ        107.0290   13.9030   17.9540 C.ar      1 3TL        -0.0687
     67 H1         94.7856   21.4762   12.5145 H         1 3TL         0.0776
     68 H2         96.3542   20.6724   12.8608 H         1 3TL         0.0776
     69 H3         98.5714   22.1372   12.6772 H         1 3TL         0.0557
     70 H4         99.7575   23.8651   11.3819 H         1 3TL         0.0599
     71 H5         98.5551   25.5703   10.0060 H         1 3TL         0.0559
     72 H6         95.9961   25.5113    9.9630 H         1 3TL         0.0599
     73 H7         94.7905   23.7420   11.2892 H         1 3TL         0.0557
     74 H8         96.2431   22.4797   16.7613 H         1 3TL         0.1899
     75 H9         99.1784   22.0186   16.5125 H         1 3TL         0.0796
     76 H10        99.3527   23.1829   18.6992 H         1 3TL         0.0277
     77 H11        97.5652   23.3563   18.7385 H         1 3TL         0.0277
     78 H12        98.5201   24.1842   17.4620 H         1 3TL         0.0277
     79 H13       100.1666   20.4100   17.3997 H         1 3TL         0.1883
     80 H14        98.9336   18.6902   19.4720 H         1 3TL         0.0802
     81 H15       100.3277   17.7312   16.9523 H         1 3TL         0.0343
     82 H16        99.9227   15.4822   17.9224 H         1 3TL         0.0234
     83 H17        99.3113   16.2731   19.4147 H         1 3TL         0.0234
     84 H18       101.0181   16.5100   18.9073 H         1 3TL         0.0234
     85 H19        97.9261   18.2902   16.4092 H         1 3TL         0.0234
     86 H20        97.3791   17.1855   17.7156 H         1 3TL         0.0234
     87 H21        98.2528   16.5279   16.2905 H         1 3TL         0.0234
     88 H22       100.1496   18.8113   21.1512 H         1 3TL         0.1857
     89 H23       103.2244   18.9473   21.0089 H         1 3TL         0.0605
     90 H24       102.9976   18.0819   23.4217 H         1 3TL         0.0645
     91 H25       100.9043   17.1162   23.9686 H         1 3TL         0.2100
     92 H26       102.9372   20.5183   23.0039 H         1 3TL         0.0449
     93 H27       101.1573   20.4133   22.7853 H         1 3TL         0.0449
     94 H28       100.1886   22.2106   22.0476 H         1 3TL         0.0557
     95 H29       104.1835   21.3838   20.5873 H         1 3TL         0.0557
     96 H30       100.0801   24.4108   20.6803 H         1 3TL         0.0599
     97 H31       104.0586   23.5861   19.2010 H         1 3TL         0.0599
     98 H32       102.0445   25.0426   19.2678 H         1 3TL         0.0559
     99 H33       109.7682   10.8342   20.3403 H         1 3TL         0.0776
    100 H34       111.3767   11.1720   21.0652 H         1 3TL         0.0776
    101 H35       108.9768   13.4399   19.2020 H         1 3TL         0.0557
    102 H36       109.7308   14.6657   17.1469 H         1 3TL         0.0599
    103 H37       111.9615   14.1883   16.1432 H         1 3TL         0.0559
    104 H38       113.5637   12.6728   17.3368 H         1 3TL         0.0599
    105 H39       112.8138   11.4449   19.3668 H         1 3TL         0.0557
    106 H40       108.9006   13.1791   23.8473 H         1 3TL         0.1899
    107 H41       109.9941   15.8076   22.9060 H         1 3TL         0.0796
    108 H42       110.4909   16.5532   25.1822 H         1 3TL         0.0277
    109 H43       111.4786   15.1777   24.5831 H         1 3TL         0.0277
    110 H44       110.1514   14.8859   25.7578 H         1 3TL         0.0277
    111 H45       108.4905   17.2710   22.2216 H         1 3TL         0.1883
    112 H46       106.0085   17.3393   24.1250 H         1 3TL         0.0802
    113 H47       107.5029   19.5001   22.5250 H         1 3TL         0.0343
    114 H48       106.3276   21.0895   24.0269 H         1 3TL         0.0234
    115 H49       105.4564   19.7163   24.7897 H         1 3TL         0.0234
    116 H50       105.1740   20.1094   23.0599 H         1 3TL         0.0234
    117 H51       108.9544   18.4569   24.2494 H         1 3TL         0.0234
    118 H52       107.7088   18.7984   25.4977 H         1 3TL         0.0234
    119 H53       108.5414   20.1549   24.6649 H         1 3TL         0.0234
    120 H54       104.8697   16.0896   23.0424 H         1 3TL         0.1857
    121 H55       103.6629   16.8236   20.4413 H         1 3TL         0.0605
    122 H56       101.5900   15.9554   21.4084 H         1 3TL         0.0645
    123 H57       101.3624   15.6935   23.4754 H         1 3TL         0.2100
    124 H58       103.0365   14.3574   20.4459 H         1 3TL         0.0449
    125 H59       104.2231   14.1553   21.7793 H         1 3TL         0.0449
    126 H60       106.6946   14.3820   21.2885 H         1 3TL         0.0557
    127 H61       103.7214   14.5348   18.1961 H         1 3TL         0.0557
    128 H62       108.4092   13.8707   19.5739 H         1 3TL         0.0599
    129 H63       105.4351   14.0006   16.5137 H         1 3TL         0.0599
    130 H64       107.7873   13.6748   17.2138 H         1 3TL         0.0559
@<TRIPOS>BOND
     1    1    2 2  
     2    1    3 1  
     3   11    1 am 
     4    3    4 1  
     5    4    5 1  
     6    5    6 ar 
     7    5   10 ar 
     8    6    7 ar 
     9    7    8 ar 
    10    9    8 ar 
    11   10    9 ar 
    12   12   11 1  
    13   13   12 1  
    14   12   15 1  
    15   13   14 2  
    16   16   13 am 
    17   17   16 1  
    18   18   17 1  
    19   17   20 1  
    20   18   19 2  
    21   23   18 am 
    22   20   21 1  
    23   20   22 1  
    24   24   23 1  
    25   25   24 1  
    26   24   27 1  
    27   25   26 1  
    28   58   25 1  
    29   27   28 1  
    30   28   29 ar 
    31   28   30 ar 
    32   29   31 ar 
    33   30   32 ar 
    34   31   33 ar 
    35   32   33 ar 
    36   34   35 2  
    37   34   36 1  
    38   44   34 am 
    39   36   37 1  
    40   37   38 1  
    41   38   39 ar 
    42   38   43 ar 
    43   39   40 ar 
    44   40   41 ar 
    45   42   41 ar 
    46   43   42 ar 
    47   45   44 1  
    48   46   45 1  
    49   45   48 1  
    50   46   47 2  
    51   49   46 am 
    52   50   49 1  
    53   51   50 1  
    54   50   53 1  
    55   51   52 2  
    56   56   51 am 
    57   53   54 1  
    58   53   55 1  
    59   57   56 1  
    60   57   58 1  
    61   57   60 1  
    62   58   59 1  
    63   60   61 1  
    64   61   62 ar 
    65   61   63 ar 
    66   62   64 ar 
    67   63   65 ar 
    68   64   66 ar 
    69   65   66 ar 
    70    4   67 1  
    71    4   68 1  
    72    6   69 1  
    73    7   70 1  
    74    8   71 1  
    75    9   72 1  
    76   10   73 1  
    77   11   74 1  
    78   12   75 1  
    79   15   76 1  
    80   15   77 1  
    81   15   78 1  
    82   16   79 1  
    83   17   80 1  
    84   20   81 1  
    85   21   82 1  
    86   21   83 1  
    87   21   84 1  
    88   22   85 1  
    89   22   86 1  
    90   22   87 1  
    91   23   88 1  
    92   24   89 1  
    93   25   90 1  
    94   26   91 1  
    95   27   92 1  
    96   27   93 1  
    97   29   94 1  
    98   30   95 1  
    99   31   96 1  
   100   32   97 1  
   101   33   98 1  
   102   37   99 1  
   103   37  100 1  
   104   39  101 1  
   105   40  102 1  
   106   41  103 1  
   107   42  104 1  
   108   43  105 1  
   109   44  106 1  
   110   45  107 1  
   111   48  108 1  
   112   48  109 1  
   113   48  110 1  
   114   49  111 1  
   115   50  112 1  
   116   53  113 1  
   117   54  114 1  
   118   54  115 1  
   119   54  116 1  
   120   55  117 1  
   121   55  118 1  
   122   55  119 1  
   123   56  120 1  
   124   57  121 1  
   125   58  122 1  
   126   59  123 1  
   127   60  124 1  
   128   60  125 1  
   129   62  126 1  
   130   63  127 1  
   131   64  128 1  
   132   65  129 1  
   133   66  130 1  
@<TRIPOS>SUBSTRUCTURE
     1 3TL         1

