2azc_ligand
  -I-interpret- 

130133  0  0  0  0  0  0  0  0999 V2000
   97.0300   21.8220   15.0180 C   0  0  0  0  0
   98.1280   21.3660   14.4260 O   0  0  0  0  0
   95.6700   21.9970   14.3760 O   0  0  0  0  0
   95.7910   21.6140   12.9390 C   0  0  0  0  0
   96.5440   22.7370   12.1350 C   0  0  0  0  0
   97.9860   22.8470   12.1040 C   0  0  0  0  0
   98.6740   23.8490   11.3520 C   0  0  0  0  0
   98.0030   24.8250   10.5670 C   0  0  0  0  0
   96.5590   24.7890   10.5430 C   0  0  0  0  0
   95.8740   23.7560   11.3190 C   0  0  0  0  0
   97.0830   22.1490   16.3310 N   0  0  0  0  0
   98.3070   22.0510   17.1830 C   0  0  0  0  0
   98.3210   20.7120   18.0750 C   0  0  0  0  0
   97.3020   20.4620   18.7130 O   0  0  0  0  0
   98.4460   23.2800   18.0840 C   0  0  0  0  0
   99.4420   20.0430   17.9830 N   0  0  0  0  0
   99.6860   18.8060   18.6780 C   0  0  0  0  0
  101.1080   18.9170   19.3390 C   0  0  0  0  0
  102.2200   19.0270   18.7010 O   0  0  0  0  0
   99.5770   17.5910   17.7440 C   0  0  0  0  0
   99.9850   16.3820   18.5520 C   0  0  0  0  0
   98.1720   17.3820   16.9790 C   0  0  0  0  0
  101.0430   18.9010   20.7110 N   0  0  0  0  0
  102.2930   19.0160   21.5900 C   0  0  0  0  0
  102.2160   17.8710   22.6770 C   0  0  0  0  0
  100.9080   17.8150   23.3250 O   0  0  0  0  0
  102.1270   20.4230   22.2660 C   0  0  0  0  0
  102.1580   21.7240   21.3890 C   0  0  0  0  0
  101.0310   22.5110   21.4350 C   0  0  0  0  0
  103.3090   22.0240   20.6090 C   0  0  0  0  0
  100.9610   23.7800   20.6440 C   0  0  0  0  0
  103.2180   23.2940   19.8200 C   0  0  0  0  0
  102.0670   24.1310   19.8540 C   0  0  0  0  0
  110.0780   13.4250   22.2270 C   0  0  0  0  0
  110.8430   14.1550   21.6040 O   0  0  0  0  0
  109.7910   12.1420   21.9060 O   0  0  0  0  0
  110.4440   11.6250   20.6980 C   0  0  0  0  0
  110.8590   12.3700   19.4300 C   0  0  0  0  0
  109.9680   13.2710   18.7970 C   0  0  0  0  0
  110.3930   13.9510   17.6220 C   0  0  0  0  0
  111.6680   13.7050   17.0680 C   0  0  0  0  0
  112.5630   12.8240   17.7250 C   0  0  0  0  0
  112.1430   12.1470   18.8850 C   0  0  0  0  0
  109.4300   13.8340   23.3080 N   0  0  0  0  0
  109.4860   15.2900   23.7330 C   0  0  0  0  0
  108.0900   15.8970   23.6910 C   0  0  0  0  0
  107.2110   15.3810   24.3850 O   0  0  0  0  0
  110.4720   15.4910   24.8970 C   0  0  0  0  0
  107.8550   16.9710   22.9330 N   0  0  0  0  0
  106.5190   17.7290   23.2320 C   0  0  0  0  0
  105.6010   17.6340   22.0400 C   0  0  0  0  0
  105.6340   18.3960   21.0690 O   0  0  0  0  0
  107.0590   19.1380   23.4640 C   0  0  0  0  0
  105.9250   20.0790   23.8630 C   0  0  0  0  0
  108.1420   19.1370   24.5450 C   0  0  0  0  0
  104.7600   16.6140   22.1980 N   0  0  0  0  0
  103.7200   16.1670   21.3220 C   0  0  0  0  0
  102.3950   16.2140   22.1120 C   0  0  0  0  0
  102.2320   15.5360   23.1270 O   0  0  0  0  0
  103.9750   14.7350   20.8780 C   0  0  0  0  0
  105.0690   14.4750   19.8650 C   0  0  0  0  0
  106.4100   14.2970   20.2460 C   0  0  0  0  0
  104.7470   14.3780   18.5100 C   0  0  0  0  0
  107.3760   14.0100   19.2770 C   0  0  0  0  0
  105.7090   14.0860   17.5590 C   0  0  0  0  0
  107.0290   13.9030   17.9540 C   0  0  0  0  0
   94.7929   21.4855   12.5201 H   0  0  0  0  0
   96.3557   20.6846   12.8652 H   0  0  0  0  0
   98.5747   22.1333   12.6803 H   0  0  0  0  0
   99.7635   23.8652   11.3821 H   0  0  0  0  0
   98.5582   25.5744   10.0028 H   0  0  0  0  0
   95.9929   25.5153    9.9597 H   0  0  0  0  0
   94.7845   23.7419   11.2890 H   0  0  0  0  0
   96.2263   22.4863   16.7699 H   0  0  0  0  0
   99.1589   22.0078   16.5044 H   0  0  0  0  0
   98.5193   24.1752   17.4665 H   0  0  0  0  0
   97.5727   23.3545   18.7320 H   0  0  0  0  0
   99.3447   23.1826   18.6931 H   0  0  0  0  0
  100.1811   20.4174   17.3881 H   0  0  0  0  0
   98.9270   18.6471   19.4440 H   0  0  0  0  0
  100.2450   17.7666   16.9008 H   0  0  0  0  0
  101.0088   16.5101   18.9035 H   0  0  0  0  0
   99.3168   16.2753   19.4065 H   0  0  0  0  0
   99.9229   15.4911   17.9271 H   0  0  0  0  0
   97.3747   17.2622   17.7125 H   0  0  0  0  0
   97.9662   18.2522   16.3557 H   0  0  0  0  0
   98.2292   16.4909   16.3538 H   0  0  0  0  0
  100.1317   18.8095   21.1600 H   0  0  0  0  0
  103.2398   18.9214   21.0584 H   0  0  0  0  0
  103.0537   18.1583   23.3125 H   0  0  0  0  0
  100.9043   17.1089   23.9754 H   0  0  0  0  0
  102.9940   20.5148   22.9202 H   0  0  0  0  0
  101.1232   20.4045   22.6904 H   0  0  0  0  0
  100.1839   22.2090   22.0509 H   0  0  0  0  0
  104.1883   21.3802   20.5871 H   0  0  0  0  0
  100.0753   24.4142   20.6805 H   0  0  0  0  0
  104.0632   23.5878   19.1976 H   0  0  0  0  0
  102.0444   25.0476   19.2646 H   0  0  0  0  0
  109.6568   10.9821   20.3042 H   0  0  0  0  0
  111.4203   11.3524   21.0989 H   0  0  0  0  0
  108.9713   13.4408   19.2043 H   0  0  0  0  0
  109.7271   14.6697   17.1443 H   0  0  0  0  0
  111.9631   14.1910   16.1381 H   0  0  0  0  0
  113.5693   12.6720   17.3346 H   0  0  0  0  0
  112.8175   11.4410   19.3695 H   0  0  0  0  0
  108.8900   13.1660   23.8581 H   0  0  0  0  0
  109.9759   15.9636   23.0299 H   0  0  0  0  0
  110.1532   14.8909   25.7493 H   0  0  0  0  0
  111.4690   15.1802   24.5847 H   0  0  0  0  0
  110.4898   16.5438   25.1787 H   0  0  0  0  0
  108.5032   17.2769   22.2073 H   0  0  0  0  0
  105.9204   17.3534   24.0619 H   0  0  0  0  0
  107.5029   19.4888   22.5324 H   0  0  0  0  0
  105.1815   20.1082   23.0665 H   0  0  0  0  0
  105.4615   19.7185   24.7813 H   0  0  0  0  0
  106.3251   21.0799   24.0251 H   0  0  0  0  0
  107.7211   18.7644   25.4789 H   0  0  0  0  0
  108.9643   18.4930   24.2331 H   0  0  0  0  0
  108.5094   20.1529   24.6904 H   0  0  0  0  0
  104.8719   16.0791   23.0592 H   0  0  0  0  0
  103.6820   16.8034   20.4379 H   0  0  0  0  0
  101.6858   15.8045   21.3926 H   0  0  0  0  0
  102.3143   14.6055   22.9056 H   0  0  0  0  0
  103.0534   14.4209   20.3880 H   0  0  0  0  0
  104.2915   14.2100   21.7793 H   0  0  0  0  0
  106.6962   14.3825   21.2943 H   0  0  0  0  0
  103.7157   14.5357   18.1943 H   0  0  0  0  0
  108.4149   13.8699   19.5755 H   0  0  0  0  0
  105.4336   14.0001   16.5079 H   0  0  0  0  0
  107.7915   13.6736   17.2097 H   0  0  0  0  0
  1  2  2  0  0  0
  1  3  1  0  0  0
 11  1  1  0  0  0
  3  4  1  0  0  0
  4  5  1  0  0  0
  5  6  4  0  0  0
  5 10  4  0  0  0
  6  7  4  0  0  0
  7  8  4  0  0  0
  9  8  4  0  0  0
 10  9  4  0  0  0
 12 11  1  0  0  0
 13 12  1  0  0  0
 12 15  1  0  0  0
 13 14  2  0  0  0
 16 13  1  0  0  0
 17 16  1  0  0  0
 18 17  1  0  0  0
 17 20  1  0  0  0
 18 19  2  0  0  0
 23 18  1  0  0  0
 20 21  1  0  0  0
 20 22  1  0  0  0
 24 23  1  0  0  0
 25 24  1  0  0  0
 24 27  1  0  0  0
 25 26  1  0  0  0
 58 25  1  0  0  0
 27 28  1  0  0  0
 28 29  4  0  0  0
 28 30  4  0  0  0
 29 31  4  0  0  0
 30 32  4  0  0  0
 31 33  4  0  0  0
 32 33  4  0  0  0
 34 35  2  0  0  0
 34 36  1  0  0  0
 44 34  1  0  0  0
 36 37  1  0  0  0
 37 38  1  0  0  0
 38 39  4  0  0  0
 38 43  4  0  0  0
 39 40  4  0  0  0
 40 41  4  0  0  0
 42 41  4  0  0  0
 43 42  4  0  0  0
 45 44  1  0  0  0
 46 45  1  0  0  0
 45 48  1  0  0  0
 46 47  2  0  0  0
 49 46  1  0  0  0
 50 49  1  0  0  0
 51 50  1  0  0  0
 50 53  1  0  0  0
 51 52  2  0  0  0
 56 51  1  0  0  0
 53 54  1  0  0  0
 53 55  1  0  0  0
 57 56  1  0  0  0
 57 58  1  0  0  0
 57 60  1  0  0  0
 58 59  1  0  0  0
 60 61  1  0  0  0
 61 62  4  0  0  0
 61 63  4  0  0  0
 62 64  4  0  0  0
 63 65  4  0  0  0
 64 66  4  0  0  0
 65 66  4  0  0  0
  4 67  1  0  0  0
  4 68  1  0  0  0
  6 69  1  0  0  0
  7 70  1  0  0  0
  8 71  1  0  0  0
  9 72  1  0  0  0
 10 73  1  0  0  0
 11 74  1  0  0  0
 12 75  1  0  0  0
 15 76  1  0  0  0
 15 77  1  0  0  0
 15 78  1  0  0  0
 16 79  1  0  0  0
 17 80  1  0  0  0
 20 81  1  0  0  0
 21 82  1  0  0  0
 21 83  1  0  0  0
 21 84  1  0  0  0
 22 85  1  0  0  0
 22 86  1  0  0  0
 22 87  1  0  0  0
 23 88  1  0  0  0
 24 89  1  0  0  0
 25 90  1  0  0  0
 26 91  1  0  0  0
 27 92  1  0  0  0
 27 93  1  0  0  0
 29 94  1  0  0  0
 30 95  1  0  0  0
 31 96  1  0  0  0
 32 97  1  0  0  0
 33 98  1  0  0  0
 37 99  1  0  0  0
 37100  1  0  0  0
 39101  1  0  0  0
 40102  1  0  0  0
 41103  1  0  0  0
 42104  1  0  0  0
 43105  1  0  0  0
 44106  1  0  0  0
 45107  1  0  0  0
 48108  1  0  0  0
 48109  1  0  0  0
 48110  1  0  0  0
 49111  1  0  0  0
 50112  1  0  0  0
 53113  1  0  0  0
 54114  1  0  0  0
 54115  1  0  0  0
 54116  1  0  0  0
 55117  1  0  0  0
 55118  1  0  0  0
 55119  1  0  0  0
 56120  1  0  0  0
 57121  1  0  0  0
 58122  1  0  0  0
 59123  1  0  0  0
 60124  1  0  0  0
 60125  1  0  0  0
 62126  1  0  0  0
 63127  1  0  0  0
 64128  1  0  0  0
 65129  1  0  0  0
 66130  1  0  0  0
M  END
$$$$
