1m51_ligand
  -I-interpret- 

 53 55  0  0  0  0  0  0  0  0999 V2000
   37.0340   39.3300   34.0690 O   0  0  0  0  0
   37.1400   40.4010   33.5010 C   0  0  0  0  0
   36.2240   40.7180   32.4980 N   0  0  0  0  0
   35.2460   39.6580   32.1950 C   0  0  0  0  0
   33.8140   39.8250   32.5280 C   0  0  0  0  0
   32.8080   39.1790   31.9170 C   0  0  0  0  0
   38.1410   41.2270   33.9000 N   0  0  0  0  0
   39.0810   40.8890   34.9830 C   0  0  0  0  0
   40.2060   39.9490   34.4560 C   0  0  0  0  0
   41.2930   39.5840   35.5170 C   0  0  0  0  0
   40.8800   38.4050   36.4370 C   0  0  0  0  0
   38.2540   42.4850   33.2590 C   0  0  0  0  0
   39.1700   43.4230   33.5300 N   0  0  0  0  0
   37.3950   42.8590   32.2500 C   0  0  0  0  0
   36.2910   41.9140   31.8230 C   0  0  0  0  0
   35.5300   42.2790   30.9240 O   0  0  0  0  0
   37.7050   44.0890   31.8070 N   0  0  0  0  0
   38.8510   44.3900   32.6400 C   0  0  0  0  0
   39.6100   45.6860   32.5210 C   0  0  0  0  0
   38.8670   46.6470   33.4400 C   0  0  0  0  0
   37.9330   47.5730   32.9620 C   0  0  0  0  0
   37.3140   48.3970   33.9160 C   0  0  0  0  0
   37.6520   48.2720   35.2860 C   0  0  0  0  0
   38.5820   47.3420   35.7290 C   0  0  0  0  0
   39.1950   46.5180   34.7890 C   0  0  0  0  0
   37.0680   49.0560   36.3250 N   0  0  0  0  0
   36.5170   50.2780   36.1330 C   0  0  0  0  0
   36.4540   50.8550   35.0450 O   0  0  0  0  0
   35.9530   50.9380   37.3690 C   0  0  0  0  0
   35.5652   38.8191   32.8134 H   0  0  0  0  0
   35.2583   39.5899   31.1072 H   0  0  0  0  0
   33.5576   40.5219   33.3259 H   0  0  0  0  0
   33.0214   38.4735   31.1140 H   0  0  0  0  0
   31.7779   39.3601   32.2240 H   0  0  0  0  0
   38.5368   40.3788   35.7777 H   0  0  0  0  0
   39.5335   41.8069   35.3582 H   0  0  0  0  0
   40.7124   40.4781   33.6487 H   0  0  0  0  0
   39.7283   39.0169   34.1543 H   0  0  0  0  0
   41.4431   40.4589   36.1496 H   0  0  0  0  0
   42.1915   39.2828   34.9783 H   0  0  0  0  0
   39.9695   38.6677   36.9755 H   0  0  0  0  0
   40.7014   37.5175   35.8300 H   0  0  0  0  0
   41.6800   38.2044   37.1496 H   0  0  0  0  0
   39.6444   46.0471   31.4931 H   0  0  0  0  0
   40.6564   45.5749   32.8051 H   0  0  0  0  0
   37.6973   47.6509   31.9006 H   0  0  0  0  0
   36.5735   49.1327   33.6023 H   0  0  0  0  0
   38.8267   47.2587   36.7879 H   0  0  0  0  0
   39.9276   45.7758   35.1061 H   0  0  0  0  0
   37.0653   48.6727   37.2702 H   0  0  0  0  0
   36.4664   51.8841   37.5405 H   0  0  0  0  0
   34.8879   51.1215   37.2274 H   0  0  0  0  0
   36.0991   50.2830   38.2279 H   0  0  0  0  0
  1  2  2  0  0  0
  2  3  1  0  0  0
  2  7  1  0  0  0
  3  4  1  0  0  0
  3 15  1  0  0  0
  4  5  1  0  0  0
  5  6  2  0  0  0
  7  8  1  0  0  0
  7 12  1  0  0  0
  8  9  1  0  0  0
  9 10  1  0  0  0
 10 11  1  0  0  0
 12 13  4  0  0  0
 12 14  4  0  0  0
 13 18  4  0  0  0
 14 15  1  0  0  0
 14 17  4  0  0  0
 15 16  2  0  0  0
 17 18  4  0  0  0
 18 19  1  0  0  0
 19 20  1  0  0  0
 20 21  4  0  0  0
 20 25  4  0  0  0
 21 22  4  0  0  0
 22 23  4  0  0  0
 23 24  4  0  0  0
 23 26  1  0  0  0
 24 25  4  0  0  0
 26 27  1  0  0  0
 27 28  2  0  0  0
 27 29  1  0  0  0
  4 30  1  0  0  0
  4 31  1  0  0  0
  5 32  1  0  0  0
  6 33  1  0  0  0
  6 34  1  0  0  0
  8 35  1  0  0  0
  8 36  1  0  0  0
  9 37  1  0  0  0
  9 38  1  0  0  0
 10 39  1  0  0  0
 10 40  1  0  0  0
 11 41  1  0  0  0
 11 42  1  0  0  0
 11 43  1  0  0  0
 19 44  1  0  0  0
 19 45  1  0  0  0
 21 46  1  0  0  0
 22 47  1  0  0  0
 24 48  1  0  0  0
 25 49  1  0  0  0
 26 50  1  0  0  0
 29 51  1  0  0  0
 29 52  1  0  0  0
 29 53  1  0  0  0
M  END
$$$$
