5tq6_ligand
  -I-interpret- 

 50 53  0  0  0  0  0  0  0  0999 V2000
   -8.4640   -1.7600   29.2960 C   0  0  0  0  0
   -7.5690   -1.1260   32.0040 C   0  0  0  0  0
   -8.9870   -0.9440   31.4840 C   0  0  0  0  0
   -7.8660    1.0710   33.1950 C   0  0  0  0  0
   -4.6610   -3.8370   34.1810 C   0  0  0  0  0
   -9.3080   -1.9600   30.4810 N   0  0  0  0  0
  -10.6380   -2.1840   30.2860 C   0  0  0  0  0
   -6.4330    0.5290   30.3900 C   0  0  0  0  0
   -6.6080   -0.9300   30.8220 C   0  0  0  0  0
   -6.9780   -1.8340   29.6430 C   0  0  0  0  0
   -7.2850   -0.2680   33.1880 N   0  0  0  0  0
   -6.4730   -0.6500   34.2600 C   0  0  0  0  0
   -5.7430   -1.8820   34.2690 C   0  0  0  0  0
   -5.5960   -3.1020   33.5310 C   0  0  0  0  0
   -4.2000   -3.1550   35.2830 N   0  0  0  0  0
   -4.8390   -1.9560   35.3860 C   0  0  0  0  0
   -4.6610   -1.0390   36.3510 N   0  0  0  0  0
   -5.4500    0.0200   36.1950 C   0  0  0  0  0
   -6.3330    0.2710   35.2240 N   0  0  0  0  0
  -11.5170   -1.4860   30.7670 O   0  0  0  0  0
  -10.9290   -3.2390   29.4460 N   0  0  0  0  0
  -12.3450   -3.4800   29.1310 C   0  0  0  0  0
  -12.3550   -4.8600   28.4970 C   0  0  0  0  0
  -11.0420   -5.4870   28.8610 C   0  0  0  0  0
  -10.0840   -4.3150   28.9200 C   0  0  0  0  0
   -8.6730   -0.7711   28.8880 H   0  0  0  0  0
   -8.6888   -2.5477   28.5769 H   0  0  0  0  0
   -7.4271   -2.1348   32.3918 H   0  0  0  0  0
   -9.0688    0.0411   31.0246 H   0  0  0  0  0
   -9.6821   -1.0419   32.3179 H   0  0  0  0  0
   -8.4960    1.1877   34.0768 H   0  0  0  0  0
   -7.0671    1.8122   33.2170 H   0  0  0  0  0
   -8.4672    1.2095   32.2964 H   0  0  0  0  0
   -4.3228   -4.8268   33.8744 H   0  0  0  0  0
   -5.6382    0.5937   29.6468 H   0  0  0  0  0
   -7.3656    0.8934   29.9592 H   0  0  0  0  0
   -6.1711    1.1346   31.2576 H   0  0  0  0  0
   -5.6283   -1.2351   31.1896 H   0  0  0  0  0
   -6.4116   -1.5020   28.7729 H   0  0  0  0  0
   -6.7476   -2.8624   29.9213 H   0  0  0  0  0
   -6.1315   -3.3836   32.6243 H   0  0  0  0  0
   -5.3648    0.7879   36.9639 H   0  0  0  0  0
  -12.7543   -2.7188   28.4667 H   0  0  0  0  0
  -12.9782   -3.4293   30.0168 H   0  0  0  0  0
  -12.4786   -4.7985   27.4158 H   0  0  0  0  0
  -13.1927   -5.4563   28.8587 H   0  0  0  0  0
  -10.7292   -6.2420   28.1397 H   0  0  0  0  0
  -11.0899   -6.0310   29.8044 H   0  0  0  0  0
   -9.2082   -4.5107   29.5387 H   0  0  0  0  0
   -9.6421   -4.0762   27.9526 H   0  0  0  0  0
  6  1  1  0  0  0
 10  1  1  0  0  0
  2  3  1  0  0  0
  2  9  1  0  0  0
 11  2  1  0  0  0
  3  6  1  0  0  0
 11  4  1  0  0  0
 14  5  4  0  0  0
  5 15  4  0  0  0
  6  7  1  0  0  0
  7 20  2  0  0  0
  7 21  1  0  0  0
  9  8  1  0  0  0
  9 10  1  0  0  0
 12 11  1  0  0  0
 13 12  4  0  0  0
 12 19  4  0  0  0
 13 14  4  0  0  0
 13 16  4  0  0  0
 15 16  4  0  0  0
 16 17  4  0  0  0
 17 18  4  0  0  0
 18 19  4  0  0  0
 21 22  1  0  0  0
 21 25  1  0  0  0
 22 23  1  0  0  0
 23 24  1  0  0  0
 24 25  1  0  0  0
  1 26  1  0  0  0
  1 27  1  0  0  0
  2 28  1  0  0  0
  3 29  1  0  0  0
  3 30  1  0  0  0
  4 31  1  0  0  0
  4 32  1  0  0  0
  4 33  1  0  0  0
  5 34  1  0  0  0
  8 35  1  0  0  0
  8 36  1  0  0  0
  8 37  1  0  0  0
  9 38  1  0  0  0
 10 39  1  0  0  0
 10 40  1  0  0  0
 14 41  1  0  0  0
 18 42  1  0  0  0
 22 43  1  0  0  0
 22 44  1  0  0  0
 23 45  1  0  0  0
 23 46  1  0  0  0
 24 47  1  0  0  0
 24 48  1  0  0  0
 25 49  1  0  0  0
 25 50  1  0  0  0
M  END
$$$$
