4awk_ligand
  -I-interpret- 

 56 58  0  0  0  0  0  0  0  0999 V2000
   61.0650   17.1710   17.2850 O   0  0  0  0  0
   60.2050   16.0440   17.4920 S   0  0  0  0  0
   60.3910   15.1540   16.3810 O   0  0  0  0  0
   60.6740   15.2690   18.9030 C   0  0  0  0  0
   59.9570   13.9490   19.1040 C   0  0  0  0  0
   58.8870   13.8770   19.9910 C   0  0  0  0  0
   58.2110   12.6730   20.1810 C   0  0  0  0  0
   58.6150   11.5290   19.4900 C   0  0  0  0  0
   59.6930   11.5920   18.6100 C   0  0  0  0  0
   60.3600   12.8020   18.4170 C   0  0  0  0  0
   58.7460   16.5170   17.5690 N   0  0  0  0  0
   58.4820   17.9200   17.9420 C   0  0  0  0  0
   57.2740   18.4540   17.1880 C   0  0  0  0  0
   56.1260   17.4700   17.3620 C   0  0  0  0  0
   57.6660   15.5480   17.3230 C   0  0  0  0  0
   56.4360   16.1530   16.6440 C   0  0  0  0  0
   56.6730   16.3700   15.1580 C   0  0  0  0  0
   57.5930   15.8030   14.5690 O   0  0  0  0  0
   55.7060   17.2520   14.4610 C   0  0  0  0  0
   55.5160   17.3310   13.1320 C   0  0  0  0  0
   56.2610   16.6570   12.2760 O   0  0  0  0  0
   54.4650   18.2390   12.6590 C   0  0  0  0  0
   54.0060   19.0690   13.4710 O   0  0  0  0  0
   54.0830   18.2390   11.4770 O   0  0  0  0  0
   55.2800   15.1420   16.6860 C   0  0  0  0  0
   54.6030   15.0480   18.0320 C   0  0  0  0  0
   53.6410   15.9910   18.4040 C   0  0  0  0  0
   53.0230   15.9020   19.6470 C   0  0  0  0  0
   54.9390   14.0070   18.8960 C   0  0  0  0  0
   54.3120   13.9190   20.1360 C   0  0  0  0  0
   53.3590   14.8640   20.5090 C   0  0  0  0  0
   52.5650   14.7260   22.1060 Cl  0  0  0  0  0
   60.4259   15.9184   19.7425 H   0  0  0  0  0
   61.7427   15.0651   18.8362 H   0  0  0  0  0
   58.5762   14.7662   20.5396 H   0  0  0  0  0
   57.3670   12.6245   20.8690 H   0  0  0  0  0
   58.0871   10.5871   19.6391 H   0  0  0  0  0
   60.0143   10.6989   18.0740 H   0  0  0  0  0
   61.2011   12.8524   17.7255 H   0  0  0  0  0
   59.3532   18.5237   17.6877 H   0  0  0  0  0
   58.2816   17.9700   19.0123 H   0  0  0  0  0
   57.5134   18.5648   16.1304 H   0  0  0  0  0
   56.9910   19.4307   17.5806 H   0  0  0  0  0
   55.2210   17.9021   16.9349 H   0  0  0  0  0
   55.9882   17.2704   18.4247 H   0  0  0  0  0
   57.3465   15.1646   18.2920 H   0  0  0  0  0
   58.0620   14.7826   16.6556 H   0  0  0  0  0
   56.1032   18.2413   14.6883 H   0  0  0  0  0
   54.7520   16.8470   14.7986 H   0  0  0  0  0
   54.4067   18.9281   14.3319 H   0  0  0  0  0
   55.6978   14.1604   16.4626 H   0  0  0  0  0
   54.5308   15.4742   15.9673 H   0  0  0  0  0
   53.3748   16.7966   17.7198 H   0  0  0  0  0
   52.2795   16.6418   19.9436 H   0  0  0  0  0
   55.6857   13.2687   18.6035 H   0  0  0  0  0
   54.5678   13.1076   20.8174 H   0  0  0  0  0
  1  2  2  0  0  0
  2  3  2  0  0  0
  2  4  1  0  0  0
  2 11  1  0  0  0
  4  5  1  0  0  0
  5  6  4  0  0  0
  5 10  4  0  0  0
  6  7  4  0  0  0
  7  8  4  0  0  0
  8  9  4  0  0  0
  9 10  4  0  0  0
 11 12  1  0  0  0
 11 15  1  0  0  0
 12 13  1  0  0  0
 13 14  1  0  0  0
 14 16  1  0  0  0
 15 16  1  0  0  0
 16 17  1  0  0  0
 16 25  1  0  0  0
 17 18  2  0  0  0
 17 19  1  0  0  0
 19 20  1  0  0  0
 20 21  2  0  0  0
 20 22  1  0  0  0
 22 23  1  0  0  0
 22 24  2  0  0  0
 25 26  1  0  0  0
 26 27  4  0  0  0
 26 29  4  0  0  0
 27 28  4  0  0  0
 28 31  4  0  0  0
 29 30  4  0  0  0
 30 31  4  0  0  0
 31 32  1  0  0  0
  4 33  1  0  0  0
  4 34  1  0  0  0
  6 35  1  0  0  0
  7 36  1  0  0  0
  8 37  1  0  0  0
  9 38  1  0  0  0
 10 39  1  0  0  0
 12 40  1  0  0  0
 12 41  1  0  0  0
 13 42  1  0  0  0
 13 43  1  0  0  0
 14 44  1  0  0  0
 14 45  1  0  0  0
 15 46  1  0  0  0
 15 47  1  0  0  0
 19 48  1  0  0  0
 19 49  1  0  0  0
 23 50  1  0  0  0
 25 51  1  0  0  0
 25 52  1  0  0  0
 27 53  1  0  0  0
 28 54  1  0  0  0
 29 55  1  0  0  0
 30 56  1  0  0  0
M  END
$$$$
