5j4v_ligand
  -I-interpret- 

 33 36  0  0  0  0  0  0  0  0999 V2000
  -39.5130    6.1210   24.8770 C   0  0  0  0  0
  -39.7710    4.7570   24.9180 C   0  0  0  0  0
  -39.6690    8.7960   23.5420 C   0  0  0  0  0
  -39.4250   12.4840   24.2710 N   0  0  0  0  0
  -39.3720   10.1850   23.4340 C   0  0  0  0  0
  -38.6860   10.5800   22.2790 C   0  0  0  0  0
  -40.9270   14.4080   27.6940 N   0  0  0  0  0
  -38.3280    9.6550   21.3130 C   0  0  0  0  0
  -38.6660    8.3120   21.5130 C   0  0  0  0  0
  -39.7190   11.2080   24.4110 C   0  0  0  0  0
  -39.8990   13.2150   25.3910 C   0  0  0  0  0
  -39.7540   14.5900   25.5630 C   0  0  0  0  0
  -40.2880   15.1290   26.7330 C   0  0  0  0  0
  -41.0570   13.0780   27.5110 C   0  0  0  0  0
  -40.5570   12.4450   26.3720 C   0  0  0  0  0
  -40.5970   10.7990   25.9180 S   0  0  0  0  0
  -39.3240    7.8660   22.5970 N   0  0  0  0  0
  -40.3300    8.3450   24.6320 O   0  0  0  0  0
  -40.5860    6.9840   24.6730 C   0  0  0  0  0
  -41.8930    6.5390   24.5100 C   0  0  0  0  0
  -42.1230    5.1670   24.5560 C   0  0  0  0  0
  -41.0690    4.2820   24.7590 C   0  0  0  0  0
  -38.5002    6.5045   25.0009 H   0  0  0  0  0
  -38.9523    4.0549   25.0756 H   0  0  0  0  0
  -38.4303   11.6302   22.1385 H   0  0  0  0  0
  -37.7939    9.9665   20.4153 H   0  0  0  0  0
  -38.3805    7.5889   20.7490 H   0  0  0  0  0
  -39.2501   15.2112   24.8226 H   0  0  0  0  0
  -40.1864   16.2030   26.8887 H   0  0  0  0  0
  -41.5646   12.4835   28.2706 H   0  0  0  0  0
  -42.7110    7.2417   24.3513 H   0  0  0  0  0
  -43.1357    4.7834   24.4321 H   0  0  0  0  0
  -41.2613    3.2097   24.7937 H   0  0  0  0  0
  1  2  4  0  0  0
 19  1  4  0  0  0
  2 22  4  0  0  0
  3  5  4  0  0  0
  3 17  4  0  0  0
 18  3  1  0  0  0
 10  4  4  0  0  0
  4 11  4  0  0  0
  5  6  4  0  0  0
  5 10  1  0  0  0
  6  8  4  0  0  0
  7 13  4  0  0  0
 14  7  4  0  0  0
  9  8  4  0  0  0
 17  9  4  0  0  0
 10 16  4  0  0  0
 11 12  4  0  0  0
 15 11  4  0  0  0
 12 13  4  0  0  0
 15 14  4  0  0  0
 16 15  4  0  0  0
 18 19  1  0  0  0
 19 20  4  0  0  0
 20 21  4  0  0  0
 21 22  4  0  0  0
  1 23  1  0  0  0
  2 24  1  0  0  0
  6 25  1  0  0  0
  8 26  1  0  0  0
  9 27  1  0  0  0
 12 28  1  0  0  0
 13 29  1  0  0  0
 14 30  1  0  0  0
 20 31  1  0  0  0
 21 32  1  0  0  0
 22 33  1  0  0  0
M  END
$$$$
