3iut_ligand
  -I-interpret- 

 64 66  0  0  0  0  0  0  0  0999 V2000
    0.8790   13.3170   -1.3890 C   0  0  0  0  0
    1.3520   14.0030   -0.3630 N   0  0  0  0  0
    0.8690   13.7880    0.8960 C   0  0  0  0  0
   -0.1000   12.7710    1.1390 C   0  0  0  0  0
   -0.6190   12.1120    0.0280 C   0  0  0  0  0
   -0.0920   12.3970   -1.1990 C   0  0  0  0  0
   -0.5070   12.5480    2.4700 C   0  0  0  0  0
    0.0510   13.2680    3.5200 C   0  0  0  0  0
    0.9910   14.2840    3.2680 C   0  0  0  0  0
    1.4050   14.5290    1.9630 C   0  0  0  0  0
   -0.3240   12.9150    4.9850 C   0  0  0  0  0
   -0.1450   11.3910    5.1680 N   0  3  0  0  0
    0.2450   10.9200    6.5290 C   0  0  0  0  0
    1.6060   11.5790    6.8650 C   0  0  0  0  0
    2.6520   11.4320    5.9860 N   0  0  0  0  0
    3.6720   12.0390    6.4630 N   0  0  0  0  0
    3.3310   12.5080    7.6110 N   0  0  0  0  0
    2.0360   12.2710    7.9230 C   0  0  0  0  0
    4.3390   13.2990    8.3610 C   0  0  0  0  0
    5.1730   12.4330    9.3040 C   0  0  0  0  0
    6.4080   12.5410    9.3540 O   0  0  0  0  0
    4.5260   11.3850   10.1020 C   0  0  0  0  0
    3.7280   14.4820    9.0420 C   0  0  0  0  0
    3.2540   15.4900    7.9650 C   0  0  0  0  0
    4.3970   16.1390    7.1830 C   0  0  0  0  0
    5.0030   17.3820    7.8650 C   0  0  0  0  0
    0.4150    9.3660    6.4580 C   0  0  0  0  0
   -0.8250    8.5920    6.1170 C   0  0  0  0  0
    1.0690    8.7930    7.7590 C   0  0  0  0  0
   -0.8650   11.3220    7.5520 C   0  0  0  0  0
    1.2729   13.4938   -2.3899 H   0  0  0  0  0
   -1.4257   11.3868    0.1349 H   0  0  0  0  0
   -0.4726   11.8569   -2.0659 H   0  0  0  0  0
   -1.2711   11.7994    2.6791 H   0  0  0  0  0
    1.3925   14.8757    4.0907 H   0  0  0  0  0
    2.1497   15.3004    1.7667 H   0  0  0  0  0
   -1.3558   13.2008    5.1896 H   0  0  0  0  0
    0.3183   13.4563    5.6797 H   0  0  0  0  0
    0.6190   11.1217    4.5481 H   0  0  0  0  0
   -1.0574   10.9764    4.9782 H   0  0  0  0  0
    1.4830   12.5697    8.8136 H   0  0  0  0  0
    5.0395   13.6979    7.6273 H   0  0  0  0  0
    4.9028   10.4100    9.7929 H   0  0  0  0  0
    4.7484   11.5441   11.1571 H   0  0  0  0  0
    3.4479   11.4252    9.9465 H   0  0  0  0  0
    4.4647   14.9551    9.6913 H   0  0  0  0  0
    2.8795   14.1620    9.6467 H   0  0  0  0  0
    2.7176   16.2874    8.4792 H   0  0  0  0  0
    2.6424   14.9392    7.2504 H   0  0  0  0  0
    3.9883   16.4641    6.2262 H   0  0  0  0  0
    5.1919   15.3977    7.1003 H   0  0  0  0  0
    4.2294   18.1396    7.9901 H   0  0  0  0  0
    5.4004   17.1021    8.8406 H   0  0  0  0  0
    5.8061   17.7799    7.2447 H   0  0  0  0  0
    1.0876    9.2213    5.6126 H   0  0  0  0  0
   -1.5895    8.7829    6.8701 H   0  0  0  0  0
   -1.1901    8.9057    5.1391 H   0  0  0  0  0
   -0.5926    7.5273    6.0951 H   0  0  0  0  0
    2.0537    9.2397    7.8962 H   0  0  0  0  0
    0.4384    9.0301    8.6159 H   0  0  0  0  0
    1.1688    7.7114    7.6679 H   0  0  0  0  0
   -0.9760   12.4063    7.5583 H   0  0  0  0  0
   -1.8089   10.8605    7.2620 H   0  0  0  0  0
   -0.5818   10.9787    8.5470 H   0  0  0  0  0
  1  2  4  0  0  0
  1  6  4  0  0  0
  2  3  4  0  0  0
  3  4  4  0  0  0
  3 10  4  0  0  0
  4  5  4  0  0  0
  4  7  4  0  0  0
  5  6  4  0  0  0
  7  8  4  0  0  0
  8  9  4  0  0  0
  8 11  1  0  0  0
  9 10  4  0  0  0
 11 12  1  0  0  0
 12 13  1  0  0  0
 13 14  1  0  0  0
 13 27  1  0  0  0
 13 30  1  0  0  0
 14 15  4  0  0  0
 14 18  4  0  0  0
 15 16  4  0  0  0
 16 17  4  0  0  0
 17 18  4  0  0  0
 17 19  1  0  0  0
 19 20  1  0  0  0
 19 23  1  0  0  0
 20 21  2  0  0  0
 20 22  1  0  0  0
 23 24  1  0  0  0
 24 25  1  0  0  0
 25 26  1  0  0  0
 27 28  1  0  0  0
 27 29  1  0  0  0
  1 31  1  0  0  0
  5 32  1  0  0  0
  6 33  1  0  0  0
  7 34  1  0  0  0
  9 35  1  0  0  0
 10 36  1  0  0  0
 11 37  1  0  0  0
 11 38  1  0  0  0
 12 39  1  0  0  0
 12 40  1  0  0  0
 18 41  1  0  0  0
 19 42  1  0  0  0
 22 43  1  0  0  0
 22 44  1  0  0  0
 22 45  1  0  0  0
 23 46  1  0  0  0
 23 47  1  0  0  0
 24 48  1  0  0  0
 24 49  1  0  0  0
 25 50  1  0  0  0
 25 51  1  0  0  0
 26 52  1  0  0  0
 26 53  1  0  0  0
 26 54  1  0  0  0
 27 55  1  0  0  0
 28 56  1  0  0  0
 28 57  1  0  0  0
 28 58  1  0  0  0
 29 59  1  0  0  0
 29 60  1  0  0  0
 29 61  1  0  0  0
 30 62  1  0  0  0
 30 63  1  0  0  0
 30 64  1  0  0  0
M  END
$$$$
