5t2g_ligand
  -I-interpret- 

 49 53  0  0  0  0  0  0  0  0999 V2000
   15.9420   -3.3910   23.4560 C   0  0  0  0  0
   14.5620   -3.5890   22.8060 C   0  0  0  0  0
   15.4820   -4.7950   23.0600 C   0  0  0  0  0
    8.3890   -5.2930   26.2870 N   0  0  0  0  0
    8.3920   -6.5710   25.9310 C   0  0  0  0  0
    9.4780   -7.1050   25.1810 C   0  0  0  0  0
    9.5380   -8.4930   24.6210 C   0  0  0  0  0
   11.5480   -4.0810   24.7410 C   0  0  0  0  0
   13.3550   -3.4760   23.7110 C   0  0  0  0  0
   13.0520   -2.6690   21.0160 C   0  0  0  0  0
   12.7960   -2.2440   19.7160 C   0  0  0  0  0
   13.7920   -2.3240   18.7450 C   0  0  0  0  0
   15.0610   -2.7940   19.0870 C   0  0  0  0  0
   10.2350   -8.8680   23.4980 C   0  0  0  0  0
   10.0310  -10.2020   23.2680 N   0  0  0  0  0
    9.1540  -10.6450   24.2700 N   0  0  0  0  0
    8.8600   -9.6480   25.0640 C   0  0  0  0  0
   10.2350  -12.2920   22.2060 N   0  0  0  0  0
   10.4240   -4.9640   25.1730 C   0  0  0  0  0
    9.3670   -4.4700   25.9380 C   0  0  0  0  0
   10.4380   -6.2560   24.8140 N   0  0  0  0  0
    7.3170   -7.3170   26.3420 N   0  0  0  0  0
   12.5230   -4.4560   23.9040 N   0  0  0  0  0
   12.9330   -2.4130   24.4410 N   0  0  0  0  0
   11.7600   -2.8300   25.0880 N   0  0  0  0  0
   13.5180   -1.0710   24.5570 C   0  0  0  0  0
   14.3160   -3.1500   21.3720 C   0  0  0  0  0
   15.3220   -3.2080   20.3920 C   0  0  0  0  0
   10.5590  -10.9850   22.2690 C   0  0  0  0  0
   11.3470  -10.5790   21.4300 O   0  0  0  0  0
   16.3715   -2.8868   24.3217 H   0  0  0  0  0
   16.8182   -2.7543   23.3331 H   0  0  0  0  0
   15.4207   -5.7889   23.5033 H   0  0  0  0  0
   15.8675   -5.6563   22.5145 H   0  0  0  0  0
   12.2601   -2.6266   21.7638 H   0  0  0  0  0
   11.8143   -1.8477   19.4567 H   0  0  0  0  0
   13.5805   -2.0200   17.7198 H   0  0  0  0  0
   15.8476   -2.8372   18.3337 H   0  0  0  0  0
   10.8520   -8.2086   22.8876 H   0  0  0  0  0
    8.1980   -9.7011   25.9283 H   0  0  0  0  0
   10.6438  -12.8845   21.4834 H   0  0  0  0  0
    9.5811  -12.6884   22.8810 H   0  0  0  0  0
    9.3461   -3.4239   26.2436 H   0  0  0  0  0
    6.5741   -6.8825   26.8894 H   0  0  0  0  0
    7.2604   -8.3063   26.1003 H   0  0  0  0  0
   14.5323   -1.1508   24.9480 H   0  0  0  0  0
   13.5421   -0.6004   23.5741 H   0  0  0  0  0
   12.9123   -0.4693   25.2346 H   0  0  0  0  0
   16.3127   -3.5792   20.6544 H   0  0  0  0  0
  2  1  1  0  0  0
  3  1  1  0  0  0
  2  3  1  0  0  0
  9  2  1  0  0  0
  2 27  1  0  0  0
  4  5  4  0  0  0
 20  4  4  0  0  0
  5  6  4  0  0  0
  5 22  1  0  0  0
  6  7  1  0  0  0
  6 21  4  0  0  0
  7 14  4  0  0  0
  7 17  4  0  0  0
 19  8  1  0  0  0
  8 23  4  0  0  0
  8 25  4  0  0  0
 23  9  4  0  0  0
  9 24  4  0  0  0
 10 11  4  0  0  0
 27 10  4  0  0  0
 11 12  4  0  0  0
 12 13  4  0  0  0
 13 28  4  0  0  0
 14 15  4  0  0  0
 16 15  4  0  0  0
 15 29  1  0  0  0
 17 16  4  0  0  0
 29 18  1  0  0  0
 19 20  4  0  0  0
 19 21  4  0  0  0
 24 25  4  0  0  0
 24 26  1  0  0  0
 27 28  4  0  0  0
 29 30  2  0  0  0
  1 31  1  0  0  0
  1 32  1  0  0  0
  3 33  1  0  0  0
  3 34  1  0  0  0
 10 35  1  0  0  0
 11 36  1  0  0  0
 12 37  1  0  0  0
 13 38  1  0  0  0
 14 39  1  0  0  0
 17 40  1  0  0  0
 18 41  1  0  0  0
 18 42  1  0  0  0
 20 43  1  0  0  0
 22 44  1  0  0  0
 22 45  1  0  0  0
 26 46  1  0  0  0
 26 47  1  0  0  0
 26 48  1  0  0  0
 28 49  1  0  0  0
M  END
$$$$
