4tw7_ligand
  -I-interpret- 

119124  0  0  0  0  0  0  0  0999 V2000
   15.2590   -2.2620   19.9370 C   0  0  0  0  0
   16.4410   -3.1470   19.6580 C   0  0  0  0  0
   17.4710   -2.8570   20.5490 O   0  0  0  0  0
   17.8810   -1.4890   20.3570 C   0  0  0  0  0
   16.7200   -0.5680   20.6980 C   0  0  0  0  0
   15.6670   -0.8560   19.7820 N   0  3  0  0  0
   14.4990    0.0840   20.0340 C   0  0  0  0  0
   13.4340   -0.0230   18.9990 C   0  0  0  0  0
   13.8930    0.4820   17.8360 O   0  0  0  0  0
   13.0580    0.5440   16.7470 C   0  0  0  0  0
   13.6040    1.0620   15.5980 C   0  0  0  0  0
   11.7450    0.1220   16.7950 C   0  0  0  0  0
   10.9660    0.2370   15.6370 C   0  0  0  0  0
   11.5300    0.7600   14.5010 C   0  0  0  0  0
   12.8520    1.1670   14.4510 C   0  0  0  0  0
   13.3730    1.7310   13.1580 C   0  0  0  0  0
   13.3070    0.7030   12.0070 C   0  0  0  0  0
   14.4680   -0.2840   12.1390 C   0  0  0  0  0
   15.8060    0.2970   11.7580 C   0  0  0  0  0
   16.0850    0.4770   10.4330 C   0  0  0  0  0
   16.7060    0.6440   12.6890 C   0  0  0  0  0
   17.9220    1.2110   12.2740 C   0  0  0  0  0
   18.1940    1.4600   10.9290 C   0  0  0  0  0
   19.3720    1.9880   10.4530 O   0  0  0  0  0
   20.3390    1.9480   11.4310 C   0  0  0  0  0
   17.2880    1.0640    9.9970 C   0  0  0  0  0
   17.6070    1.3190    8.6620 O   0  0  0  0  0
   17.2590    0.0750    8.0170 C   0  0  0  0  0
   12.4940    2.8880   12.8310 O   0  0  0  0  0
   13.0580    4.0810   12.6450 C   0  0  0  0  0
   14.2740    4.2410   12.6380 O   0  0  0  0  0
   12.0870    5.2420   12.4310 C   0  0  0  0  0
   12.4030    6.2400   13.5200 C   0  0  0  0  0
   11.9150    5.7410   14.8850 C   0  0  0  0  0
   10.4430    5.5190   14.8680 C   0  0  0  0  0
   10.0860    4.4970   13.7690 C   0  0  0  0  0
   10.6910    4.8390   12.4390 N   0  0  0  0  0
   10.1420    4.5760   11.2130 C   0  0  0  0  0
   10.7390    4.7380   10.1890 O   0  0  0  0  0
    8.7520    3.9690   11.1960 C   0  0  0  0  0
    8.0650    4.3350    9.8100 C   0  0  0  0  0
    6.7510    3.6360    9.6130 C   0  0  0  0  0
    5.8290    4.1240    8.6090 C   0  0  0  0  0
    5.6110    5.6030    8.5160 C   0  0  0  0  0
    6.8100    6.3270    8.8470 C   0  0  0  0  0
    7.8630    5.8610    9.6640 C   0  0  0  0  0
    8.8080    2.4920   11.4480 C   0  0  0  0  0
    8.1070    1.9270   12.4800 C   0  0  0  0  0
    9.5390    1.7270   10.5360 C   0  0  0  0  0
    9.5870    0.3250   10.7340 C   0  0  0  0  0
   10.2580   -0.5390    9.8990 O   0  0  0  0  0
   10.8500   -0.0110    8.8180 C   0  0  0  0  0
    8.8810   -0.2590   11.7870 C   0  0  0  0  0
    8.8980   -1.6410   11.8950 O   0  0  0  0  0
   10.0320   -2.1270   12.6590 C   0  0  0  0  0
    8.1570    0.4980   12.6570 C   0  0  0  0  0
    7.5260   -0.1590   13.6890 O   0  0  0  0  0
    6.8230    0.6250   14.5700 C   0  0  0  0  0
   14.9038   -2.4321   20.9534 H   0  0  0  0  0
   14.4548   -2.4910   19.2378 H   0  0  0  0  0
   16.7875   -2.9735   18.6392 H   0  0  0  0  0
   16.1456   -4.1894   19.7770 H   0  0  0  0  0
   18.1762   -1.3373   19.3187 H   0  0  0  0  0
   18.7282   -1.2660   21.0056 H   0  0  0  0  0
   17.0230    0.4759   20.6171 H   0  0  0  0  0
   16.3903   -0.7315   21.7240 H   0  0  0  0  0
   15.9882   -0.7149   18.8242 H   0  0  0  0  0
   14.8825    1.1041   20.0123 H   0  0  0  0  0
   14.0578   -0.1838   20.9941 H   0  0  0  0  0
   12.5554    0.5369   19.3193 H   0  0  0  0  0
   13.1620   -1.0695   18.8611 H   0  0  0  0  0
   14.6426    1.3929   15.5951 H   0  0  0  0  0
   11.3245   -0.2908   17.7120 H   0  0  0  0  0
    9.9246   -0.0850   15.6382 H   0  0  0  0  0
   10.9154    0.8585   13.6062 H   0  0  0  0  0
   14.4199    2.0129   13.2701 H   0  0  0  0  0
   13.3779    1.2222   11.0512 H   0  0  0  0  0
   12.3622    0.1618   12.0565 H   0  0  0  0  0
   14.2685   -1.1135   11.4606 H   0  0  0  0  0
   14.5275   -0.5779   13.1869 H   0  0  0  0  0
   15.3540    0.1564    9.6907 H   0  0  0  0  0
   16.4980    0.4891   13.7477 H   0  0  0  0  0
   18.6729    1.4631   13.0228 H   0  0  0  0  0
   20.0081    2.5297   12.2914 H   0  0  0  0  0
   20.5064    0.9140   11.7325 H   0  0  0  0  0
   21.2659    2.3687   11.0411 H   0  0  0  0  0
   17.8497   -0.7336    8.4474 H   0  0  0  0  0
   16.1987   -0.1273    8.1687 H   0  0  0  0  0
   17.4668    0.1501    6.9496 H   0  0  0  0  0
   12.2202    5.6729   11.4387 H   0  0  0  0  0
   11.8975    7.1781   13.2906 H   0  0  0  0  0
   13.4835    6.3768   13.5647 H   0  0  0  0  0
   12.1496    6.4920   15.6394 H   0  0  0  0  0
   12.4112    4.7978   15.1136 H   0  0  0  0  0
    9.9369    6.4624   14.6632 H   0  0  0  0  0
   10.1236    5.1352   15.8369 H   0  0  0  0  0
    9.0022    4.4964   13.6527 H   0  0  0  0  0
   10.4781    3.5270   14.0748 H   0  0  0  0  0
    8.1451    4.3817   12.0019 H   0  0  0  0  0
    8.7508    3.9870    9.0375 H   0  0  0  0  0
    6.2243    3.7642   10.5587 H   0  0  0  0  0
    7.0178    2.6329    9.2802 H   0  0  0  0  0
    4.8595    3.7047    8.8778 H   0  0  0  0  0
    6.2630    3.8345    7.6520 H   0  0  0  0  0
    4.8285    5.8846    9.2207 H   0  0  0  0  0
    5.3268    5.8494    7.4930 H   0  0  0  0  0
    6.9149    7.3278    8.4281 H   0  0  0  0  0
    8.5191    6.5616   10.1805 H   0  0  0  0  0
    7.5206    2.5485   13.1567 H   0  0  0  0  0
   10.0564    2.1942    9.6981 H   0  0  0  0  0
   10.0988    0.4732    8.1940 H   0  0  0  0  0
   11.5906    0.7239    9.1335 H   0  0  0  0  0
   11.3401   -0.8023    8.2508 H   0  0  0  0  0
   10.9564   -1.8173   12.1715 H   0  0  0  0  0
    9.9944   -1.7123   13.6663 H   0  0  0  0  0
    9.9940   -3.2151   12.7110 H   0  0  0  0  0
    7.4998    1.3397   15.0382 H   0  0  0  0  0
    6.0409    1.1615   14.0328 H   0  0  0  0  0
    6.3722   -0.0060   15.3360 H   0  0  0  0  0
  1  2  1  0  0  0
  1  6  1  0  0  0
  2  3  1  0  0  0
  3  4  1  0  0  0
  4  5  1  0  0  0
  5  6  1  0  0  0
  6  7  1  0  0  0
  7  8  1  0  0  0
  8  9  1  0  0  0
  9 10  1  0  0  0
 10 11  4  0  0  0
 10 12  4  0  0  0
 11 15  4  0  0  0
 12 13  4  0  0  0
 13 14  4  0  0  0
 14 15  4  0  0  0
 15 16  1  0  0  0
 16 17  1  0  0  0
 16 29  1  0  0  0
 17 18  1  0  0  0
 18 19  1  0  0  0
 19 20  4  0  0  0
 19 21  4  0  0  0
 20 26  4  0  0  0
 21 22  4  0  0  0
 22 23  4  0  0  0
 23 24  1  0  0  0
 23 26  4  0  0  0
 24 25  1  0  0  0
 26 27  1  0  0  0
 27 28  1  0  0  0
 29 30  1  0  0  0
 30 31  2  0  0  0
 30 32  1  0  0  0
 32 33  1  0  0  0
 32 37  1  0  0  0
 33 34  1  0  0  0
 34 35  1  0  0  0
 35 36  1  0  0  0
 36 37  1  0  0  0
 37 38  1  0  0  0
 38 39  2  0  0  0
 38 40  1  0  0  0
 40 41  1  0  0  0
 40 47  1  0  0  0
 41 42  1  0  0  0
 41 46  1  0  0  0
 42 43  1  0  0  0
 43 44  1  0  0  0
 44 45  1  0  0  0
 45 46  2  0  0  0
 47 48  4  0  0  0
 47 49  4  0  0  0
 48 56  4  0  0  0
 49 50  4  0  0  0
 50 51  1  0  0  0
 50 53  4  0  0  0
 51 52  1  0  0  0
 53 54  1  0  0  0
 53 56  4  0  0  0
 54 55  1  0  0  0
 56 57  1  0  0  0
 57 58  1  0  0  0
  1 59  1  0  0  0
  1 60  1  0  0  0
  2 61  1  0  0  0
  2 62  1  0  0  0
  4 63  1  0  0  0
  4 64  1  0  0  0
  5 65  1  0  0  0
  5 66  1  0  0  0
  6 67  1  0  0  0
  7 68  1  0  0  0
  7 69  1  0  0  0
  8 70  1  0  0  0
  8 71  1  0  0  0
 11 72  1  0  0  0
 12 73  1  0  0  0
 13 74  1  0  0  0
 14 75  1  0  0  0
 16 76  1  0  0  0
 17 77  1  0  0  0
 17 78  1  0  0  0
 18 79  1  0  0  0
 18 80  1  0  0  0
 20 81  1  0  0  0
 21 82  1  0  0  0
 22 83  1  0  0  0
 25 84  1  0  0  0
 25 85  1  0  0  0
 25 86  1  0  0  0
 28 87  1  0  0  0
 28 88  1  0  0  0
 28 89  1  0  0  0
 32 90  1  0  0  0
 33 91  1  0  0  0
 33 92  1  0  0  0
 34 93  1  0  0  0
 34 94  1  0  0  0
 35 95  1  0  0  0
 35 96  1  0  0  0
 36 97  1  0  0  0
 36 98  1  0  0  0
 40 99  1  0  0  0
 41100  1  0  0  0
 42101  1  0  0  0
 42102  1  0  0  0
 43103  1  0  0  0
 43104  1  0  0  0
 44105  1  0  0  0
 44106  1  0  0  0
 45107  1  0  0  0
 46108  1  0  0  0
 48109  1  0  0  0
 49110  1  0  0  0
 52111  1  0  0  0
 52112  1  0  0  0
 52113  1  0  0  0
 55114  1  0  0  0
 55115  1  0  0  0
 55116  1  0  0  0
 58117  1  0  0  0
 58118  1  0  0  0
 58119  1  0  0  0
M  END
$$$$
