### 
### Created by X-TOOL on Wed Jan  1 15:39:37 2020
### 

@<TRIPOS>MOLECULE
6biv_ligand
  187   188     1     0     0
SMALL
GAST_HUCK


@<TRIPOS>ATOM
      1 N         -49.6740   -7.7500    3.7500 N.4       1 GLU         0.2377
      2 CA        -48.7890   -8.2200    4.8090 C.3       1 GLU         0.0621
      3 C         -48.8650   -9.7370    4.9620 C.2       1 GLU         0.2265
      4 O         -48.1600  -10.3220    5.7810 O.2       1 GLU        -0.3907
      5 CB        -49.1330   -7.5430    6.1360 C.3       1 GLU        -0.0040
      6 N         -49.7260  -10.3720    4.1720 N.am      1 THR        -0.2586
      7 CA        -49.8770  -11.8200    4.1860 C.3       1 THR         0.1566
      8 C         -49.6080  -12.3690    2.7930 C.2       1 THR         0.2065
      9 O         -50.1600  -11.8720    1.8070 O.2       1 THR        -0.3943
     10 CB        -51.2750  -12.2280    4.6680 C.3       1 THR         0.0924
     11 OG1       -51.3160  -12.1830    6.0970 O.3       1 THR        -0.3874
     12 CG2       -51.6190  -13.6350    4.1980 C.3       1 THR        -0.0346
     13 N         -48.7520  -13.3810    2.7200 N.am      1 VAL        -0.2634
     14 CA        -48.4330  -14.0320    1.4560 C.3       1 VAL         0.1333
     15 C         -49.5260  -15.0420    1.1340 C.2       1 VAL         0.2042
     16 O         -49.9540  -15.8090    2.0050 O.2       1 VAL        -0.3944
     17 CB        -47.0510  -14.7000    1.5270 C.3       1 VAL        -0.0063
     18 CG1       -46.9420  -15.8260    0.5140 C.3       1 VAL        -0.0584
     19 CG2       -45.9540  -13.6690    1.2960 C.3       1 VAL        -0.0584
     20 N         -49.9370  -15.1060   -0.1140 N.am      1 CYS        -0.2629
     21 CA        -50.9550  -16.0310   -0.5550 C.3       1 CYS         0.1398
     22 C         -50.3860  -17.1810   -1.3300 C.2       1 CYS         0.2072
     23 O         -49.5770  -16.9730   -2.1930 O.2       1 CYS        -0.3942
     24 CB        -51.8910  -15.3070   -1.4900 C.3       1 CYS         0.0311
     25 SG        -53.4070  -14.7720   -0.7150 S.3       1 CYS        -0.1735
     26 N         -50.8620  -18.3840   -1.0640 N.am      1 PRO        -0.2498
     27 CA        -50.4130  -19.5830   -1.7510 C.3       1 PRO         0.1338
     28 C         -51.2150  -19.8760   -2.9640 C.2       1 PRO         0.2041
     29 O         -52.3220  -19.4350   -3.0800 O.2       1 PRO        -0.3944
     30 CB        -50.7280  -20.6650   -0.7630 C.3       1 PRO        -0.0104
     31 CG        -51.9000  -20.1650   -0.0860 C.3       1 PRO        -0.0281
     32 CD        -51.6360  -18.7230    0.1180 C.3       1 PRO         0.0369
     33 C1        -51.7030  -22.5060   -5.0120 C.2       1 CIR         0.2040
     34 O1        -50.9450  -23.2390   -4.4970 O.2       1 CIR        -0.3944
     35 C2        -51.4250  -21.0520   -5.0420 C.3       1 CIR         0.1310
     36 N2        -50.6760  -20.6410   -3.8580 N.am      1 CIR        -0.2637
     37 C3        -50.6270  -20.5840   -6.2180 C.3       1 CIR        -0.0106
     38 C4        -51.1030  -21.0780   -7.5410 C.3       1 CIR        -0.0288
     39 C5        -51.9810  -20.1010   -8.2460 C.3       1 CIR         0.0314
     40 N6        -52.8530  -19.4870   -7.3280 N.am      1 CIR        -0.2733
     41 C7        -54.1100  -19.7940   -7.2460 C.2       1 CIR         0.2548
     42 O7        -54.5520  -20.8400   -7.6020 O.2       1 CIR        -0.4010
     43 N8        -54.9150  -18.8190   -6.6710 N.am      1 CIR        -0.2870
     44 N         -52.8170  -22.9360   -5.5270 N.am      1 THR        -0.2613
     45 CA        -53.4970  -24.1480   -5.1590 C.3       1 THR         0.1565
     46 C         -53.0330  -25.2360   -6.0690 C.2       1 THR         0.2065
     47 O         -52.8480  -25.0240   -7.2330 O.2       1 THR        -0.3943
     48 CB        -55.0110  -24.0470   -5.3660 C.3       1 THR         0.0924
     49 OG1       -55.4560  -22.7280   -5.1370 O.3       1 THR        -0.3874
     50 CG2       -55.7040  -24.8810   -4.4190 C.3       1 THR        -0.0346
     51 N         -52.8480  -26.4160   -5.5310 N.am      1 THR        -0.2613
     52 CA        -52.4270  -27.5360   -6.3230 C.3       1 THR         0.1565
     53 C         -53.6700  -28.2820   -6.7160 C.2       1 THR         0.2065
     54 O         -54.5730  -28.4380   -5.9500 O.2       1 THR        -0.3943
     55 CB        -51.4570  -28.4270   -5.5540 C.3       1 THR         0.0924
     56 OG1       -50.3910  -27.6400   -5.0780 O.3       1 THR        -0.3874
     57 CG2       -50.8810  -29.4100   -6.4090 C.3       1 THR        -0.0346
     58 N         -53.7080  -28.7250   -7.9470 N.am      1 GLN        -0.2635
     59 CA        -54.8430  -29.4180   -8.4450 C.3       1 GLN         0.1330
     60 C         -54.7320  -30.8860   -8.2470 C.2       1 GLN         0.2040
     61 O         -53.6790  -31.4120   -8.0710 O.2       1 GLN        -0.3944
     62 CB        -55.0670  -29.0740   -9.8940 C.3       1 GLN         0.0045
     63 CG        -55.0170  -27.5960  -10.1890 C.3       1 GLN         0.0412
     64 CD        -55.8910  -26.7730   -9.2930 C.2       1 GLN         0.1737
     65 OE1       -55.4630  -25.8120   -8.7130 O.2       1 GLN        -0.3973
     66 NE2       -57.1170  -27.1330   -9.2070 N.am      1 GLN        -0.3009
     67 N         -55.8610  -31.5490   -8.2850 N.am      1 GLN        -0.2636
     68 CA        -55.9400  -32.9520   -8.0550 C.3       1 GLN         0.1330
     69 C         -56.1480  -33.7050   -9.3380 C.2       1 GLN         0.2041
     70 O         -57.0240  -33.4360  -10.0710 O.2       1 GLN        -0.3944
     71 CB        -57.0750  -33.1490   -7.0800 C.3       1 GLN         0.0045
     72 CG        -57.4560  -34.5630   -6.7420 C.3       1 GLN         0.0412
     73 CD        -56.3430  -35.3400   -6.1370 C.2       1 GLN         0.1737
     74 OE1       -55.8880  -35.0450   -5.0550 O.2       1 GLN        -0.3973
     75 NE2       -55.9180  -36.3560   -6.8260 N.am      1 GLN        -0.3009
     76 N         -55.3110  -34.6660   -9.6010 N.am      1 SER        -0.2616
     77 CA        -55.3990  -35.4430  -10.8270 C.3       1 SER         0.1541
     78 C         -56.6440  -36.3310  -10.8210 C.2       1 SER         0.2087
     79 O         -57.1610  -36.6860   -9.7590 O.2       1 SER        -0.3941
     80 CB        -54.1550  -36.3090  -11.0010 C.3       1 SER         0.0843
     81 OG        -53.0940  -35.5640  -11.5700 O.3       1 SER        -0.3903
     82 N         -57.1470  -36.7030  -12.0000 N.am      1 PRO        -0.2498
     83 CA        -58.2620  -37.6590  -12.0520 C.3       1 PRO         0.1337
     84 C         -57.7850  -39.0610  -11.6960 C.2       1 PRO         0.2035
     85 O         -56.7700  -39.5360  -12.2100 O.2       1 PRO        -0.3944
     86 CB        -58.7380  -37.5730  -13.5070 C.3       1 PRO        -0.0104
     87 CG        -57.5360  -37.1170  -14.2650 C.3       1 PRO        -0.0281
     88 CD        -56.7900  -36.1970  -13.3370 C.3       1 PRO         0.0369
     89 N         -58.5250  -39.7160  -10.8050 N.am      1 GLU        -0.2697
     90 CA        -58.1680  -41.0510  -10.3380 C.3       1 GLU         0.0916
     91 C         -58.6410  -42.1230  -11.3160 C.2       1 GLU         0.0598
     92 O         -58.3710  -42.0460  -12.5150 O.co2     1 GLU        -0.5666
     93 CB        -58.7580  -41.3070   -8.9480 C.3       1 GLU        -0.0300
     94 OXT       -59.3020  -43.0860  -10.9250 O.co2     1 GLU        -0.5666
     95 H1        -49.6025   -6.7475    3.6726 H         1 GLU         0.2015
     96 H2        -50.6247   -8.0030    3.9696 H         1 GLU         0.2015
     97 H3        -49.4067   -8.1744    2.8756 H         1 GLU         0.2015
     98 H4        -47.7572   -7.9514    4.5386 H         1 GLU         0.1095
     99 H5        -48.4556   -7.9099    6.9212 H         1 GLU         0.0310
    100 H6        -50.1723   -7.7782    6.4090 H         1 GLU         0.0310
    101 H7        -49.0185   -6.4539    6.0325 H         1 GLU         0.0310
    102 H8        -50.2906   -9.8350    3.5452 H         1 THR         0.1885
    103 H9        -49.1356  -12.2425    4.8801 H         1 THR         0.0826
    104 H10       -52.0146  -11.5230    4.2606 H         1 THR         0.0639
    105 H11       -52.1816  -12.4356    6.3960 H         1 THR         0.2101
    106 H12       -52.6238  -13.9053    4.5548 H         1 THR         0.0257
    107 H13       -50.8832  -14.3464    4.6010 H         1 THR         0.0257
    108 H14       -51.5986  -13.6697    3.0987 H         1 THR         0.0257
    109 H15       -48.3130  -13.7063    3.5575 H         1 VAL         0.1883
    110 H16       -48.4097  -13.2726    0.6606 H         1 VAL         0.0802
    111 H17       -46.9227  -15.1257    2.5331 H         1 VAL         0.0343
    112 H18       -45.9459  -16.2873    0.5843 H         1 VAL         0.0234
    113 H19       -47.0889  -15.4234   -0.4991 H         1 VAL         0.0234
    114 H20       -47.7122  -16.5831    0.7229 H         1 VAL         0.0234
    115 H21       -46.0476  -12.8617    2.0373 H         1 VAL         0.0234
    116 H22       -46.0517  -13.2502    0.2835 H         1 VAL         0.0234
    117 H23       -44.9705  -14.1504    1.4004 H         1 VAL         0.0234
    118 H24       -49.5275  -14.4884   -0.7855 H         1 CYS         0.1884
    119 H25       -51.5036  -16.4100    0.3199 H         1 CYS         0.0808
    120 H26       -52.1449  -15.9832   -2.3196 H         1 CYS         0.0422
    121 H27       -51.3714  -14.4214   -1.8846 H         1 CYS         0.0422
    122 H28       -53.9814  -14.2983   -1.3945 H         1 CYS         0.1019
    123 H29       -49.3420  -19.5294   -1.9959 H         1 PRO         0.0802
    124 H30       -49.8965  -20.8086   -0.0573 H         1 PRO         0.0313
    125 H31       -50.9434  -21.6149   -1.2741 H         1 PRO         0.0313
    126 H32       -52.0357  -20.6739    0.8797 H         1 PRO         0.0287
    127 H33       -52.7967  -20.3102   -0.7063 H         1 PRO         0.0287
    128 H34       -52.5727  -18.1479    0.1602 H         1 PRO         0.0524
    129 H35       -51.0574  -18.5494    1.0373 H         1 PRO         0.0524
    130 H36       -52.3946  -20.5326   -5.0539 H         1 CIR         0.0800
    131 H37       -49.7343  -20.9547   -3.7363 H         1 CIR         0.1883
    132 H38       -49.5889  -20.9213   -6.0816 H         1 CIR         0.0313
    133 H39       -50.6562  -19.4845   -6.2341 H         1 CIR         0.0313
    134 H40       -51.6686  -22.0085   -7.3850 H         1 CIR         0.0287
    135 H41       -50.2273  -21.2829   -8.1744 H         1 CIR         0.0287
    136 H42       -52.5700  -20.6271   -9.0117 H         1 CIR         0.0517
    137 H43       -51.3581  -19.3323   -8.7266 H         1 CIR         0.0517
    138 H44       -52.4888  -18.7862   -6.7146 H         1 CIR         0.1845
    139 H45       -55.8973  -18.9770   -6.5704 H         1 CIR         0.1808
    140 H46       -54.5123  -17.9590   -6.3576 H         1 CIR         0.1808
    141 H47       -53.2369  -22.3752   -6.2406 H         1 THR         0.1884
    142 H48       -53.2748  -24.3924   -4.1098 H         1 THR         0.0826
    143 H49       -55.2582  -24.3554   -6.3925 H         1 THR         0.0639
    144 H50       -55.0218  -22.1388   -5.7428 H         1 THR         0.2101
    145 H51       -56.7887  -24.7968   -4.5813 H         1 THR         0.0257
    146 H52       -55.4599  -24.5561   -3.3968 H         1 THR         0.0257
    147 H53       -55.3930  -25.9273   -4.5554 H         1 THR         0.0257
    148 H54       -53.0030  -26.5384   -4.5507 H         1 THR         0.1884
    149 H55       -51.9201  -27.1717   -7.2287 H         1 THR         0.0826
    150 H56       -51.9828  -28.9121   -4.7184 H         1 THR         0.0639
    151 H57       -49.7829  -28.1896   -4.5978 H         1 THR         0.2101
    152 H58       -50.1871  -30.0377   -5.8307 H         1 THR         0.0257
    153 H59       -50.3336  -28.9125   -7.2232 H         1 THR         0.0257
    154 H60       -51.6774  -30.0390   -6.8333 H         1 THR         0.0257
    155 H61       -52.9233  -28.5726   -8.5479 H         1 GLN         0.1883
    156 H62       -55.7204  -29.0740   -7.8777 H         1 GLN         0.0801
    157 H63       -56.0565  -29.4524  -10.1903 H         1 GLN         0.0337
    158 H64       -54.2897  -29.5724  -10.4919 H         1 GLN         0.0337
    159 H65       -55.3394  -27.4383  -11.2288 H         1 GLN         0.0504
    160 H66       -53.9784  -27.2533  -10.0711 H         1 GLN         0.0504
    161 H67       -57.7485  -26.6217   -8.6241 H         1 GLN         0.1814
    162 H68       -57.4428  -27.9254   -9.7228 H         1 GLN         0.1814
    163 H69       -56.7035  -31.0484   -8.4841 H         1 GLN         0.1883
    164 H70       -55.0031  -33.3030   -7.5978 H         1 GLN         0.0801
    165 H71       -57.9640  -32.6599   -7.5047 H         1 GLN         0.0337
    166 H72       -56.7946  -32.6490   -6.1412 H         1 GLN         0.0337
    167 H73       -57.7747  -35.0695   -7.6650 H         1 GLN         0.0504
    168 H74       -58.2934  -34.5387   -6.0291 H         1 GLN         0.0504
    169 H75       -55.1710  -36.9207   -6.4752 H         1 GLN         0.1814
    170 H76       -56.3379  -36.5734   -7.7072 H         1 GLN         0.1814
    171 H77       -54.5881  -34.8757   -8.9426 H         1 SER         0.1884
    172 H78       -55.4669  -34.7474  -11.6764 H         1 SER         0.0823
    173 H79       -54.3952  -37.1551  -11.6616 H         1 SER         0.0606
    174 H80       -53.8408  -36.6891  -10.0177 H         1 SER         0.0606
    175 H81       -53.3595  -35.2364  -12.4213 H         1 SER         0.2097
    176 H82       -59.0658  -37.3628  -11.3620 H         1 PRO         0.0802
    177 H83       -59.5587  -36.8473  -13.6057 H         1 PRO         0.0313
    178 H84       -59.0738  -38.5573  -13.8654 H         1 PRO         0.0313
    179 H85       -57.8388  -36.5792  -15.1756 H         1 PRO         0.0287
    180 H86       -56.9071  -37.9769  -14.5389 H         1 PRO         0.0287
    181 H87       -55.7050  -36.2615  -13.5062 H         1 PRO         0.0524
    182 H88       -57.1198  -35.1555  -13.4653 H         1 PRO         0.0524
    183 H89       -59.3500  -39.2803  -10.4450 H         1 GLU         0.1875
    184 H90       -57.0719  -41.1087  -10.2665 H         1 GLU         0.0723
    185 H91       -58.4794  -42.3166   -8.6117 H         1 GLU         0.0270
    186 H92       -59.8540  -41.2253   -8.9941 H         1 GLU         0.0270
    187 H93       -58.3643  -40.5631   -8.2398 H         1 GLU         0.0270
@<TRIPOS>BOND
     1    2    1 1  
     2    3    2 1  
     3    2    5 1  
     4    3    4 2  
     5    6    3 am 
     6    7    6 1  
     7    8    7 1  
     8    7   10 1  
     9    8    9 2  
    10   13    8 am 
    11   10   11 1  
    12   10   12 1  
    13   14   13 1  
    14   15   14 1  
    15   14   17 1  
    16   15   16 2  
    17   20   15 am 
    18   17   18 1  
    19   17   19 1  
    20   21   20 1  
    21   22   21 1  
    22   21   24 1  
    23   22   23 2  
    24   26   22 am 
    25   24   25 1  
    26   27   26 1  
    27   26   32 1  
    28   28   27 1  
    29   27   30 1  
    30   28   29 2  
    31   36   28 am 
    32   30   31 1  
    33   31   32 1  
    34   33   34 2  
    35   35   33 1  
    36   33   44 am 
    37   35   36 1  
    38   35   37 1  
    39   37   38 1  
    40   38   39 1  
    41   39   40 1  
    42   40   41 am 
    43   41   42 2  
    44   41   43 am 
    45   44   45 1  
    46   45   46 1  
    47   45   48 1  
    48   46   47 2  
    49   46   51 am 
    50   48   49 1  
    51   48   50 1  
    52   51   52 1  
    53   52   53 1  
    54   52   55 1  
    55   53   54 2  
    56   53   58 am 
    57   55   56 1  
    58   55   57 1  
    59   58   59 1  
    60   59   60 1  
    61   59   62 1  
    62   60   61 2  
    63   60   67 am 
    64   62   63 1  
    65   63   64 1  
    66   64   65 2  
    67   64   66 am 
    68   67   68 1  
    69   68   69 1  
    70   68   71 1  
    71   69   70 2  
    72   69   76 am 
    73   71   72 1  
    74   72   73 1  
    75   73   74 2  
    76   73   75 am 
    77   76   77 1  
    78   77   78 1  
    79   77   80 1  
    80   78   79 2  
    81   78   82 am 
    82   80   81 1  
    83   82   83 1  
    84   82   88 1  
    85   83   84 1  
    86   83   86 1  
    87   84   85 2  
    88   84   89 am 
    89   86   87 1  
    90   87   88 1  
    91   89   90 1  
    92   90   91 1  
    93   90   93 1  
    94   91   92 ar 
    95   91   94 ar 
    96    1   95 1  
    97    1   96 1  
    98    1   97 1  
    99    2   98 1  
   100    5   99 1  
   101    5  100 1  
   102    5  101 1  
   103    6  102 1  
   104    7  103 1  
   105   10  104 1  
   106   11  105 1  
   107   12  106 1  
   108   12  107 1  
   109   12  108 1  
   110   13  109 1  
   111   14  110 1  
   112   17  111 1  
   113   18  112 1  
   114   18  113 1  
   115   18  114 1  
   116   19  115 1  
   117   19  116 1  
   118   19  117 1  
   119   20  118 1  
   120   21  119 1  
   121   24  120 1  
   122   24  121 1  
   123   25  122 1  
   124   27  123 1  
   125   30  124 1  
   126   30  125 1  
   127   31  126 1  
   128   31  127 1  
   129   32  128 1  
   130   32  129 1  
   131   35  130 1  
   132   36  131 1  
   133   37  132 1  
   134   37  133 1  
   135   38  134 1  
   136   38  135 1  
   137   39  136 1  
   138   39  137 1  
   139   40  138 1  
   140   43  139 1  
   141   43  140 1  
   142   44  141 1  
   143   45  142 1  
   144   48  143 1  
   145   49  144 1  
   146   50  145 1  
   147   50  146 1  
   148   50  147 1  
   149   51  148 1  
   150   52  149 1  
   151   55  150 1  
   152   56  151 1  
   153   57  152 1  
   154   57  153 1  
   155   57  154 1  
   156   58  155 1  
   157   59  156 1  
   158   62  157 1  
   159   62  158 1  
   160   63  159 1  
   161   63  160 1  
   162   66  161 1  
   163   66  162 1  
   164   67  163 1  
   165   68  164 1  
   166   71  165 1  
   167   71  166 1  
   168   72  167 1  
   169   72  168 1  
   170   75  169 1  
   171   75  170 1  
   172   76  171 1  
   173   77  172 1  
   174   80  173 1  
   175   80  174 1  
   176   81  175 1  
   177   83  176 1  
   178   86  177 1  
   179   86  178 1  
   180   87  179 1  
   181   87  180 1  
   182   88  181 1  
   183   88  182 1  
   184   89  183 1  
   185   90  184 1  
   186   93  185 1  
   187   93  186 1  
   188   93  187 1  
@<TRIPOS>SUBSTRUCTURE
     1 GLU         1

