6biv_ligand
  -I-interpret- 

188189  0  0  0  0  0  0  0  0999 V2000
  -49.6740   -7.7500    3.7500 N   0  3  0  0  0
  -48.7890   -8.2200    4.8090 C   0  0  0  0  0
  -48.8650   -9.7370    4.9620 C   0  0  0  0  0
  -48.1600  -10.3220    5.7810 O   0  0  0  0  0
  -49.1330   -7.5430    6.1360 C   0  0  0  0  0
  -49.7260  -10.3720    4.1720 N   0  0  0  0  0
  -49.8770  -11.8200    4.1860 C   0  0  0  0  0
  -49.6080  -12.3690    2.7930 C   0  0  0  0  0
  -50.1600  -11.8720    1.8070 O   0  0  0  0  0
  -51.2750  -12.2280    4.6680 C   0  0  0  0  0
  -51.3160  -12.1830    6.0970 O   0  0  0  0  0
  -51.6190  -13.6350    4.1980 C   0  0  0  0  0
  -48.7520  -13.3810    2.7200 N   0  0  0  0  0
  -48.4330  -14.0320    1.4560 C   0  0  0  0  0
  -49.5260  -15.0420    1.1340 C   0  0  0  0  0
  -49.9540  -15.8090    2.0050 O   0  0  0  0  0
  -47.0510  -14.7000    1.5270 C   0  0  0  0  0
  -46.9420  -15.8260    0.5140 C   0  0  0  0  0
  -45.9540  -13.6690    1.2960 C   0  0  0  0  0
  -49.9370  -15.1060   -0.1140 N   0  0  0  0  0
  -50.9550  -16.0310   -0.5550 C   0  0  0  0  0
  -50.3860  -17.1810   -1.3300 C   0  0  0  0  0
  -49.5770  -16.9730   -2.1930 O   0  0  0  0  0
  -51.8910  -15.3070   -1.4900 C   0  0  0  0  0
  -53.4070  -14.7720   -0.7150 S   0  0  0  0  0
  -50.8620  -18.3840   -1.0640 N   0  0  0  0  0
  -50.4130  -19.5830   -1.7510 C   0  0  0  0  0
  -51.2150  -19.8760   -2.9640 C   0  0  0  0  0
  -52.3220  -19.4350   -3.0800 O   0  0  0  0  0
  -50.7280  -20.6650   -0.7630 C   0  0  0  0  0
  -51.9000  -20.1650   -0.0860 C   0  0  0  0  0
  -51.6360  -18.7230    0.1180 C   0  0  0  0  0
  -51.7030  -22.5060   -5.0120 C   0  0  0  0  0
  -50.9450  -23.2390   -4.4970 O   0  0  0  0  0
  -51.4250  -21.0520   -5.0420 C   0  0  0  0  0
  -50.6760  -20.6410   -3.8580 N   0  0  0  0  0
  -50.6270  -20.5840   -6.2180 C   0  0  0  0  0
  -51.1030  -21.0780   -7.5410 C   0  0  0  0  0
  -51.9810  -20.1010   -8.2460 C   0  0  0  0  0
  -52.8530  -19.4870   -7.3280 N   0  0  0  0  0
  -54.1100  -19.7940   -7.2460 C   0  0  0  0  0
  -54.5520  -20.8400   -7.6020 O   0  0  0  0  0
  -54.9150  -18.8190   -6.6710 N   0  0  0  0  0
  -52.8170  -22.9360   -5.5270 N   0  0  0  0  0
  -53.4970  -24.1480   -5.1590 C   0  0  0  0  0
  -53.0330  -25.2360   -6.0690 C   0  0  0  0  0
  -52.8480  -25.0240   -7.2330 O   0  0  0  0  0
  -55.0110  -24.0470   -5.3660 C   0  0  0  0  0
  -55.4560  -22.7280   -5.1370 O   0  0  0  0  0
  -55.7040  -24.8810   -4.4190 C   0  0  0  0  0
  -52.8480  -26.4160   -5.5310 N   0  0  0  0  0
  -52.4270  -27.5360   -6.3230 C   0  0  0  0  0
  -53.6700  -28.2820   -6.7160 C   0  0  0  0  0
  -54.5730  -28.4380   -5.9500 O   0  0  0  0  0
  -51.4570  -28.4270   -5.5540 C   0  0  0  0  0
  -50.3910  -27.6400   -5.0780 O   0  0  0  0  0
  -50.8810  -29.4100   -6.4090 C   0  0  0  0  0
  -53.7080  -28.7250   -7.9470 N   0  0  0  0  0
  -54.8430  -29.4180   -8.4450 C   0  0  0  0  0
  -54.7320  -30.8860   -8.2470 C   0  0  0  0  0
  -53.6790  -31.4120   -8.0710 O   0  0  0  0  0
  -55.0670  -29.0740   -9.8940 C   0  0  0  0  0
  -55.0170  -27.5960  -10.1890 C   0  0  0  0  0
  -55.8910  -26.7730   -9.2930 C   0  0  0  0  0
  -55.4630  -25.8120   -8.7130 O   0  0  0  0  0
  -57.1170  -27.1330   -9.2070 N   0  0  0  0  0
  -55.8610  -31.5490   -8.2850 N   0  0  0  0  0
  -55.9400  -32.9520   -8.0550 C   0  0  0  0  0
  -56.1480  -33.7050   -9.3380 C   0  0  0  0  0
  -57.0240  -33.4360  -10.0710 O   0  0  0  0  0
  -57.0750  -33.1490   -7.0800 C   0  0  0  0  0
  -57.4560  -34.5630   -6.7420 C   0  0  0  0  0
  -56.3430  -35.3400   -6.1370 C   0  0  0  0  0
  -55.8880  -35.0450   -5.0550 O   0  0  0  0  0
  -55.9180  -36.3560   -6.8260 N   0  0  0  0  0
  -55.3110  -34.6660   -9.6010 N   0  0  0  0  0
  -55.3990  -35.4430  -10.8270 C   0  0  0  0  0
  -56.6440  -36.3310  -10.8210 C   0  0  0  0  0
  -57.1610  -36.6860   -9.7590 O   0  0  0  0  0
  -54.1550  -36.3090  -11.0010 C   0  0  0  0  0
  -53.0940  -35.5640  -11.5700 O   0  0  0  0  0
  -57.1470  -36.7030  -12.0000 N   0  0  0  0  0
  -58.2620  -37.6590  -12.0520 C   0  0  0  0  0
  -57.7850  -39.0610  -11.6960 C   0  0  0  0  0
  -56.7700  -39.5360  -12.2100 O   0  0  0  0  0
  -58.7380  -37.5730  -13.5070 C   0  0  0  0  0
  -57.5360  -37.1170  -14.2650 C   0  0  0  0  0
  -56.7900  -36.1970  -13.3370 C   0  0  0  0  0
  -58.5250  -39.7160  -10.8050 N   0  0  0  0  0
  -58.1680  -41.0510  -10.3380 C   0  0  0  0  0
  -58.6410  -42.1230  -11.3160 C   0  0  0  0  0
  -58.3710  -42.0460  -12.5150 O   0  0  0  0  0
  -58.7580  -41.3070   -8.9480 C   0  0  0  0  0
  -59.3020  -43.0860  -10.9250 O   0  0  0  0  0
  -49.4295   -8.2121    2.8742 H   0  0  0  0  0
  -50.6399   -7.9694    3.9934 H   0  0  0  0  0
  -49.5696   -6.7409    3.6441 H   0  0  0  0  0
  -47.7692   -7.9557    4.5294 H   0  0  0  0  0
  -50.1430   -7.8239    6.4346 H   0  0  0  0  0
  -48.4246   -7.8630    6.9001 H   0  0  0  0  0
  -49.0759   -6.4611    6.0160 H   0  0  0  0  0
  -50.3019   -9.8243    3.5326 H   0  0  0  0  0
  -49.1549  -12.2409    4.8856 H   0  0  0  0  0
  -52.0036  -11.5330    4.2506 H   0  0  0  0  0
  -52.1907  -12.4383    6.3991 H   0  0  0  0  0
  -50.8953  -14.3403    4.6066 H   0  0  0  0  0
  -52.6190  -13.8977    4.5432 H   0  0  0  0  0
  -51.5881  -13.6706    3.1090 H   0  0  0  0  0
  -48.3042  -13.7128    3.5743 H   0  0  0  0  0
  -48.3905  -13.2913    0.6574 H   0  0  0  0  0
  -46.9274  -15.1261    2.5226 H   0  0  0  0  0
  -47.7057  -16.5754    0.7221 H   0  0  0  0  0
  -47.0877  -15.4257   -0.4893 H   0  0  0  0  0
  -45.9546  -16.2823    0.5847 H   0  0  0  0  0
  -46.0822  -13.2182    0.3119 H   0  0  0  0  0
  -46.0164  -12.8961    2.0620 H   0  0  0  0  0
  -44.9810  -14.1575    1.3493 H   0  0  0  0  0
  -49.5193  -14.4761   -0.7989 H   0  0  0  0  0
  -51.4527  -16.4101    0.3376 H   0  0  0  0  0
  -52.1593  -16.0022   -2.2855 H   0  0  0  0  0
  -51.3733  -14.4153   -1.8436 H   0  0  0  0  0
  -54.1648  -14.1469   -1.6116 H   0  0  0  0  0
  -49.3718  -19.4904   -2.0598 H   0  0  0  0  0
  -49.9017  -20.8636   -0.0804 H   0  0  0  0  0
  -50.8980  -21.6310   -1.2384 H   0  0  0  0  0
  -52.0738  -20.6821    0.8577 H   0  0  0  0  0
  -52.8060  -20.3321   -0.6685 H   0  0  0  0  0
  -52.5444  -18.1297    0.2225 H   0  0  0  0  0
  -51.1139  -18.5087    1.0505 H   0  0  0  0  0
  -52.4173  -20.6039   -5.0943 H   0  0  0  0  0
  -49.7155  -20.9609   -3.7338 H   0  0  0  0  0
  -49.6158  -20.9685   -6.0845 H   0  0  0  0  0
  -50.7087  -19.4973   -6.2406 H   0  0  0  0  0
  -51.6853  -21.9829   -7.3676 H   0  0  0  0  0
  -50.2268  -21.2487   -8.1665 H   0  0  0  0  0
  -52.5667  -20.6254   -9.0010 H   0  0  0  0  0
  -51.3618  -19.3379   -8.7175 H   0  0  0  0  0
  -52.4815  -18.7722   -6.7024 H   0  0  0  0  0
  -55.9125  -18.9906   -6.5446 H   0  0  0  0  0
  -54.5087  -17.9314   -6.3752 H   0  0  0  0  0
  -53.2453  -22.3640   -6.2549 H   0  0  0  0  0
  -53.2819  -24.3371   -4.1073 H   0  0  0  0  0
  -55.2167  -24.3576   -6.3903 H   0  0  0  0  0
  -56.4056  -22.6840   -5.2712 H   0  0  0  0  0
  -55.3949  -25.9174   -4.5551 H   0  0  0  0  0
  -55.4613  -24.5581   -3.4066 H   0  0  0  0  0
  -56.7786  -24.7968   -4.5808 H   0  0  0  0  0
  -53.0061  -26.5409   -4.5311 H   0  0  0  0  0
  -51.8865  -27.2013   -7.2084 H   0  0  0  0  0
  -52.0111  -28.9047   -4.7460 H   0  0  0  0  0
  -49.7765  -28.1954   -4.5927 H   0  0  0  0  0
  -51.6712  -30.0325   -6.8288 H   0  0  0  0  0
  -50.3390  -28.9158   -7.2153 H   0  0  0  0  0
  -50.1936  -30.0313   -5.8348 H   0  0  0  0  0
  -52.9076  -28.5696   -8.5599 H   0  0  0  0  0
  -55.7115  -29.0925   -7.8724 H   0  0  0  0  0
  -56.0654  -29.4226  -10.1582 H   0  0  0  0  0
  -54.2669  -29.5447  -10.4653 H   0  0  0  0  0
  -55.3724  -27.4553  -11.2098 H   0  0  0  0  0
  -53.9895  -27.2673  -10.0334 H   0  0  0  0  0
  -57.7666  -26.5975   -8.6311 H   0  0  0  0  0
  -57.4439  -27.9552   -9.7144 H   0  0  0  0  0
  -56.7204  -31.0384   -8.4880 H   0  0  0  0  0
  -55.0105  -33.3455   -7.6436 H   0  0  0  0  0
  -57.9527  -32.7130   -7.5571 H   0  0  0  0  0
  -56.7407  -32.7018   -6.1439 H   0  0  0  0  0
  -57.7396  -35.0597   -7.6699 H   0  0  0  0  0
  -58.2650  -34.5219   -6.0127 H   0  0  0  0  0
  -55.1698  -36.9440   -6.4589 H   0  0  0  0  0
  -56.3325  -36.5657   -7.7341 H   0  0  0  0  0
  -54.5737  -34.8799   -8.9294 H   0  0  0  0  0
  -55.4693  -34.7445  -11.6609 H   0  0  0  0  0
  -54.3962  -37.1382  -11.6661 H   0  0  0  0  0
  -53.8418  -36.6721  -10.0221 H   0  0  0  0  0
  -52.3246  -36.1295  -11.6691 H   0  0  0  0  0
  -59.0578  -37.4354  -11.3415 H   0  0  0  0  0
  -59.5787  -36.8889  -13.6228 H   0  0  0  0  0
  -59.1136  -38.5290  -13.8719 H   0  0  0  0  0
  -57.8183  -36.6071  -15.1861 H   0  0  0  0  0
  -56.9162  -37.9603  -14.5697 H   0  0  0  0  0
  -55.7146  -36.2028  -13.5148 H   0  0  0  0  0
  -57.0609  -35.1504  -13.4760 H   0  0  0  0  0
  -59.3665  -39.2716  -10.4378 H   0  0  0  0  0
  -57.0810  -41.1038  -10.2763 H   0  0  0  0  0
  -58.3671  -40.5692   -8.2473 H   0  0  0  0  0
  -59.8439  -41.2257   -8.9950 H   0  0  0  0  0
  -58.4813  -42.3076   -8.6159 H   0  0  0  0  0
  -59.4361  -43.0169   -9.9769 H   0  0  0  0  0
  2  1  1  0  0  0
  3  2  1  0  0  0
  2  5  1  0  0  0
  3  4  2  0  0  0
  6  3  1  0  0  0
  7  6  1  0  0  0
  8  7  1  0  0  0
  7 10  1  0  0  0
  8  9  2  0  0  0
 13  8  1  0  0  0
 10 11  1  0  0  0
 10 12  1  0  0  0
 14 13  1  0  0  0
 15 14  1  0  0  0
 14 17  1  0  0  0
 15 16  2  0  0  0
 20 15  1  0  0  0
 17 18  1  0  0  0
 17 19  1  0  0  0
 21 20  1  0  0  0
 22 21  1  0  0  0
 21 24  1  0  0  0
 22 23  2  0  0  0
 26 22  1  0  0  0
 24 25  1  0  0  0
 27 26  1  0  0  0
 26 32  1  0  0  0
 28 27  1  0  0  0
 27 30  1  0  0  0
 28 29  2  0  0  0
 36 28  1  0  0  0
 30 31  1  0  0  0
 31 32  1  0  0  0
 33 34  2  0  0  0
 35 33  1  0  0  0
 33 44  1  0  0  0
 35 36  1  0  0  0
 35 37  1  0  0  0
 37 38  1  0  0  0
 38 39  1  0  0  0
 39 40  1  0  0  0
 40 41  1  0  0  0
 41 42  2  0  0  0
 41 43  1  0  0  0
 44 45  1  0  0  0
 45 46  1  0  0  0
 45 48  1  0  0  0
 46 47  2  0  0  0
 46 51  1  0  0  0
 48 49  1  0  0  0
 48 50  1  0  0  0
 51 52  1  0  0  0
 52 53  1  0  0  0
 52 55  1  0  0  0
 53 54  2  0  0  0
 53 58  1  0  0  0
 55 56  1  0  0  0
 55 57  1  0  0  0
 58 59  1  0  0  0
 59 60  1  0  0  0
 59 62  1  0  0  0
 60 61  2  0  0  0
 60 67  1  0  0  0
 62 63  1  0  0  0
 63 64  1  0  0  0
 64 65  2  0  0  0
 64 66  1  0  0  0
 67 68  1  0  0  0
 68 69  1  0  0  0
 68 71  1  0  0  0
 69 70  2  0  0  0
 69 76  1  0  0  0
 71 72  1  0  0  0
 72 73  1  0  0  0
 73 74  2  0  0  0
 73 75  1  0  0  0
 76 77  1  0  0  0
 77 78  1  0  0  0
 77 80  1  0  0  0
 78 79  2  0  0  0
 78 82  1  0  0  0
 80 81  1  0  0  0
 82 83  1  0  0  0
 82 88  1  0  0  0
 83 84  1  0  0  0
 83 86  1  0  0  0
 84 85  2  0  0  0
 84 89  1  0  0  0
 86 87  1  0  0  0
 87 88  1  0  0  0
 89 90  1  0  0  0
 90 91  1  0  0  0
 90 93  1  0  0  0
 91 92  2  0  0  0
 91 94  1  0  0  0
  1 95  1  0  0  0
  1 96  1  0  0  0
  1 97  1  0  0  0
  2 98  1  0  0  0
  5 99  1  0  0  0
  5100  1  0  0  0
  5101  1  0  0  0
  6102  1  0  0  0
  7103  1  0  0  0
 10104  1  0  0  0
 11105  1  0  0  0
 12106  1  0  0  0
 12107  1  0  0  0
 12108  1  0  0  0
 13109  1  0  0  0
 14110  1  0  0  0
 17111  1  0  0  0
 18112  1  0  0  0
 18113  1  0  0  0
 18114  1  0  0  0
 19115  1  0  0  0
 19116  1  0  0  0
 19117  1  0  0  0
 20118  1  0  0  0
 21119  1  0  0  0
 24120  1  0  0  0
 24121  1  0  0  0
 25122  1  0  0  0
 27123  1  0  0  0
 30124  1  0  0  0
 30125  1  0  0  0
 31126  1  0  0  0
 31127  1  0  0  0
 32128  1  0  0  0
 32129  1  0  0  0
 35130  1  0  0  0
 36131  1  0  0  0
 37132  1  0  0  0
 37133  1  0  0  0
 38134  1  0  0  0
 38135  1  0  0  0
 39136  1  0  0  0
 39137  1  0  0  0
 40138  1  0  0  0
 43139  1  0  0  0
 43140  1  0  0  0
 44141  1  0  0  0
 45142  1  0  0  0
 48143  1  0  0  0
 49144  1  0  0  0
 50145  1  0  0  0
 50146  1  0  0  0
 50147  1  0  0  0
 51148  1  0  0  0
 52149  1  0  0  0
 55150  1  0  0  0
 56151  1  0  0  0
 57152  1  0  0  0
 57153  1  0  0  0
 57154  1  0  0  0
 58155  1  0  0  0
 59156  1  0  0  0
 62157  1  0  0  0
 62158  1  0  0  0
 63159  1  0  0  0
 63160  1  0  0  0
 66161  1  0  0  0
 66162  1  0  0  0
 67163  1  0  0  0
 68164  1  0  0  0
 71165  1  0  0  0
 71166  1  0  0  0
 72167  1  0  0  0
 72168  1  0  0  0
 75169  1  0  0  0
 75170  1  0  0  0
 76171  1  0  0  0
 77172  1  0  0  0
 80173  1  0  0  0
 80174  1  0  0  0
 81175  1  0  0  0
 83176  1  0  0  0
 86177  1  0  0  0
 86178  1  0  0  0
 87179  1  0  0  0
 87180  1  0  0  0
 88181  1  0  0  0
 88182  1  0  0  0
 89183  1  0  0  0
 90184  1  0  0  0
 93185  1  0  0  0
 93186  1  0  0  0
 93187  1  0  0  0
 94188  1  0  0  0
M  END
$$$$
