4why_ligand
  -I-interpret- 

174176  0  0  0  0  0  0  0  0999 V2000
   -1.1840  -63.6950   -6.1770 N   0  3  0  0  0
    0.2440  -63.8840   -5.9140 C   0  0  0  0  0
    0.9810  -62.5470   -5.7060 C   0  0  0  0  0
    2.0200  -62.5340   -5.0400 O   0  0  0  0  0
    0.9040  -64.6500   -7.0560 C   0  0  0  0  0
    0.6140  -66.1290   -7.0890 C   0  0  0  0  0
    1.6870  -66.8320   -7.8770 C   0  0  0  0  0
    2.5960  -67.4320   -7.2960 O   0  0  0  0  0
    1.6450  -66.7230   -9.2190 N   0  0  0  0  0
    0.4690  -61.4480   -6.3130 N   0  0  0  0  0
    1.0030  -60.1000   -6.1950 C   0  0  0  0  0
    0.7970  -59.6570   -4.7480 C   0  0  0  0  0
    1.7700  -59.4260   -4.0140 O   0  0  0  0  0
    0.2750  -59.1470   -7.1570 C   0  0  0  0  0
    0.6530  -59.2450   -8.6320 C   0  0  0  0  0
   -0.4550  -58.7020   -9.5280 C   0  0  0  0  0
    1.9480  -58.5180   -8.9190 C   0  0  0  0  0
   -0.4750  -59.6050   -4.3260 N   0  0  0  0  0
   -0.8510  -59.2400   -2.9670 C   0  0  0  0  0
   -1.7280  -60.3520   -2.4360 C   0  0  0  0  0
   -2.5340  -60.9220   -3.1770 O   0  0  0  0  0
   -1.5680  -57.8470   -2.8840 C   0  0  0  0  0
   -0.7000  -56.7030   -3.4510 C   0  0  0  0  0
   -2.0270  -57.5160   -1.4420 C   0  0  0  0  0
   -1.4990  -55.5180   -4.0200 C   0  0  0  0  0
   -1.5840  -60.6300   -1.1280 N   0  0  0  0  0
   -2.3720  -61.5930   -0.3710 C   0  0  0  0  0
   -3.6820  -60.8610   -0.0840 C   0  0  0  0  0
   -3.9450  -60.4420    1.0450 O   0  0  0  0  0
   -1.6080  -61.9670    0.9160 C   0  0  0  0  0
   -2.2090  -63.0550    1.7730 C   0  0  0  0  0
   -2.9390  -63.9270    1.3190 O   0  0  0  0  0
   -1.8270  -63.0910    3.0230 N   0  0  0  0  0
   -4.4830  -60.6640   -1.1520 N   0  0  0  0  0
   -5.7730  -59.9510   -1.1340 C   0  0  0  0  0
   -6.7440  -60.5830   -0.1520 C   0  0  0  0  0
   -7.7070  -59.9400    0.2650 O   0  0  0  0  0
   -6.4020  -59.8490   -2.5540 C   0  0  0  0  0
   -6.8960  -61.1170   -2.9480 O   0  0  0  0  0
   -5.4440  -59.3410   -3.6100 C   0  0  0  0  0
   -6.4890  -61.8450    0.2040 N   0  0  0  0  0
   -7.3130  -62.6190    1.1160 C   0  0  0  0  0
   -6.6960  -62.7760    2.5170 C   0  0  0  0  0
   -7.1160  -63.6460    3.2810 O   0  0  0  0  0
   -7.6210  -63.9840    0.4870 C   0  0  0  0  0
   -9.0080  -64.4540    0.7920 C   0  0  0  0  0
   -9.2050  -65.3770    1.5900 O   0  0  0  0  0
   -9.9970  -63.7750    0.2130 N   0  0  0  0  0
   -5.7300  -61.9200    2.8360 N   0  0  0  0  0
   -5.0150  -61.9190    4.1040 C   0  0  0  0  0
   -5.8910  -61.6500    5.3040 C   0  0  0  0  0
   -6.6730  -60.6920    5.3210 O   0  0  0  0  0
   -5.7110  -62.4720    6.3490 N   0  0  0  0  0
   -6.4410  -62.4100    7.6300 C   0  0  0  0  0
   -6.2130  -61.1220    8.4420 C   0  0  0  0  0
   -6.8520  -60.9540    9.4780 O   0  0  0  0  0
   -6.1140  -63.6380    8.4720 C   0  0  0  0  0
   -6.2890  -64.8030    7.6800 O   0  0  0  0  0
   -5.2960  -60.2290    7.9860 N   0  0  0  0  0
   -4.9670  -58.9580    8.6400 C   0  0  0  0  0
   -6.0220  -57.9070    8.3680 C   0  0  0  0  0
   -6.2310  -57.0280    9.2200 O   0  0  0  0  0
   -3.5400  -58.4740    8.3040 C   0  0  0  0  0
   -3.0510  -58.8610    6.9390 C   0  0  0  0  0
   -2.5360  -60.0670    6.5670 C   0  0  0  0  0
   -3.0820  -58.0550    5.7490 C   0  0  0  0  0
   -2.2330  -60.0600    5.2240 N   0  0  0  0  0
   -2.5740  -58.8440    4.6940 C   0  0  0  0  0
   -3.5530  -56.7710    5.4580 C   0  0  0  0  0
   -2.5040  -58.3830    3.3740 C   0  0  0  0  0
   -3.4540  -56.3090    4.1560 C   0  0  0  0  0
   -2.9360  -57.1090    3.1300 C   0  0  0  0  0
   -6.7260  -58.0210    7.2090 N   0  0  0  0  0
   -7.8280  -57.1440    6.8070 C   0  0  0  0  0
   -8.9740  -57.0970    7.8650 C   0  0  0  0  0
   -9.0900  -58.0090    8.7060 O   0  0  0  0  0
   -8.4280  -57.6480    5.4950 C   0  0  0  0  0
   -7.5500  -57.4610    4.3050 C   0  0  0  0  0
   -6.7380  -58.4760    3.8460 N   0  0  0  0  0
   -7.4400  -56.4060    3.4730 C   0  0  0  0  0
   -6.1530  -58.0100    2.7580 C   0  0  0  0  0
   -6.5340  -56.7640    2.4990 N   0  0  0  0  0
   -9.8410  -56.0440    7.7930 N   0  0  0  0  0
  -10.9840  -55.8630    8.6800 C   0  0  0  0  0
  -12.2850  -55.9120    7.8680 C   0  0  0  0  0
  -12.2720  -55.6700    6.6650 O   0  0  0  0  0
  -10.8430  -54.5770    9.5300 C   0  0  0  0  0
  -12.1080  -54.2890   10.3370 C   0  0  0  0  0
   -9.6520  -54.6760   10.4630 C   0  0  0  0  0
  -13.3705  -56.2017    8.4384 O   0  0  0  0  0
   -1.6060  -63.1818   -5.4031 H   0  0  0  0  0
   -1.3023  -63.1668   -7.0415 H   0  0  0  0  0
   -1.6350  -64.6053   -6.2689 H   0  0  0  0  0
    0.3187  -64.4593   -4.9912 H   0  0  0  0  0
    1.9806  -64.5451   -6.9220 H   0  0  0  0  0
    0.5087  -64.2329   -7.9822 H   0  0  0  0  0
   -0.3541  -66.2995   -7.5600 H   0  0  0  0  0
    0.5955  -66.5189   -6.0713 H   0  0  0  0  0
    2.3796  -67.1437   -9.7881 H   0  0  0  0  0
    0.8786  -66.2198   -9.6661 H   0  0  0  0  0
   -0.3560  -61.5766   -6.8988 H   0  0  0  0  0
    2.0611  -60.0819   -6.4560 H   0  0  0  0  0
    0.5451  -58.1386   -6.8434 H   0  0  0  0  0
   -0.7813  -59.4097   -7.0989 H   0  0  0  0  0
    0.7918  -60.3030   -8.8544 H   0  0  0  0  0
   -1.3667  -59.2768   -9.3651 H   0  0  0  0  0
   -0.6360  -57.6548   -9.2857 H   0  0  0  0  0
   -0.1515  -58.7876  -10.5714 H   0  0  0  0  0
    1.8376  -57.4653   -8.6586 H   0  0  0  0  0
    2.7495  -58.9582   -8.3258 H   0  0  0  0  0
    2.1868  -58.6084   -9.9787 H   0  0  0  0  0
   -1.2156  -59.8323   -4.9895 H   0  0  0  0  0
    0.0458  -59.1272   -2.3577 H   0  0  0  0  0
   -2.4557  -57.9290   -3.5112 H   0  0  0  0  0
   -0.1194  -57.1206   -4.2736 H   0  0  0  0  0
   -0.1016  -56.3173   -2.6256 H   0  0  0  0  0
   -2.7252  -58.2800   -1.0999 H   0  0  0  0  0
   -1.1597  -57.4931   -0.7822 H   0  0  0  0  0
   -2.5180  -56.5429   -1.4327 H   0  0  0  0  0
   -2.1349  -55.8674   -4.8334 H   0  0  0  0  0
   -2.1177  -55.0871   -3.2328 H   0  0  0  0  0
   -0.8086  -54.7628   -4.3956 H   0  0  0  0  0
   -0.8591  -60.1217   -0.6215 H   0  0  0  0  0
   -2.5587  -62.5302   -0.8954 H   0  0  0  0  0
   -1.6034  -61.0684    1.5330 H   0  0  0  0  0
   -0.6389  -62.3443    0.5896 H   0  0  0  0  0
   -2.1372  -63.8502    3.6294 H   0  0  0  0  0
   -1.2188  -62.3599    3.3917 H   0  0  0  0  0
   -4.1695  -61.0400   -2.0468 H   0  0  0  0  0
   -5.5681  -58.9353   -0.7956 H   0  0  0  0  0
   -7.2072  -59.1180   -2.4798 H   0  0  0  0  0
   -7.2831  -61.0503   -3.8240 H   0  0  0  0  0
   -5.0981  -58.3444   -3.3357 H   0  0  0  0  0
   -4.5913  -60.0164   -3.6803 H   0  0  0  0  0
   -5.9551  -59.2977   -4.5718 H   0  0  0  0  0
   -5.6623  -62.2941   -0.1900 H   0  0  0  0  0
   -8.2392  -62.0652    1.2698 H   0  0  0  0  0
   -6.9209  -64.7105    0.8995 H   0  0  0  0  0
   -7.5293  -63.8848   -0.5946 H   0  0  0  0  0
  -10.9674  -64.0095    0.4222 H   0  0  0  0  0
   -9.7839  -63.0206   -0.4396 H   0  0  0  0  0
   -5.4722  -61.2156    2.1448 H   0  0  0  0  0
   -4.2763  -61.1189    4.0576 H   0  0  0  0  0
   -4.5859  -62.9126    4.2336 H   0  0  0  0  0
   -5.0078  -63.2041    6.2493 H   0  0  0  0  0
   -7.4991  -62.3965    7.3687 H   0  0  0  0  0
   -6.7777  -63.6782    9.3357 H   0  0  0  0  0
   -5.0821  -63.5813    8.8185 H   0  0  0  0  0
   -6.0843  -65.5797    8.2057 H   0  0  0  0  0
   -4.7997  -60.4596    7.1252 H   0  0  0  0  0
   -4.9709  -59.1381    9.7150 H   0  0  0  0  0
   -2.8690  -58.9405    9.0252 H   0  0  0  0  0
   -3.5587  -57.3847    8.3370 H   0  0  0  0  0
   -2.3858  -60.9143    7.2360 H   0  0  0  0  0
   -3.9885  -56.1473    6.2387 H   0  0  0  0  0
   -2.1204  -59.0146    2.5727 H   0  0  0  0  0
   -3.7876  -55.2975    3.9242 H   0  0  0  0  0
   -2.8761  -56.7085    2.1180 H   0  0  0  0  0
   -6.4666  -58.7742    6.5720 H   0  0  0  0  0
   -7.4105  -56.1426    6.7023 H   0  0  0  0  0
   -9.3361  -57.0723    5.3163 H   0  0  0  0  0
   -8.5899  -58.7200    5.6080 H   0  0  0  0  0
   -7.9657  -55.4547    3.5550 H   0  0  0  0  0
   -5.4472  -58.5756    2.1497 H   0  0  0  0  0
   -9.6786  -55.3398    7.0732 H   0  0  0  0  0
  -11.0170  -56.6841    9.3961 H   0  0  0  0  0
  -10.6872  -53.7510    8.8361 H   0  0  0  0  0
  -12.9498  -54.1599    9.6568 H   0  0  0  0  0
  -12.3068  -55.1240   11.0088 H   0  0  0  0  0
  -11.9666  -53.3784   10.9191 H   0  0  0  0  0
   -9.7853  -55.5267   11.1313 H   0  0  0  0  0
   -8.7432  -54.8118    9.8768 H   0  0  0  0  0
   -9.5743  -53.7604   11.0493 H   0  0  0  0  0
  -13.2080  -56.3613    9.3710 H   0  0  0  0  0
  1  2  1  0  0  0
  2  3  1  0  0  0
  2  5  1  0  0  0
  3  4  2  0  0  0
  3 10  1  0  0  0
  5  6  1  0  0  0
  6  7  1  0  0  0
  7  8  2  0  0  0
  7  9  1  0  0  0
 10 11  1  0  0  0
 11 12  1  0  0  0
 11 14  1  0  0  0
 12 13  2  0  0  0
 12 18  1  0  0  0
 14 15  1  0  0  0
 15 16  1  0  0  0
 15 17  1  0  0  0
 18 19  1  0  0  0
 19 20  1  0  0  0
 19 22  1  0  0  0
 20 21  2  0  0  0
 20 26  1  0  0  0
 22 23  1  0  0  0
 22 24  1  0  0  0
 23 25  1  0  0  0
 26 27  1  0  0  0
 27 28  1  0  0  0
 27 30  1  0  0  0
 28 29  2  0  0  0
 28 34  1  0  0  0
 30 31  1  0  0  0
 31 32  2  0  0  0
 31 33  1  0  0  0
 34 35  1  0  0  0
 35 36  1  0  0  0
 35 38  1  0  0  0
 36 37  2  0  0  0
 36 41  1  0  0  0
 38 39  1  0  0  0
 38 40  1  0  0  0
 41 42  1  0  0  0
 42 43  1  0  0  0
 42 45  1  0  0  0
 43 44  2  0  0  0
 43 49  1  0  0  0
 45 46  1  0  0  0
 46 47  2  0  0  0
 46 48  1  0  0  0
 49 50  1  0  0  0
 50 51  1  0  0  0
 51 52  2  0  0  0
 51 53  1  0  0  0
 53 54  1  0  0  0
 54 55  1  0  0  0
 54 57  1  0  0  0
 55 56  2  0  0  0
 55 59  1  0  0  0
 57 58  1  0  0  0
 59 60  1  0  0  0
 60 61  1  0  0  0
 60 63  1  0  0  0
 61 62  2  0  0  0
 61 73  1  0  0  0
 63 64  1  0  0  0
 64 65  4  0  0  0
 64 66  4  0  0  0
 65 67  4  0  0  0
 66 68  4  0  0  0
 66 69  4  0  0  0
 67 68  4  0  0  0
 68 70  4  0  0  0
 69 71  4  0  0  0
 70 72  4  0  0  0
 71 72  4  0  0  0
 73 74  1  0  0  0
 74 75  1  0  0  0
 74 77  1  0  0  0
 75 76  2  0  0  0
 75 83  1  0  0  0
 77 78  1  0  0  0
 78 79  4  0  0  0
 78 80  4  0  0  0
 79 81  4  0  0  0
 80 82  4  0  0  0
 81 82  4  0  0  0
 83 84  1  0  0  0
 84 85  1  0  0  0
 84 87  1  0  0  0
 85 86  2  0  0  0
 87 88  1  0  0  0
 87 89  1  0  0  0
 85 90  1  0  0  0
  1 91  1  0  0  0
  1 92  1  0  0  0
  1 93  1  0  0  0
  2 94  1  0  0  0
  5 95  1  0  0  0
  5 96  1  0  0  0
  6 97  1  0  0  0
  6 98  1  0  0  0
  9 99  1  0  0  0
  9100  1  0  0  0
 10101  1  0  0  0
 11102  1  0  0  0
 14103  1  0  0  0
 14104  1  0  0  0
 15105  1  0  0  0
 16106  1  0  0  0
 16107  1  0  0  0
 16108  1  0  0  0
 17109  1  0  0  0
 17110  1  0  0  0
 17111  1  0  0  0
 18112  1  0  0  0
 19113  1  0  0  0
 22114  1  0  0  0
 23115  1  0  0  0
 23116  1  0  0  0
 24117  1  0  0  0
 24118  1  0  0  0
 24119  1  0  0  0
 25120  1  0  0  0
 25121  1  0  0  0
 25122  1  0  0  0
 26123  1  0  0  0
 27124  1  0  0  0
 30125  1  0  0  0
 30126  1  0  0  0
 33127  1  0  0  0
 33128  1  0  0  0
 34129  1  0  0  0
 35130  1  0  0  0
 38131  1  0  0  0
 39132  1  0  0  0
 40133  1  0  0  0
 40134  1  0  0  0
 40135  1  0  0  0
 41136  1  0  0  0
 42137  1  0  0  0
 45138  1  0  0  0
 45139  1  0  0  0
 48140  1  0  0  0
 48141  1  0  0  0
 49142  1  0  0  0
 50143  1  0  0  0
 50144  1  0  0  0
 53145  1  0  0  0
 54146  1  0  0  0
 57147  1  0  0  0
 57148  1  0  0  0
 58149  1  0  0  0
 59150  1  0  0  0
 60151  1  0  0  0
 63152  1  0  0  0
 63153  1  0  0  0
 65154  1  0  0  0
 69155  1  0  0  0
 70156  1  0  0  0
 71157  1  0  0  0
 72158  1  0  0  0
 73159  1  0  0  0
 74160  1  0  0  0
 77161  1  0  0  0
 77162  1  0  0  0
 80163  1  0  0  0
 81164  1  0  0  0
 83165  1  0  0  0
 84166  1  0  0  0
 87167  1  0  0  0
 88168  1  0  0  0
 88169  1  0  0  0
 88170  1  0  0  0
 89171  1  0  0  0
 89172  1  0  0  0
 89173  1  0  0  0
 90174  1  0  0  0
M  END
$$$$
