### 
### Created by X-TOOL on Mon Sep 10 21:13:19 2018
### 

@<TRIPOS>MOLECULE
4why_ligand
  175   177     1     0     0
SMALL
GAST_HUCK


@<TRIPOS>ATOM
      1 N          -1.1840  -63.6950   -6.1770 N.4       1 GLN         0.2380
      2 CA          0.2440  -63.8840   -5.9140 C.3       1 GLN         0.0671
      3 C           0.9810  -62.5470   -5.7060 C.2       1 GLN         0.2269
      4 O           2.0200  -62.5340   -5.0400 O.2       1 GLN        -0.3907
      5 CB          0.9040  -64.6500   -7.0560 C.3       1 GLN         0.0247
      6 CG          0.6140  -66.1290   -7.0890 C.3       1 GLN         0.0443
      7 CD          1.6870  -66.8320   -7.8770 C.2       1 GLN         0.1738
      8 OE1         2.5960  -67.4320   -7.2960 O.2       1 GLN        -0.3973
      9 NE2         1.6450  -66.7230   -9.2190 N.am      1 GLN        -0.3009
     10 N           0.4690  -61.4480   -6.3130 N.am      1 LEU        -0.2610
     11 CA          1.0030  -60.1000   -6.1950 C.3       1 LEU         0.1313
     12 C           0.7970  -59.6570   -4.7480 C.2       1 LEU         0.2039
     13 O           1.7700  -59.4260   -4.0140 O.2       1 LEU        -0.3944
     14 CB          0.2750  -59.1470   -7.1570 C.3       1 LEU        -0.0101
     15 CG          0.6530  -59.2450   -8.6320 C.3       1 LEU        -0.0425
     16 CD1        -0.4550  -58.7020   -9.5280 C.3       1 LEU        -0.0625
     17 CD2         1.9480  -58.5180   -8.9190 C.3       1 LEU        -0.0625
     18 N          -0.4750  -59.6050   -4.3260 N.am      1 ILE        -0.2635
     19 CA         -0.8510  -59.2400   -2.9670 C.3       1 ILE         0.1335
     20 C          -1.7280  -60.3520   -2.4360 C.2       1 ILE         0.2043
     21 O          -2.5340  -60.9220   -3.1770 O.2       1 ILE        -0.3944
     22 CB         -1.5680  -57.8470   -2.8840 C.3       1 ILE        -0.0037
     23 CG1        -0.7000  -56.7030   -3.4510 C.3       1 ILE        -0.0491
     24 CG2        -2.0270  -57.5160   -1.4420 C.3       1 ILE        -0.0582
     25 CD1        -1.4990  -55.5180   -4.0200 C.3       1 ILE        -0.0648
     26 N          -1.5840  -60.6300   -1.1280 N.am      1 ASN        -0.2616
     27 CA         -2.3720  -61.5930   -0.3710 C.3       1 ASN         0.1476
     28 C          -3.6820  -60.8610   -0.0840 C.2       1 ASN         0.2063
     29 O          -3.9450  -60.4420    1.0450 O.2       1 ASN        -0.3942
     30 CB         -1.6080  -61.9670    0.9160 C.3       1 ASN         0.0773
     31 CG         -2.2090  -63.0550    1.7730 C.2       1 ASN         0.1780
     32 OD1        -2.9390  -63.9270    1.3190 O.2       1 ASN        -0.3970
     33 ND2        -1.8270  -63.0910    3.0230 N.am      1 ASN        -0.3007
     34 N          -4.4830  -60.6640   -1.1520 N.am      1 THR        -0.2612
     35 CA         -5.7730  -59.9510   -1.1340 C.3       1 THR         0.1565
     36 C          -6.7440  -60.5830   -0.1520 C.2       1 THR         0.2066
     37 O          -7.7070  -59.9400    0.2650 O.2       1 THR        -0.3943
     38 CB         -6.4020  -59.8490   -2.5540 C.3       1 THR         0.0924
     39 OG1        -6.8960  -61.1170   -2.9480 O.3       1 THR        -0.3874
     40 CG2        -5.4440  -59.3410   -3.6100 C.3       1 THR        -0.0346
     41 N          -6.4890  -61.8450    0.2040 N.am      1 ASN        -0.2615
     42 CA         -7.3130  -62.6190    1.1160 C.3       1 ASN         0.1476
     43 C          -6.6960  -62.7760    2.5170 C.2       1 ASN         0.2061
     44 O          -7.1160  -63.6460    3.2810 O.2       1 ASN        -0.3942
     45 CB         -7.6210  -63.9840    0.4870 C.3       1 ASN         0.0773
     46 CG         -9.0080  -64.4540    0.7920 C.2       1 ASN         0.1780
     47 OD1        -9.2050  -65.3770    1.5900 O.2       1 ASN        -0.3970
     48 ND2        -9.9970  -63.7750    0.2130 N.am      1 ASN        -0.3007
     49 N          -5.7300  -61.9200    2.8360 N.am      1 GLY        -0.2663
     50 CA         -5.0150  -61.9190    4.1040 C.3       1 GLY         0.1201
     51 C          -5.8910  -61.6500    5.3040 C.2       1 GLY         0.2008
     52 O          -6.6730  -60.6920    5.3210 O.2       1 GLY        -0.3947
     53 N          -5.7110  -62.4720    6.3490 N.am      1 SER        -0.2618
     54 CA         -6.4410  -62.4100    7.6300 C.3       1 SER         0.1539
     55 C          -6.2130  -61.1220    8.4420 C.2       1 SER         0.2063
     56 O          -6.8520  -60.9540    9.4780 O.2       1 SER        -0.3943
     57 CB         -6.1140  -63.6380    8.4720 C.3       1 SER         0.0843
     58 OG         -6.2890  -64.8030    7.6800 O.3       1 SER        -0.3903
     59 N          -5.2960  -60.2290    7.9860 N.am      1 TRP        -0.2626
     60 CA         -4.9670  -58.9580    8.6400 C.3       1 TRP         0.1352
     61 C          -6.0220  -57.9070    8.3680 C.2       1 TRP         0.2053
     62 O          -6.2310  -57.0280    9.2200 O.2       1 TRP        -0.3942
     63 CB         -3.5400  -58.4740    8.3040 C.3       1 TRP         0.0042
     64 CG         -3.0510  -58.8610    6.9390 C.2       1 TRP        -0.0418
     65 CD1        -2.5360  -60.0670    6.5670 C.2       1 TRP         0.0167
     66 CD2        -3.0820  -58.0550    5.7490 C.ar      1 TRP        -0.0214
     67 NE1        -2.2330  -60.0600    5.2240 N.pl3     1 TRP        -0.2890
     68 CE2        -2.5740  -58.8440    4.6940 C.ar      1 TRP         0.0603
     69 CE3        -3.5530  -56.7710    5.4580 C.ar      1 TRP        -0.0747
     70 CZ2        -2.5040  -58.3830    3.3740 C.ar      1 TRP        -0.0443
     71 CZ3        -3.4540  -56.3090    4.1560 C.ar      1 TRP        -0.0792
     72 CH2        -2.9360  -57.1090    3.1300 C.ar      1 TRP        -0.0768
     73 N          -6.7260  -58.0210    7.2090 N.am      1 HIS        -0.2618
     74 CA         -7.8280  -57.1440    6.8070 C.3       1 HIS         0.1421
     75 C          -8.9740  -57.0970    7.8650 C.2       1 HIS         0.2055
     76 O          -9.0900  -58.0090    8.7060 O.2       1 HIS        -0.3942
     77 CB         -8.4280  -57.6480    5.4950 C.3       1 HIS         0.0427
     78 CG         -7.5500  -57.4610    4.3050 C.2       1 HIS         0.0561
     79 ND1        -6.7380  -58.4760    3.8460 N.pl3     1 HIS        -0.2623
     80 CD2        -7.4400  -56.4060    3.4730 C.2       1 HIS        -0.0276
     81 CE1        -6.1530  -58.0100    2.7580 C.2       1 HIS         0.0875
     82 NE2        -6.5340  -56.7640    2.4990 N.2       1 HIS        -0.3437
     83 N          -9.8410  -56.0440    7.7930 N.am      1 VAL        -0.2667
     84 CA        -10.9840  -55.8630    8.6800 C.3       1 VAL         0.1249
     85 C         -12.2850  -55.9120    7.8680 C.2       1 VAL         0.2152
     86 O         -12.2720  -55.6700    6.6650 O.co2     1 VAL        -0.4120
     87 CB        -10.8430  -54.5770    9.5300 C.3       1 VAL        -0.0094
     88 CG1       -12.1080  -54.2890   10.3370 C.3       1 VAL        -0.0589
     89 CG2        -9.6520  -54.6760   10.4630 C.3       1 VAL        -0.0589
     90 H          -1.6236  -64.5929   -6.3061 H         1 GLN         0.2015
     91 H          -1.3017  -63.1404   -7.0104 H         1 GLN         0.2015
     92 H          -1.6099  -63.2217   -5.3955 H         1 GLN         0.2015
     93 H           0.3427  -64.4772   -4.9929 H         1 GLN         0.1100
     94 H           1.9927  -64.5186   -6.9695 H         1 GLN         0.0370
     95 H           0.5562  -64.2139   -8.0041 H         1 GLN         0.0370
     96 H          -0.3627  -66.3009   -7.5648 H         1 GLN         0.0506
     97 H           0.5959  -66.5224   -6.0619 H         1 GLN         0.0506
     98 H           2.3392  -67.1748   -9.7793 H         1 GLN         0.1814
     99 H           0.9196  -66.1903   -9.6549 H         1 GLN         0.1814
    100 H          -0.3398  -61.5741   -6.8873 H         1 LEU         0.1884
    101 H           2.0767  -60.1028   -6.4342 H         1 LEU         0.0800
    102 H           0.4814  -58.1181   -6.8273 H         1 LEU         0.0315
    103 H          -0.8031  -59.3491   -7.0747 H         1 LEU         0.0315
    104 H           0.7971  -60.3086   -8.8726 H         1 LEU         0.0298
    105 H          -0.1499  -58.7878  -10.5813 H         1 LEU         0.0232
    106 H          -0.6387  -57.6451   -9.2845 H         1 LEU         0.0232
    107 H          -1.3757  -59.2813   -9.3646 H         1 LEU         0.0232
    108 H           2.7426  -58.9143   -8.2697 H         1 LEU         0.0232
    109 H           1.8165  -57.4436   -8.7234 H         1 LEU         0.0232
    110 H           2.2268  -58.6675   -9.9725 H         1 LEU         0.0232
    111 H          -1.2011  -59.8278   -4.9765 H         1 ILE         0.1883
    112 H           0.0608  -59.1833   -2.3543 H         1 ILE         0.0803
    113 H          -2.4709  -57.9126   -3.5089 H         1 ILE         0.0345
    114 H          -0.0739  -57.1137   -4.2568 H         1 ILE         0.0267
    115 H          -0.0565  -56.3267   -2.6422 H         1 ILE         0.0267
    116 H          -2.6432  -58.3409   -1.0550 H         1 ILE         0.0235
    117 H          -2.6185  -56.5886   -1.4492 H         1 ILE         0.0235
    118 H          -1.1453  -57.3836   -0.7978 H         1 ILE         0.0235
    119 H          -0.8033  -54.7551   -4.3994 H         1 ILE         0.0230
    120 H          -2.1238  -55.0822   -3.2265 H         1 ILE         0.0230
    121 H          -2.1412  -55.8692   -4.8411 H         1 ILE         0.0230
    122 H          -0.8733  -60.1316   -0.6315 H         1 ASN         0.1885
    123 H          -2.5619  -62.5016   -0.9612 H         1 ASN         0.0826
    124 H          -1.5331  -61.0601    1.5339 H         1 ASN         0.0551
    125 H          -0.6000  -62.2943    0.6214 H         1 ASN         0.0551
    126 H          -2.1923  -63.7902    3.6375 H         1 ASN         0.1814
    127 H          -1.1696  -62.4193    3.3645 H         1 ASN         0.1814
    128 H          -4.1756  -61.0327   -2.0293 H         1 THR         0.1884
    129 H          -5.5747  -58.9257   -0.7885 H         1 THR         0.0826
    130 H          -7.2451  -59.1448   -2.4972 H         1 THR         0.0639
    131 H          -7.2790  -61.0510   -3.8148 H         1 THR         0.2101
    132 H          -5.9587  -59.2968   -4.5812 H         1 THR         0.0257
    133 H          -4.5830  -60.0218   -3.6820 H         1 THR         0.0257
    134 H          -5.0942  -58.3352   -3.3344 H         1 THR         0.0257
    135 H          -5.6785  -62.2853   -0.1823 H         1 ASN         0.1885
    136 H          -8.2643  -62.0808    1.2398 H         1 ASN         0.0826
    137 H          -6.9045  -64.7221    0.8768 H         1 ASN         0.0551
    138 H          -7.5075  -63.9036   -0.6042 H         1 ASN         0.0551
    139 H         -10.9475  -64.0392    0.3765 H         1 ASN         0.1814
    140 H          -9.7889  -63.0011   -0.3852 H         1 ASN         0.1814
    141 H          -5.4772  -61.2294    2.1583 H         1 GLY         0.1881
    142 H          -4.2379  -61.1416    4.0621 H         1 GLY         0.0763
    143 H          -4.5421  -62.9035    4.2350 H         1 GLY         0.0763
    144 H          -5.0216  -63.1897    6.2512 H         1 SER         0.1884
    145 H          -7.5135  -62.4461    7.3881 H         1 SER         0.0823
    146 H          -6.7870  -63.6788    9.3412 H         1 SER         0.0606
    147 H          -5.0714  -63.5807    8.8179 H         1 SER         0.0606
    148 H          -6.0864  -65.5717    8.2003 H         1 SER         0.2097
    149 H          -4.8094  -60.4550    7.1421 H         1 TRP         0.1884
    150 H          -4.9837  -59.1470    9.7235 H         1 TRP         0.0815
    151 H          -2.8501  -58.8988    9.0481 H         1 TRP         0.0397
    152 H          -3.5251  -57.3764    8.3747 H         1 TRP         0.0397
    153 H          -2.3859  -60.9136    7.2354 H         1 TRP         0.0795
    154 H          -1.8165  -60.8438    4.7015 H         1 TRP         0.2216
    155 H          -3.9861  -56.1508    6.2344 H         1 TRP         0.0540
    156 H          -2.1225  -59.0111    2.5771 H         1 TRP         0.0541
    157 H          -3.7858  -55.3031    3.9255 H         1 TRP         0.0510
    158 H          -2.8764  -56.7107    2.1236 H         1 TRP         0.0530
    159 H          -6.4717  -58.7595    6.5845 H         1 HIS         0.1885
    160 H          -7.4325  -56.1275    6.6643 H         1 HIS         0.0824
    161 H          -9.3690  -57.1071    5.3167 H         1 HIS         0.0491
    162 H          -8.6374  -58.7225    5.6027 H         1 HIS         0.0491
    163 H          -6.6131  -59.4081    4.2662 H         1 HIS         0.2386
    164 H          -7.9652  -55.4556    3.5549 H         1 HIS         0.0324
    165 H          -5.4479  -58.5751    2.1502 H         1 HIS         0.1149
    166 H          -9.6818  -55.3536    7.0873 H         1 VAL         0.1876
    167 H         -11.0020  -56.7114    9.3799 H         1 VAL         0.0754
    168 O1        -13.3705  -56.2017    8.4384 O.co2     1 VAL        -0.4120
    169 H         -10.6755  -53.7340    8.8435 H         1 VAL         0.0337
    170 H         -11.9665  -53.3701   10.9250 H         1 VAL         0.0234
    171 H         -12.3098  -55.1310   11.0155 H         1 VAL         0.0234
    172 H         -12.9584  -54.1584    9.6516 H         1 VAL         0.0234
    173 H          -8.7440  -54.8833    9.8777 H         1 VAL         0.0234
    174 H          -9.8175  -55.4903   11.1838 H         1 VAL         0.0234
    175 H          -9.5303  -53.7262   11.0044 H         1 VAL         0.0234
@<TRIPOS>BOND
     1    1    2 1  
     2    2    3 1  
     3    2    5 1  
     4    3    4 2  
     5    3   10 am 
     6    5    6 1  
     7    6    7 1  
     8    7    8 2  
     9    7    9 am 
    10   10   11 1  
    11   11   12 1  
    12   11   14 1  
    13   12   13 2  
    14   12   18 am 
    15   14   15 1  
    16   15   16 1  
    17   15   17 1  
    18   18   19 1  
    19   19   20 1  
    20   19   22 1  
    21   20   21 2  
    22   20   26 am 
    23   22   23 1  
    24   22   24 1  
    25   23   25 1  
    26   26   27 1  
    27   27   28 1  
    28   27   30 1  
    29   28   29 2  
    30   28   34 am 
    31   30   31 1  
    32   31   32 2  
    33   31   33 am 
    34   34   35 1  
    35   35   36 1  
    36   35   38 1  
    37   36   37 2  
    38   36   41 am 
    39   38   39 1  
    40   38   40 1  
    41   41   42 1  
    42   42   43 1  
    43   42   45 1  
    44   43   44 2  
    45   43   49 am 
    46   45   46 1  
    47   46   47 2  
    48   46   48 am 
    49   49   50 1  
    50   50   51 1  
    51   51   52 2  
    52   51   53 am 
    53   53   54 1  
    54   54   55 1  
    55   54   57 1  
    56   55   56 2  
    57   55   59 am 
    58   57   58 1  
    59   59   60 1  
    60   60   61 1  
    61   60   63 1  
    62   61   62 2  
    63   61   73 am 
    64   63   64 1  
    65   64   65 2  
    66   64   66 1  
    67   65   67 1  
    68   66   68 ar 
    69   66   69 ar 
    70   67   68 1  
    71   68   70 ar 
    72   69   71 ar 
    73   70   72 ar 
    74   71   72 ar 
    75   73   74 1  
    76   74   75 1  
    77   74   77 1  
    78   75   76 2  
    79   75   83 am 
    80   77   78 1  
    81   78   79 1  
    82   78   80 2  
    83   79   81 1  
    84   80   82 1  
    85   81   82 2  
    86   83   84 1  
    87   84   85 1  
    88   84   87 1  
    89   85   86 ar 
    90   87   88 1  
    91   87   89 1  
    92    1   90 1  
    93    1   91 1  
    94    1   92 1  
    95    2   93 1  
    96    5   94 1  
    97    5   95 1  
    98    6   96 1  
    99    6   97 1  
   100    9   98 1  
   101    9   99 1  
   102   10  100 1  
   103   11  101 1  
   104   14  102 1  
   105   14  103 1  
   106   15  104 1  
   107   16  105 1  
   108   16  106 1  
   109   16  107 1  
   110   17  108 1  
   111   17  109 1  
   112   17  110 1  
   113   18  111 1  
   114   19  112 1  
   115   22  113 1  
   116   23  114 1  
   117   23  115 1  
   118   24  116 1  
   119   24  117 1  
   120   24  118 1  
   121   25  119 1  
   122   25  120 1  
   123   25  121 1  
   124   26  122 1  
   125   27  123 1  
   126   30  124 1  
   127   30  125 1  
   128   33  126 1  
   129   33  127 1  
   130   34  128 1  
   131   35  129 1  
   132   38  130 1  
   133   39  131 1  
   134   40  132 1  
   135   40  133 1  
   136   40  134 1  
   137   41  135 1  
   138   42  136 1  
   139   45  137 1  
   140   45  138 1  
   141   48  139 1  
   142   48  140 1  
   143   49  141 1  
   144   50  142 1  
   145   50  143 1  
   146   53  144 1  
   147   54  145 1  
   148   57  146 1  
   149   57  147 1  
   150   58  148 1  
   151   59  149 1  
   152   60  150 1  
   153   63  151 1  
   154   63  152 1  
   155   65  153 1  
   156   67  154 1  
   157   69  155 1  
   158   70  156 1  
   159   71  157 1  
   160   72  158 1  
   161   73  159 1  
   162   74  160 1  
   163   77  161 1  
   164   77  162 1  
   165   79  163 1  
   166   80  164 1  
   167   81  165 1  
   168   83  166 1  
   169   84  167 1  
   170   85  168 ar 
   171   87  169 1  
   172   88  170 1  
   173   88  171 1  
   174   88  172 1  
   175   89  173 1  
   176   89  174 1  
   177   89  175 1  
@<TRIPOS>SUBSTRUCTURE
     1 GLN         1

