2bdf_ligand
  -I-interpret- 

 62 65  0  0  0  0  0  0  0  0999 V2000
    8.6020   18.6840   -6.7830 C   0  0  0  0  0
    8.9730   17.5690   -5.8340 C   0  0  0  0  0
   10.3010   17.0590   -6.1720 N   0  0  0  0  0
   10.4900   16.3270   -7.2360 C   0  0  0  0  0
    9.7260   15.8550   -8.2220 N   0  0  0  0  0
   10.3260   15.1250   -9.1640 C   0  0  0  0  0
   11.6440   14.8620   -9.1460 N   0  0  0  0  0
   12.5050   15.2970   -8.1920 C   0  0  0  0  0
   11.8560   16.0660   -7.2050 C   0  0  0  0  0
   12.4190   16.6300   -6.1420 N   0  0  0  0  0
   11.4240   17.2610   -5.4890 C   0  0  0  0  0
   13.8420   15.0240   -8.2340 N   0  0  0  0  0
   14.5680   14.3750   -9.1980 C   0  0  0  0  0
   15.9510   14.5140   -9.1220 C   0  0  0  0  0
   16.8080   13.8560  -10.0380 C   0  0  0  0  0
   16.2850   13.0500  -11.0500 C   0  0  0  0  0
   14.9000   12.9110  -11.1360 C   0  0  0  0  0
   14.0490   13.5710  -10.2160 C   0  0  0  0  0
   17.2610   12.3270  -12.0670 P   0  0  0  0  0
   18.5680   12.9570  -12.4000 O   0  0  0  0  0
   16.6500   11.8840  -13.4900 O   0  0  0  0  0
   17.7680   10.9400  -11.6400 C   0  0  0  0  0
   18.7620    9.8300  -12.1310 P   0  0  0  0  0
   18.0670    8.7510  -12.9150 O   0  0  0  0  0
   19.3920    9.1770  -10.7720 O   0  0  0  0  0
   20.0440   10.5320  -12.9000 O   0  0  0  0  0
    8.1110   12.1160  -13.4640 N   0  3  0  0  0
    9.0130   12.8280  -12.5800 C   0  0  0  0  0
    9.1440   14.3530  -12.7560 C   0  0  0  0  0
   10.0040   14.9720  -11.6430 C   0  0  0  0  0
    9.4530   14.5780  -10.2630 C   0  0  0  0  0
    9.3150   13.0630  -10.1150 C   0  0  0  0  0
    8.4280   12.4880  -11.2130 C   0  0  0  0  0
    9.3321   19.4890   -6.6989 H   0  0  0  0  0
    8.5953   18.3030   -7.8042 H   0  0  0  0  0
    7.6118   19.0618   -6.5283 H   0  0  0  0  0
    8.2434   16.7636   -5.9184 H   0  0  0  0  0
    8.9804   17.9499   -4.8128 H   0  0  0  0  0
   11.5218   17.8339   -4.5669 H   0  0  0  0  0
   14.3788   15.3508   -7.4306 H   0  0  0  0  0
   16.3829   15.1415   -8.3424 H   0  0  0  0  0
   17.8874   13.9806   -9.9515 H   0  0  0  0  0
   14.4680   12.2881  -11.9192 H   0  0  0  0  0
   12.9694   13.4494  -10.3038 H   0  0  0  0  0
   15.7969   11.4651  -13.3543 H   0  0  0  0  0
   16.8483   10.3942  -11.8508 H   0  0  0  0  0
   18.3565   11.2735  -10.7853 H   0  0  0  0  0
   19.8374    9.8608  -10.2665 H   0  0  0  0  0
   20.4267   11.2051  -12.3325 H   0  0  0  0  0
    8.1257   11.1223  -13.2343 H   0  0  0  0  0
    7.1651   12.4792  -13.3471 H   0  0  0  0  0
    8.4099   12.2473  -14.4304 H   0  0  0  0  0
   10.0408   12.5201  -12.7723 H   0  0  0  0  0
    8.1483   14.7942  -12.7109 H   0  0  0  0  0
    9.6224   14.5517  -13.7151 H   0  0  0  0  0
    9.9827   16.0576  -11.7384 H   0  0  0  0  0
   11.0260   14.6048  -11.7366 H   0  0  0  0  0
    8.4577   15.0145  -10.1793 H   0  0  0  0  0
    8.8617   12.8451   -9.1480 H   0  0  0  0  0
   10.3043   12.6117  -10.1912 H   0  0  0  0  0
    8.3743   11.4049  -11.1030 H   0  0  0  0  0
    7.4293   12.9169  -11.1314 H   0  0  0  0  0
  2  1  1  0  0  0
  3  2  1  0  0  0
  4  3  4  0  0  0
  3 11  4  0  0  0
  5  4  4  0  0  0
  4  9  4  0  0  0
  6  5  4  0  0  0
  6  7  4  0  0  0
 31  6  1  0  0  0
  7  8  4  0  0  0
  8  9  4  0  0  0
  8 12  1  0  0  0
  9 10  4  0  0  0
 10 11  4  0  0  0
 12 13  1  0  0  0
 13 14  4  0  0  0
 13 18  4  0  0  0
 14 15  4  0  0  0
 15 16  4  0  0  0
 17 16  4  0  0  0
 16 19  1  0  0  0
 18 17  4  0  0  0
 19 20  2  0  0  0
 19 21  1  0  0  0
 19 22  1  0  0  0
 22 23  1  0  0  0
 23 24  2  0  0  0
 23 25  1  0  0  0
 23 26  1  0  0  0
 28 27  1  0  0  0
 29 28  1  0  0  0
 28 33  1  0  0  0
 30 29  1  0  0  0
 30 31  1  0  0  0
 31 32  1  0  0  0
 32 33  1  0  0  0
  1 34  1  0  0  0
  1 35  1  0  0  0
  1 36  1  0  0  0
  2 37  1  0  0  0
  2 38  1  0  0  0
 11 39  1  0  0  0
 12 40  1  0  0  0
 14 41  1  0  0  0
 15 42  1  0  0  0
 17 43  1  0  0  0
 18 44  1  0  0  0
 21 45  1  0  0  0
 22 46  1  0  0  0
 22 47  1  0  0  0
 25 48  1  0  0  0
 26 49  1  0  0  0
 27 50  1  0  0  0
 27 51  1  0  0  0
 27 52  1  0  0  0
 28 53  1  0  0  0
 29 54  1  0  0  0
 29 55  1  0  0  0
 30 56  1  0  0  0
 30 57  1  0  0  0
 31 58  1  0  0  0
 32 59  1  0  0  0
 32 60  1  0  0  0
 33 61  1  0  0  0
 33 62  1  0  0  0
M  END
$$$$
