### 
### Created by X-TOOL on Mon Sep 10 21:12:54 2018
### 

@<TRIPOS>MOLECULE
2bdf_ligand
   59    62     1     0     0
SMALL
GAST_HUCK


@<TRIPOS>ATOM
      1 C0A         8.6020   18.6840   -6.7830 C.3       1 24A        -0.0374
      2 C1A         8.9730   17.5690   -5.8340 C.3       1 24A         0.0573
      3 N9A        10.3010   17.0590   -6.1720 N.pl3     1 24A        -0.2245
      4 C4A        10.4900   16.3270   -7.2360 C.ar      1 24A         0.1511
      5 N3A         9.7260   15.8550   -8.2220 N.ar      1 24A        -0.2732
      6 C2A        10.3260   15.1250   -9.1640 C.ar      1 24A         0.0723
      7 N1A        11.6440   14.8620   -9.1460 N.ar      1 24A        -0.2657
      8 C6A        12.5050   15.2970   -8.1920 C.ar      1 24A         0.1465
      9 C5A        11.8560   16.0660   -7.2050 C.ar      1 24A         0.1021
     10 N7A        12.4190   16.6300   -6.1420 N.2       1 24A        -0.2996
     11 C8A        11.4240   17.2610   -5.4890 C.2       1 24A         0.1073
     12 N6A        13.8420   15.0240   -8.2340 N.pl3     1 24A        -0.2521
     13 CR1        14.5680   14.3750   -9.1980 C.ar      1 24A         0.0700
     14 CR2        15.9510   14.5140   -9.1220 C.ar      1 24A        -0.0315
     15 CR3        16.8080   13.8560  -10.0380 C.ar      1 24A        -0.0492
     16 CR4        16.2850   13.0500  -11.0500 C.ar      1 24A         0.0189
     17 CR5        14.9000   12.9110  -11.1360 C.ar      1 24A        -0.0492
     18 CR6        14.0490   13.5710  -10.2160 C.ar      1 24A        -0.0315
     19 PA         17.2610   12.3270  -12.0670 P.3       1 24A         0.0164
     20 OA1        18.5680   12.9570  -12.4000 O.co2     1 24A        -0.6218
     21 OA2        16.6500   11.8840  -13.4900 O.co2     1 24A        -0.6218
     22 CAB        17.7680   10.9400  -11.6400 C.3       1 24A         0.0825
     23 PB         18.7620    9.8300  -12.1310 P.3       1 24A         0.0747
     24 OB1        18.0670    8.7510  -12.9150 O.co2     1 24A        -0.5612
     25 OB2        19.3920    9.1770  -10.7720 O.co2     1 24A        -0.5612
     26 OB3        20.0440   10.5320  -12.9000 O.co2     1 24A        -0.5612
     27 NS1         8.1110   12.1160  -13.4640 N.4       1 24A         0.2207
     28 CS1         9.0130   12.8280  -12.5800 C.3       1 24A        -0.0240
     29 CS2         9.1440   14.3530  -12.7560 C.3       1 24A        -0.0072
     30 CS3        10.0040   14.9720  -11.6430 C.3       1 24A        -0.0310
     31 CS4         9.4530   14.5780  -10.2630 C.3       1 24A         0.0187
     32 CS5         9.3150   13.0630  -10.1150 C.3       1 24A        -0.0310
     33 CS6         8.4280   12.4880  -11.2130 C.3       1 24A        -0.0072
     34 H1          7.6028   19.0661   -6.5270 H         1 24A         0.0256
     35 H2          8.5949   18.3008   -7.8141 H         1 24A         0.0256
     36 H3          9.3381   19.4971   -6.6991 H         1 24A         0.0256
     37 H4          8.2365   16.7563   -5.9181 H         1 24A         0.0610
     38 H5          8.9797   17.9526   -4.8031 H         1 24A         0.0610
     39 H6         11.5217   17.8334   -4.5677 H         1 24A         0.1330
     40 H7         14.3840   15.3540   -7.4227 H         1 24A         0.2190
     41 H8         16.3805   15.1380   -8.3466 H         1 24A         0.0552
     42 H9         17.8815   13.9799   -9.9519 H         1 24A         0.0646
     43 H10        14.4704   12.2915  -11.9149 H         1 24A         0.0646
     44 H11        12.9753   13.4501  -10.3033 H         1 24A         0.0552
     45 H12        16.8270   10.3752  -11.5659 H         1 24A         0.0644
     46 H13        18.1516   11.1475  -10.6302 H         1 24A         0.0644
     47 H14         8.3935   12.2616  -14.4206 H         1 24A         0.1997
     48 H15         7.1725   12.4603  -13.3348 H         1 24A         0.1997
     49 H16         8.1399   11.1311  -13.2514 H         1 24A         0.1997
     50 H17        10.0220   12.4021  -12.6822 H         1 24A         0.0850
     51 H18         8.1413   14.8045  -12.7269 H         1 24A         0.0322
     52 H19         9.6124   14.5624  -13.7290 H         1 24A         0.0322
     53 H20         9.9900   16.0676  -11.7402 H         1 24A         0.0297
     54 H21        11.0378   14.6086  -11.7384 H         1 24A         0.0297
     55 H22         8.4518   15.0220  -10.1604 H         1 24A         0.0521
     56 H23         8.8686   12.8359   -9.1356 H         1 24A         0.0297
     57 H24        10.3119   12.6025  -10.1793 H         1 24A         0.0297
     58 H25         8.3710   11.3952  -11.1016 H         1 24A         0.0322
     59 H26         7.4190   12.9182  -11.1302 H         1 24A         0.0322
@<TRIPOS>BOND
     1    2    1 1  
     2    3    2 1  
     3    4    3 1  
     4    3   11 1  
     5    5    4 ar 
     6    4    9 ar 
     7    6    5 ar 
     8    6    7 ar 
     9   31    6 1  
    10    7    8 ar 
    11    8    9 ar 
    12    8   12 1  
    13    9   10 1  
    14   10   11 2  
    15   12   13 1  
    16   13   14 ar 
    17   13   18 ar 
    18   14   15 ar 
    19   15   16 ar 
    20   17   16 ar 
    21   16   19 1  
    22   18   17 ar 
    23   19   20 ar 
    24   19   21 ar 
    25   19   22 1  
    26   22   23 1  
    27   23   24 ar 
    28   23   25 ar 
    29   23   26 ar 
    30   28   27 1  
    31   29   28 1  
    32   28   33 1  
    33   30   29 1  
    34   30   31 1  
    35   31   32 1  
    36   32   33 1  
    37    1   34 1  
    38    1   35 1  
    39    1   36 1  
    40    2   37 1  
    41    2   38 1  
    42   11   39 1  
    43   12   40 1  
    44   14   41 1  
    45   15   42 1  
    46   17   43 1  
    47   18   44 1  
    48   22   45 1  
    49   22   46 1  
    50   27   47 1  
    51   27   48 1  
    52   27   49 1  
    53   28   50 1  
    54   29   51 1  
    55   29   52 1  
    56   30   53 1  
    57   30   54 1  
    58   31   55 1  
    59   32   56 1  
    60   32   57 1  
    61   33   58 1  
    62   33   59 1  
@<TRIPOS>SUBSTRUCTURE
     1 24A         1

