5e0a_ligand
  -I-interpret- 

 30 30  0  0  0  0  0  0  0  0999 V2000
  -25.0650  -33.9710  -21.6090 C   0  0  0  0  0
  -24.8990  -32.4860  -21.9660 C   0  0  0  0  0
  -26.2660  -31.8020  -21.8590 C   0  0  0  0  0
  -27.1820  -32.5230  -22.8570 C   0  0  0  0  0
  -27.3190  -34.0080  -22.4250 C   0  0  0  0  0
  -28.4090  -34.8570  -23.1210 C   0  0  0  0  0
  -23.3140  -30.6910  -20.9630 C   0  0  0  0  0
  -21.9560  -30.6120  -20.3410 C   0  0  0  0  0
  -23.7070  -31.9350  -21.2920 N   0  0  0  0  0
  -23.8170  -34.6130  -21.7160 O   0  0  0  0  0
  -26.2200  -30.4230  -22.1330 O   0  0  0  0  0
  -28.4130  -31.8350  -22.9620 O   0  0  0  0  0
  -26.0280  -34.6200  -22.4490 O   0  0  0  0  0
  -28.1830  -35.3240  -24.4490 O   0  0  0  0  0
  -23.9530  -29.6560  -21.1120 O   0  0  0  0  0
  -25.4343  -34.0370  -20.5856 H   0  0  0  0  0
  -24.6354  -32.2849  -23.0044 H   0  0  0  0  0
  -26.6329  -31.8737  -20.8351 H   0  0  0  0  0
  -26.7569  -32.5229  -23.8607 H   0  0  0  0  0
  -27.7109  -33.9798  -21.4083 H   0  0  0  0  0
  -29.2709  -34.1945  -23.2006 H   0  0  0  0  0
  -28.4878  -35.7606  -22.5166 H   0  0  0  0  0
  -21.3150  -29.9753  -20.9508 H   0  0  0  0  0
  -22.0406  -30.1913  -19.3390 H   0  0  0  0  0
  -21.5263  -31.6120  -20.2815 H   0  0  0  0  0
  -23.0364  -32.6523  -21.0161 H   0  0  0  0  0
  -23.1809  -34.1700  -21.1496 H   0  0  0  0  0
  -25.6430  -29.9910  -21.4990 H   0  0  0  0  0
  -28.2495  -30.9283  -23.2316 H   0  0  0  0  0
  -28.9430  -35.8320  -24.7420 H   0  0  0  0  0
  2  1  1  0  0  0
  1 10  1  0  0  0
  1 13  1  0  0  0
  2  3  1  0  0  0
  9  2  1  0  0  0
  3  4  1  0  0  0
  3 11  1  0  0  0
  4  5  1  0  0  0
  4 12  1  0  0  0
  5  6  1  0  0  0
 13  5  1  0  0  0
  6 14  1  0  0  0
  7  8  1  0  0  0
  7  9  1  0  0  0
  7 15  2  0  0  0
  1 16  1  0  0  0
  2 17  1  0  0  0
  3 18  1  0  0  0
  4 19  1  0  0  0
  5 20  1  0  0  0
  6 21  1  0  0  0
  6 22  1  0  0  0
  8 23  1  0  0  0
  8 24  1  0  0  0
  8 25  1  0  0  0
  9 26  1  0  0  0
 10 27  1  0  0  0
 11 28  1  0  0  0
 12 29  1  0  0  0
 14 30  1  0  0  0
M  END
$$$$
