6h12_ligand
  -I-interpret- 

 84 91  0  0  0  0  0  0  0  0999 V2000
   86.3360  218.8720   69.1310 C   0  0  0  0  0
   91.9130  215.2650   67.8000 C   0  0  0  0  0
   85.5790  218.0610   68.2890 C   0  0  0  0  0
   91.4000  214.9740   66.7610 C   0  0  0  0  0
   77.2690  203.6280   68.1380 C   0  0  0  0  0
   82.4320  207.7070   68.0340 C   0  0  0  0  0
   78.5970  203.7420   68.5390 C   0  0  0  0  0
   76.4710  204.7760   68.0960 C   0  0  0  0  0
   83.3540  208.5750   68.5950 C   0  0  0  0  0
   87.6950  218.6250   69.2860 C   0  0  0  0  0
   91.4620  216.2110   68.3480 C   0  0  0  0  0
   86.2120  217.0180   67.6160 C   0  0  0  0  0
   90.2590  214.7080   66.8410 C   0  0  0  0  0
   83.2690  207.2850   70.6230 C   0  0  0  0  0
   85.4490  212.0930   68.6670 C   0  0  0  0  0
   79.6030  209.5570   68.4810 C   0  0  0  0  0
   78.6610  210.0210   69.5890 C   0  0  0  0  0
   86.3870  214.1320   66.5500 C   0  0  0  0  0
   79.2780  208.1140   68.0180 C   0  0  0  0  0
   77.2730  209.5510   69.2350 C   0  0  0  0  0
   86.5270  212.6220   66.4970 C   0  0  0  0  0
   84.6950  209.1950   70.4860 C   0  0  0  0  0
   85.0640  211.3570   71.0670 C   0  0  0  0  0
   80.7500  204.8640   70.4070 C   0  0  0  0  0
   76.4600  207.2030   68.5100 C   0  0  0  0  0
   83.7760  208.3510   69.8960 C   0  0  0  0  0
   85.9020  211.5970   69.8070 C   0  0  0  0  0
   82.3490  206.4240   70.0510 C   0  0  0  0  0
   79.0290  205.0220   68.8740 C   0  0  0  0  0
   76.9730  205.9730   68.4310 C   0  0  0  0  0
   88.2720  215.7030   67.1360 C   0  0  0  0  0
   78.2360  206.0810   68.8140 C   0  0  0  0  0
   88.3200  217.5720   68.6240 C   0  0  0  0  0
   90.3080  216.3660   68.1900 C   0  0  0  0  0
   87.5770  216.7490   67.7740 C   0  0  0  0  0
   89.6510  215.5390   67.3420 C   0  0  0  0  0
   78.5290  207.4180   69.1200 C   0  0  0  0  0
   81.9330  206.6330   68.7890 N   0  0  0  0  0
   87.2040  211.3550   69.6840 N   0  0  0  0  0
   87.5390  211.6970   68.5190 N   0  0  0  0  0
   89.6420  217.3660   68.8070 N   0  0  0  0  0
   87.6640  214.8400   66.2940 N   0  0  0  0  0
   81.8960  205.4120   70.7910 N   0  0  0  0  0
   80.2300  205.3840   69.2940 N   0  0  0  0  0
   77.3070  208.0850   69.0070 N   0  0  0  0  0
   86.5260  212.1320   67.8850 N   0  0  0  0  0
   80.2280  203.9380   71.0300 O   0  0  0  0  0
   75.2910  207.4830   68.3110 O   0  0  0  0  0
   84.0340  210.4160   70.7870 O   0  0  0  0  0
   85.8649  219.6966   69.6660 H   0  0  0  0  0
   92.7436  214.6950   68.2163 H   0  0  0  0  0
   84.5115  218.2389   68.1590 H   0  0  0  0  0
   91.9455  214.9568   65.8175 H   0  0  0  0  0
   76.8567  202.6578   67.8606 H   0  0  0  0  0
   82.0943  207.8571   67.0086 H   0  0  0  0  0
   79.2605  202.8786   68.5879 H   0  0  0  0  0
   75.4287  204.6964   67.7872 H   0  0  0  0  0
   83.7407  209.4189   68.0237 H   0  0  0  0  0
   88.2835  219.2691   69.9394 H   0  0  0  0  0
   92.0688  216.8857   68.9519 H   0  0  0  0  0
   85.6254  216.3910   66.9446 H   0  0  0  0  0
   89.8272  213.7749   66.4790 H   0  0  0  0  0
   83.5966  207.1243   71.6501 H   0  0  0  0  0
   84.4312  212.3985   68.4245 H   0  0  0  0  0
   80.6218  209.5718   68.8682 H   0  0  0  0  0
   79.4854  210.2256   67.6283 H   0  0  0  0  0
   78.6835  211.1072   69.6766 H   0  0  0  0  0
   78.9695  209.6059   70.5485 H   0  0  0  0  0
   86.0532  214.4001   67.5524 H   0  0  0  0  0
   85.6812  214.4280   65.7739 H   0  0  0  0  0
   80.2005  207.5769   67.7976 H   0  0  0  0  0
   78.6700  208.1410   67.1137 H   0  0  0  0  0
   76.9312  210.0570   68.3321 H   0  0  0  0  0
   76.5863  209.7819   70.0494 H   0  0  0  0  0
   87.4517  212.3411   65.9929 H   0  0  0  0  0
   85.7036  212.1811   65.9352 H   0  0  0  0  0
   85.5315  209.3745   69.8107 H   0  0  0  0  0
   85.0914  208.7453   71.3964 H   0  0  0  0  0
   84.6162  212.2977   71.3873 H   0  0  0  0  0
   85.7047  210.9663   71.8576 H   0  0  0  0  0
   79.0668  207.4297   70.0680 H   0  0  0  0  0
   88.1246  214.6591   65.4021 H   0  0  0  0  0
   82.4037  205.0764   71.6096 H   0  0  0  0  0
   80.7650  206.0691   68.7603 H   0  0  0  0  0
  3  1  4  0  0  0
  1 10  4  0  0  0
  4  2  4  0  0  0
  2 11  4  0  0  0
 12  3  4  0  0  0
 13  4  4  0  0  0
  7  5  4  0  0  0
  5  8  4  0  0  0
  9  6  4  0  0  0
  6 38  4  0  0  0
 29  7  4  0  0  0
 30  8  4  0  0  0
 26  9  4  0  0  0
 10 33  4  0  0  0
 11 34  4  0  0  0
 35 12  4  0  0  0
 36 13  4  0  0  0
 26 14  4  0  0  0
 14 28  4  0  0  0
 15 27  4  0  0  0
 46 15  4  0  0  0
 17 16  1  0  0  0
 16 19  1  0  0  0
 20 17  1  0  0  0
 18 21  1  0  0  0
 42 18  1  0  0  0
 19 37  1  0  0  0
 45 20  1  0  0  0
 21 46  1  0  0  0
 22 26  1  0  0  0
 49 22  1  0  0  0
 27 23  1  0  0  0
 23 49  1  0  0  0
 43 24  1  0  0  0
 24 44  1  0  0  0
 24 47  2  0  0  0
 30 25  1  0  0  0
 25 45  1  0  0  0
 25 48  2  0  0  0
 27 39  4  0  0  0
 28 38  4  0  0  0
 28 43  1  0  0  0
 29 32  4  0  0  0
 44 29  1  0  0  0
 32 30  4  0  0  0
 31 35  4  0  0  0
 31 36  4  0  0  0
 31 42  1  0  0  0
 32 37  1  0  0  0
 33 35  4  0  0  0
 33 41  4  0  0  0
 34 36  4  0  0  0
 34 41  4  0  0  0
 37 45  1  0  0  0
 39 40  4  0  0  0
 40 46  4  0  0  0
  1 50  1  0  0  0
  2 51  1  0  0  0
  3 52  1  0  0  0
  4 53  1  0  0  0
  5 54  1  0  0  0
  6 55  1  0  0  0
  7 56  1  0  0  0
  8 57  1  0  0  0
  9 58  1  0  0  0
 10 59  1  0  0  0
 11 60  1  0  0  0
 12 61  1  0  0  0
 13 62  1  0  0  0
 14 63  1  0  0  0
 15 64  1  0  0  0
 16 65  1  0  0  0
 16 66  1  0  0  0
 17 67  1  0  0  0
 17 68  1  0  0  0
 18 69  1  0  0  0
 18 70  1  0  0  0
 19 71  1  0  0  0
 19 72  1  0  0  0
 20 73  1  0  0  0
 20 74  1  0  0  0
 21 75  1  0  0  0
 21 76  1  0  0  0
 22 77  1  0  0  0
 22 78  1  0  0  0
 23 79  1  0  0  0
 23 80  1  0  0  0
 37 81  1  0  0  0
 42 82  1  0  0  0
 43 83  1  0  0  0
 44 84  1  0  0  0
M  END
$$$$
