4p74_ligand
  -I-interpret- 

 42 44  0  0  0  0  0  0  0  0999 V2000
   44.2050   21.6310   15.9050 C   0  0  0  0  0
   42.9650   21.9480   16.4550 C   0  0  0  0  0
   42.8250   22.2690   17.7950 C   0  0  0  0  0
   44.8920   22.5050   20.8780 C   0  0  0  0  0
   44.4380   23.0120   22.2170 C   0  0  0  0  0
   44.4840   23.9180   24.2220 C   0  0  0  0  0
   43.1580   23.6300   24.1700 C   0  0  0  0  0
   45.1390   24.5670   25.3890 C   0  0  0  0  0
   47.1660   25.3270   26.1880 C   0  0  0  0  0
   47.0070   24.6640   27.5890 C   0  0  0  0  0
   48.1830   24.9190   28.5190 C   0  0  0  0  0
   48.6530   25.1250   25.9080 C   0  0  0  0  0
   50.6670   24.7330   27.5980 O   0  0  0  0  0
   49.4690   25.5160   27.4490 S   0  0  0  0  0
   49.5770   26.9430   27.5880 O   0  0  0  0  0
   46.4620   24.7810   25.2780 N   0  0  0  0  0
   44.4840   24.8820   26.3840 O   0  0  0  0  0
   45.2150   23.5620   23.1030 N   0  0  0  0  0
   42.7740   22.8840   22.6690 S   0  0  0  0  0
   43.7710   22.5940   19.9560 O   0  0  0  0  0
   43.9400   22.2710   18.6180 C   0  0  0  0  0
   45.1900   21.9540   18.0840 C   0  0  0  0  0
   45.3070   21.6410   16.7420 C   0  0  0  0  0
   44.3450   21.2860   14.4430 C   0  0  0  0  0
   42.0829   21.9433   15.8148 H   0  0  0  0  0
   41.8441   22.5185   18.1997 H   0  0  0  0  0
   45.2274   21.4713   20.9622 H   0  0  0  0  0
   45.7263   23.1041   20.5132 H   0  0  0  0  0
   42.4415   23.8409   24.9639 H   0  0  0  0  0
   46.8304   26.3641   26.1867 H   0  0  0  0  0
   46.9388   23.5870   27.4355 H   0  0  0  0  0
   46.1212   25.0944   28.0561 H   0  0  0  0  0
   48.4823   24.0198   29.0575 H   0  0  0  0  0
   47.9374   25.6346   29.3037 H   0  0  0  0  0
   49.0012   25.7600   25.0934 H   0  0  0  0  0
   48.8688   24.1073   25.5828 H   0  0  0  0  0
   46.9270   24.4901   24.4180 H   0  0  0  0  0
   46.0726   21.9531   18.7237 H   0  0  0  0  0
   46.2882   21.3970   16.3348 H   0  0  0  0  0
   43.7373   20.4096   14.2180 H   0  0  0  0  0
   44.0083   22.1281   13.8384 H   0  0  0  0  0
   45.3902   21.0719   14.2200 H   0  0  0  0  0
  2  1  4  0  0  0
  1 23  4  0  0  0
  1 24  1  0  0  0
  3  2  4  0  0  0
 21  3  4  0  0  0
  4  5  1  0  0  0
 20  4  1  0  0  0
  5 18  4  0  0  0
  5 19  4  0  0  0
  7  6  4  0  0  0
  6  8  1  0  0  0
 18  6  4  0  0  0
 19  7  4  0  0  0
  8 16  1  0  0  0
  8 17  2  0  0  0
  9 10  1  0  0  0
  9 12  1  0  0  0
 16  9  1  0  0  0
 10 11  1  0  0  0
 14 11  1  0  0  0
 12 14  1  0  0  0
 14 13  2  0  0  0
 14 15  2  0  0  0
 20 21  1  0  0  0
 21 22  4  0  0  0
 22 23  4  0  0  0
  2 25  1  0  0  0
  3 26  1  0  0  0
  4 27  1  0  0  0
  4 28  1  0  0  0
  7 29  1  0  0  0
  9 30  1  0  0  0
 10 31  1  0  0  0
 10 32  1  0  0  0
 11 33  1  0  0  0
 11 34  1  0  0  0
 12 35  1  0  0  0
 12 36  1  0  0  0
 16 37  1  0  0  0
 22 38  1  0  0  0
 23 39  1  0  0  0
 24 40  1  0  0  0
 24 41  1  0  0  0
 24 42  1  0  0  0
M  END
$$$$
