4asy_ligand
  -I-interpret- 

 44 46  0  0  0  0  0  0  0  0999 V2000
   13.4760   -0.1410    3.1730 C   0  0  0  0  0
   14.4790    0.8030    2.9490 C   0  0  0  0  0
   15.6340    0.7780    3.7270 C   0  0  0  0  0
   15.7760   -0.2020    4.7010 C   0  0  0  0  0
   14.7810   -1.1470    4.9300 C   0  0  0  0  0
   13.6130   -1.1150    4.1740 C   0  0  0  0  0
   12.5490   -2.0280    4.3110 C   0  0  0  0  0
   12.3810   -2.8770    5.5620 N   0  0  0  0  0
   11.4100   -2.5800    6.4510 C   0  0  0  0  0
   10.6350   -1.4870    6.3140 N   0  0  0  0  0
   13.1230   -4.0010    5.7270 C   0  0  0  0  0
   13.9910   -4.2800    4.8940 O   0  0  0  0  0
   12.9440   -4.8520    6.8430 N   0  0  0  0  0
   11.9570   -4.5400    7.8060 C   0  0  0  0  0
   11.8020   -5.2620    8.7960 O   0  0  0  0  0
   11.2050   -3.3680    7.5970 C   0  0  0  0  0
   10.2030   -3.0410    8.4400 N   0  0  0  0  0
    9.2810   -2.5090   10.4160 O   0  0  0  0  0
   10.2980   -2.7160    9.7520 C   0  0  0  0  0
   11.5410   -2.5870   10.3840 C   0  0  0  0  0
   12.6490   -1.9760    9.7780 C   0  0  0  0  0
   13.8470   -1.8470   10.4830 C   0  0  0  0  0
   13.9350   -2.3200   11.7890 C   0  0  0  0  0
   12.8410   -2.9050   12.4000 C   0  0  0  0  0
    8.8290   -3.1820    7.9170 C   0  0  0  0  0
   11.6460   -3.0410   11.7040 C   0  0  0  0  0
   12.5736   -0.1216    2.5620 H   0  0  0  0  0
   14.3592    1.5556    2.1697 H   0  0  0  0  0
   16.4180    1.5195    3.5732 H   0  0  0  0  0
   16.6869   -0.2313    5.2990 H   0  0  0  0  0
   14.9156   -1.9088    5.6979 H   0  0  0  0  0
   12.7330   -2.7598    3.5244 H   0  0  0  0  0
   11.6621   -1.3943    4.3072 H   0  0  0  0  0
   10.7746   -0.8588    5.5226 H   0  0  0  0  0
   13.5229   -5.6847    6.9520 H   0  0  0  0  0
   12.0466   -2.9709    8.1645 H   0  0  0  0  0
   12.5745   -1.6021    8.7569 H   0  0  0  0  0
   14.7107   -1.3774   10.0122 H   0  0  0  0  0
   14.8741   -2.2286   12.3348 H   0  0  0  0  0
   12.9161   -3.2596   13.4280 H   0  0  0  0  0
    8.7061   -2.5405    7.0444 H   0  0  0  0  0
    8.6541   -4.2200    7.6340 H   0  0  0  0  0
    8.1163   -2.8892    8.6880 H   0  0  0  0  0
   10.7860   -3.5035   12.1883 H   0  0  0  0  0
  1  2  4  0  0  0
  1  6  4  0  0  0
  2  3  4  0  0  0
  3  4  4  0  0  0
  4  5  4  0  0  0
  5  6  4  0  0  0
  6  7  1  0  0  0
  7  8  1  0  0  0
  8  9  1  0  0  0
  8 11  1  0  0  0
  9 10  2  0  0  0
  9 16  1  0  0  0
 11 12  2  0  0  0
 11 13  1  0  0  0
 13 14  1  0  0  0
 14 15  2  0  0  0
 14 16  1  0  0  0
 16 17  1  0  0  0
 17 19  1  0  0  0
 17 25  1  0  0  0
 19 18  2  0  0  0
 19 20  1  0  0  0
 20 21  4  0  0  0
 20 26  4  0  0  0
 21 22  4  0  0  0
 22 23  4  0  0  0
 23 24  4  0  0  0
 24 26  4  0  0  0
  1 27  1  0  0  0
  2 28  1  0  0  0
  3 29  1  0  0  0
  4 30  1  0  0  0
  5 31  1  0  0  0
  7 32  1  0  0  0
  7 33  1  0  0  0
 10 34  1  0  0  0
 13 35  1  0  0  0
 16 36  1  0  0  0
 21 37  1  0  0  0
 22 38  1  0  0  0
 23 39  1  0  0  0
 24 40  1  0  0  0
 25 41  1  0  0  0
 25 42  1  0  0  0
 25 43  1  0  0  0
 26 44  1  0  0  0
M  END
$$$$
