### 
### Created by X-TOOL on Mon Sep 10 21:13:11 2018
### 

@<TRIPOS>MOLECULE
4asy_ligand
   44    46     1     0     0
SMALL
GAST_HUCK


@<TRIPOS>ATOM
      1 CAY        13.4760   -0.1410    3.1730 C.ar      1 N5Y        -0.0578
      2 CAZ        14.4790    0.8030    2.9490 C.ar      1 N5Y        -0.0685
      3 CBA        15.6340    0.7780    3.7270 C.ar      1 N5Y        -0.0687
      4 CAX        15.7760   -0.2020    4.7010 C.ar      1 N5Y        -0.0685
      5 CAW        14.7810   -1.1470    4.9300 C.ar      1 N5Y        -0.0578
      6 CAV        13.6130   -1.1150    4.1740 C.ar      1 N5Y        -0.0133
      7 CAU        12.5490   -2.0280    4.3110 C.3       1 N5Y         0.1020
      8 NAN        12.3810   -2.8770    5.5620 N.am      1 N5Y        -0.1508
      9 CAO        11.4100   -2.5800    6.4510 C.2       1 N5Y         0.1664
     10 NAP        10.6350   -1.4870    6.3140 N.2       1 N5Y        -0.3921
     11 CAM        13.1230   -4.0010    5.7270 C.2       1 N5Y         0.3372
     12 OAL        13.9910   -4.2800    4.8940 O.2       1 N5Y        -0.3761
     13 NAD        12.9440   -4.8520    6.8430 N.am      1 N5Y        -0.1723
     14 CAE        11.9570   -4.5400    7.8060 C.2       1 N5Y         0.2542
     15 OAA        11.8020   -5.2620    8.7960 O.2       1 N5Y        -0.3797
     16 CAF        11.2050   -3.3680    7.5970 C.3       1 N5Y         0.2224
     17 NAG        10.2030   -3.0410    8.4400 N.am      1 N5Y        -0.2339
     18 OAC         9.2810   -2.5090   10.4160 O.2       1 N5Y        -0.3841
     19 CA0        10.2980   -2.7160    9.7520 C.2       1 N5Y         0.2120
     20 CAT        11.5410   -2.5870   10.3840 C.ar      1 N5Y         0.0504
     21 CAS        12.6490   -1.9760    9.7780 C.ar      1 N5Y        -0.0419
     22 CAR        13.8470   -1.8470   10.4830 C.ar      1 N5Y        -0.0562
     23 CAI        13.9350   -2.3200   11.7890 C.ar      1 N5Y        -0.0575
     24 CAJ        12.8410   -2.9050   12.4000 C.ar      1 N5Y        -0.0562
     25 CAA         8.8290   -3.1820    7.9170 C.3       1 N5Y         0.0280
     26 CAK        11.6460   -3.0410   11.7040 C.ar      1 N5Y        -0.0419
     27 H1         12.5785   -0.1217    2.5653 H         1 N5Y         0.0557
     28 H2         14.3599    1.5515    2.1740 H         1 N5Y         0.0599
     29 H3         16.4137    1.5154    3.5740 H         1 N5Y         0.0559
     30 H4         16.6819   -0.2311    5.2957 H         1 N5Y         0.0599
     31 H5         14.9149   -1.9046    5.6936 H         1 N5Y         0.0557
     32 H6         12.6340   -2.7309    3.4692 H         1 N5Y         0.0774
     33 H7         11.6235   -1.4425    4.2078 H         1 N5Y         0.0774
     34 H8          9.9170   -1.2898    6.9935 H         1 N5Y         0.0534
     35 H9         13.5116   -5.6684    6.9499 H         1 N5Y         0.2272
     36 H10        11.9275   -2.7719    8.1738 H         1 N5Y         0.1101
     37 H11        12.5749   -1.6041    8.7625 H         1 N5Y         0.0669
     38 H12        14.7059   -1.3800   10.0148 H         1 N5Y         0.0629
     39 H13        14.8689   -2.2291   12.3318 H         1 N5Y         0.0653
     40 H14        12.9157   -3.2576   13.4223 H         1 N5Y         0.0629
     41 H15         8.1088   -2.8868    8.6943 H         1 N5Y         0.0490
     42 H16         8.6512   -4.2292    7.6310 H         1 N5Y         0.0490
     43 H17         8.7037   -2.5350    7.0363 H         1 N5Y         0.0490
     44 H18        10.7908   -3.5010   12.1857 H         1 N5Y         0.0669
@<TRIPOS>BOND
     1    1    2 ar 
     2    1    6 ar 
     3    2    3 ar 
     4    3    4 ar 
     5    4    5 ar 
     6    5    6 ar 
     7    6    7 1  
     8    7    8 1  
     9    8    9 1  
    10    8   11 am 
    11    9   10 2  
    12    9   16 1  
    13   11   12 2  
    14   11   13 am 
    15   13   14 am 
    16   14   15 2  
    17   14   16 1  
    18   16   17 1  
    19   17   19 am 
    20   17   25 1  
    21   19   18 2  
    22   19   20 1  
    23   20   21 ar 
    24   20   26 ar 
    25   21   22 ar 
    26   22   23 ar 
    27   23   24 ar 
    28   24   26 ar 
    29    1   27 1  
    30    2   28 1  
    31    3   29 1  
    32    4   30 1  
    33    5   31 1  
    34    7   32 1  
    35    7   33 1  
    36   10   34 1  
    37   13   35 1  
    38   16   36 1  
    39   21   37 1  
    40   22   38 1  
    41   23   39 1  
    42   24   40 1  
    43   25   41 1  
    44   25   42 1  
    45   25   43 1  
    46   26   44 1  
@<TRIPOS>SUBSTRUCTURE
     1 N5Y         1

