5t1l_ligand
  -I-interpret- 

215217  0  0  0  0  0  0  0  0999 V2000
   14.6560   32.9540   28.1020 N   0  3  0  0  0
   15.1850   33.2470   29.4360 C   0  0  0  0  0
   15.7640   34.6500   29.5510 C   0  0  0  0  0
   15.1940   35.6240   29.0590 O   0  0  0  0  0
   16.3020   32.2710   29.7750 C   0  0  0  0  0
   16.0770   30.6120   29.1530 S   0  0  0  0  0
   16.9070   34.7340   30.2200 N   0  0  0  0  0
   17.6900   35.9610   30.2710 C   0  0  0  0  0
   19.1320   35.7360   29.7910 C   0  0  0  0  0
   19.7150   34.6640   29.9870 O   0  0  0  0  0
   17.7440   36.5310   31.6840 C   0  0  0  0  0
   16.4090   36.7790   32.3600 C   0  0  0  0  0
   16.5700   36.9440   33.8690 C   0  0  0  0  0
   17.5830   36.5250   34.4490 O   0  0  0  0  0
   15.5770   37.5610   34.5110 N   0  0  0  0  0
   21.7480   37.5220   30.0180 C   0  0  0  0  0
   19.7070   36.7570   29.1680 N   0  0  0  0  0
   21.4080   38.6850   30.2240 O   0  0  0  0  0
   21.1210   36.7650   28.9120 C   0  0  0  0  0
   21.5120   37.4490   27.6440 C   0  0  0  0  0
   23.0110   37.6210   27.5240 C   0  0  0  0  0
   25.8210   37.9290   27.3780 C   0  0  0  0  0
   19.5770   36.0230   24.0920 C   0  0  0  0  0
   19.2950   37.2960   24.5780 C   0  0  0  0  0
   20.4750   35.2040   24.7600 C   0  0  0  0  0
   19.9280   37.7480   25.7200 C   0  0  0  0  0
   21.0990   35.6540   25.9090 C   0  0  0  0  0
   20.8410   36.9350   26.3810 C   0  0  0  0  0
   23.8590   36.4820   27.4520 C   0  0  0  0  0
   23.5770   38.9020   27.5550 C   0  0  0  0  0
   25.2580   36.6420   27.3650 C   0  0  0  0  0
   24.9750   39.0640   27.4740 C   0  0  0  0  0
   22.6850   36.8990   30.7300 N   0  0  0  0  0
   23.2440   37.5100   31.9310 C   0  0  0  0  0
   24.6120   38.1240   31.6680 C   0  0  0  0  0
   25.5400   37.4230   31.2660 O   0  0  0  0  0
   23.3380   36.4590   33.0340 C   0  0  0  0  0
   23.8210   37.0260   34.3390 C   0  0  0  0  0
   23.7200   38.2570   34.5330 O   0  0  0  0  0
   24.2860   36.2300   35.1730 O   0  0  0  0  0
   24.7330   39.4310   31.9080 N   0  0  0  0  0
   25.9620   40.1720   31.6070 C   0  0  0  0  0
   27.1630   39.7500   32.4270 C   0  0  0  0  0
   28.2940   39.8220   31.9450 O   0  0  0  0  0
   25.7550   41.6710   31.7880 C   0  0  0  0  0
   24.8860   42.2860   30.7070 C   0  0  0  0  0
   24.5160   43.7160   31.0740 C   0  0  0  0  0
   25.6280   42.2190   29.3730 C   0  0  0  0  0
   26.9190   39.3350   33.6680 N   0  0  0  0  0
   27.9940   38.9180   34.5700 C   0  0  0  0  0
   28.7240   37.6810   34.0690 C   0  0  0  0  0
   29.9480   37.6250   34.1210 O   0  0  0  0  0
   27.4520   38.6430   35.9710 C   0  0  0  0  0
   26.8240   39.7950   36.5000 O   0  0  0  0  0
   27.9730   36.7000   33.5730 N   0  0  0  0  0
   28.5510   35.4060   33.2020 C   0  0  0  0  0
   28.6660   35.1850   31.6970 C   0  0  0  0  0
   29.3740   34.2770   31.2440 O   0  0  0  0  0
   27.7150   34.2570   33.7740 C   0  0  0  0  0
   26.3600   34.3980   33.3300 O   0  0  0  0  0
   27.7470   34.2850   35.3010 C   0  0  0  0  0
   27.9650   36.0140   30.9340 N   0  0  0  0  0
   27.8480   35.8370   29.4880 C   0  0  0  0  0
   27.1940   34.5010   29.1680 C   0  0  0  0  0
   27.5600   33.8380   28.2080 O   0  0  0  0  0
   29.2090   35.9510   28.7900 C   0  0  0  0  0
   30.0070   37.1750   29.2010 C   0  0  0  0  0
   31.1320   37.4290   28.2420 C   0  0  0  0  0
   31.9200   38.5840   28.6470 N   0  0  0  0  0
   33.0280   38.9820   28.0310 C   0  0  0  0  0
   33.4650   38.3050   26.9850 N   0  0  0  0  0
   33.6970   40.0510   28.4650 N   0  0  0  0  0
   26.2220   34.1110   29.9830 N   0  0  0  0  0
   25.5430   32.8500   29.7800 C   0  0  0  0  0
   24.0480   33.0290   29.8390 C   0  0  0  0  0
   23.5410   33.9230   30.5260 O   0  0  0  0  0
   25.9760   31.8200   30.8320 C   0  0  0  0  0
   27.4100   31.3920   30.7020 C   0  0  0  0  0
   27.6710   30.6980   29.3690 C   0  0  0  0  0
   26.7240   29.6170   29.1400 N   0  0  0  0  0
   26.7360   28.4450   29.7730 C   0  0  0  0  0
   27.6490   28.1800   30.7020 N   0  0  0  0  0
   25.8160   27.5340   29.4780 N   0  0  0  0  0
   23.3450   32.1720   29.1050 N   0  0  0  0  0
   21.9090   32.0440   29.2700 C   0  0  0  0  0
   21.6400   31.6500   30.6990 C   0  0  0  0  0
   22.2610   30.7350   31.2470 O   0  0  0  0  0
   21.3320   30.9990   28.3210 C   0  0  0  0  0
   21.1150   31.5220   26.9050 C   0  0  0  0  0
   20.9440   30.3920   25.9030 C   0  0  0  0  0
   19.8890   32.4040   26.9170 C   0  0  0  0  0
   20.7360   32.3880   31.3170 N   0  0  0  0  0
   20.3000   32.0800   32.6580 C   0  0  0  0  0
   18.8100   31.8430   32.5260 C   0  0  0  0  0
   18.0660   32.7570   32.1850 O   0  0  0  0  0
   20.6090   33.2410   33.6110 C   0  0  0  0  0
   20.2040   32.9780   35.0610 C   0  0  0  0  0
   21.0270   33.8140   36.0370 C   0  0  0  0  0
   20.8530   33.2910   37.4390 C   0  0  0  0  0
   21.5250   34.1710   38.4260 N   0  3  0  0  0
   18.3880   30.6030   32.7490 N   0  0  0  0  0
   16.9870   30.2230   32.5900 C   0  0  0  0  0
   16.3690   29.8480   33.9260 C   0  0  0  0  0
   17.0620   29.3540   34.8220 O   0  0  0  0  0
   16.8630   29.0480   31.6270 C   0  0  0  0  0
   17.4870   29.4040   29.9760 S   0  0  0  0  0
   15.1650   30.0220   34.1260 O   0  0  0  0  0
   13.9082   33.6119   27.8820 H   0  0  0  0  0
   15.4034   33.0444   27.4138 H   0  0  0  0  0
   14.2893   32.0024   28.0844 H   0  0  0  0  0
   14.3421   33.1572   30.1213 H   0  0  0  0  0
   16.3330   32.1962   30.8620 H   0  0  0  0  0
   17.2085   32.6591   29.3105 H   0  0  0  0  0
   17.2490   33.9107   30.7157 H   0  0  0  0  0
   17.1898   36.6660   29.6070 H   0  0  0  0  0
   18.2274   37.5044   31.6004 H   0  0  0  0  0
   18.2586   35.7869   32.2920 H   0  0  0  0  0
   15.7621   35.9219   32.1729 H   0  0  0  0  0
   15.9816   37.6965   31.9554 H   0  0  0  0  0
   15.6329   37.7042   35.5193 H   0  0  0  0  0
   14.7617   37.8896   33.9936 H   0  0  0  0  0
   19.1371   37.5474   28.8666 H   0  0  0  0  0
   21.4423   35.7267   28.8299 H   0  0  0  0  0
   21.0912   38.4505   27.7334 H   0  0  0  0  0
   26.9018   38.0550   27.3147 H   0  0  0  0  0
   19.0905   35.6684   23.1833 H   0  0  0  0  0
   18.5783   37.9335   24.0603 H   0  0  0  0  0
   20.6890   34.2053   24.3792 H   0  0  0  0  0
   19.7107   38.7449   26.1035 H   0  0  0  0  0
   21.7923   35.0047   26.4436 H   0  0  0  0  0
   23.4266   35.4815   27.4641 H   0  0  0  0  0
   22.9335   39.7775   27.6421 H   0  0  0  0  0
   25.9025   35.7664   27.2876 H   0  0  0  0  0
   25.4075   40.0645   27.4852 H   0  0  0  0  0
   23.0166   35.9817   30.4315 H   0  0  0  0  0
   22.5823   38.3174   32.2446 H   0  0  0  0  0
   24.0538   35.7020   32.7136 H   0  0  0  0  0
   22.3389   36.0542   33.1953 H   0  0  0  0  0
   23.3356   38.6716   33.7572 H   0  0  0  0  0
   23.9432   39.9320   32.3149 H   0  0  0  0  0
   26.1794   39.9320   30.5662 H   0  0  0  0  0
   26.7333   42.1490   31.7386 H   0  0  0  0  0
   25.2529   41.8233   32.7434 H   0  0  0  0  0
   23.9553   41.7262   30.6150 H   0  0  0  0  0
   23.9670   43.7176   32.0156 H   0  0  0  0  0
   25.4243   44.3090   31.1805 H   0  0  0  0  0
   23.8927   44.1418   30.2877 H   0  0  0  0  0
   26.5642   42.7718   29.4513 H   0  0  0  0  0
   25.8387   41.1780   29.1278 H   0  0  0  0  0
   25.0087   42.6595   28.5917 H   0  0  0  0  0
   25.9550   39.3067   34.0001 H   0  0  0  0  0
   28.7045   39.7440   34.6028 H   0  0  0  0  0
   28.2814   38.3643   36.6210 H   0  0  0  0  0
   26.7196   37.8378   35.9134 H   0  0  0  0  0
   26.4910   39.6013   37.3793 H   0  0  0  0  0
   26.9722   36.8529   33.4484 H   0  0  0  0  0
   29.5573   35.4196   33.6207 H   0  0  0  0  0
   28.1291   33.3098   33.4284 H   0  0  0  0  0
   25.8315   33.6800   33.6859 H   0  0  0  0  0
   28.7765   34.1809   35.6435 H   0  0  0  0  0
   27.3392   35.2321   35.6544 H   0  0  0  0  0
   27.1480   33.4620   35.6908 H   0  0  0  0  0
   27.4906   36.8033   31.3726 H   0  0  0  0  0
   27.2161   36.6394   29.1072 H   0  0  0  0  0
   29.0199   36.0304   27.7195 H   0  0  0  0  0
   29.7923   35.0736   29.0693 H   0  0  0  0  0
   30.4247   37.0036   30.1931 H   0  0  0  0  0
   29.3448   38.0408   29.2010 H   0  0  0  0  0
   30.7106   37.6244   27.2559 H   0  0  0  0  0
   31.7809   36.5533   28.2279 H   0  0  0  0  0
   31.6019   39.1211   29.4537 H   0  0  0  0  0
   32.9532   37.4857   26.6577 H   0  0  0  0  0
   34.5487   40.3476   27.9886 H   0  0  0  0  0
   33.3569   40.5719   29.2733 H   0  0  0  0  0
   25.9499   34.7088   30.7634 H   0  0  0  0  0
   25.8182   32.4847   28.7906 H   0  0  0  0  0
   25.3571   30.9333   30.6946 H   0  0  0  0  0
   25.8619   32.2857   31.8109 H   0  0  0  0  0
   27.6337   30.6898   31.5051 H   0  0  0  0  0
   28.0404   32.2795   30.7571 H   0  0  0  0  0
   28.6772   30.2792   29.3875 H   0  0  0  0  0
   27.5607   31.4306   28.5695 H   0  0  0  0  0
   25.9959   29.7682   28.4419 H   0  0  0  0  0
   27.6403   27.2810   31.1838 H   0  0  0  0  0
   28.3583   28.8756   30.9331 H   0  0  0  0  0
   25.1079   27.7344   28.7718 H   0  0  0  0  0
   23.8234   31.5943   28.4138 H   0  0  0  0  0
   21.4300   32.9944   29.0347 H   0  0  0  0  0
   20.3602   30.6994   28.7134 H   0  0  0  0  0
   22.0465   30.1779   28.2624 H   0  0  0  0  0
   21.9938   32.0866   26.5935 H   0  0  0  0  0
   21.8383   29.7689   25.9039 H   0  0  0  0  0
   20.0794   29.7893   26.1810 H   0  0  0  0  0
   20.7921   30.8103   24.9080 H   0  0  0  0  0
   19.0266   31.8209   27.2402 H   0  0  0  0  0
   20.0468   33.2340   27.6058 H   0  0  0  0  0
   19.7119   32.7914   25.9137 H   0  0  0  0  0
   20.3368   33.1939   30.8358 H   0  0  0  0  0
   20.8111   31.2138   33.0781 H   0  0  0  0  0
   20.0380   34.1033   33.2667 H   0  0  0  0  0
   21.6885   33.3915   33.5986 H   0  0  0  0  0
   20.3770   31.9244   35.2804 H   0  0  0  0  0
   19.1543   33.2469   35.1787 H   0  0  0  0  0
   20.6881   34.8492   35.9962 H   0  0  0  0  0
   22.0797   33.7544   35.7605 H   0  0  0  0  0
   21.2982   32.2978   37.4980 H   0  0  0  0  0
   19.7881   33.2591   37.6691 H   0  0  0  0  0
   21.3906   33.7929   39.3638 H   0  0  0  0  0
   22.5221   34.2162   38.2160 H   0  0  0  0  0
   21.1227   35.1069   38.3746 H   0  0  0  0  0
   19.0627   29.8955   33.0399 H   0  0  0  0  0
   16.4524   31.0824   32.1854 H   0  0  0  0  0
   17.9702   29.2818   34.5195 H   0  0  0  0  0
   15.8031   28.8119   31.5329 H   0  0  0  0  0
   17.4565   28.2283   32.0320 H   0  0  0  0  0
  2  1  1  0  0  0
  3  2  1  0  0  0
  2  5  1  0  0  0
  3  4  2  0  0  0
  7  3  1  0  0  0
  5  6  1  0  0  0
  6106  1  0  0  0
  8  7  1  0  0  0
  9  8  1  0  0  0
  8 11  1  0  0  0
  9 10  2  0  0  0
 17  9  1  0  0  0
 11 12  1  0  0  0
 12 13  1  0  0  0
 13 14  2  0  0  0
 13 15  1  0  0  0
 16 18  2  0  0  0
 19 16  1  0  0  0
 16 33  1  0  0  0
 19 17  1  0  0  0
 20 19  1  0  0  0
 21 20  1  0  0  0
 20 28  1  0  0  0
 29 21  4  0  0  0
 21 30  4  0  0  0
 31 22  4  0  0  0
 22 32  4  0  0  0
 24 23  4  0  0  0
 25 23  4  0  0  0
 26 24  4  0  0  0
 27 25  4  0  0  0
 28 26  4  0  0  0
 28 27  4  0  0  0
 29 31  4  0  0  0
 30 32  4  0  0  0
 33 34  1  0  0  0
 34 35  1  0  0  0
 34 37  1  0  0  0
 35 36  2  0  0  0
 35 41  1  0  0  0
 37 38  1  0  0  0
 38 39  1  0  0  0
 38 40  2  0  0  0
 41 42  1  0  0  0
 42 43  1  0  0  0
 42 45  1  0  0  0
 43 44  2  0  0  0
 43 49  1  0  0  0
 45 46  1  0  0  0
 46 47  1  0  0  0
 46 48  1  0  0  0
 49 50  1  0  0  0
 50 51  1  0  0  0
 50 53  1  0  0  0
 51 52  2  0  0  0
 51 55  1  0  0  0
 53 54  1  0  0  0
 55 56  1  0  0  0
 56 57  1  0  0  0
 56 59  1  0  0  0
 57 58  2  0  0  0
 57 62  1  0  0  0
 59 60  1  0  0  0
 59 61  1  0  0  0
 62 63  1  0  0  0
 63 64  1  0  0  0
 63 66  1  0  0  0
 64 65  2  0  0  0
 64 73  1  0  0  0
 66 67  1  0  0  0
 67 68  1  0  0  0
 68 69  1  0  0  0
 69 70  1  0  0  0
 70 71  2  0  0  0
 70 72  1  0  0  0
 73 74  1  0  0  0
 74 75  1  0  0  0
 74 77  1  0  0  0
 75 76  2  0  0  0
 75 84  1  0  0  0
 77 78  1  0  0  0
 78 79  1  0  0  0
 79 80  1  0  0  0
 80 81  1  0  0  0
 81 82  1  0  0  0
 81 83  2  0  0  0
 84 85  1  0  0  0
 85 86  1  0  0  0
 85 88  1  0  0  0
 86 87  2  0  0  0
 86 92  1  0  0  0
 88 89  1  0  0  0
 89 90  1  0  0  0
 89 91  1  0  0  0
 92 93  1  0  0  0
 93 94  1  0  0  0
 93 96  1  0  0  0
 94 95  2  0  0  0
 94101  1  0  0  0
 96 97  1  0  0  0
 97 98  1  0  0  0
 98 99  1  0  0  0
 99100  1  0  0  0
101102  1  0  0  0
102103  1  0  0  0
102105  1  0  0  0
103104  1  0  0  0
103107  2  0  0  0
105106  1  0  0  0
  1108  1  0  0  0
  1109  1  0  0  0
  1110  1  0  0  0
  2111  1  0  0  0
  5112  1  0  0  0
  5113  1  0  0  0
  7114  1  0  0  0
  8115  1  0  0  0
 11116  1  0  0  0
 11117  1  0  0  0
 12118  1  0  0  0
 12119  1  0  0  0
 15120  1  0  0  0
 15121  1  0  0  0
 17122  1  0  0  0
 19123  1  0  0  0
 20124  1  0  0  0
 22125  1  0  0  0
 23126  1  0  0  0
 24127  1  0  0  0
 25128  1  0  0  0
 26129  1  0  0  0
 27130  1  0  0  0
 29131  1  0  0  0
 30132  1  0  0  0
 31133  1  0  0  0
 32134  1  0  0  0
 33135  1  0  0  0
 34136  1  0  0  0
 37137  1  0  0  0
 37138  1  0  0  0
 39139  1  0  0  0
 41140  1  0  0  0
 42141  1  0  0  0
 45142  1  0  0  0
 45143  1  0  0  0
 46144  1  0  0  0
 47145  1  0  0  0
 47146  1  0  0  0
 47147  1  0  0  0
 48148  1  0  0  0
 48149  1  0  0  0
 48150  1  0  0  0
 49151  1  0  0  0
 50152  1  0  0  0
 53153  1  0  0  0
 53154  1  0  0  0
 54155  1  0  0  0
 55156  1  0  0  0
 56157  1  0  0  0
 59158  1  0  0  0
 60159  1  0  0  0
 61160  1  0  0  0
 61161  1  0  0  0
 61162  1  0  0  0
 62163  1  0  0  0
 63164  1  0  0  0
 66165  1  0  0  0
 66166  1  0  0  0
 67167  1  0  0  0
 67168  1  0  0  0
 68169  1  0  0  0
 68170  1  0  0  0
 69171  1  0  0  0
 71172  1  0  0  0
 72173  1  0  0  0
 72174  1  0  0  0
 73175  1  0  0  0
 74176  1  0  0  0
 77177  1  0  0  0
 77178  1  0  0  0
 78179  1  0  0  0
 78180  1  0  0  0
 79181  1  0  0  0
 79182  1  0  0  0
 80183  1  0  0  0
 82184  1  0  0  0
 82185  1  0  0  0
 83186  1  0  0  0
 84187  1  0  0  0
 85188  1  0  0  0
 88189  1  0  0  0
 88190  1  0  0  0
 89191  1  0  0  0
 90192  1  0  0  0
 90193  1  0  0  0
 90194  1  0  0  0
 91195  1  0  0  0
 91196  1  0  0  0
 91197  1  0  0  0
 92198  1  0  0  0
 93199  1  0  0  0
 96200  1  0  0  0
 96201  1  0  0  0
 97202  1  0  0  0
 97203  1  0  0  0
 98204  1  0  0  0
 98205  1  0  0  0
 99206  1  0  0  0
 99207  1  0  0  0
100208  1  0  0  0
100209  1  0  0  0
100210  1  0  0  0
101211  1  0  0  0
102212  1  0  0  0
104213  1  0  0  0
105214  1  0  0  0
105215  1  0  0  0
M  END
$$$$
