### 
### Created by X-TOOL on Mon Sep 10 21:13:26 2018
### 

@<TRIPOS>MOLECULE
5t1l_ligand
  215   217     1     0     0
SMALL
GAST_HUCK


@<TRIPOS>ATOM
      1 N          14.6560   32.9540   28.1020 N.4       1 CYS         0.2385
      2 CA         15.1850   33.2470   29.4360 C.3       1 CYS         0.0749
      3 C          15.7640   34.6500   29.5510 C.2       1 CYS         0.2275
      4 O          15.1940   35.6240   29.0590 O.2       1 CYS        -0.3907
      5 CB         16.3020   32.2710   29.7750 C.3       1 CYS         0.0643
      6 SG         16.0770   30.6120   29.1530 S.3       1 CYS        -0.0848
      7 N          16.9070   34.7340   30.2200 N.am      1 GLN        -0.2608
      8 CA         17.6900   35.9610   30.2710 C.3       1 GLN         0.1332
      9 C          19.1320   35.7360   29.7910 C.2       1 GLN         0.2043
     10 O          19.7150   34.6640   29.9870 O.2       1 GLN        -0.3944
     11 CB         17.7440   36.5310   31.6840 C.3       1 GLN         0.0045
     12 CG         16.4090   36.7790   32.3600 C.3       1 GLN         0.0412
     13 CD         16.5700   36.9440   33.8690 C.2       1 GLN         0.1737
     14 OE1        17.5830   36.5250   34.4490 O.2       1 GLN        -0.3973
     15 NE2        15.5770   37.5610   34.5110 N.am      1 GLN        -0.3009
     16 C          21.7480   37.5220   30.0180 C.2       1 2GX         0.2083
     17 N          19.7070   36.7570   29.1680 N.am      1 2GX        -0.2600
     18 O          21.4080   38.6850   30.2240 O.2       1 2GX        -0.3940
     19 CA         21.1210   36.7650   28.9120 C.3       1 2GX         0.1525
     20 CB         21.5120   37.4490   27.6440 C.3       1 2GX         0.0658
     21 CG         23.0110   37.6210   27.5240 C.ar      1 2GX        -0.0243
     22 CZ         25.8210   37.9290   27.3780 C.ar      1 2GX        -0.0685
     23 CAE        19.5770   36.0230   24.0920 C.ar      1 2GX        -0.0685
     24 CAH        19.2950   37.2960   24.5780 C.ar      1 2GX        -0.0682
     25 CAI        20.4750   35.2040   24.7600 C.ar      1 2GX        -0.0682
     26 CAL        19.9280   37.7480   25.7200 C.ar      1 2GX        -0.0579
     27 CAM        21.0990   35.6540   25.9090 C.ar      1 2GX        -0.0579
     28 CAO        20.8410   36.9350   26.3810 C.ar      1 2GX        -0.0243
     29 CD1        23.8590   36.4820   27.4520 C.ar      1 2GX        -0.0579
     30 CD2        23.5770   38.9020   27.5550 C.ar      1 2GX        -0.0579
     31 CE1        25.2580   36.6420   27.3650 C.ar      1 2GX        -0.0682
     32 CE2        24.9750   39.0640   27.4740 C.ar      1 2GX        -0.0682
     33 N          22.6850   36.8990   30.7300 N.am      1 ASP        -0.2619
     34 CA         23.2440   37.5100   31.9310 C.3       1 ASP         0.1423
     35 C          24.6120   38.1240   31.6680 C.2       1 ASP         0.2056
     36 O          25.5400   37.4230   31.2660 O.2       1 ASP        -0.3943
     37 CB         23.3380   36.4590   33.0340 C.3       1 ASP         0.0406
     38 CG         23.8210   37.0260   34.3390 C.2       1 ASP         0.0393
     39 OD1        23.7200   38.2570   34.5330 O.co2     1 ASP        -0.5688
     40 OD2        24.2860   36.2300   35.1730 O.co2     1 ASP        -0.5688
     41 N          24.7330   39.4310   31.9080 N.am      1 LEU        -0.2636
     42 CA         25.9620   40.1720   31.6070 C.3       1 LEU         0.1312
     43 C          27.1630   39.7500   32.4270 C.2       1 LEU         0.2040
     44 O          28.2940   39.8220   31.9450 O.2       1 LEU        -0.3944
     45 CB         25.7550   41.6710   31.7880 C.3       1 LEU        -0.0101
     46 CG         24.8860   42.2860   30.7070 C.3       1 LEU        -0.0425
     47 CD1        24.5160   43.7160   31.0740 C.3       1 LEU        -0.0625
     48 CD2        25.6280   42.2190   29.3730 C.3       1 LEU        -0.0625
     49 N          26.9190   39.3350   33.6680 N.am      1 SER        -0.2616
     50 CA         27.9940   38.9180   34.5700 C.3       1 SER         0.1539
     51 C          28.7240   37.6810   34.0690 C.2       1 SER         0.2063
     52 O          29.9480   37.6250   34.1210 O.2       1 SER        -0.3943
     53 CB         27.4520   38.6430   35.9710 C.3       1 SER         0.0843
     54 OG         26.8240   39.7950   36.5000 O.3       1 SER        -0.3903
     55 N          27.9730   36.7000   33.5730 N.am      1 THR        -0.2613
     56 CA         28.5510   35.4060   33.2020 C.3       1 THR         0.1565
     57 C          28.6660   35.1850   31.6970 C.2       1 THR         0.2065
     58 O          29.3740   34.2770   31.2440 O.2       1 THR        -0.3943
     59 CB         27.7150   34.2570   33.7740 C.3       1 THR         0.0924
     60 OG1        26.3600   34.3980   33.3300 O.3       1 THR        -0.3874
     61 CG2        27.7470   34.2850   35.3010 C.3       1 THR        -0.0346
     62 N          27.9650   36.0140   30.9340 N.am      1 ARG        -0.2636
     63 CA         27.8480   35.8370   29.4880 C.3       1 ARG         0.1311
     64 C          27.1940   34.5010   29.1680 C.2       1 ARG         0.2039
     65 O          27.5600   33.8380   28.2080 O.2       1 ARG        -0.3944
     66 CB         29.2090   35.9510   28.7900 C.3       1 ARG        -0.0092
     67 CG         30.0070   37.1750   29.2010 C.3       1 ARG        -0.0156
     68 CD         31.1320   37.4290   28.2420 C.3       1 ARG         0.0627
     69 NE         31.9200   38.5840   28.6470 N.pl3     1 ARG        -0.2723
     70 CZ         33.0280   38.9820   28.0310 C.cat     1 ARG         0.2882
     71 NH1        33.4650   38.3050   26.9850 N.pl3     1 ARG        -0.2849
     72 NH2        33.6970   40.0510   28.4650 N.pl3     1 ARG        -0.2849
     73 N          26.2220   34.1110   29.9830 N.am      1 ARG        -0.2637
     74 CA         25.5430   32.8500   29.7800 C.3       1 ARG         0.1311
     75 C          24.0480   33.0290   29.8390 C.2       1 ARG         0.2039
     76 O          23.5410   33.9230   30.5260 O.2       1 ARG        -0.3944
     77 CB         25.9760   31.8200   30.8320 C.3       1 ARG        -0.0092
     78 CG         27.4100   31.3920   30.7020 C.3       1 ARG        -0.0156
     79 CD         27.6710   30.6980   29.3690 C.3       1 ARG         0.0627
     80 NE         26.7240   29.6170   29.1400 N.pl3     1 ARG        -0.2723
     81 CZ         26.7360   28.4450   29.7730 C.cat     1 ARG         0.2882
     82 NH1        27.6490   28.1800   30.7020 N.pl3     1 ARG        -0.2849
     83 NH2        25.8160   27.5340   29.4780 N.pl3     1 ARG        -0.2849
     84 N          23.3450   32.1720   29.1050 N.am      1 LEU        -0.2637
     85 CA         21.9090   32.0440   29.2700 C.3       1 LEU         0.1312
     86 C          21.6400   31.6500   30.6990 C.2       1 LEU         0.2039
     87 O          22.2610   30.7350   31.2470 O.2       1 LEU        -0.3944
     88 CB         21.3320   30.9990   28.3210 C.3       1 LEU        -0.0101
     89 CG         21.1150   31.5220   26.9050 C.3       1 LEU        -0.0425
     90 CD1        20.9440   30.3920   25.9030 C.3       1 LEU        -0.0625
     91 CD2        19.8890   32.4040   26.9170 C.3       1 LEU        -0.0625
     92 N          20.7360   32.3880   31.3170 N.am      1 LYS        -0.2637
     93 CA         20.3000   32.0800   32.6580 C.3       1 LYS         0.1309
     94 C          18.8100   31.8430   32.5260 C.2       1 LYS         0.2034
     95 O          18.0660   32.7570   32.1850 O.2       1 LYS        -0.3944
     96 CB         20.6090   33.2410   33.6110 C.3       1 LYS        -0.0122
     97 CG         20.2040   32.9780   35.0610 C.3       1 LYS        -0.0440
     98 CD         21.0270   33.8140   36.0370 C.3       1 LYS        -0.0124
     99 CE         20.8530   33.2910   37.4390 C.3       1 LYS        -0.0354
    100 NZ         21.5250   34.1710   38.4260 N.4       1 LYS         0.2185
    101 N          18.3880   30.6030   32.7490 N.am      1 CYS        -0.2687
    102 CA         16.9870   30.2230   32.5900 C.3       1 CYS         0.1041
    103 C          16.3690   29.8480   33.9260 C.2       1 CYS         0.0609
    104 O          17.0620   29.3540   34.8220 O.co2     1 CYS        -0.5666
    105 CB         16.8630   29.0480   31.6270 C.3       1 CYS         0.0388
    106 SG         17.4870   29.4040   29.9760 S.3       1 CYS        -0.0887
    107 OXT        15.1650   30.0220   34.1260 O.co2     1 CYS        -0.5666
    108 H1         14.2876   32.0159   28.0853 H         1 CYS         0.2015
    109 H2         15.3952   33.0368   27.4217 H         1 CYS         0.2015
    110 H3         13.9211   33.6075   27.8809 H         1 CYS         0.2015
    111 H4         14.3680   33.1381   30.1644 H         1 CYS         0.1107
    112 H5         16.3845   32.2154   30.8705 H         1 CYS         0.0466
    113 H6         17.2389   32.6672   29.3563 H         1 CYS         0.0466
    114 H7         17.2423   33.9269   30.7059 H         1 GLN         0.1885
    115 H8         17.2100   36.6985   29.6109 H         1 GLN         0.0801
    116 H9         18.2797   37.4906   31.6381 H         1 GLN         0.0337
    117 H10        18.3100   35.8246   32.3090 H         1 GLN         0.0337
    118 H11        15.7439   35.9254   32.1625 H         1 GLN         0.0504
    119 H12        15.9629   37.6951   31.9456 H         1 GLN         0.0504
    120 H13        15.6293   37.6966   35.5004 H         1 GLN         0.1814
    121 H14        14.7801   37.8880   34.0030 H         1 GLN         0.1814
    122 H15        19.1483   37.5319   28.8725 H         1 2GX         0.1887
    123 H16        21.4903   35.7290   28.8915 H         1 2GX         0.0849
    124 H17        21.1223   38.4717   27.7545 H         1 2GX         0.0667
    125 H18        26.8959   38.0543   27.3150 H         1 2GX         0.0561
    126 H19        19.0932   35.6703   23.1883 H         1 2GX         0.0561
    127 H20        18.5822   37.9300   24.0632 H         1 2GX         0.0600
    128 H21        20.6878   34.2108   24.3813 H         1 2GX         0.0600
    129 H22        19.7119   38.7394   26.1014 H         1 2GX         0.0561
    130 H23        21.7885   35.0082   26.4407 H         1 2GX         0.0561
    131 H24        23.4290   35.4870   27.4640 H         1 2GX         0.0561
    132 H25        22.9371   39.7727   27.6417 H         1 2GX         0.0561
    133 H26        25.8990   35.7712   27.2881 H         1 2GX         0.0600
    134 H27        25.4051   40.0590   27.4851 H         1 2GX         0.0600
    135 H28        23.0101   35.9997   30.4374 H         1 ASP         0.1885
    136 H29        22.5656   38.3100   32.2624 H         1 ASP         0.0819
    137 H30        24.0372   35.6732   32.7121 H         1 ASP         0.0478
    138 H31        22.3406   36.0216   33.1886 H         1 ASP         0.0478
    139 H32        23.9587   39.9222   32.3070 H         1 LEU         0.1883
    140 H33        26.2006   39.9838   30.5498 H         1 LEU         0.0800
    141 H34        26.7377   42.1649   31.7704 H         1 LEU         0.0315
    142 H35        25.2755   41.8431   32.7629 H         1 LEU         0.0315
    143 H36        23.9586   41.7006   30.6214 H         1 LEU         0.0298
    144 H37        23.8869   44.1469   30.2812 H         1 LEU         0.0232
    145 H38        25.4319   44.3156   31.1818 H         1 LEU         0.0232
    146 H39        23.9618   43.7190   32.0242 H         1 LEU         0.0232
    147 H40        25.8770   41.1723   29.1441 H         1 LEU         0.0232
    148 H41        26.5534   42.8102   29.4380 H         1 LEU         0.0232
    149 H42        24.9879   42.6262   28.5765 H         1 LEU         0.0232
    150 H43        25.9739   39.3073   33.9936 H         1 SER         0.1884
    151 H44        28.7195   39.7425   34.6326 H         1 SER         0.0823
    152 H45        28.2838   38.3511   36.6290 H         1 SER         0.0606
    153 H46        26.7196   37.8238   35.9204 H         1 SER         0.0606
    154 H47        27.4544   40.5041   36.5480 H         1 SER         0.2097
    155 H48        26.9919   36.8499   33.4509 H         1 THR         0.1884
    156 H49        29.5618   35.3586   33.6334 H         1 THR         0.0826
    157 H50        28.1217   33.2986   33.4189 H         1 THR         0.0639
    158 H51        26.0132   35.2287   33.6337 H         1 THR         0.2101
    159 H52        27.1428   33.4548   35.6957 H         1 THR         0.0257
    160 H53        27.3356   35.2403   35.6589 H         1 THR         0.0257
    161 H54        28.7855   34.1799   35.6480 H         1 THR         0.0257
    162 H55        27.4999   36.7879   31.3640 H         1 ARG         0.1883
    163 H56        27.2008   36.6374   29.1000 H         1 ARG         0.0800
    164 H57        29.0393   35.9961   27.7041 H         1 ARG         0.0313
    165 H58        29.7992   35.0548   29.0320 H         1 ARG         0.0313
    166 H59        30.4213   37.0134   30.2071 H         1 ARG         0.0301
    167 H60        29.3414   38.0506   29.2149 H         1 ARG         0.0301
    168 H61        30.7151   37.6127   27.2408 H         1 ARG         0.0689
    169 H62        31.7837   36.5434   28.2111 H         1 ARG         0.0689
    170 H63        31.5988   39.1264   29.4616 H         1 ARG         0.2642
    171 H64        34.3227   38.6042   26.4996 H         1 ARG         0.2615
    172 H65        32.9481   37.4777   26.6545 H         1 ARG         0.2615
    173 H66        33.3536   40.5770   29.2812 H         1 ARG         0.2615
    174 H67        34.5571   40.3505   27.9839 H         1 ARG         0.2615
    175 H68        25.9553   34.6970   30.7481 H         1 ARG         0.1883
    176 H69        25.8119   32.4687   28.7839 H         1 ARG         0.0800
    177 H70        25.3373   30.9302   30.7306 H         1 ARG         0.0313
    178 H71        25.8342   32.2614   31.8295 H         1 ARG         0.0313
    179 H72        27.6503   30.6963   31.5195 H         1 ARG         0.0301
    180 H73        28.0554   32.2798   30.7744 H         1 ARG         0.0301
    181 H74        28.6908   30.2857   29.3735 H         1 ARG         0.0689
    182 H75        27.5768   31.4344   28.5574 H         1 ARG         0.0689
    183 H76        25.9887   29.7697   28.4350 H         1 ARG         0.2642
    184 H77        27.6452   27.2691   31.1827 H         1 ARG         0.2615
    185 H78        28.3602   28.8856   30.9412 H         1 ARG         0.2615
    186 H79        25.1058   27.7333   28.7591 H         1 ARG         0.2615
    187 H80        25.8126   26.6281   29.9681 H         1 ARG         0.2615
    188 H81        23.8140   31.6056   28.4273 H         1 LEU         0.1883
    189 H82        21.4328   33.0133   29.0611 H         1 LEU         0.0800
    190 H83        20.3642   30.6617   28.7203 H         1 LEU         0.0315
    191 H84        22.0269   30.1475   28.2756 H         1 LEU         0.0315
    192 H85        21.9888   32.1207   26.6083 H         1 LEU         0.0298
    193 H86        20.7906   30.8129   24.8984 H         1 LEU         0.0232
    194 H87        20.0717   29.7830   26.1824 H         1 LEU         0.0232
    195 H88        21.8460   29.7624   25.9029 H         1 LEU         0.0232
    196 H89        20.0284   33.2157   27.6462 H         1 LEU         0.0232
    197 H90        19.0097   31.8058   27.1980 H         1 LEU         0.0232
    198 H91        19.7360   32.8329   25.9157 H         1 LEU         0.0232
    199 H92        20.3447   33.1781   30.8452 H         1 LYS         0.1883
    200 H93        20.7993   31.1715   33.0259 H         1 LYS         0.0800
    201 H94        20.0698   34.1321   33.2573 H         1 LYS         0.0312
    202 H95        21.6918   33.4326   33.5834 H         1 LYS         0.0312
    203 H96        20.3579   31.9124   35.2865 H         1 LYS         0.0269
    204 H97        19.1403   33.2292   35.1853 H         1 LYS         0.0269
    205 H98        20.6900   34.8602   35.9943 H         1 LYS         0.0317
    206 H99        22.0894   33.7593   35.7573 H         1 LYS         0.0317
    207 H100       21.2879   32.2826   37.5026 H         1 LYS         0.0813
    208 H101       19.7794   33.2428   37.6735 H         1 LYS         0.0813
    209 H102       21.3928   33.7983   39.3532 H         1 LYS         0.1994
    210 H103       21.1282   35.0963   38.3762 H         1 LYS         0.1994
    211 H104       22.5106   34.2164   38.2195 H         1 LYS         0.1994
    212 H105       19.0494   29.9093   33.0342 H         1 CYS         0.1876
    213 H106       16.4373   31.0810   32.1757 H         1 CYS         0.0734
    214 H107       15.8006   28.7746   31.5462 H         1 CYS         0.0425
    215 H108       17.4298   28.1996   32.0380 H         1 CYS         0.0425
@<TRIPOS>BOND
     1    2    1 1  
     2    3    2 1  
     3    2    5 1  
     4    3    4 2  
     5    7    3 am 
     6    5    6 1  
     7    6  106 1  
     8    8    7 1  
     9    9    8 1  
    10    8   11 1  
    11    9   10 2  
    12   17    9 am 
    13   11   12 1  
    14   12   13 1  
    15   13   14 2  
    16   13   15 am 
    17   16   18 2  
    18   19   16 1  
    19   16   33 am 
    20   19   17 1  
    21   20   19 1  
    22   21   20 1  
    23   20   28 1  
    24   29   21 ar 
    25   21   30 ar 
    26   31   22 ar 
    27   22   32 ar 
    28   24   23 ar 
    29   25   23 ar 
    30   26   24 ar 
    31   27   25 ar 
    32   28   26 ar 
    33   28   27 ar 
    34   29   31 ar 
    35   30   32 ar 
    36   33   34 1  
    37   34   35 1  
    38   34   37 1  
    39   35   36 2  
    40   35   41 am 
    41   37   38 1  
    42   38   39 ar 
    43   38   40 ar 
    44   41   42 1  
    45   42   43 1  
    46   42   45 1  
    47   43   44 2  
    48   43   49 am 
    49   45   46 1  
    50   46   47 1  
    51   46   48 1  
    52   49   50 1  
    53   50   51 1  
    54   50   53 1  
    55   51   52 2  
    56   51   55 am 
    57   53   54 1  
    58   55   56 1  
    59   56   57 1  
    60   56   59 1  
    61   57   58 2  
    62   57   62 am 
    63   59   60 1  
    64   59   61 1  
    65   62   63 1  
    66   63   64 1  
    67   63   66 1  
    68   64   65 2  
    69   64   73 am 
    70   66   67 1  
    71   67   68 1  
    72   68   69 1  
    73   69   70 ar 
    74   70   71 ar 
    75   70   72 ar 
    76   73   74 1  
    77   74   75 1  
    78   74   77 1  
    79   75   76 2  
    80   75   84 am 
    81   77   78 1  
    82   78   79 1  
    83   79   80 1  
    84   80   81 ar 
    85   81   82 ar 
    86   81   83 ar 
    87   84   85 1  
    88   85   86 1  
    89   85   88 1  
    90   86   87 2  
    91   86   92 am 
    92   88   89 1  
    93   89   90 1  
    94   89   91 1  
    95   92   93 1  
    96   93   94 1  
    97   93   96 1  
    98   94   95 2  
    99   94  101 am 
   100   96   97 1  
   101   97   98 1  
   102   98   99 1  
   103   99  100 1  
   104  101  102 1  
   105  102  103 1  
   106  102  105 1  
   107  103  104 ar 
   108  103  107 ar 
   109  105  106 1  
   110    1  108 1  
   111    1  109 1  
   112    1  110 1  
   113    2  111 1  
   114    5  112 1  
   115    5  113 1  
   116    7  114 1  
   117    8  115 1  
   118   11  116 1  
   119   11  117 1  
   120   12  118 1  
   121   12  119 1  
   122   15  120 1  
   123   15  121 1  
   124   17  122 1  
   125   19  123 1  
   126   20  124 1  
   127   22  125 1  
   128   23  126 1  
   129   24  127 1  
   130   25  128 1  
   131   26  129 1  
   132   27  130 1  
   133   29  131 1  
   134   30  132 1  
   135   31  133 1  
   136   32  134 1  
   137   33  135 1  
   138   34  136 1  
   139   37  137 1  
   140   37  138 1  
   141   41  139 1  
   142   42  140 1  
   143   45  141 1  
   144   45  142 1  
   145   46  143 1  
   146   47  144 1  
   147   47  145 1  
   148   47  146 1  
   149   48  147 1  
   150   48  148 1  
   151   48  149 1  
   152   49  150 1  
   153   50  151 1  
   154   53  152 1  
   155   53  153 1  
   156   54  154 1  
   157   55  155 1  
   158   56  156 1  
   159   59  157 1  
   160   60  158 1  
   161   61  159 1  
   162   61  160 1  
   163   61  161 1  
   164   62  162 1  
   165   63  163 1  
   166   66  164 1  
   167   66  165 1  
   168   67  166 1  
   169   67  167 1  
   170   68  168 1  
   171   68  169 1  
   172   69  170 1  
   173   71  171 1  
   174   71  172 1  
   175   72  173 1  
   176   72  174 1  
   177   73  175 1  
   178   74  176 1  
   179   77  177 1  
   180   77  178 1  
   181   78  179 1  
   182   78  180 1  
   183   79  181 1  
   184   79  182 1  
   185   80  183 1  
   186   82  184 1  
   187   82  185 1  
   188   83  186 1  
   189   83  187 1  
   190   84  188 1  
   191   85  189 1  
   192   88  190 1  
   193   88  191 1  
   194   89  192 1  
   195   90  193 1  
   196   90  194 1  
   197   90  195 1  
   198   91  196 1  
   199   91  197 1  
   200   91  198 1  
   201   92  199 1  
   202   93  200 1  
   203   96  201 1  
   204   96  202 1  
   205   97  203 1  
   206   97  204 1  
   207   98  205 1  
   208   98  206 1  
   209   99  207 1  
   210   99  208 1  
   211  100  209 1  
   212  100  210 1  
   213  100  211 1  
   214  101  212 1  
   215  102  213 1  
   216  105  214 1  
   217  105  215 1  
@<TRIPOS>SUBSTRUCTURE
     1 CYS         1

