5i13_ligand
  -I-interpret- 

 30 31  0  0  0  0  0  0  0  0999 V2000
   -0.3690  -20.9060  -19.7680 C   0  0  0  0  0
   -0.9840  -19.6780  -20.0110 C   0  0  0  0  0
   -0.2400  -18.6310  -20.5520 C   0  0  0  0  0
   -0.9700  -17.0980  -20.8410 Cl  0  0  0  0  0
    1.1000  -18.8230  -20.8640 C   0  0  0  0  0
    1.7160  -20.0420  -20.6380 C   0  0  0  0  0
    0.9810  -21.0870  -20.0840 C   0  0  0  0  0
    1.5690  -22.2750  -19.9470 N   0  0  0  0  0
    2.8040  -22.3340  -20.2860 N   0  0  0  0  0
    3.4770  -23.5020  -20.1760 C   0  0  0  0  0
    4.8160  -23.4370  -20.5750 C   0  0  0  0  0
    5.5710  -22.2540  -20.5350 C   0  0  0  0  0
    6.9190  -22.2520  -20.9220 C   0  0  0  0  0
    7.5380  -23.4390  -21.3130 C   0  0  0  0  0
    8.8380  -23.5200  -21.7030 O   0  0  0  0  0
    6.8060  -24.6130  -21.3160 C   0  0  0  0  0
    7.3950  -25.7810  -21.6910 O   0  0  0  0  0
    5.4970  -24.6170  -20.8700 C   0  0  0  0  0
    4.7990  -25.7810  -20.9470 O   0  0  0  0  0
   -0.9409  -21.7249  -19.3316 H   0  0  0  0  0
   -2.0398  -19.5380  -19.7793 H   0  0  0  0  0
    1.6747  -18.0021  -21.2929 H   0  0  0  0  0
    2.7668  -20.1825  -20.8914 H   0  0  0  0  0
    2.9824  -24.2191  -20.8312 H   0  0  0  0  0
    3.4705  -23.7769  -19.1212 H   0  0  0  0  0
    5.1047  -21.3276  -20.1997 H   0  0  0  0  0
    7.4845  -21.3202  -20.9172 H   0  0  0  0  0
    9.0478  -24.4298  -21.9263 H   0  0  0  0  0
    6.7536  -26.4933  -21.6371 H   0  0  0  0  0
    5.3999  -26.4999  -21.1558 H   0  0  0  0  0
  1  2  4  0  0  0
  1  7  4  0  0  0
  2  3  4  0  0  0
  3  4  1  0  0  0
  3  5  4  0  0  0
  5  6  4  0  0  0
  6  7  4  0  0  0
  7  8  1  0  0  0
  8  9  2  0  0  0
  9 10  1  0  0  0
 10 11  1  0  0  0
 11 12  4  0  0  0
 11 18  4  0  0  0
 12 13  4  0  0  0
 13 14  4  0  0  0
 14 15  1  0  0  0
 14 16  4  0  0  0
 16 17  1  0  0  0
 16 18  4  0  0  0
 18 19  1  0  0  0
  1 20  1  0  0  0
  2 21  1  0  0  0
  5 22  1  0  0  0
  6 23  1  0  0  0
 10 24  1  0  0  0
 10 25  1  0  0  0
 12 26  1  0  0  0
 13 27  1  0  0  0
 15 28  1  0  0  0
 17 29  1  0  0  0
 19 30  1  0  0  0
M  END
$$$$
