4qfn_ligand
  -I-interpret- 

 27 26  0  0  0  0  0  0  0  0999 V2000
   14.5650    8.3960   12.3020 N   0  3  0  0  0
   13.6400    7.2790   12.2750 C   0  0  0  0  0
   13.1000    6.9480   10.8900 C   0  0  0  0  0
   13.7520    7.2140    9.8760 O   0  0  0  0  0
   11.9050    6.3590   10.8460 N   0  0  0  0  0
   11.3220    5.8870    9.5920 C   0  0  0  0  0
   10.7870    7.0170    8.7230 C   0  0  0  0  0
   10.3980    8.0810    9.2040 O   0  0  0  0  0
   10.2210    4.8540    9.8490 C   0  0  0  0  0
   10.7000    3.6180   10.5870 C   0  0  0  0  0
   10.4640    3.6930   12.0970 C   0  0  0  0  0
   10.5620    2.6390   12.7700 O   0  0  0  0  0
   10.1610    4.7990   12.6100 O   0  0  0  0  0
   10.7290    6.8750    7.5030 O   0  0  0  0  0
   14.8790    8.5528   13.2597 H   0  0  0  0  0
   15.3682    8.1851   11.7098 H   0  0  0  0  0
   14.0959    9.2328   11.9554 H   0  0  0  0  0
   12.7868    7.5533   12.8954 H   0  0  0  0  0
   14.1846    6.4023   12.6255 H   0  0  0  0  0
   11.3823    6.2341   11.7130 H   0  0  0  0  0
   12.1348    5.4140    9.0408 H   0  0  0  0  0
   10.4992    8.0554   10.1583 H   0  0  0  0  0
    9.8482    4.5283    8.8779 H   0  0  0  0  0
    9.4660    5.3325   10.4728 H   0  0  0  0  0
   11.7739    3.5292   10.4231 H   0  0  0  0  0
   10.1383    2.7654   10.2054 H   0  0  0  0  0
   10.1400    5.4726   11.9263 H   0  0  0  0  0
  1  2  1  0  0  0
  2  3  1  0  0  0
  3  4  2  0  0  0
  3  5  1  0  0  0
  5  6  1  0  0  0
  6  7  1  0  0  0
  6  9  1  0  0  0
  7  8  1  0  0  0
  7 14  2  0  0  0
  9 10  1  0  0  0
 10 11  1  0  0  0
 11 12  2  0  0  0
 11 13  1  0  0  0
  1 15  1  0  0  0
  1 16  1  0  0  0
  1 17  1  0  0  0
  2 18  1  0  0  0
  2 19  1  0  0  0
  5 20  1  0  0  0
  6 21  1  0  0  0
  8 22  1  0  0  0
  9 23  1  0  0  0
  9 24  1  0  0  0
 10 25  1  0  0  0
 10 26  1  0  0  0
 13 27  1  0  0  0
M  END
$$$$
