1swk_ligand
  -I-interpret- 

 32 33  0  0  0  0  0  0  0  0999 V2000
   17.5800   19.2980   31.5830 C   0  0  0  0  0
   18.3440   20.1310   31.0260 O   0  0  0  0  0
   16.3820   19.1300   31.2620 O   0  0  0  0  0
   18.2140   18.4710   32.6480 C   0  0  0  0  0
   19.6750   18.1690   32.2560 C   0  0  0  0  0
   19.6780   17.0250   31.2290 C   0  0  0  0  0
   21.1010   16.7010   30.6990 C   0  0  0  0  0
   21.1970   15.6630   29.6050 C   0  0  0  0  0
   20.4740   14.0040   29.9520 S   0  0  0  0  0
   21.1850   13.4210   28.3850 C   0  0  0  0  0
   22.5740   14.0190   28.2790 C   0  0  0  0  0
   23.6050   13.2520   28.9340 N   0  0  0  0  0
   24.1530   13.9150   29.9720 C   0  0  0  0  0
   25.0690   13.4980   30.7110 O   0  0  0  0  0
   23.5880   15.1410   30.0730 N   0  0  0  0  0
   22.5750   15.3580   29.0520 C   0  0  0  0  0
   19.2129   20.0879   31.4319 H   0  0  0  0  0
   17.6651   17.5359   32.7595 H   0  0  0  0  0
   18.1943   19.0145   33.5926 H   0  0  0  0  0
   20.2445   17.8781   33.1387 H   0  0  0  0  0
   20.1357   19.0576   31.8245 H   0  0  0  0  0
   19.0669   17.3343   30.3810 H   0  0  0  0  0
   19.2922   16.1321   31.7209 H   0  0  0  0  0
   21.6524   16.2954   31.5472 H   0  0  0  0  0
   21.4793   17.6279   30.2678 H   0  0  0  0  0
   20.5967   16.2123   28.8798 H   0  0  0  0  0
   20.5667   13.7301   27.5423 H   0  0  0  0  0
   21.2312   12.3322   28.3639 H   0  0  0  0  0
   22.7834   14.0818   27.2111 H   0  0  0  0  0
   23.8871   12.3154   28.6450 H   0  0  0  0  0
   23.8423   15.8303   30.7806 H   0  0  0  0  0
   22.8041   16.2325   28.4431 H   0  0  0  0  0
  1  4  1  0  0  0
  1  3  2  0  0  0
  1  2  1  0  0  0
  4  5  1  0  0  0
  5  6  1  0  0  0
  6  7  1  0  0  0
  7  8  1  0  0  0
  8 16  1  0  0  0
  8  9  1  0  0  0
  9 10  1  0  0  0
 10 11  1  0  0  0
 11 16  1  0  0  0
 11 12  1  0  0  0
 12 13  1  0  0  0
 13 15  1  0  0  0
 13 14  2  0  0  0
 15 16  1  0  0  0
  2 17  1  0  0  0
  4 18  1  0  0  0
  4 19  1  0  0  0
  5 20  1  0  0  0
  5 21  1  0  0  0
  6 22  1  0  0  0
  6 23  1  0  0  0
  7 24  1  0  0  0
  7 25  1  0  0  0
  8 26  1  0  0  0
 10 27  1  0  0  0
 10 28  1  0  0  0
 11 29  1  0  0  0
 12 30  1  0  0  0
 15 31  1  0  0  0
 16 32  1  0  0  0
M  END
$$$$
