5qb0_ligand
  -I-interpret- 

 24 25  0  0  0  0  0  0  0  0999 V2000
   96.3100  250.9770    6.1670 C   0  0  0  0  0
   96.5960  250.9160    7.5260 C   0  0  0  0  0
   96.6380  249.7010    8.2050 C   0  0  0  0  0
   96.9710  249.6630    9.6500 C   0  0  0  0  0
   98.2250  249.2700   10.1050 C   0  0  0  0  0
   98.4730  249.2840   11.4640 C   0  0  0  0  0
   97.2620  253.0770    5.6690 O   0  0  0  0  0
   95.9960  250.0530   10.4890 N   0  0  0  0  0
   96.2940  252.3110    5.4620 C   0  0  0  0  0
   95.3060  252.5880    4.7230 O   0  0  0  0  0
   96.1030  248.5810    6.1350 C   0  0  0  0  0
   96.0670  249.7960    5.4740 C   0  0  0  0  0
   97.4840  249.6770   12.3320 C   0  0  0  0  0
   96.2680  250.0510   11.8030 C   0  0  0  0  0
   96.3820  248.5320    7.4900 C   0  0  0  0  0
   96.7916  251.8390    8.0718 H   0  0  0  0  0
   98.9975  248.9569    9.4027 H   0  0  0  0  0
   99.4491  248.9845   11.8455 H   0  0  0  0  0
   94.6936  251.8487    4.7190 H   0  0  0  0  0
   95.9109  247.6588    5.5866 H   0  0  0  0  0
   95.8475  249.8276    4.4068 H   0  0  0  0  0
   97.6560  249.6926   13.4082 H   0  0  0  0  0
   95.4823  250.3630   12.4910 H   0  0  0  0  0
   96.4017  247.5703    8.0027 H   0  0  0  0  0
  1  2  4  0  0  0
  1  9  1  0  0  0
  1 12  4  0  0  0
  2  3  4  0  0  0
  3  4  1  0  0  0
  3 15  4  0  0  0
  4  5  4  0  0  0
  4  8  4  0  0  0
  5  6  4  0  0  0
  6 13  4  0  0  0
  9  7  2  0  0  0
  8 14  4  0  0  0
  9 10  1  0  0  0
 12 11  4  0  0  0
 11 15  4  0  0  0
 13 14  4  0  0  0
  2 16  1  0  0  0
  5 17  1  0  0  0
  6 18  1  0  0  0
 10 19  1  0  0  0
 11 20  1  0  0  0
 12 21  1  0  0  0
 13 22  1  0  0  0
 14 23  1  0  0  0
 15 24  1  0  0  0
M  END
$$$$
