1mrw_ligand
  -I-interpret- 

 74 76  0  0  0  0  0  0  0  0999 V2000
   11.1140   17.7090   19.0530 C   0  0  0  0  0
   11.1960   18.3940   17.8240 C   0  0  0  0  0
   12.2820   19.2640   17.5690 C   0  0  0  0  0
   13.3080   19.4670   18.5420 C   0  0  0  0  0
   13.2250   18.7660   19.8070 C   0  0  0  0  0
   12.1150   17.8910   20.0360 C   0  0  0  0  0
   14.2760   18.9230   20.9010 C   0  0  0  0  0
   14.4410   20.3890   18.2340 C   0  0  0  0  0
   14.1020   21.6370   17.8070 N   0  0  0  0  0
   15.1130   22.5980   17.3450 C   0  0  0  0  0
   15.1250   22.8580   15.8140 C   0  0  0  0  0
   15.0360   23.8360   18.2440 C   0  0  0  0  0
   16.2980   24.7030   18.4790 C   0  0  0  0  0
   17.4370   24.0970   19.0340 N   0  0  0  0  0
   18.7480   24.7560   18.8690 C   0  0  0  0  0
   19.7330   24.1200   19.9070 C   0  0  0  0  0
   19.2360   22.4060   20.0420 S   0  0  0  0  0
   17.5020   22.7580   19.6830 C   0  0  0  0  0
   14.1780   22.0340   14.9940 C   0  0  0  0  0
   14.7280   21.0530   14.1260 C   0  0  0  0  0
   13.8870   20.2300   13.3280 C   0  0  0  0  0
   12.4840   20.3920   13.4020 C   0  0  0  0  0
   11.9240   21.3750   14.2680 C   0  0  0  0  0
   12.7660   22.1920   15.0600 C   0  0  0  0  0
   13.8140   24.2040   18.7960 O   0  0  0  0  0
   16.3070   25.8310   18.0080 O   0  0  0  0  0
   19.6190   24.7670   21.3030 C   0  0  0  0  0
   21.2030   24.1520   19.4270 C   0  0  0  0  0
   19.1420   24.5590   17.3600 C   0  0  0  0  0
   19.7290   25.6700   16.7930 N   0  0  0  0  0
   20.2020   25.8120   15.3920 C   0  0  0  0  0
   18.9120   23.4900   16.7830 O   0  0  0  0  0
   12.0080   17.2060   21.2310 O   0  0  0  0  0
   15.6250   20.0630   18.3350 O   0  0  0  0  0
   20.7570   27.2410   15.2750 C   0  0  0  0  0
   19.0310   25.6220   14.4000 C   0  0  0  0  0
   21.3410   24.8010   15.0940 C   0  0  0  0  0
   10.2775   17.0375   19.2465 H   0  0  0  0  0
   10.4221   18.2533   17.0694 H   0  0  0  0  0
   12.3368   19.7879   16.6147 H   0  0  0  0  0
   15.2472   18.6103   20.5176 H   0  0  0  0  0
   14.3247   19.9674   21.2091 H   0  0  0  0  0
   14.0046   18.3031   21.7555 H   0  0  0  0  0
   13.1198   21.9120   17.8079 H   0  0  0  0  0
   16.1051   22.1614   17.4599 H   0  0  0  0  0
   16.1271   22.6018   15.4700 H   0  0  0  0  0
   14.8198   23.8957   15.6795 H   0  0  0  0  0
   15.3821   23.4316   19.1952 H   0  0  0  0  0
   18.7570   25.8269   19.0720 H   0  0  0  0  0
   17.0890   21.9957   19.0224 H   0  0  0  0  0
   16.9157   22.7529   20.6019 H   0  0  0  0  0
   15.8096   20.9296   14.0711 H   0  0  0  0  0
   14.3197   19.4808   12.6650 H   0  0  0  0  0
   11.8306   19.7643   12.7960 H   0  0  0  0  0
   10.8423   21.4985   14.3209 H   0  0  0  0  0
   12.3321   22.9425   15.7207 H   0  0  0  0  0
   13.9301   24.9933   19.3300 H   0  0  0  0  0
   18.5875   24.7018   21.6491 H   0  0  0  0  0
   20.2714   24.2412   22.0001 H   0  0  0  0  0
   19.9179   25.8135   21.2425 H   0  0  0  0  0
   21.8314   23.6320   20.1501 H   0  0  0  0  0
   21.2782   23.6592   18.4577 H   0  0  0  0  0
   21.5317   25.1873   19.3361 H   0  0  0  0  0
   19.8516   26.4806   17.3999 H   0  0  0  0  0
   12.7534   17.4282   21.7937 H   0  0  0  0  0
   19.9654   27.9563   15.4984 H   0  0  0  0  0
   21.5758   27.3705   15.9827 H   0  0  0  0  0
   21.1219   27.4058   14.2612 H   0  0  0  0  0
   18.6041   24.6276   14.5300 H   0  0  0  0  0
   18.2669   26.3749   14.5933 H   0  0  0  0  0
   19.3995   25.7300   13.3799 H   0  0  0  0  0
   22.1760   24.9869   15.7695 H   0  0  0  0  0
   20.9719   23.7860   15.2412 H   0  0  0  0  0
   21.6723   24.9225   14.0627 H   0  0  0  0  0
  1  2  4  0  0  0
  1  6  4  0  0  0
  2  3  4  0  0  0
  3  4  4  0  0  0
  4  5  4  0  0  0
  4  8  1  0  0  0
  5  6  4  0  0  0
  5  7  1  0  0  0
  6 33  1  0  0  0
  8  9  1  0  0  0
  8 34  2  0  0  0
  9 10  1  0  0  0
 10 11  1  0  0  0
 10 12  1  0  0  0
 11 19  1  0  0  0
 12 13  1  0  0  0
 12 25  1  0  0  0
 13 14  1  0  0  0
 13 26  2  0  0  0
 14 15  1  0  0  0
 14 18  1  0  0  0
 15 16  1  0  0  0
 15 29  1  0  0  0
 16 17  1  0  0  0
 16 27  1  0  0  0
 16 28  1  0  0  0
 17 18  1  0  0  0
 19 20  4  0  0  0
 19 24  4  0  0  0
 20 21  4  0  0  0
 21 22  4  0  0  0
 22 23  4  0  0  0
 23 24  4  0  0  0
 29 30  1  0  0  0
 29 32  2  0  0  0
 30 31  1  0  0  0
 31 35  1  0  0  0
 31 36  1  0  0  0
 31 37  1  0  0  0
  1 38  1  0  0  0
  2 39  1  0  0  0
  3 40  1  0  0  0
  7 41  1  0  0  0
  7 42  1  0  0  0
  7 43  1  0  0  0
  9 44  1  0  0  0
 10 45  1  0  0  0
 11 46  1  0  0  0
 11 47  1  0  0  0
 12 48  1  0  0  0
 15 49  1  0  0  0
 18 50  1  0  0  0
 18 51  1  0  0  0
 20 52  1  0  0  0
 21 53  1  0  0  0
 22 54  1  0  0  0
 23 55  1  0  0  0
 24 56  1  0  0  0
 25 57  1  0  0  0
 27 58  1  0  0  0
 27 59  1  0  0  0
 27 60  1  0  0  0
 28 61  1  0  0  0
 28 62  1  0  0  0
 28 63  1  0  0  0
 30 64  1  0  0  0
 33 65  1  0  0  0
 35 66  1  0  0  0
 35 67  1  0  0  0
 35 68  1  0  0  0
 36 69  1  0  0  0
 36 70  1  0  0  0
 36 71  1  0  0  0
 37 72  1  0  0  0
 37 73  1  0  0  0
 37 74  1  0  0  0
M  END
$$$$
