2qoh_ligand
  -I-interpret- 

 47 50  0  0  0  0  0  0  0  0999 V2000
   -4.3300    9.2820   24.2840 N   0  0  0  0  0
   -3.6810    8.4920   25.1910 C   0  0  0  0  0
   -2.6480    7.6050   24.7920 C   0  0  0  0  0
   -2.3220    7.5860   23.4120 C   0  0  0  0  0
   -3.0230    8.4280   22.4740 C   0  0  0  0  0
   -4.0160    9.2540   22.9490 C   0  0  0  0  0
   -2.9290    8.6200   21.0500 C   0  0  0  0  0
   -3.9350    9.5940   20.8170 C   0  0  0  0  0
   -4.6030    9.9910   21.9510 N   0  0  0  0  0
   -2.0240    7.9930   20.0120 C   0  0  0  0  0
   -1.7860    6.5760   19.9090 C   0  0  0  0  0
   -0.9080    6.0890   18.8770 C   0  0  0  0  0
   -0.2940    6.9720   17.9750 C   0  0  0  0  0
   -0.5290    8.3520   18.0760 C   0  0  0  0  0
   -1.3860    8.8520   19.0840 C   0  0  0  0  0
   -2.4310    5.7350   20.8330 O   0  0  0  0  0
   -1.9340    6.7220   25.7790 C   0  0  0  0  0
   -1.7690    5.3190   25.5640 C   0  0  0  0  0
   -1.1130    4.5020   26.4570 N   0  0  0  0  0
   -0.5920    5.0430   27.6060 C   0  0  0  0  0
   -0.7230    6.4300   27.8850 C   0  0  0  0  0
   -1.3990    7.2480   26.9530 C   0  0  0  0  0
   -0.1550    7.0020   29.1110 C   0  0  0  0  0
    1.0560    6.9700   29.2950 O   0  0  0  0  0
   -1.0060    7.6070   30.0220 N   0  0  0  0  0
   -2.2980    7.0490   30.4830 C   0  0  0  0  0
   -0.5140    8.8570   30.6420 C   0  0  0  0  0
   -2.5830    4.3260   20.5700 C   0  0  0  0  0
   -3.9628    8.5445   26.2426 H   0  0  0  0  0
   -1.5310    6.9262   23.0554 H   0  0  0  0  0
   -4.1580    9.9918   19.8270 H   0  0  0  0  0
   -0.7173    5.0189   18.7950 H   0  0  0  0  0
    0.3647    6.5863   17.1969 H   0  0  0  0  0
   -0.0509    9.0386   17.3774 H   0  0  0  0  0
   -1.5599    9.9261   19.1483 H   0  0  0  0  0
   -2.1793    4.8776   24.6558 H   0  0  0  0  0
   -0.0704    4.3994   28.3144 H   0  0  0  0  0
   -1.5044    8.3136   27.1565 H   0  0  0  0  0
   -2.9615    6.9181   29.6282 H   0  0  0  0  0
   -2.1258    6.0851   30.9619 H   0  0  0  0  0
   -2.7543    7.7346   31.1970 H   0  0  0  0  0
    0.4111    8.6539   31.1814 H   0  0  0  0  0
   -0.3276    9.5978   29.8645 H   0  0  0  0  0
   -1.2644    9.2370   31.3353 H   0  0  0  0  0
   -3.1585    4.1886   19.6545 H   0  0  0  0  0
   -1.5993    3.8711   20.4540 H   0  0  0  0  0
   -3.1058    3.8565   21.4033 H   0  0  0  0  0
  1  2  4  0  0  0
  1  6  4  0  0  0
  2  3  4  0  0  0
  3  4  4  0  0  0
  3 17  1  0  0  0
  4  5  4  0  0  0
  5  6  4  0  0  0
  5  7  4  0  0  0
  6  9  4  0  0  0
  7  8  4  0  0  0
  7 10  1  0  0  0
  8  9  4  0  0  0
 10 11  4  0  0  0
 10 15  4  0  0  0
 11 12  4  0  0  0
 11 16  1  0  0  0
 12 13  4  0  0  0
 13 14  4  0  0  0
 14 15  4  0  0  0
 16 28  1  0  0  0
 17 18  4  0  0  0
 17 22  4  0  0  0
 18 19  4  0  0  0
 19 20  4  0  0  0
 20 21  4  0  0  0
 21 22  4  0  0  0
 21 23  1  0  0  0
 23 24  2  0  0  0
 23 25  1  0  0  0
 25 26  1  0  0  0
 25 27  1  0  0  0
  2 29  1  0  0  0
  4 30  1  0  0  0
  8 31  1  0  0  0
 12 32  1  0  0  0
 13 33  1  0  0  0
 14 34  1  0  0  0
 15 35  1  0  0  0
 18 36  1  0  0  0
 20 37  1  0  0  0
 22 38  1  0  0  0
 26 39  1  0  0  0
 26 40  1  0  0  0
 26 41  1  0  0  0
 27 42  1  0  0  0
 27 43  1  0  0  0
 27 44  1  0  0  0
 28 45  1  0  0  0
 28 46  1  0  0  0
 28 47  1  0  0  0
M  END
$$$$
