4n9e_ligand
  -I-interpret- 

 58 62  0  0  0  0  0  0  0  0999 V2000
    9.3010    4.0900   -5.8250 C   0  0  0  0  0
   10.0700    3.1910   -6.5390 C   0  0  0  0  0
   11.4500    3.3180   -6.5430 C   0  0  0  0  0
   12.0530    4.3460   -5.8080 C   0  0  0  0  0
   11.2510    5.2510   -5.0890 C   0  0  0  0  0
    9.8760    5.1250   -5.0940 C   0  0  0  0  0
   13.5350    4.4960   -5.7990 C   0  0  0  0  0
   14.1080    4.8900   -6.8030 O   0  0  0  0  0
   14.2650    4.1970   -4.6960 N   0  0  0  0  0
   15.7290    4.3610   -4.7150 C   0  0  0  0  0
   16.0770    5.3490   -3.5900 C   0  0  0  0  0
   15.6470    4.7350   -2.2470 C   0  0  0  0  0
   14.1310    4.4530   -2.2070 C   0  0  0  0  0
   13.6350    3.6980   -3.4520 C   0  0  0  0  0
   16.1200    5.6320   -1.0820 C   0  0  0  0  0
   15.3450    6.8570   -0.8070 N   0  0  0  0  0
   14.3870    7.4690   -1.5650 C   0  0  0  0  0
   13.9330    8.5270   -0.9580 N   0  0  0  0  0
   14.5610    8.6670    0.2440 C   0  0  0  0  0
   15.4670    7.6050    0.3520 C   0  0  0  0  0
   16.2610    7.4850    1.4840 C   0  0  0  0  0
   16.1540    8.3950    2.4990 C   0  0  0  0  0
   15.2810    9.4850    2.3840 C   0  0  0  0  0
   14.4490    9.6000    1.2740 C   0  0  0  0  0
   15.0810   10.4000    3.5190 C   0  0  0  0  0
   14.5470   11.4870    3.4100 O   0  0  0  0  0
   15.4070    9.8340    4.7060 N   0  0  0  0  0
   15.1960   10.2940    6.0060 C   0  0  0  0  0
   15.9540    9.7970    7.0720 C   0  0  0  0  0
   15.6100   10.2340    8.3420 C   0  0  0  0  0
   14.5290   11.0810    8.5230 C   0  0  0  0  0
   13.8050   11.4980    7.4990 N   0  0  0  0  0
   14.0930   11.1150    6.2730 C   0  0  0  0  0
    8.2160    3.9857   -5.8346 H   0  0  0  0  0
    9.5931    2.3851   -7.0969 H   0  0  0  0  0
   12.0627    2.6214   -7.1152 H   0  0  0  0  0
   11.7184    6.0574   -4.5239 H   0  0  0  0  0
    9.2525    5.8233   -4.5357 H   0  0  0  0  0
   16.0653    4.7379   -5.6809 H   0  0  0  0  0
   16.2291    3.4048   -4.5609 H   0  0  0  0  0
   15.5556    6.2927   -3.7505 H   0  0  0  0  0
   17.1499    5.5411   -3.5836 H   0  0  0  0  0
   16.1303    3.7646   -2.1338 H   0  0  0  0  0
   13.6131    5.4113   -2.1681 H   0  0  0  0  0
   13.9291    3.8304   -1.3354 H   0  0  0  0  0
   13.8965    2.6460   -3.3375 H   0  0  0  0  0
   12.5584    3.8477   -3.5332 H   0  0  0  0  0
   17.1175    5.9723   -1.3602 H   0  0  0  0  0
   16.0289    5.0197   -0.1848 H   0  0  0  0  0
   14.0502    7.1201   -2.5412 H   0  0  0  0  0
   16.9721    6.6628    1.5642 H   0  0  0  0  0
   16.7511    8.2718    3.4025 H   0  0  0  0  0
   13.7202   10.4081    1.2109 H   0  0  0  0  0
   15.8796    8.9326    4.6388 H   0  0  0  0  0
   16.7760    9.0993    6.9115 H   0  0  0  0  0
   16.1937    9.9091    9.2033 H   0  0  0  0  0
   14.2705   11.4100    9.5295 H   0  0  0  0  0
   13.4601   11.4435    5.4486 H   0  0  0  0  0
  1  2  4  0  0  0
  1  6  4  0  0  0
  2  3  4  0  0  0
  3  4  4  0  0  0
  4  5  4  0  0  0
  4  7  1  0  0  0
  5  6  4  0  0  0
  7  8  2  0  0  0
  7  9  1  0  0  0
  9 10  1  0  0  0
  9 14  1  0  0  0
 10 11  1  0  0  0
 11 12  1  0  0  0
 12 13  1  0  0  0
 12 15  1  0  0  0
 13 14  1  0  0  0
 15 16  1  0  0  0
 16 17  4  0  0  0
 16 20  4  0  0  0
 17 18  4  0  0  0
 18 19  4  0  0  0
 19 20  4  0  0  0
 19 24  4  0  0  0
 20 21  4  0  0  0
 21 22  4  0  0  0
 22 23  4  0  0  0
 23 24  4  0  0  0
 23 25  1  0  0  0
 25 26  2  0  0  0
 25 27  1  0  0  0
 27 28  1  0  0  0
 28 29  4  0  0  0
 28 33  4  0  0  0
 29 30  4  0  0  0
 30 31  4  0  0  0
 31 32  4  0  0  0
 32 33  4  0  0  0
  1 34  1  0  0  0
  2 35  1  0  0  0
  3 36  1  0  0  0
  5 37  1  0  0  0
  6 38  1  0  0  0
 10 39  1  0  0  0
 10 40  1  0  0  0
 11 41  1  0  0  0
 11 42  1  0  0  0
 12 43  1  0  0  0
 13 44  1  0  0  0
 13 45  1  0  0  0
 14 46  1  0  0  0
 14 47  1  0  0  0
 15 48  1  0  0  0
 15 49  1  0  0  0
 17 50  1  0  0  0
 21 51  1  0  0  0
 22 52  1  0  0  0
 24 53  1  0  0  0
 27 54  1  0  0  0
 29 55  1  0  0  0
 30 56  1  0  0  0
 31 57  1  0  0  0
 33 58  1  0  0  0
M  END
$$$$
