1g3f_ligand
  -I-interpret- 

139139  0  0  0  0  0  0  0  0999 V2000
   -7.2600   -9.8710    2.0050 N   0  3  0  0  0
   -5.9270  -10.2820    2.5150 C   0  0  0  0  0
   -5.9630  -10.5090    4.0220 C   0  0  0  0  0
   -6.5500   -9.7210    4.7650 O   0  0  0  0  0
   -4.8820   -9.2340    2.1660 C   0  0  0  0  0
   -5.3320  -11.5900    4.4670 N   0  0  0  0  0
   -5.2920  -11.9200    5.8850 C   0  0  0  0  0
   -4.0830  -11.2820    6.5640 C   0  0  0  0  0
   -3.0380  -11.0920    5.9400 O   0  0  0  0  0
   -5.2600  -13.4470    6.1080 C   0  0  0  0  0
   -6.4770  -14.1010    5.4720 C   0  0  0  0  0
   -3.9790  -14.0580    5.5550 C   0  0  0  0  0
   -4.2110  -10.9400    7.8550 N   0  0  0  0  0
   -3.1250  -10.3180    8.6200 C   0  0  0  0  0
   -2.0130  -11.3040    8.9590 C   0  0  0  0  0
   -2.2410  -12.2980    9.6490 O   0  0  0  0  0
   -3.8230   -9.8400    9.8940 C   0  0  0  0  0
   -4.9800  -10.7640   10.0590 C   0  0  0  0  0
   -5.4250  -11.1310    8.6690 C   0  0  0  0  0
   -0.8080  -11.0220    8.4710 N   0  0  0  0  0
    0.3410  -11.8850    8.7240 C   0  0  0  0  0
    0.4420  -12.2430   10.2040 C   0  0  0  0  0
    0.0280  -13.3250   10.6160 O   0  0  0  0  0
    1.6550  -11.2190    8.2710 C   0  0  0  0  0
    1.7630  -11.2380    6.7450 C   0  0  0  0  0
    2.8490  -11.9200    8.9020 C   0  0  0  0  0
    3.0030  -10.5480    6.2180 C   0  0  0  0  0
    0.9900  -11.3250   10.9990 N   0  0  0  0  0
    1.1420  -11.5410   12.4350 C   0  0  0  0  0
    2.0140  -12.7610   12.7270 C   0  0  0  0  0
    3.2120  -12.6290   12.9760 O   0  0  0  0  0
   -0.2220  -11.6850   13.0950 C   0  0  0  0  0
    1.4070  -13.9460   12.6940 N   0  0  0  0  0
    2.1280  -15.1870   12.9550 C   0  0  0  0  0
    2.6910  -15.2040   14.3760 C   0  0  0  0  0
    2.0780  -15.7720   15.2770 O   0  0  0  0  0
    3.2500  -15.3810   11.9310 C   0  0  0  0  0
    4.1770  -16.5400   12.2570 C   0  0  0  0  0
    5.5910  -16.0880   12.5650 C   0  0  0  0  0
    6.1990  -15.3450   11.7940 O   0  0  0  0  0
    6.1210  -16.5350   13.6970 N   0  0  0  0  0
    3.8540  -14.5700   14.5620 N   0  0  0  0  0
    4.5170  -14.4940   15.8680 C   0  0  0  0  0
    4.4320  -15.8190   16.6360 C   0  0  0  0  0
    5.3030  -16.6760   16.4920 O   0  0  0  0  0
    3.9370  -13.3440   16.7020 C   0  0  0  0  0
    2.5650  -12.8810   16.2390 C   0  0  0  0  0
    2.0350  -11.7510   17.1060 C   0  0  0  0  0
    0.5800  -11.9770   17.4840 C   0  0  0  0  0
    0.4480  -12.7280   18.7620 N   0  3  0  0  0
    3.3870  -15.9890   17.4490 N   0  0  0  0  0
    3.2160  -17.2140   18.2220 C   0  0  0  0  0
    1.7570  -17.4030   18.6260 C   0  0  0  0  0
    1.3000  -16.8350   19.6180 O   0  0  0  0  0
    4.1030  -17.1810   19.4680 C   0  0  0  0  0
    5.3130  -16.4890   19.2160 O   0  0  0  0  0
    1.0320  -18.2040   17.8520 N   0  0  0  0  0
   -0.3760  -18.4670   18.1320 C   0  0  0  0  0
   -0.7310  -19.9180   17.8200 C   0  0  0  0  0
   -1.4130  -20.5510   18.6530 O   0  0  0  0  0
   -1.2650  -17.5260   17.3170 C   0  0  0  0  0
   -2.0100  -16.5080   18.1640 C   0  0  0  0  0
   -2.6410  -15.4080   17.3320 C   0  0  0  0  0
   -3.3690  -15.7340   16.3710 O   0  0  0  0  0
   -2.4080  -14.2210   17.6430 O   0  0  0  0  0
   -0.3240  -20.4080   16.7460 O   0  0  0  0  0
   -7.9494  -10.5829    2.2465 H   0  0  0  0  0
   -7.5253   -8.9817    2.4283 H   0  0  0  0  0
   -7.2176   -9.7671    0.9912 H   0  0  0  0  0
   -5.6575  -11.2233    2.0361 H   0  0  0  0  0
   -5.1300   -8.2960    2.6627 H   0  0  0  0  0
   -3.9019   -9.5750    2.4993 H   0  0  0  0  0
   -4.8677   -9.0824    1.0867 H   0  0  0  0  0
   -4.8644  -12.2035    3.7997 H   0  0  0  0  0
   -6.2028  -11.5202    6.3307 H   0  0  0  0  0
   -5.2833  -13.6305    7.1822 H   0  0  0  0  0
   -7.3829  -13.6947    5.9219 H   0  0  0  0  0
   -6.4790  -13.8979    4.4011 H   0  0  0  0  0
   -6.4382  -15.1775    5.6389 H   0  0  0  0  0
   -3.9165  -13.8610    4.4848 H   0  0  0  0  0
   -3.1198  -13.6145    6.0581 H   0  0  0  0  0
   -3.9872  -15.1342    5.7278 H   0  0  0  0  0
   -2.6345   -9.5221    8.0596 H   0  0  0  0  0
   -4.1401   -8.7998    9.8188 H   0  0  0  0  0
   -3.1569   -9.8634   10.7565 H   0  0  0  0  0
   -5.7864  -10.2885   10.6173 H   0  0  0  0  0
   -4.6978  -11.6497   10.6282 H   0  0  0  0  0
   -5.8109  -12.1487    8.6098 H   0  0  0  0  0
   -6.2591  -10.5204    8.3234 H   0  0  0  0  0
   -0.6842  -10.1818    7.9061 H   0  0  0  0  0
    0.1895  -12.7954    8.1441 H   0  0  0  0  0
    1.6519  -10.1806    8.6023 H   0  0  0  0  0
    0.8986  -10.7050    6.3490 H   0  0  0  0  0
    1.8115  -12.2813    6.4333 H   0  0  0  0  0
    2.7738  -11.8568    9.9876 H   0  0  0  0  0
    2.8570  -12.9665    8.5974 H   0  0  0  0  0
    3.7686  -11.4370    8.5715 H   0  0  0  0  0
    2.9977   -9.5043    6.5321 H   0  0  0  0  0
    3.8892  -11.0436    6.6144 H   0  0  0  0  0
    3.0118  -10.6011    5.1293 H   0  0  0  0  0
    1.3124  -10.4466   10.5930 H   0  0  0  0  0
    1.6443  -10.6694   12.8546 H   0  0  0  0  0
   -0.8015  -10.7765   12.9306 H   0  0  0  0  0
   -0.7466  -12.5358   12.6602 H   0  0  0  0  0
   -0.0913  -11.8454   14.1652 H   0  0  0  0  0
    0.4105  -13.9870   12.4803 H   0  0  0  0  0
    1.4242  -16.0139   12.8598 H   0  0  0  0  0
    3.8514  -14.4719   11.9289 H   0  0  0  0  0
    2.7822  -15.5967   10.9704 H   0  0  0  0  0
    4.2164  -17.1930   11.3852 H   0  0  0  0  0
    3.7860  -17.0433   13.1412 H   0  0  0  0  0
    7.0691  -16.2643   13.9580 H   0  0  0  0  0
    5.5801  -17.1492   14.3058 H   0  0  0  0  0
    4.2986  -14.1203   13.7617 H   0  0  0  0  0
    5.5730  -14.2958   15.6846 H   0  0  0  0  0
    4.6160  -12.4969   16.6039 H   0  0  0  0  0
    3.8298  -13.7061   17.7245 H   0  0  0  0  0
    1.8754  -13.7222   16.3095 H   0  0  0  0  0
    2.6511  -12.5184   15.2147 H   0  0  0  0  0
    2.1057  -10.8204   16.5428 H   0  0  0  0  0
    2.6274  -11.7090   18.0200 H   0  0  0  0  0
    0.1088  -12.5619   16.6940 H   0  0  0  0  0
    0.1046  -11.0041   17.6090 H   0  0  0  0  0
   -0.5403  -12.8577   18.9782 H   0  0  0  0  0
    0.8991  -13.6380   18.6683 H   0  0  0  0  0
    0.8951  -12.2012   19.5123 H   0  0  0  0  0
    2.6930  -15.2461   17.5314 H   0  0  0  0  0
    3.5118  -18.0554   17.5954 H   0  0  0  0  0
    4.3408  -18.2057   19.7535 H   0  0  0  0  0
    3.5661  -16.6653   20.2642 H   0  0  0  0  0
    5.8490  -16.4835   20.0124 H   0  0  0  0  0
    1.4699  -18.6453   17.0433 H   0  0  0  0  0
   -0.5485  -18.2894   19.1935 H   0  0  0  0  0
   -1.6133  -19.9818   19.3996 H   0  0  0  0  0
   -2.0109  -18.1382   16.8102 H   0  0  0  0  0
   -0.6181  -16.9736   16.6355 H   0  0  0  0  0
   -1.2925  -16.0462   18.8423 H   0  0  0  0  0
   -2.8085  -17.0300   18.6913 H   0  0  0  0  0
   -1.8281  -14.1997   18.4078 H   0  0  0  0  0
  1  2  1  0  0  0
  2  3  1  0  0  0
  2  5  1  0  0  0
  3  4  2  0  0  0
  3  6  1  0  0  0
  6  7  1  0  0  0
  7  8  1  0  0  0
  7 10  1  0  0  0
  8  9  2  0  0  0
  8 13  1  0  0  0
 10 11  1  0  0  0
 10 12  1  0  0  0
 13 14  1  0  0  0
 13 19  1  0  0  0
 14 15  1  0  0  0
 14 17  1  0  0  0
 15 16  2  0  0  0
 15 20  1  0  0  0
 17 18  1  0  0  0
 18 19  1  0  0  0
 20 21  1  0  0  0
 21 22  1  0  0  0
 21 24  1  0  0  0
 22 23  2  0  0  0
 22 28  1  0  0  0
 24 25  1  0  0  0
 24 26  1  0  0  0
 25 27  1  0  0  0
 28 29  1  0  0  0
 29 30  1  0  0  0
 29 32  1  0  0  0
 30 31  2  0  0  0
 30 33  1  0  0  0
 33 34  1  0  0  0
 34 35  1  0  0  0
 34 37  1  0  0  0
 35 36  2  0  0  0
 35 42  1  0  0  0
 37 38  1  0  0  0
 38 39  1  0  0  0
 39 40  2  0  0  0
 39 41  1  0  0  0
 42 43  1  0  0  0
 43 44  1  0  0  0
 43 46  1  0  0  0
 44 45  2  0  0  0
 44 51  1  0  0  0
 46 47  1  0  0  0
 47 48  1  0  0  0
 48 49  1  0  0  0
 49 50  1  0  0  0
 51 52  1  0  0  0
 52 53  1  0  0  0
 52 55  1  0  0  0
 53 54  2  0  0  0
 53 57  1  0  0  0
 55 56  1  0  0  0
 57 58  1  0  0  0
 58 59  1  0  0  0
 58 61  1  0  0  0
 59 60  1  0  0  0
 59 66  2  0  0  0
 61 62  1  0  0  0
 62 63  1  0  0  0
 63 64  2  0  0  0
 63 65  1  0  0  0
  1 67  1  0  0  0
  1 68  1  0  0  0
  1 69  1  0  0  0
  2 70  1  0  0  0
  5 71  1  0  0  0
  5 72  1  0  0  0
  5 73  1  0  0  0
  6 74  1  0  0  0
  7 75  1  0  0  0
 10 76  1  0  0  0
 11 77  1  0  0  0
 11 78  1  0  0  0
 11 79  1  0  0  0
 12 80  1  0  0  0
 12 81  1  0  0  0
 12 82  1  0  0  0
 14 83  1  0  0  0
 17 84  1  0  0  0
 17 85  1  0  0  0
 18 86  1  0  0  0
 18 87  1  0  0  0
 19 88  1  0  0  0
 19 89  1  0  0  0
 20 90  1  0  0  0
 21 91  1  0  0  0
 24 92  1  0  0  0
 25 93  1  0  0  0
 25 94  1  0  0  0
 26 95  1  0  0  0
 26 96  1  0  0  0
 26 97  1  0  0  0
 27 98  1  0  0  0
 27 99  1  0  0  0
 27100  1  0  0  0
 28101  1  0  0  0
 29102  1  0  0  0
 32103  1  0  0  0
 32104  1  0  0  0
 32105  1  0  0  0
 33106  1  0  0  0
 34107  1  0  0  0
 37108  1  0  0  0
 37109  1  0  0  0
 38110  1  0  0  0
 38111  1  0  0  0
 41112  1  0  0  0
 41113  1  0  0  0
 42114  1  0  0  0
 43115  1  0  0  0
 46116  1  0  0  0
 46117  1  0  0  0
 47118  1  0  0  0
 47119  1  0  0  0
 48120  1  0  0  0
 48121  1  0  0  0
 49122  1  0  0  0
 49123  1  0  0  0
 50124  1  0  0  0
 50125  1  0  0  0
 50126  1  0  0  0
 51127  1  0  0  0
 52128  1  0  0  0
 55129  1  0  0  0
 55130  1  0  0  0
 56131  1  0  0  0
 57132  1  0  0  0
 58133  1  0  0  0
 60134  1  0  0  0
 61135  1  0  0  0
 61136  1  0  0  0
 62137  1  0  0  0
 62138  1  0  0  0
 65139  1  0  0  0
M  END
$$$$
