### 
### Created by X-TOOL on Mon Sep 10 21:12:48 2018
### 

@<TRIPOS>MOLECULE
1g3f_ligand
  137   137     1     0     0
SMALL
GAST_HUCK


@<TRIPOS>ATOM
      1 N          -7.2600   -9.8710    2.0050 N.4       1 ALA         0.2377
      2 CA         -5.9270  -10.2820    2.5150 C.3       1 ALA         0.0621
      3 C          -5.9630  -10.5090    4.0220 C.2       1 ALA         0.2264
      4 O          -6.5500   -9.7210    4.7650 O.2       1 ALA        -0.3907
      5 CB         -4.8820   -9.2340    2.1660 C.3       1 ALA        -0.0040
      6 H1         -7.2089   -9.7277    1.0085 H         1 ALA         0.2015
      7 H2         -7.5417   -9.0135    2.4537 H         1 ALA         0.2015
      8 H3         -7.9341  -10.5929    2.2065 H         1 ALA         0.2015
      9 H4         -5.6476  -11.2284    2.0290 H         1 ALA         0.1095
     10 H5         -3.9014   -9.5520    2.5498 H         1 ALA         0.0310
     11 H6         -5.1601   -8.2726    2.6225 H         1 ALA         0.0310
     12 H7         -4.8284   -9.1192    1.0733 H         1 ALA         0.0310
     13 N          -5.3320  -11.5900    4.4670 N.am      1 VAL        -0.2608
     14 CA         -5.2920  -11.9200    5.8850 C.3       1 VAL         0.1336
     15 C          -4.0830  -11.2820    6.5640 C.2       1 VAL         0.2067
     16 O          -3.0380  -11.0920    5.9400 O.2       1 VAL        -0.3942
     17 CB         -5.2600  -13.4470    6.1080 C.3       1 VAL        -0.0062
     18 CG1        -6.4770  -14.1010    5.4720 C.3       1 VAL        -0.0584
     19 CG2        -3.9790  -14.0580    5.5550 C.3       1 VAL        -0.0584
     20 H8         -4.8735  -12.1915    3.8128 H         1 VAL         0.1885
     21 H9         -6.2040  -11.5209    6.3530 H         1 VAL         0.0803
     22 H10        -5.2912  -13.6367    7.1911 H         1 VAL         0.0343
     23 H11        -6.4390  -15.1875    5.6397 H         1 VAL         0.0234
     24 H12        -6.4802  -13.8968    4.3911 H         1 VAL         0.0234
     25 H13        -7.3920  -13.6919    5.9252 H         1 VAL         0.0234
     26 H14        -3.1097  -13.5745    6.0247 H         1 VAL         0.0234
     27 H15        -3.9399  -13.9050    4.4664 H         1 VAL         0.0234
     28 H16        -3.9622  -15.1357    5.7746 H         1 VAL         0.0234
     29 N          -4.2110  -10.9400    7.8550 N.am      1 PRO        -0.2498
     30 CA         -3.1250  -10.3180    8.6200 C.3       1 PRO         0.1338
     31 C          -2.0130  -11.3040    8.9590 C.2       1 PRO         0.2041
     32 O          -2.2410  -12.2980    9.6490 O.2       1 PRO        -0.3944
     33 CB         -3.8230   -9.8400    9.8940 C.3       1 PRO        -0.0104
     34 CG         -4.9800  -10.7640   10.0590 C.3       1 PRO        -0.0281
     35 CD         -5.4250  -11.1310    8.6690 C.3       1 PRO         0.0369
     36 H17        -2.6978   -9.4704    8.0641 H         1 PRO         0.0802
     37 H18        -4.1685   -8.8018    9.7812 H         1 PRO         0.0313
     38 H19        -3.1449   -9.9091   10.7574 H         1 PRO         0.0313
     39 H20        -5.7952  -10.2616   10.6002 H         1 PRO         0.0287
     40 H21        -4.6733  -11.6644   10.6115 H         1 PRO         0.0287
     41 H22        -5.7646  -12.1765    8.6285 H         1 PRO         0.0524
     42 H23        -6.2346  -10.4690    8.3282 H         1 PRO         0.0524
     43 N          -0.8080  -11.0220    8.4710 N.am      1 ILE        -0.2635
     44 CA          0.3410  -11.8850    8.7240 C.3       1 ILE         0.1335
     45 C           0.4420  -12.2430   10.2040 C.2       1 ILE         0.2041
     46 O           0.0280  -13.3250   10.6160 O.2       1 ILE        -0.3944
     47 CB          1.6550  -11.2190    8.2710 C.3       1 ILE        -0.0037
     48 CG1         1.7630  -11.2380    6.7450 C.3       1 ILE        -0.0491
     49 CG2         2.8490  -11.9200    8.9020 C.3       1 ILE        -0.0582
     50 CD1         3.0030  -10.5480    6.2180 C.3       1 ILE        -0.0648
     51 H24        -0.6867  -10.1983    7.9171 H         1 ILE         0.1883
     52 H25         0.2048  -12.8126    8.1488 H         1 ILE         0.0803
     53 H26         1.6492  -10.1715    8.6065 H         1 ILE         0.0345
     54 H27         0.8796  -10.7329    6.3272 H         1 ILE         0.0267
     55 H28         1.7789  -12.2857    6.4102 H         1 ILE         0.0267
     56 H29         2.7519  -11.8952    9.9974 H         1 ILE         0.0235
     57 H30         3.7751  -11.4065    8.6043 H         1 ILE         0.0235
     58 H31         2.8832  -12.9651    8.5606 H         1 ILE         0.0235
     59 H32         3.0131  -10.6009    5.1193 H         1 ILE         0.0230
     60 H33         3.8982  -11.0472    6.6173 H         1 ILE         0.0230
     61 H34         2.9989   -9.4945    6.5343 H         1 ILE         0.0230
     62 N           0.9900  -11.3250   10.9990 N.am      1 ALA        -0.2640
     63 CA          1.1420  -11.5410   12.4350 C.3       1 ALA         0.1282
     64 C           2.0140  -12.7610   12.7270 C.2       1 ALA         0.2036
     65 O           3.2120  -12.6290   12.9760 O.2       1 ALA        -0.3944
     66 CB         -0.2220  -11.6850   13.0950 C.3       1 ALA        -0.0244
     67 H35         1.3061  -10.4638   10.6010 H         1 ALA         0.1883
     68 H36         1.6392  -10.6577   12.8622 H         1 ALA         0.0797
     69 H37        -0.0914  -11.8470   14.1751 H         1 ALA         0.0277
     70 H38        -0.7525  -12.5434   12.6571 H         1 ALA         0.0277
     71 H39        -0.8078  -10.7688   12.9299 H         1 ALA         0.0277
     72 N           1.4070  -13.9460   12.6940 N.am      1 GLN        -0.2636
     73 CA          2.1280  -15.1870   12.9550 C.3       1 GLN         0.1330
     74 C           2.6910  -15.2040   14.3760 C.2       1 GLN         0.2040
     75 O           2.0780  -15.7720   15.2770 O.2       1 GLN        -0.3944
     76 CB          3.2500  -15.3810   11.9310 C.3       1 GLN         0.0045
     77 CG          4.1770  -16.5400   12.2570 C.3       1 GLN         0.0412
     78 CD          5.5910  -16.0880   12.5650 C.2       1 GLN         0.1737
     79 OE1         6.1990  -15.3450   11.7940 O.2       1 GLN        -0.3973
     80 NE2         6.1210  -16.5350   13.6970 N.am      1 GLN        -0.3009
     81 H40         0.4300  -13.9862   12.4845 H         1 GLN         0.1883
     82 H41         1.4206  -16.0234   12.8552 H         1 GLN         0.0801
     83 H42         3.8476  -14.4584   11.8908 H         1 GLN         0.0337
     84 H43         2.7946  -15.5661   10.9469 H         1 GLN         0.0337
     85 H44         4.2054  -17.2217   11.3942 H         1 GLN         0.0504
     86 H45         3.7792  -17.0735   13.1329 H         1 GLN         0.0504
     87 H46         7.0507  -16.2700   13.9527 H         1 GLN         0.1814
     88 H47         5.5905  -17.1367   14.2941 H         1 GLN         0.1814
     89 N           3.8540  -14.5700   14.5620 N.am      1 LYS        -0.2637
     90 CA          4.5170  -14.4940   15.8680 C.3       1 LYS         0.1310
     91 C           4.4320  -15.8190   16.6360 C.2       1 LYS         0.2040
     92 O           5.3030  -16.6760   16.4920 O.2       1 LYS        -0.3944
     93 CB          3.9370  -13.3440   16.7020 C.3       1 LYS        -0.0122
     94 CG          2.5650  -12.8810   16.2390 C.3       1 LYS        -0.0440
     95 CD          2.0350  -11.7510   17.1060 C.3       1 LYS        -0.0124
     96 CE          0.5800  -11.9770   17.4840 C.3       1 LYS        -0.0354
     97 NZ          0.4480  -12.7280   18.7620 N.4       1 LYS         0.2185
     98 H48         4.2899  -14.1292   13.7773 H         1 LYS         0.1883
     99 H49         5.5811  -14.2798   15.6900 H         1 LYS         0.0800
    100 H50         4.6286  -12.4906   16.6442 H         1 LYS         0.0312
    101 H51         3.8554  -13.6798   17.7463 H         1 LYS         0.0312
    102 H52         1.8658  -13.7286   16.2904 H         1 LYS         0.0269
    103 H53         2.6388  -12.5290   15.1995 H         1 LYS         0.0269
    104 H54         2.1176  -10.8050   16.5508 H         1 LYS         0.0317
    105 H55         2.6380  -11.6913   18.0240 H         1 LYS         0.0317
    106 H56         0.0894  -12.5495   16.6830 H         1 LYS         0.0813
    107 H57         0.0852  -11.0006   17.5928 H         1 LYS         0.0813
    108 H58        -0.5284  -12.8568   18.9767 H         1 LYS         0.1994
    109 H59         0.8895  -12.2083   19.5043 H         1 LYS         0.1994
    110 H60         0.8934  -13.6276   18.6706 H         1 LYS         0.1994
    111 N           3.3870  -15.9890   17.4490 N.am      1 SER        -0.2616
    112 CA          3.2160  -17.2140   18.2220 C.3       1 SER         0.1539
    113 C           1.7570  -17.4030   18.6260 C.2       1 SER         0.2056
    114 O           1.3000  -16.8350   19.6180 O.2       1 SER        -0.3943
    115 CB          4.1030  -17.1810   19.4680 C.3       1 SER         0.0843
    116 OG          5.3130  -16.4890   19.2160 O.3       1 SER        -0.3903
    117 H61         2.7066  -15.2606   17.5298 H         1 SER         0.1884
    118 H62         3.5190  -18.0665   17.5964 H         1 SER         0.0823
    119 H63         4.3358  -18.2127   19.7704 H         1 SER         0.0606
    120 H64         3.5620  -16.6739   20.2805 H         1 SER         0.0606
    121 H65         5.7864  -16.9253   18.5174 H         1 SER         0.2097
    122 N           1.0320  -18.2040   17.8520 N.am      1 GLU        -0.2693
    123 CA         -0.3760  -18.4670   18.1320 C.3       1 GLU         0.0959
    124 C          -0.7310  -19.9180   17.8200 C.2       1 GLU         0.0602
    125 O          -1.4130  -20.5510   18.6530 O.co2     1 GLU        -0.5666
    126 CB         -1.2650  -17.5260   17.3170 C.3       1 GLU        -0.0064
    127 CG         -2.0100  -16.5080   18.1640 C.3       1 GLU         0.0038
    128 CD         -2.6410  -15.4080   17.3320 C.2       1 GLU         0.0350
    129 OE1        -3.3690  -15.7340   16.3710 O.co2     1 GLU        -0.5690
    130 OE2        -2.4080  -14.2210   17.6430 O.co2     1 GLU        -0.5690
    131 OXT        -0.3240  -20.4080   16.7460 O.co2     1 GLU        -0.5666
    132 H66         1.4613  -18.6366   17.0592 H         1 GLU         0.1875
    133 H67        -0.5583  -18.2846   19.2013 H         1 GLU         0.0727
    134 H68        -2.0036  -18.1312   16.7709 H         1 GLU         0.0323
    135 H69        -0.6318  -16.9843   16.5989 H         1 GLU         0.0323
    136 H70        -1.3017  -16.0524   18.8716 H         1 GLU         0.0432
    137 H71        -2.8033  -17.0268   18.7221 H         1 GLU         0.0432
@<TRIPOS>BOND
     1    1    2 1  
     2    1    6 1  
     3    1    7 1  
     4    1    8 1  
     5    2    3 1  
     6    2    5 1  
     7    2    9 1  
     8    3    4 2  
     9    3   13 am 
    10    5   10 1  
    11    5   11 1  
    12    5   12 1  
    13   13   14 1  
    14   13   20 1  
    15   14   15 1  
    16   14   17 1  
    17   14   21 1  
    18   15   16 2  
    19   15   29 am 
    20   17   18 1  
    21   17   19 1  
    22   17   22 1  
    23   18   23 1  
    24   18   24 1  
    25   18   25 1  
    26   19   26 1  
    27   19   27 1  
    28   19   28 1  
    29   29   30 1  
    30   29   35 1  
    31   30   31 1  
    32   30   33 1  
    33   30   36 1  
    34   31   32 2  
    35   31   43 am 
    36   33   34 1  
    37   33   37 1  
    38   33   38 1  
    39   34   35 1  
    40   34   39 1  
    41   34   40 1  
    42   35   41 1  
    43   35   42 1  
    44   43   44 1  
    45   43   51 1  
    46   44   45 1  
    47   44   47 1  
    48   44   52 1  
    49   45   46 2  
    50   45   62 am 
    51   47   48 1  
    52   47   49 1  
    53   47   53 1  
    54   48   50 1  
    55   48   54 1  
    56   48   55 1  
    57   49   56 1  
    58   49   57 1  
    59   49   58 1  
    60   50   59 1  
    61   50   60 1  
    62   50   61 1  
    63   62   63 1  
    64   62   67 1  
    65   63   64 1  
    66   63   66 1  
    67   63   68 1  
    68   64   65 2  
    69   64   72 am 
    70   66   69 1  
    71   66   70 1  
    72   66   71 1  
    73   72   73 1  
    74   72   81 1  
    75   73   74 1  
    76   73   76 1  
    77   73   82 1  
    78   74   75 2  
    79   74   89 am 
    80   76   77 1  
    81   76   83 1  
    82   76   84 1  
    83   77   78 1  
    84   77   85 1  
    85   77   86 1  
    86   78   79 2  
    87   78   80 am 
    88   80   87 1  
    89   80   88 1  
    90   89   90 1  
    91   89   98 1  
    92   90   91 1  
    93   90   93 1  
    94   90   99 1  
    95   91   92 2  
    96   91  111 am 
    97   93   94 1  
    98   93  100 1  
    99   93  101 1  
   100   94   95 1  
   101   94  102 1  
   102   94  103 1  
   103   95   96 1  
   104   95  104 1  
   105   95  105 1  
   106   96   97 1  
   107   96  106 1  
   108   96  107 1  
   109   97  108 1  
   110   97  109 1  
   111   97  110 1  
   112  111  112 1  
   113  111  117 1  
   114  112  113 1  
   115  112  115 1  
   116  112  118 1  
   117  113  114 2  
   118  113  122 am 
   119  115  116 1  
   120  115  119 1  
   121  115  120 1  
   122  116  121 1  
   123  122  123 1  
   124  122  132 1  
   125  123  124 1  
   126  123  126 1  
   127  123  133 1  
   128  124  125 ar 
   129  124  131 ar 
   130  126  127 1  
   131  126  134 1  
   132  126  135 1  
   133  127  128 1  
   134  127  136 1  
   135  127  137 1  
   136  128  129 ar 
   137  128  130 ar 
@<TRIPOS>SUBSTRUCTURE
     1 ALA         1

