2zq2_ligand
  -I-interpret- 

 66 68  0  0  0  0  0  0  0  0999 V2000
   18.1440   -9.2160   12.0880 C   0  0  0  0  0
   18.2090   -8.3550   11.1860 O   0  0  0  0  0
   19.1360  -10.3680   12.3490 C   0  0  0  0  0
   19.6170  -11.1920   11.2710 N   0  3  0  0  0
   18.9480  -12.3840   10.7680 C   0  0  0  0  0
   17.4640  -12.2730   11.0760 C   0  0  0  0  0
   16.4050  -12.6450   10.0700 C   0  0  0  0  0
   15.8690  -13.9960    9.6210 C   0  0  0  0  0
   16.7480  -14.8180    8.6800 C   0  0  0  0  0
   18.1820  -14.8970    9.1880 C   0  0  0  0  0
   19.2410  -13.9450    8.6070 C   0  0  0  0  0
   19.5170  -12.6340    9.3730 C   0  0  0  0  0
   17.0770   -9.1690   12.9290 N   0  0  0  0  0
   16.1240   -8.1230   12.8880 C   0  0  0  0  0
   16.6770   -6.7160   12.8730 C   0  0  0  0  0
   17.6510   -6.4370   13.5740 O   0  0  0  0  0
   15.2700   -8.3010   14.1440 C   0  0  0  0  0
   15.6350   -9.6200   14.8050 C   0  0  0  0  0
   16.9800   -9.9810   14.1930 C   0  0  0  0  0
   16.0940   -5.8290   12.1060 N   0  0  0  0  0
   16.4830   -4.4560   12.0400 C   0  0  0  0  0
   17.1400   -4.2180   10.7210 C   0  0  0  0  0
   18.2830   -4.9340   10.3640 C   0  0  0  0  0
   18.8740   -4.7050    9.1490 C   0  0  0  0  0
   18.3670   -3.7720    8.2440 C   0  0  0  0  0
   19.0080   -3.5050    6.8910 C   0  0  0  0  0
   18.1940   -3.1330    5.9020 N   0  0  0  0  0
   20.3180   -3.6390    6.7170 N   0  0  0  0  0
   17.2220   -3.0650    8.6120 C   0  0  0  0  0
   16.6200   -3.2920    9.8430 C   0  0  0  0  0
   18.5778  -11.0590   12.9806 H   0  0  0  0  0
   20.0310   -9.8671   12.7180 H   0  0  0  0  0
   20.4802  -11.5739   11.6576 H   0  0  0  0  0
   19.5631  -10.5592   10.4728 H   0  0  0  0  0
   19.1386  -13.3431   11.2496 H   0  0  0  0  0
   17.3133  -11.2032   11.2206 H   0  0  0  0  0
   17.3161  -12.9942   11.8798 H   0  0  0  0  0
   16.9051  -12.3324    9.1533 H   0  0  0  0  0
   15.5231  -12.2585   10.5809 H   0  0  0  0  0
   14.9573  -13.7822    9.0631 H   0  0  0  0  0
   15.7694  -14.5914   10.5286 H   0  0  0  0  0
   16.7529  -14.3371    7.7018 H   0  0  0  0  0
   16.3443  -15.8289    8.6233 H   0  0  0  0  0
   18.5214  -15.8943    8.9082 H   0  0  0  0  0
   18.1181  -14.6309   10.2431 H   0  0  0  0  0
   18.8591  -13.6407    7.6325 H   0  0  0  0  0
   20.1786  -14.5005    8.6287 H   0  0  0  0  0
   20.5951  -12.6501    9.5327 H   0  0  0  0  0
   19.0399  -11.8704    8.7587 H   0  0  0  0  0
   15.5846   -8.2076   11.9446 H   0  0  0  0  0
   14.2140   -8.3041   13.8740 H   0  0  0  0  0
   15.4555   -7.4788   14.8352 H   0  0  0  0  0
   14.8832  -10.3900   14.6319 H   0  0  0  0  0
   15.6848   -9.5373   15.8907 H   0  0  0  0  0
   17.8014   -9.7594   14.8743 H   0  0  0  0  0
   17.0521  -11.0492   13.9883 H   0  0  0  0  0
   15.3167   -6.1364   11.5215 H   0  0  0  0  0
   17.1749   -4.2241   12.8496 H   0  0  0  0  0
   15.6081   -3.8141   12.1432 H   0  0  0  0  0
   18.7036   -5.6714   11.0477 H   0  0  0  0  0
   19.7675   -5.2690    8.8814 H   0  0  0  0  0
   18.5728   -2.9409    4.9746 H   0  0  0  0  0
   17.1927   -3.0406    6.0731 H   0  0  0  0  0
   20.9095   -3.9248    7.4973 H   0  0  0  0  0
   16.7970   -2.3296    7.9289 H   0  0  0  0  0
   15.7264   -2.7315   10.1175 H   0  0  0  0  0
  1  2  2  0  0  0
  1  3  1  0  0  0
  1 13  1  0  0  0
  3  4  1  0  0  0
  4  5  1  0  0  0
  5  6  1  0  0  0
  5 12  1  0  0  0
  6  7  1  0  0  0
  7  8  1  0  0  0
  8  9  1  0  0  0
  9 10  1  0  0  0
 10 11  1  0  0  0
 11 12  1  0  0  0
 13 14  1  0  0  0
 13 19  1  0  0  0
 14 15  1  0  0  0
 14 17  1  0  0  0
 15 16  2  0  0  0
 15 20  1  0  0  0
 17 18  1  0  0  0
 18 19  1  0  0  0
 20 21  1  0  0  0
 21 22  1  0  0  0
 22 23  4  0  0  0
 22 30  4  0  0  0
 23 24  4  0  0  0
 24 25  4  0  0  0
 25 26  1  0  0  0
 25 29  4  0  0  0
 26 27  1  0  0  0
 26 28  2  0  0  0
 29 30  4  0  0  0
  3 31  1  0  0  0
  3 32  1  0  0  0
  4 33  1  0  0  0
  4 34  1  0  0  0
  5 35  1  0  0  0
  6 36  1  0  0  0
  6 37  1  0  0  0
  7 38  1  0  0  0
  7 39  1  0  0  0
  8 40  1  0  0  0
  8 41  1  0  0  0
  9 42  1  0  0  0
  9 43  1  0  0  0
 10 44  1  0  0  0
 10 45  1  0  0  0
 11 46  1  0  0  0
 11 47  1  0  0  0
 12 48  1  0  0  0
 12 49  1  0  0  0
 14 50  1  0  0  0
 17 51  1  0  0  0
 17 52  1  0  0  0
 18 53  1  0  0  0
 18 54  1  0  0  0
 19 55  1  0  0  0
 19 56  1  0  0  0
 20 57  1  0  0  0
 21 58  1  0  0  0
 21 59  1  0  0  0
 23 60  1  0  0  0
 24 61  1  0  0  0
 27 62  1  0  0  0
 27 63  1  0  0  0
 28 64  1  0  0  0
 29 65  1  0  0  0
 30 66  1  0  0  0
M  END
$$$$
