6dry_ligand
  -I-interpret- 

 50 53  0  0  0  0  0  0  0  0999 V2000
  -26.3900  -13.0290    8.2180 C   0  0  0  0  0
  -22.6980  -18.0230    9.9270 C   0  0  0  0  0
  -26.1560  -13.5930    9.4750 C   0  0  0  0  0
  -24.6320  -15.1450    8.4390 C   0  0  0  0  0
  -23.7440  -16.9370    7.3970 C   0  0  0  0  0
  -24.3300  -14.9860    6.2170 C   0  0  0  0  0
  -24.8240  -14.1890    5.2690 C   0  0  0  0  0
  -23.7530  -16.2210    8.5980 C   0  0  0  0  0
  -23.4570  -16.8560    9.8110 C   0  0  0  0  0
  -22.7910  -18.7890    6.3110 C   0  0  0  0  0
  -22.9570  -18.7900    8.6420 C   0  0  0  0  0
  -25.6810  -13.3120    5.8280 N   0  0  0  0  0
  -22.7030  -17.9750    7.4550 N   0  3  0  0  0
  -24.9200  -14.5420    7.2950 C   0  0  0  0  0
  -21.8220  -19.6440   11.5680 N   0  0  0  0  0
  -25.7580  -13.5260    7.1520 C   0  0  0  0  0
  -23.4390  -16.0420    6.2000 C   0  0  0  0  0
  -22.9060  -18.9080   11.1470 C   0  0  0  0  0
  -21.8960  -20.3880   12.7960 C   0  0  0  0  0
  -25.2610  -14.6700    9.5900 C   0  0  0  0  0
  -21.6250  -21.8590   12.5640 C   0  0  0  0  0
  -22.8570  -22.5260   11.9570 C   0  0  0  0  0
  -20.8880  -19.8600   13.7840 C   0  0  0  0  0
  -24.1120  -18.9690   11.7610 O   0  0  0  0  0
  -21.3720  -18.6540   14.3400 O   0  0  0  0  0
  -27.0807  -12.1928    8.1090 H   0  0  0  0  0
  -21.6633  -17.7173   10.0818 H   0  0  0  0  0
  -26.6626  -13.2014   10.3571 H   0  0  0  0  0
  -24.7364  -17.3701    7.2718 H   0  0  0  0  0
  -24.5741  -14.2389    4.2092 H   0  0  0  0  0
  -23.8452  -16.4093   10.7263 H   0  0  0  0  0
  -22.0497  -19.5855    6.3755 H   0  0  0  0  0
  -23.7889  -19.2236    6.2518 H   0  0  0  0  0
  -22.6024  -18.1864    5.4225 H   0  0  0  0  0
  -24.0047  -19.0906    8.6305 H   0  0  0  0  0
  -22.2846  -19.6475    8.6162 H   0  0  0  0  0
  -21.7757  -17.5520    7.4951 H   0  0  0  0  0
  -20.9682  -19.6616   11.0102 H   0  0  0  0  0
  -23.5417  -16.6059    5.2729 H   0  0  0  0  0
  -22.4155  -15.6716    6.2584 H   0  0  0  0  0
  -22.9053  -20.2713   13.1908 H   0  0  0  0  0
  -25.0620  -15.1256   10.5600 H   0  0  0  0  0
  -21.3909  -22.3356   13.5159 H   0  0  0  0  0
  -20.7844  -21.9656   11.8783 H   0  0  0  0  0
  -23.7000  -22.4188   12.6396 H   0  0  0  0  0
  -23.0950  -22.0496   11.0059 H   0  0  0  0  0
  -22.6524  -23.5841   11.7937 H   0  0  0  0  0
  -19.9405  -19.6757   13.2776 H   0  0  0  0  0
  -20.7331  -20.5925   14.5762 H   0  0  0  0  0
  -20.7325  -18.3142   14.9702 H   0  0  0  0  0
  3  1  4  0  0  0
  1 16  4  0  0  0
  9  2  1  0  0  0
  2 11  1  0  0  0
  2 18  1  0  0  0
 20  3  4  0  0  0
  8  4  1  0  0  0
  4 14  4  0  0  0
  4 20  4  0  0  0
  8  5  1  0  0  0
  5 13  1  0  0  0
  5 17  1  0  0  0
  6  7  4  0  0  0
 14  6  4  0  0  0
 17  6  1  0  0  0
  7 12  4  0  0  0
  8  9  2  0  0  0
 13 10  1  0  0  0
 11 13  1  0  0  0
 12 16  4  0  0  0
 14 16  4  0  0  0
 18 15  1  0  0  0
 15 19  1  0  0  0
 18 24  2  0  0  0
 19 21  1  0  0  0
 19 23  1  0  0  0
 21 22  1  0  0  0
 23 25  1  0  0  0
  1 26  1  0  0  0
  2 27  1  0  0  0
  3 28  1  0  0  0
  5 29  1  0  0  0
  7 30  1  0  0  0
  9 31  1  0  0  0
 10 32  1  0  0  0
 10 33  1  0  0  0
 10 34  1  0  0  0
 11 35  1  0  0  0
 11 36  1  0  0  0
 13 37  1  0  0  0
 15 38  1  0  0  0
 17 39  1  0  0  0
 17 40  1  0  0  0
 19 41  1  0  0  0
 20 42  1  0  0  0
 21 43  1  0  0  0
 21 44  1  0  0  0
 22 45  1  0  0  0
 22 46  1  0  0  0
 22 47  1  0  0  0
 23 48  1  0  0  0
 23 49  1  0  0  0
 25 50  1  0  0  0
M  END
$$$$
