5f01_ligand
  -I-interpret- 

 44 47  0  0  0  0  0  0  0  0999 V2000
  -15.3640   40.3640    7.4110 C   0  0  0  0  0
  -18.7160   39.6870    7.0340 C   0  0  0  0  0
  -18.7880   38.1930    7.3540 C   0  0  0  0  0
  -20.0300   40.3600    6.7680 C   0  0  0  0  0
  -20.0270   41.2100    5.7460 N   0  0  0  0  0
  -16.6250   37.9020    9.6450 C   0  0  0  0  0
  -21.0570   42.0090    5.2650 C   0  0  0  0  0
  -22.9840   43.7250    4.1610 C   0  0  0  0  0
  -20.8900   42.5110    3.9730 C   0  0  0  0  0
  -21.8480   43.3710    3.4060 C   0  0  0  0  0
  -20.4940   43.4320    1.4420 C   0  0  0  0  0
  -16.8990   39.1970    8.8810 C   0  0  0  0  0
  -16.5990   40.4150    9.7650 C   0  0  0  0  0
  -16.6340   41.6770    8.9050 C   0  0  0  0  0
  -15.4900   41.5550    8.0190 O   0  0  0  0  0
  -15.9790   39.2740    7.7400 N   0  0  0  0  0
  -18.3600   39.1970    8.4280 C   0  0  0  0  0
  -21.0280   40.1410    7.4430 O   0  0  0  0  0
  -17.5740   40.5320   10.7570 F   0  0  0  0  0
  -15.3590   40.2360   10.3930 F   0  0  0  0  0
  -14.5280   40.3260    6.3310 N   0  0  0  0  0
  -22.1680   42.3770    6.0020 C   0  0  0  0  0
  -23.1210   43.2270    5.4250 C   0  0  0  0  0
  -21.6380   43.8420    2.0900 C   0  0  0  0  0
  -19.5910   42.5870    2.0660 C   0  0  0  0  0
  -19.8050   42.1410    3.2720 N   0  0  0  0  0
  -20.1180   43.9890   -0.1510 Cl  0  0  0  0  0
  -18.1977   40.3269    6.3199 H   0  0  0  0  0
  -18.4497   37.2459    6.9337 H   0  0  0  0  0
  -19.4823   37.3608    7.2378 H   0  0  0  0  0
  -19.1428   41.2866    5.2434 H   0  0  0  0  0
  -15.5776   37.8735    9.9453 H   0  0  0  0  0
  -17.2593   37.8629   10.5305 H   0  0  0  0  0
  -16.8434   37.0493    9.0022 H   0  0  0  0  0
  -23.7422   44.3866    3.7421 H   0  0  0  0  0
  -16.5831   42.5819    9.5106 H   0  0  0  0  0
  -17.5685   41.7642    8.3508 H   0  0  0  0  0
  -15.8179   38.4343    7.1838 H   0  0  0  0  0
  -18.6956   39.4504    9.4336 H   0  0  0  0  0
  -14.0435   41.1720    6.0311 H   0  0  0  0  0
  -22.3007   42.0101    7.0198 H   0  0  0  0  0
  -24.0023   43.5001    6.0054 H   0  0  0  0  0
  -22.3549   44.5052    1.6059 H   0  0  0  0  0
  -18.6846   42.2895    1.5387 H   0  0  0  0  0
  1 15  1  0  0  0
 16  1  1  0  0  0
  1 21  2  0  0  0
  3  2  1  0  0  0
  2  4  1  0  0  0
 17  2  1  0  0  0
 17  3  1  0  0  0
  4  5  1  0  0  0
  4 18  2  0  0  0
  5  7  1  0  0  0
 12  6  1  0  0  0
  7  9  4  0  0  0
  7 22  4  0  0  0
 10  8  4  0  0  0
  8 23  4  0  0  0
  9 10  4  0  0  0
  9 26  4  0  0  0
 10 24  4  0  0  0
 24 11  4  0  0  0
 11 25  4  0  0  0
 11 27  1  0  0  0
 12 13  1  0  0  0
 12 16  1  0  0  0
 12 17  1  0  0  0
 13 14  1  0  0  0
 13 19  1  0  0  0
 13 20  1  0  0  0
 14 15  1  0  0  0
 22 23  4  0  0  0
 25 26  4  0  0  0
  2 28  1  0  0  0
  3 29  1  0  0  0
  3 30  1  0  0  0
  5 31  1  0  0  0
  6 32  1  0  0  0
  6 33  1  0  0  0
  6 34  1  0  0  0
  8 35  1  0  0  0
 14 36  1  0  0  0
 14 37  1  0  0  0
 16 38  1  0  0  0
 17 39  1  0  0  0
 21 40  1  0  0  0
 22 41  1  0  0  0
 23 42  1  0  0  0
 24 43  1  0  0  0
 25 44  1  0  0  0
M  END
$$$$
