4xua_ligand
  -I-interpret- 

 45 48  0  0  0  0  0  0  0  0999 V2000
   72.5370   37.0250    4.0010 C   0  0  0  0  0
   72.4180   38.3070    3.2060 C   0  0  0  0  0
   73.1530   38.5950    2.1350 C   0  0  0  0  0
   71.5480   39.2940    3.4460 N   0  0  0  0  0
   71.7230   40.1460    2.5730 N   0  0  0  0  0
   72.6930   39.7800    1.7360 N   0  0  0  0  0
   73.0880   40.6780    0.6220 C   0  0  0  0  0
   72.7070   40.0420   -0.7140 C   0  0  0  0  0
   71.2240   40.1480   -0.8530 N   0  0  0  0  0
   70.6380   41.2330   -1.3080 C   0  0  0  0  0
   69.2960   41.0750   -1.3000 N   0  0  0  0  0
   69.0420   39.8310   -0.8140 C   0  0  0  0  0
   67.7680   39.3710   -0.7060 C   0  0  0  0  0
   66.7390   40.2780   -0.6830 C   0  0  0  0  0
   65.4120   39.9320   -0.6400 C   0  0  0  0  0
   65.1000   38.5900   -0.5400 C   0  0  0  0  0
   66.1210   37.6600   -0.5260 C   0  0  0  0  0
   67.4260   38.0060   -0.6440 C   0  0  0  0  0
   70.2290   39.2530   -0.5110 C   0  0  0  0  0
   70.4410   38.0060   -0.0010 C   0  0  0  0  0
   69.8060   37.6270    1.2070 C   0  0  0  0  0
   70.0070   36.3650    1.7570 C   0  0  0  0  0
   70.8340   35.4570    1.1250 C   0  0  0  0  0
   71.0280   34.1100    1.6740 C   0  0  0  0  0
   71.1670   33.0910    2.0990 N   0  0  0  0  0
   71.4510   35.8040   -0.0850 C   0  0  0  0  0
   71.2520   37.0750   -0.6390 C   0  0  0  0  0
   72.3244   36.1755    3.3520 H   0  0  0  0  0
   73.5487   36.9371    4.3970 H   0  0  0  0  0
   71.8233   37.0422    4.8246 H   0  0  0  0  0
   73.9482   37.9989    1.6873 H   0  0  0  0  0
   74.1660   40.8369    0.6516 H   0  0  0  0  0
   72.5719   41.6323    0.7275 H   0  0  0  0  0
   73.0195   38.9982   -0.7428 H   0  0  0  0  0
   73.2052   40.5548   -1.5368 H   0  0  0  0  0
   71.1589   42.1299   -1.6431 H   0  0  0  0  0
   66.9910   41.3383   -0.6999 H   0  0  0  0  0
   64.6303   40.6904   -0.6833 H   0  0  0  0  0
   64.0605   38.2689   -0.4729 H   0  0  0  0  0
   65.8671   36.6058   -0.4156 H   0  0  0  0  0
   68.1995   37.2394   -0.6902 H   0  0  0  0  0
   69.1498   38.3349    1.7134 H   0  0  0  0  0
   69.5109   36.0923    2.6885 H   0  0  0  0  0
   72.0878   35.0822   -0.5965 H   0  0  0  0  0
   71.7377   37.3363   -1.5792 H   0  0  0  0  0
  1  2  1  0  0  0
  2  3  4  0  0  0
  2  4  4  0  0  0
  3  6  4  0  0  0
  4  5  4  0  0  0
  5  6  4  0  0  0
  6  7  1  0  0  0
  7  8  1  0  0  0
  8  9  1  0  0  0
  9 10  4  0  0  0
  9 19  4  0  0  0
 10 11  4  0  0  0
 11 12  4  0  0  0
 12 13  1  0  0  0
 12 19  4  0  0  0
 13 14  4  0  0  0
 13 18  4  0  0  0
 14 15  4  0  0  0
 15 16  4  0  0  0
 16 17  4  0  0  0
 17 18  4  0  0  0
 19 20  1  0  0  0
 20 21  4  0  0  0
 20 27  4  0  0  0
 21 22  4  0  0  0
 22 23  4  0  0  0
 23 24  1  0  0  0
 23 26  4  0  0  0
 24 25  3  0  0  0
 26 27  4  0  0  0
  1 28  1  0  0  0
  1 29  1  0  0  0
  1 30  1  0  0  0
  3 31  1  0  0  0
  7 32  1  0  0  0
  7 33  1  0  0  0
  8 34  1  0  0  0
  8 35  1  0  0  0
 10 36  1  0  0  0
 14 37  1  0  0  0
 15 38  1  0  0  0
 16 39  1  0  0  0
 17 40  1  0  0  0
 18 41  1  0  0  0
 21 42  1  0  0  0
 22 43  1  0  0  0
 26 44  1  0  0  0
 27 45  1  0  0  0
M  END
$$$$
