6f6u_ligand
  -I-interpret- 

 58 60  0  0  0  0  0  0  0  0999 V2000
   33.8190  133.1240  150.1830 C   0  0  0  0  0
   31.7110  133.6300  149.7950 C   0  0  0  0  0
   33.9740  134.2230  144.2480 C   0  0  0  0  0
   30.9770  131.1820  144.8890 C   0  0  0  0  0
   24.7930  133.3850  152.4010 C   0  0  0  0  0
   27.8650  130.5440  154.6170 C   0  0  0  0  0
   26.7980  130.5390  153.5310 C   0  0  0  0  0
   27.2820  129.8870  152.2240 C   0  0  0  0  0
   26.4960  130.3100  151.0520 N   0  0  0  0  0
   26.8620  129.9020  149.7950 C   0  0  0  0  0
   28.0680  128.9950  149.5540 C   0  0  0  0  0
   28.5270  128.6610  148.1740 O   0  0  0  0  0
   29.4340  129.5710  147.6430 N   0  0  0  0  0
   29.4310  130.0100  146.4840 C   0  0  0  0  0
   30.5390  131.0010  146.1240 C   0  0  0  0  0
   31.1020  131.6980  147.1120 C   0  0  0  0  0
   32.1010  132.6230  146.9000 C   0  0  0  0  0
   32.7270  133.3840  147.9290 O   0  0  0  0  0
   32.5650  132.9260  149.2360 C   0  0  0  0  0
   33.6610  134.2810  150.6770 C   0  0  0  0  0
   32.4310  134.9370  150.1020 C   0  0  0  0  0
   32.5560  132.8070  145.5980 C   0  0  0  0  0
   33.5790  133.7210  145.3900 O   0  0  0  0  0
   31.9880  132.0900  144.6120 C   0  0  0  0  0
   26.3290  130.1680  148.7130 O   0  0  0  0  0
   25.3250  131.1890  151.2140 C   0  0  0  0  0
   25.2000  131.9260  152.5640 C   0  0  0  0  0
   26.4410  131.9090  153.2800 O   0  0  0  0  0
   34.7602  133.0353  149.6404 H   0  0  0  0  0
   33.8767  132.3543  150.9527 H   0  0  0  0  0
   31.3209  133.1582  150.6968 H   0  0  0  0  0
   30.8353  133.7855  149.1649 H   0  0  0  0  0
   34.3042  133.4168  143.5930 H   0  0  0  0  0
   33.1458  134.7561  143.7811 H   0  0  0  0  0
   34.7998  134.9128  144.4220 H   0  0  0  0  0
   30.5355  130.6074  144.0747 H   0  0  0  0  0
   25.5418  133.9052  151.8037 H   0  0  0  0  0
   23.8263  133.4374  151.9002 H   0  0  0  0  0
   24.7207  133.8526  153.3830 H   0  0  0  0  0
   28.7305  131.1094  154.2716 H   0  0  0  0  0
   27.4626  131.0074  155.5178 H   0  0  0  0  0
   28.1631  129.5188  154.8364 H   0  0  0  0  0
   25.9483  129.9493  153.8751 H   0  0  0  0  0
   27.1726  128.8075  152.3282 H   0  0  0  0  0
   28.3158  130.1916  152.0611 H   0  0  0  0  0
   27.7582  128.0344  149.9655 H   0  0  0  0  0
   28.9027  129.5527  149.9787 H   0  0  0  0  0
   28.6771  129.7053  145.7581 H   0  0  0  0  0
   30.7567  131.5284  148.1319 H   0  0  0  0  0
   32.3376  131.8663  149.1204 H   0  0  0  0  0
   34.5323  134.8905  150.4374 H   0  0  0  0  0
   33.5429  134.1920  151.7569 H   0  0  0  0  0
   31.9090  135.6545  150.7352 H   0  0  0  0  0
   32.5790  135.6289  149.2728 H   0  0  0  0  0
   32.3258  132.2240  143.5844 H   0  0  0  0  0
   24.4500  130.5433  151.1401 H   0  0  0  0  0
   25.4219  131.9645  150.4542 H   0  0  0  0  0
   24.4248  131.3922  153.1137 H   0  0  0  0  0
 19  1  1  0  0  0
  1 20  1  0  0  0
 19  2  1  0  0  0
  2 21  1  0  0  0
 23  3  1  0  0  0
 15  4  4  0  0  0
  4 24  4  0  0  0
 27  5  1  0  0  0
  7  6  1  0  0  0
  8  7  1  0  0  0
  7 28  1  0  0  0
  9  8  1  0  0  0
  9 10  1  0  0  0
 26  9  1  0  0  0
 10 11  1  0  0  0
 10 25  2  0  0  0
 11 12  1  0  0  0
 12 13  1  0  0  0
 13 14  2  0  0  0
 14 15  1  0  0  0
 15 16  4  0  0  0
 16 17  4  0  0  0
 17 18  1  0  0  0
 17 22  4  0  0  0
 18 19  1  0  0  0
 21 20  1  0  0  0
 22 23  1  0  0  0
 24 22  4  0  0  0
 26 27  1  0  0  0
 27 28  1  0  0  0
  1 29  1  0  0  0
  1 30  1  0  0  0
  2 31  1  0  0  0
  2 32  1  0  0  0
  3 33  1  0  0  0
  3 34  1  0  0  0
  3 35  1  0  0  0
  4 36  1  0  0  0
  5 37  1  0  0  0
  5 38  1  0  0  0
  5 39  1  0  0  0
  6 40  1  0  0  0
  6 41  1  0  0  0
  6 42  1  0  0  0
  7 43  1  0  0  0
  8 44  1  0  0  0
  8 45  1  0  0  0
 11 46  1  0  0  0
 11 47  1  0  0  0
 14 48  1  0  0  0
 16 49  1  0  0  0
 19 50  1  0  0  0
 20 51  1  0  0  0
 20 52  1  0  0  0
 21 53  1  0  0  0
 21 54  1  0  0  0
 24 55  1  0  0  0
 26 56  1  0  0  0
 26 57  1  0  0  0
 27 58  1  0  0  0
M  END
$$$$
