1xh4_ligand
  -I-interpret- 

 69 72  0  0  0  0  0  0  0  0999 V2000
   10.4770   21.1160   30.2560 O   0  0  0  0  0
   10.5970   22.3480   30.1630 C   0  0  0  0  0
   11.8860   23.0360   30.3770 C   0  0  0  0  0
   13.0520   22.2830   30.6220 C   0  0  0  0  0
   14.2860   22.9300   30.7630 C   0  0  0  0  0
   14.4020   24.2590   30.7110 N   0  0  0  0  0
   13.3120   25.0040   30.4780 C   0  0  0  0  0
   12.0360   24.4380   30.2860 C   0  0  0  0  0
    9.4840   23.1060   29.8090 N   0  0  0  0  0
    8.2370   22.5120   29.3400 C   0  0  0  0  0
    8.0340   22.9900   27.8980 C   0  0  0  0  0
    6.7050   22.4480   27.4340 N   0  3  0  0  0
    5.5070   23.3440   27.6050 C   0  0  0  0  0
    4.9730   23.2960   29.0250 C   0  0  0  0  0
    6.0280   23.8390   30.0020 C   0  0  0  0  0
    7.1380   22.8470   30.4060 C   0  0  0  0  0
    6.5560   21.5950   30.9730 N   0  0  0  0  0
    5.9010   21.5730   32.2130 C   0  0  0  0  0
    5.9260   22.5290   33.0120 O   0  0  0  0  0
    5.0990   20.4040   32.5400 C   0  0  0  0  0
    4.7440   20.1480   33.8810 C   0  0  0  0  0
    3.9270   19.0680   34.2100 C   0  0  0  0  0
    4.6540   19.5510   31.5100 C   0  0  0  0  0
    3.8840   18.4530   31.8250 C   0  0  0  0  0
    3.5170   18.2050   33.1690 C   0  0  0  0  0
    2.6330   17.0780   33.4470 C   0  0  0  0  0
    1.8300   17.2340   34.3920 O   0  0  0  0  0
    2.5290   15.9180   32.6200 C   0  0  0  0  0
    3.6050   15.0230   32.3090 C   0  0  0  0  0
    4.7990   15.1780   32.7580 O   0  0  0  0  0
    3.2750   13.9260   31.4340 C   0  0  0  0  0
    1.9990   13.7420   30.9360 C   0  0  0  0  0
    1.2470   15.6980   32.1010 C   0  0  0  0  0
    0.9520   14.6270   31.2730 C   0  0  0  0  0
   -0.3710   14.4470   30.7200 N   0  0  0  0  0
   -1.5140   15.2720   31.1550 C   0  0  0  0  0
   -0.7470   13.1140   30.1970 C   0  0  0  0  0
   12.9933   21.1975   30.7017 H   0  0  0  0  0
   15.1814   22.3286   30.9204 H   0  0  0  0  0
   13.4168   26.0881   30.4355 H   0  0  0  0  0
   11.1766   25.0729   30.0703 H   0  0  0  0  0
    9.5432   24.1217   29.8808 H   0  0  0  0  0
    8.2123   21.4246   29.2691 H   0  0  0  0  0
    8.8401   22.6328   27.2572 H   0  0  0  0  0
    8.0439   24.0788   27.8486 H   0  0  0  0  0
    6.5228   21.6253   28.0087 H   0  0  0  0  0
    6.8000   22.2973   26.4297 H   0  0  0  0  0
    4.7222   23.0030   26.9298 H   0  0  0  0  0
    5.8080   24.3681   27.3843 H   0  0  0  0  0
    4.7403   22.2636   29.2859 H   0  0  0  0  0
    4.0740   23.9089   29.0910 H   0  0  0  0  0
    5.4967   24.0978   30.9179 H   0  0  0  0  0
    6.5231   24.6663   29.4935 H   0  0  0  0  0
    7.6899   23.4004   31.1658 H   0  0  0  0  0
    6.6372   20.7280   30.4419 H   0  0  0  0  0
    5.1134   20.8032   34.6699 H   0  0  0  0  0
    3.6137   18.8942   35.2394 H   0  0  0  0  0
    4.9170   19.7584   30.4727 H   0  0  0  0  0
    3.5568   17.7740   31.0376 H   0  0  0  0  0
    5.3579   14.4704   32.4286 H   0  0  0  0  0
    4.0568   13.2191   31.1563 H   0  0  0  0  0
    1.7979   12.9006   30.2728 H   0  0  0  0  0
    0.4506   16.3963   32.3584 H   0  0  0  0  0
   -1.6734   15.1346   32.2245 H   0  0  0  0  0
   -1.3020   16.3213   30.9498 H   0  0  0  0  0
   -2.4081   14.9675   30.6110 H   0  0  0  0  0
   -0.0690   12.8374   29.3896 H   0  0  0  0  0
   -0.6790   12.3783   30.9984 H   0  0  0  0  0
   -1.7689   13.1483   29.8193 H   0  0  0  0  0
  1  2  2  0  0  0
  2  3  1  0  0  0
  2  9  1  0  0  0
  3  4  4  0  0  0
  3  8  4  0  0  0
  4  5  4  0  0  0
  5  6  4  0  0  0
  6  7  4  0  0  0
  7  8  4  0  0  0
  9 10  1  0  0  0
 10 11  1  0  0  0
 10 16  1  0  0  0
 11 12  1  0  0  0
 12 13  1  0  0  0
 13 14  1  0  0  0
 14 15  1  0  0  0
 15 16  1  0  0  0
 16 17  1  0  0  0
 17 18  1  0  0  0
 18 19  2  0  0  0
 18 20  1  0  0  0
 20 21  4  0  0  0
 20 23  4  0  0  0
 21 22  4  0  0  0
 22 25  4  0  0  0
 23 24  4  0  0  0
 24 25  4  0  0  0
 25 26  1  0  0  0
 26 27  2  0  0  0
 26 28  1  0  0  0
 28 29  4  0  0  0
 28 33  4  0  0  0
 29 30  1  0  0  0
 29 31  4  0  0  0
 31 32  4  0  0  0
 32 34  4  0  0  0
 33 34  4  0  0  0
 34 35  1  0  0  0
 35 36  1  0  0  0
 35 37  1  0  0  0
  4 38  1  0  0  0
  5 39  1  0  0  0
  7 40  1  0  0  0
  8 41  1  0  0  0
  9 42  1  0  0  0
 10 43  1  0  0  0
 11 44  1  0  0  0
 11 45  1  0  0  0
 12 46  1  0  0  0
 12 47  1  0  0  0
 13 48  1  0  0  0
 13 49  1  0  0  0
 14 50  1  0  0  0
 14 51  1  0  0  0
 15 52  1  0  0  0
 15 53  1  0  0  0
 16 54  1  0  0  0
 17 55  1  0  0  0
 21 56  1  0  0  0
 22 57  1  0  0  0
 23 58  1  0  0  0
 24 59  1  0  0  0
 30 60  1  0  0  0
 31 61  1  0  0  0
 32 62  1  0  0  0
 33 63  1  0  0  0
 36 64  1  0  0  0
 36 65  1  0  0  0
 36 66  1  0  0  0
 37 67  1  0  0  0
 37 68  1  0  0  0
 37 69  1  0  0  0
M  END
$$$$
