5bvd_ligand
  -I-interpret- 

 59 63  0  0  0  0  0  0  0  0999 V2000
   12.2940   -2.7200   14.9120 C   0  0  0  0  0
   12.4170   -3.6850   17.1220 C   0  0  0  0  0
   18.0380   -1.2760   14.4790 C   0  0  0  0  0
   13.0750   -2.0840   14.0110 C   0  0  0  0  0
   14.4050   -2.1090   14.6470 C   0  0  0  0  0
   14.2710   -2.7420   15.8210 C   0  0  0  0  0
    8.9590   -4.3120   15.6610 C   0  0  0  0  0
    8.7140   -5.3830   14.5870 C   0  0  0  0  0
    7.3950   -5.7250   14.2610 C   0  0  0  0  0
    7.1350   -6.7090   13.3060 C   0  0  0  0  0
    8.1920   -7.3390   12.6450 C   0  0  0  0  0
    9.5190   -6.9950   12.9480 C   0  0  0  0  0
    9.7720   -6.0190   13.9240 C   0  0  0  0  0
   19.2370   -2.6550   16.1620 C   0  0  0  0  0
   20.6910   -3.1730   16.3500 C   0  0  0  0  0
   20.7640   -4.1730   17.5280 C   0  0  0  0  0
   18.8620   -3.2170   18.5890 C   0  0  0  0  0
   18.7760   -2.0940   17.5330 C   0  0  0  0  0
    5.4720   -7.1650   12.9870 Cl  0  0  0  0  0
   20.2480   -3.6000   18.7430 O   0  0  0  0  0
    8.5370   -3.9130   18.0080 O   0  0  0  0  0
   10.3850   -3.9820   15.7180 N   0  0  0  0  0
    8.3420   -4.8800   16.9720 C   0  0  0  0  0
   15.7000   -1.4780   14.1870 C   0  0  0  0  0
   10.8660   -3.0450   14.8570 C   0  0  0  0  0
   16.8510   -1.8270   14.8200 N   0  0  0  0  0
   19.1730   -1.6090   15.1380 N   0  0  0  0  0
   11.3070   -4.6490   16.6510 C   0  0  0  0  0
   16.9870   -0.0030   12.8170 C   0  0  0  0  0
   10.1760   -2.4720   14.0180 O   0  0  0  0  0
   15.7420   -0.5560   13.1410 C   0  0  0  0  0
   13.0100   -3.0640   15.9390 N   0  0  0  0  0
   18.0920   -0.3660   13.4970 N   0  0  0  0  0
   13.1770   -4.2310   17.6810 H   0  0  0  0  0
   11.9986   -2.9214   17.7777 H   0  0  0  0  0
   12.7911   -1.6569   13.0492 H   0  0  0  0  0
   15.0633   -2.9488   16.5405 H   0  0  0  0  0
    8.4813   -3.3547   15.4525 H   0  0  0  0  0
    6.5663   -5.2192   14.7566 H   0  0  0  0  0
    7.9860   -8.0997   11.8920 H   0  0  0  0  0
   10.3453   -7.4817   12.4298 H   0  0  0  0  0
   10.8005   -5.7533   14.1685 H   0  0  0  0  0
   18.5885   -3.4651   15.8284 H   0  0  0  0  0
   21.3429   -2.3262   16.5644 H   0  0  0  0  0
   21.0069   -3.6783   15.4374 H   0  0  0  0  0
   21.8087   -4.4388   17.6895 H   0  0  0  0  0
   20.1616   -5.0458   17.2763 H   0  0  0  0  0
   18.2732   -4.0757   18.2665 H   0  0  0  0  0
   18.4669   -2.8624   19.5410 H   0  0  0  0  0
   17.7487   -1.7373   17.4580 H   0  0  0  0  0
   19.4187   -1.2637   17.8257 H   0  0  0  0  0
    8.1628   -4.2441   18.8277 H   0  0  0  0  0
    8.8249   -5.8201   17.2388 H   0  0  0  0  0
    7.2784   -5.0745   16.8340 H   0  0  0  0  0
   20.0295   -1.1045   14.9093 H   0  0  0  0  0
   10.7416   -4.9811   17.5217 H   0  0  0  0  0
   11.7716   -5.4916   16.1389 H   0  0  0  0  0
   17.0626    0.7255   12.0098 H   0  0  0  0  0
   14.8400   -0.2766   12.5966 H   0  0  0  0  0
  4  1  4  0  0  0
  1 25  1  0  0  0
 32  1  4  0  0  0
  2 28  1  0  0  0
 32  2  1  0  0  0
 26  3  4  0  0  0
  3 27  1  0  0  0
  3 33  4  0  0  0
  5  4  4  0  0  0
  5  6  4  0  0  0
 24  5  1  0  0  0
  6 32  4  0  0  0
  7  8  1  0  0  0
 22  7  1  0  0  0
  7 23  1  0  0  0
  8  9  4  0  0  0
  8 13  4  0  0  0
  9 10  4  0  0  0
 10 11  4  0  0  0
 10 19  1  0  0  0
 12 11  4  0  0  0
 13 12  4  0  0  0
 14 15  1  0  0  0
 14 18  1  0  0  0
 27 14  1  0  0  0
 15 16  1  0  0  0
 16 20  1  0  0  0
 18 17  1  0  0  0
 17 20  1  0  0  0
 23 21  1  0  0  0
 25 22  1  0  0  0
 28 22  1  0  0  0
 24 26  4  0  0  0
 24 31  4  0  0  0
 25 30  2  0  0  0
 31 29  4  0  0  0
 29 33  4  0  0  0
  2 34  1  0  0  0
  2 35  1  0  0  0
  4 36  1  0  0  0
  6 37  1  0  0  0
  7 38  1  0  0  0
  9 39  1  0  0  0
 11 40  1  0  0  0
 12 41  1  0  0  0
 13 42  1  0  0  0
 14 43  1  0  0  0
 15 44  1  0  0  0
 15 45  1  0  0  0
 16 46  1  0  0  0
 16 47  1  0  0  0
 17 48  1  0  0  0
 17 49  1  0  0  0
 18 50  1  0  0  0
 18 51  1  0  0  0
 21 52  1  0  0  0
 23 53  1  0  0  0
 23 54  1  0  0  0
 27 55  1  0  0  0
 28 56  1  0  0  0
 28 57  1  0  0  0
 29 58  1  0  0  0
 31 59  1  0  0  0
M  END
$$$$
