5ihh_ligand
  -I-interpret- 

 34 36  0  0  0  0  0  0  0  0999 V2000
   21.7960  -10.0760    1.1400 C   0  0  0  0  0
   20.0520   -3.4640   -1.1670 O   0  0  0  0  0
   20.7990   -4.2210   -0.5900 C   0  0  0  0  0
   21.9550   -3.7030    0.2120 C   0  0  0  0  0
   22.7840   -4.6320    0.8570 C   0  0  0  0  0
   22.5480   -6.0040    0.7600 O   0  0  0  0  0
   21.4260   -6.4980    0.0640 C   0  0  0  0  0
   20.6180   -5.6860   -0.6470 C   0  0  0  0  0
   21.4210   -7.9610    0.0390 C   0  0  0  0  0
   21.7900   -8.6740    1.1660 C   0  0  0  0  0
   21.4330  -10.7490   -0.0230 C   0  0  0  0  0
   21.4450  -12.1000   -0.0290 O   0  0  0  0  0
   21.0650  -10.0240   -1.1700 C   0  0  0  0  0
   20.7070  -10.6900   -2.3210 O   0  0  0  0  0
   21.0620   -8.6410   -1.1380 C   0  0  0  0  0
   23.8670   -4.2020    1.6020 C   0  0  0  0  0
   24.1460   -2.8640    1.7310 C   0  0  0  0  0
   25.2360   -2.4520    2.4800 O   0  0  0  0  0
   25.9750   -1.3100    2.0520 C   0  0  0  0  0
   23.3520   -1.9270    1.1060 C   0  0  0  0  0
   22.2660   -2.3300    0.3520 C   0  0  0  0  0
   21.4880   -1.3980   -0.2420 O   0  0  0  0  0
   22.0843  -10.6375    2.0286 H   0  0  0  0  0
   19.8284   -6.1120   -1.2660 H   0  0  0  0  0
   22.0764   -8.1452    2.0751 H   0  0  0  0  0
   21.1733  -12.4175   -0.8933 H   0  0  0  0  0
   20.4864  -10.0517   -3.0033 H   0  0  0  0  0
   20.7806   -8.0772   -2.0274 H   0  0  0  0  0
   24.5072   -4.9349    2.0930 H   0  0  0  0  0
   26.3790   -1.4925    1.0562 H   0  0  0  0  0
   25.3164   -0.4419    2.0248 H   0  0  0  0  0
   26.7925   -1.1257    2.7490 H   0  0  0  0  0
   23.5809   -0.8660    1.2065 H   0  0  0  0  0
   21.8345   -0.5236   -0.0495 H   0  0  0  0  0
 10  1  4  0  0  0
  1 11  4  0  0  0
  3  2  2  0  0  0
  3  4  1  0  0  0
  8  3  1  0  0  0
  5  4  4  0  0  0
  4 21  4  0  0  0
  6  5  1  0  0  0
  5 16  4  0  0  0
  7  6  1  0  0  0
  7  8  2  0  0  0
  9  7  1  0  0  0
  9 10  4  0  0  0
  9 15  4  0  0  0
 11 12  1  0  0  0
 11 13  4  0  0  0
 13 14  1  0  0  0
 13 15  4  0  0  0
 16 17  4  0  0  0
 17 18  1  0  0  0
 17 20  4  0  0  0
 18 19  1  0  0  0
 20 21  4  0  0  0
 21 22  1  0  0  0
  1 23  1  0  0  0
  8 24  1  0  0  0
 10 25  1  0  0  0
 12 26  1  0  0  0
 14 27  1  0  0  0
 15 28  1  0  0  0
 16 29  1  0  0  0
 19 30  1  0  0  0
 19 31  1  0  0  0
 19 32  1  0  0  0
 20 33  1  0  0  0
 22 34  1  0  0  0
M  END
$$$$
