5v82_ligand
  -I-interpret- 

 50 54  0  0  0  0  0  0  0  0999 V2000
  -22.2780   34.8120   -1.0400 C   0  0  0  0  0
  -21.2850   30.9530    0.0180 C   0  0  0  0  0
  -22.6750   36.0760   -1.4610 C   0  0  0  0  0
  -21.5570   32.5350   -1.6120 C   0  0  0  0  0
  -21.4410   30.5130    1.4500 C   0  0  0  0  0
  -20.7290   30.0990   -0.9170 C   0  0  0  0  0
  -20.6070   30.4800   -2.1810 N   0  0  0  0  0
  -20.9970   31.6800   -2.5650 C   0  0  0  0  0
  -21.6780   32.1630   -0.3460 N   0  0  0  0  0
  -21.9990   33.8670   -2.0160 C   0  0  0  0  0
  -22.7740   36.3130   -2.8460 C   0  0  0  0  0
  -22.4690   35.2920   -3.7530 C   0  0  0  0  0
  -22.1080   34.1140   -3.3140 N   0  0  0  0  0
  -23.2110   37.6910   -2.9990 C   0  0  0  0  0
  -23.3610   38.1870   -1.8070 N   0  0  0  0  0
  -23.0230   37.2430   -0.8350 N   0  0  0  0  0
  -23.1460   37.4650    0.5380 C   0  0  0  0  0
  -23.3300   38.7680    0.9940 C   0  0  0  0  0
  -23.4950   38.9800    2.3540 C   0  0  0  0  0
  -23.5060   37.8850    3.2100 C   0  0  0  0  0
  -23.3470   36.6130    2.6830 C   0  0  0  0  0
  -23.1850   36.4400    1.3820 N   0  0  0  0  0
  -23.3860   35.4300    3.6150 C   0  0  0  0  0
  -23.8880   34.1740    2.8740 C   0  0  0  0  0
  -23.9690   33.0410    3.8060 N   0  3  0  0  0
  -22.6340   32.7040    4.3170 C   0  0  0  0  0
  -22.0670   33.9030    5.0830 C   0  0  0  0  0
  -22.0020   35.1490    4.1850 C   0  0  0  0  0
  -21.1150   34.9420    3.1270 F   0  0  0  0  0
  -21.6160   36.2560    4.9490 F   0  0  0  0  0
  -22.1891   34.5721    0.0196 H   0  0  0  0  0
  -22.0791   29.6302    1.4900 H   0  0  0  0  0
  -20.4615   30.2739    1.8641 H   0  0  0  0  0
  -21.8949   31.3176    2.0286 H   0  0  0  0  0
  -20.3897   29.1086   -0.6135 H   0  0  0  0  0
  -20.8851   31.9975   -3.6017 H   0  0  0  0  0
  -22.5323   35.4784   -4.8251 H   0  0  0  0  0
  -23.3816   38.2127   -3.9407 H   0  0  0  0  0
  -23.3440   39.6046    0.2954 H   0  0  0  0  0
  -23.6143   39.9900    2.7461 H   0  0  0  0  0
  -23.6381   38.0250    4.2829 H   0  0  0  0  0
  -24.0701   35.6699    4.4290 H   0  0  0  0  0
  -23.1930   33.9292    2.0708 H   0  0  0  0  0
  -24.8777   34.3716    2.4622 H   0  0  0  0  0
  -24.3511   32.2328    3.3149 H   0  0  0  0  0
  -24.5703   33.2967    4.5892 H   0  0  0  0  0
  -21.9756   32.4593    3.4835 H   0  0  0  0  0
  -22.7051   31.8453    4.9846 H   0  0  0  0  0
  -21.0584   33.6595    5.4171 H   0  0  0  0  0
  -22.7181   34.1163    5.9307 H   0  0  0  0  0
  1  3  4  0  0  0
 10  1  4  0  0  0
  2  5  1  0  0  0
  2  6  4  0  0  0
  9  2  4  0  0  0
  3 11  4  0  0  0
  3 16  4  0  0  0
  4  8  4  0  0  0
  4  9  4  0  0  0
  4 10  1  0  0  0
  6  7  4  0  0  0
  7  8  4  0  0  0
 10 13  4  0  0  0
 11 12  4  0  0  0
 11 14  4  0  0  0
 12 13  4  0  0  0
 14 15  4  0  0  0
 15 16  4  0  0  0
 16 17  1  0  0  0
 17 18  4  0  0  0
 17 22  4  0  0  0
 18 19  4  0  0  0
 19 20  4  0  0  0
 20 21  4  0  0  0
 21 22  4  0  0  0
 21 23  1  0  0  0
 23 24  1  0  0  0
 23 28  1  0  0  0
 24 25  1  0  0  0
 25 26  1  0  0  0
 26 27  1  0  0  0
 27 28  1  0  0  0
 28 29  1  0  0  0
 28 30  1  0  0  0
  1 31  1  0  0  0
  5 32  1  0  0  0
  5 33  1  0  0  0
  5 34  1  0  0  0
  6 35  1  0  0  0
  8 36  1  0  0  0
 12 37  1  0  0  0
 14 38  1  0  0  0
 18 39  1  0  0  0
 19 40  1  0  0  0
 20 41  1  0  0  0
 23 42  1  0  0  0
 24 43  1  0  0  0
 24 44  1  0  0  0
 25 45  1  0  0  0
 25 46  1  0  0  0
 26 47  1  0  0  0
 26 48  1  0  0  0
 27 49  1  0  0  0
 27 50  1  0  0  0
M  END
$$$$
