### 
### Created by X-TOOL on Mon Sep 10 21:13:20 2018
### 

@<TRIPOS>MOLECULE
4tzn_ligand
  145   146     1     0     0
SMALL
GAST_HUCK


@<TRIPOS>ATOM
      1 N         247.5270  -87.1350  -30.8240 N.4       1 MET         0.2379
      2 CA        246.9440  -88.1800  -29.9910 C.3       1 MET         0.0658
      3 C         247.7350  -89.4790  -30.1070 C.2       1 MET         0.2267
      4 O         248.1160  -90.0780  -29.1010 O.2       1 MET        -0.3907
      5 CB        245.4780  -88.4130  -30.3730 C.3       1 MET         0.0168
      6 CG        244.8220  -89.5870  -29.6590 C.3       1 MET         0.0007
      7 SD        243.0810  -89.7980  -30.1110 S.3       1 MET        -0.1638
      8 CE        242.3490  -88.3490  -29.3220 C.3       1 MET        -0.0181
      9 N         247.9900  -89.9020  -31.3400 N.am      1 ARG        -0.2610
     10 CA        248.6750  -91.1640  -31.5930 C.3       1 ARG         0.1312
     11 C         249.9460  -90.9470  -32.4120 C.2       1 ARG         0.2040
     12 O         249.9440  -90.1920  -33.3850 O.2       1 ARG        -0.3944
     13 CB        247.7310  -92.1320  -32.3070 C.3       1 ARG        -0.0092
     14 CG        248.2860  -93.5240  -32.5220 C.3       1 ARG        -0.0156
     15 CD        247.2260  -94.4270  -33.1230 C.3       1 ARG         0.0627
     16 NE        247.7970  -95.6500  -33.6730 N.pl3     1 ARG        -0.2723
     17 CZ        247.3860  -96.2200  -34.8000 C.cat     1 ARG         0.2882
     18 NH1       246.4000  -95.6760  -35.5000 N.pl3     1 ARG        -0.2849
     19 NH2       247.9630  -97.3330  -35.2280 N.pl3     1 ARG        -0.2849
     20 N         251.0300  -91.6090  -32.0150 N.am      1 TYR        -0.2621
     21 CA        252.3230  -91.4280  -32.6740 C.3       1 TYR         0.1390
     22 C         253.0340  -92.7520  -32.9550 C.2       1 TYR         0.2055
     23 O         252.6380  -93.8020  -32.4480 O.2       1 TYR        -0.3942
     24 CB        253.2250  -90.5270  -31.8250 C.3       1 TYR         0.0163
     25 CG        252.6850  -89.1280  -31.6240 C.ar      1 TYR        -0.0493
     26 CD1       252.6980  -88.2050  -32.6610 C.ar      1 TYR        -0.0685
     27 CD2       252.1680  -88.7290  -30.3980 C.ar      1 TYR        -0.0685
     28 CE1       252.2060  -86.9250  -32.4840 C.ar      1 TYR        -0.0398
     29 CE2       251.6750  -87.4490  -30.2120 C.ar      1 TYR        -0.0398
     30 CZ        251.6970  -86.5520  -31.2590 C.ar      1 TYR         0.0805
     31 OH        251.2080  -85.2770  -31.0830 O.3       1 TYR        -0.3376
     32 N         254.0860  -92.6900  -33.7670 N.am      1 GLY        -0.2663
     33 CA        254.8790  -93.8600  -34.1070 C.3       1 GLY         0.1201
     34 C         256.3600  -93.5290  -34.1700 C.2       1 GLY         0.2007
     35 O         256.7290  -92.3990  -34.4890 O.2       1 GLY        -0.3947
     36 N         257.2130  -94.5060  -33.8620 N.am      1 GLN        -0.2638
     37 CA        258.6540  -94.2630  -33.7770 C.3       1 GLN         0.1330
     38 C         259.4960  -95.3530  -34.4420 C.2       1 GLN         0.2041
     39 O         259.0060  -96.4370  -34.7400 O.2       1 GLN        -0.3944
     40 CB        259.0810  -94.1200  -32.3120 C.3       1 GLN         0.0045
     41 CG        258.2330  -93.1500  -31.5090 C.3       1 GLN         0.0412
     42 CD        259.0300  -92.3970  -30.4670 C.2       1 GLN         0.1737
     43 OE1       260.1850  -92.7220  -30.1960 O.2       1 GLN        -0.3973
     44 NE2       258.4170  -91.3760  -29.8790 N.am      1 GLN        -0.3009
     45 N         260.7750  -95.0530  -34.6550 N.am      1 SER        -0.2616
     46 CA        261.7030  -95.9800  -35.2980 C.3       1 SER         0.1541
     47 C         263.1000  -95.8230  -34.6990 C.2       1 SER         0.2087
     48 O         263.3870  -94.8120  -34.0670 O.2       1 SER        -0.3941
     49 CB        261.7350  -95.7350  -36.8100 C.3       1 SER         0.0843
     50 OG        262.6410  -96.6050  -37.4640 O.3       1 SER        -0.3903
     51 N         263.9600  -96.8440  -34.8540 N.am      1 PRO        -0.2498
     52 CA        265.3710  -96.6920  -34.4830 C.3       1 PRO         0.1338
     53 C         266.3050  -96.5450  -35.6880 C.2       1 PRO         0.2042
     54 O         266.1820  -97.2940  -36.6580 O.2       1 PRO        -0.3944
     55 CB        265.6630  -97.9890  -33.7310 C.3       1 PRO        -0.0104
     56 CG        264.7920  -99.0000  -34.4160 C.3       1 PRO        -0.0281
     57 CD        263.5730  -98.2640  -34.9430 C.3       1 PRO         0.0369
     58 N         267.2300  -95.5900  -35.6210 N.am      1 ASN        -0.2616
     59 CA        268.2280  -95.4090  -36.6750 C.3       1 ASN         0.1475
     60 C         269.6410  -95.4120  -36.0870 C.2       1 ASN         0.2058
     61 O         270.0340  -96.3790  -35.4340 O.2       1 ASN        -0.3942
     62 CB        267.9620  -94.1140  -37.4510 C.3       1 ASN         0.0773
     63 CG        268.6830  -94.0660  -38.7890 C.2       1 ASN         0.1780
     64 OD1       269.7650  -94.6330  -38.9510 O.2       1 ASN        -0.3970
     65 ND2       268.0850  -93.3750  -39.7540 N.am      1 ASN        -0.3007
     66 N         270.3790  -94.3240  -36.3150 N.am      1 MET        -0.2669
     67 CA        271.7770  -94.1530  -35.8910 C.3       1 MET         0.1233
     68 C         272.6120  -95.4260  -35.9980 C.2       1 MET         0.2150
     69 O         273.8150  -95.4160  -35.7360 O.co2     1 MET        -0.4120
     70 CB        271.8460  -93.6170  -34.4540 C.3       1 MET        -0.0065
     71 CG        271.4500  -94.6070  -33.3630 C.3       1 MET        -0.0029
     72 SD        271.6690  -93.9540  -31.6960 S.3       1 MET        -0.1639
     73 CE        273.3870  -94.3460  -31.3760 C.3       1 MET        -0.0181
     74 H         246.9867  -86.2893  -30.7293 H         1 MET         0.2015
     75 H         247.5214  -87.4311  -31.7875 H         1 MET         0.2015
     76 H         248.4759  -86.9621  -30.5311 H         1 MET         0.2015
     77 H         246.9809  -87.8462  -28.9435 H         1 MET         0.1098
     78 H         245.4298  -88.5984  -31.4562 H         1 MET         0.0354
     79 H         244.9103  -87.5024  -30.1312 H         1 MET         0.0354
     80 H         244.8856  -89.4186  -28.5738 H         1 MET         0.0380
     81 H         245.3669  -90.5062  -29.9200 H         1 MET         0.0380
     82 H         241.2655  -88.3364  -29.5116 H         1 MET         0.0340
     83 H         242.8042  -87.4370  -29.7356 H         1 MET         0.0340
     84 H         242.5310  -88.3905  -28.2380 H         1 MET         0.0340
     85 H         247.7044  -89.3396  -32.1159 H         1 ARG         0.1884
     86 H         248.9599  -91.6042  -30.6260 H         1 ARG         0.0800
     87 H         247.4861  -91.7064  -33.2913 H         1 ARG         0.0313
     88 H         246.8135  -92.2193  -31.7066 H         1 ARG         0.0313
     89 H         248.6103  -93.9384  -31.5561 H         1 ARG         0.0301
     90 H         249.1463  -93.4700  -33.2053 H         1 ARG         0.0301
     91 H         246.7108  -93.8826  -33.9281 H         1 ARG         0.0689
     92 H         246.5018  -94.6946  -32.3395 H         1 ARG         0.0689
     93 H         248.5662  -96.0997  -33.1562 H         1 ARG         0.2642
     94 H         246.0829  -96.1198  -36.3737 H         1 ARG         0.2615
     95 H         245.9512  -94.8096  -35.1700 H         1 ARG         0.2615
     96 H         248.7291  -97.7573  -34.6858 H         1 ARG         0.2615
     97 H         247.6455  -97.7741  -36.1030 H         1 ARG         0.2615
     98 H         250.9587  -92.2458  -31.2473 H         1 TYR         0.1885
     99 H         252.1427  -90.9299  -33.6381 H         1 TYR         0.0821
    100 H         254.2039  -90.4517  -32.3211 H         1 TYR         0.0453
    101 H         253.3495  -90.9947  -30.8372 H         1 TYR         0.0453
    102 H         253.1006  -88.4926  -33.6255 H         1 TYR         0.0530
    103 H         252.1503  -89.4319  -29.5730 H         1 TYR         0.0530
    104 H         252.2206  -86.2179  -33.3055 H         1 TYR         0.0525
    105 H         251.2741  -87.1536  -29.2492 H         1 TYR         0.0525
    106 H         251.2960  -84.7905  -31.8942 H         1 TYR         0.2458
    107 H         254.3408  -91.8056  -34.1581 H         1 GLY         0.1881
    108 H         254.5553  -94.2386  -35.0877 H         1 GLY         0.0763
    109 H         254.7181  -94.6352  -33.3433 H         1 GLY         0.0763
    110 H         256.8608  -95.4251  -33.6851 H         1 GLN         0.1883
    111 H         258.8624  -93.3149  -34.2943 H         1 GLN         0.0801
    112 H         260.1229  -93.7681  -32.2890 H         1 GLN         0.0337
    113 H         259.0176  -95.1096  -31.8359 H         1 GLN         0.0337
    114 H         257.4375  -93.7156  -31.0017 H         1 GLN         0.0504
    115 H         257.7822  -92.4224  -32.1999 H         1 GLN         0.0504
    116 H         258.8940  -90.8407  -29.1819 H         1 GLN         0.1814
    117 H         257.4785  -91.1426  -30.1334 H         1 GLN         0.1814
    118 H         261.1139  -94.1584  -34.3636 H         1 SER         0.1884
    119 H         261.3565  -97.0081  -35.1167 H         1 SER         0.0823
    120 H         262.0424  -94.6953  -36.9960 H         1 SER         0.0606
    121 H         260.7268  -95.8980  -37.2187 H         1 SER         0.0606
    122 H         262.6341  -96.4247  -38.3967 H         1 SER         0.2097
    123 H         265.5011  -95.8196  -33.8257 H         1 PRO         0.0802
    124 H         265.3945  -97.8955  -32.6684 H         1 PRO         0.0313
    125 H         266.7248  -98.2626  -33.8182 H         1 PRO         0.0313
    126 H         264.4826  -99.7764  -33.7008 H         1 PRO         0.0287
    127 H         265.3394  -99.4657  -35.2487 H         1 PRO         0.0287
    128 H         263.3619  -98.5490  -35.9842 H         1 PRO         0.0524
    129 H         262.6901  -98.4702  -34.3202 H         1 PRO         0.0524
    130 H         267.2429  -94.9799  -34.8288 H         1 ASN         0.1885
    131 H         268.1459  -96.2528  -37.3759 H         1 ASN         0.0826
    132 H         268.2990  -93.2635  -36.8402 H         1 ASN         0.0551
    133 H         266.8803  -94.0295  -37.6322 H         1 ASN         0.0551
    134 H         268.5098  -93.3064  -40.6567 H         1 ASN         0.1814
    135 H         267.2103  -92.9237  -39.5774 H         1 ASN         0.1814
    136 H         269.9499  -93.5690  -36.8108 H         1 MET         0.1876
    137 H         272.2301  -93.4039  -36.5570 H         1 MET         0.0751
    138 O1        272.0632  -96.5012  -36.3591 O.co2     1 MET        -0.4120
    139 H         271.1741  -92.7489  -34.3837 H         1 MET         0.0314
    140 H         272.8805  -93.2966  -34.2613 H         1 MET         0.0314
    141 H         272.0694  -95.5098  -33.4688 H         1 MET         0.0378
    142 H         270.3908  -94.8711  -33.4984 H         1 MET         0.0378
    143 H         273.6617  -93.9959  -30.3700 H         1 MET         0.0340
    144 H         274.0221  -93.8482  -32.1235 H         1 MET         0.0340
    145 H         273.5324  -95.4346  -31.4378 H         1 MET         0.0340
@<TRIPOS>BOND
     1    1    2 1  
     2    2    3 1  
     3    2    5 1  
     4    3    4 2  
     5    3    9 am 
     6    5    6 1  
     7    6    7 1  
     8    7    8 1  
     9    9   10 1  
    10   10   11 1  
    11   10   13 1  
    12   11   12 2  
    13   11   20 am 
    14   13   14 1  
    15   14   15 1  
    16   15   16 1  
    17   16   17 ar 
    18   17   18 ar 
    19   17   19 ar 
    20   20   21 1  
    21   21   22 1  
    22   21   24 1  
    23   22   23 2  
    24   22   32 am 
    25   24   25 1  
    26   25   26 ar 
    27   25   27 ar 
    28   26   28 ar 
    29   27   29 ar 
    30   28   30 ar 
    31   29   30 ar 
    32   30   31 1  
    33   32   33 1  
    34   33   34 1  
    35   34   35 2  
    36   34   36 am 
    37   36   37 1  
    38   37   38 1  
    39   37   40 1  
    40   38   39 2  
    41   38   45 am 
    42   40   41 1  
    43   41   42 1  
    44   42   43 2  
    45   42   44 am 
    46   45   46 1  
    47   46   47 1  
    48   46   49 1  
    49   47   48 2  
    50   47   51 am 
    51   49   50 1  
    52   51   52 1  
    53   51   57 1  
    54   52   53 1  
    55   52   55 1  
    56   53   54 2  
    57   53   58 am 
    58   55   56 1  
    59   56   57 1  
    60   58   59 1  
    61   59   60 1  
    62   59   62 1  
    63   60   61 2  
    64   60   66 am 
    65   62   63 1  
    66   63   64 2  
    67   63   65 am 
    68   66   67 1  
    69   67   68 1  
    70   67   70 1  
    71   68   69 ar 
    72   70   71 1  
    73   71   72 1  
    74   72   73 1  
    75    1   74 1  
    76    1   75 1  
    77    1   76 1  
    78    2   77 1  
    79    5   78 1  
    80    5   79 1  
    81    6   80 1  
    82    6   81 1  
    83    8   82 1  
    84    8   83 1  
    85    8   84 1  
    86    9   85 1  
    87   10   86 1  
    88   13   87 1  
    89   13   88 1  
    90   14   89 1  
    91   14   90 1  
    92   15   91 1  
    93   15   92 1  
    94   16   93 1  
    95   18   94 1  
    96   18   95 1  
    97   19   96 1  
    98   19   97 1  
    99   20   98 1  
   100   21   99 1  
   101   24  100 1  
   102   24  101 1  
   103   26  102 1  
   104   27  103 1  
   105   28  104 1  
   106   29  105 1  
   107   31  106 1  
   108   32  107 1  
   109   33  108 1  
   110   33  109 1  
   111   36  110 1  
   112   37  111 1  
   113   40  112 1  
   114   40  113 1  
   115   41  114 1  
   116   41  115 1  
   117   44  116 1  
   118   44  117 1  
   119   45  118 1  
   120   46  119 1  
   121   49  120 1  
   122   49  121 1  
   123   50  122 1  
   124   52  123 1  
   125   55  124 1  
   126   55  125 1  
   127   56  126 1  
   128   56  127 1  
   129   57  128 1  
   130   57  129 1  
   131   58  130 1  
   132   59  131 1  
   133   62  132 1  
   134   62  133 1  
   135   65  134 1  
   136   65  135 1  
   137   66  136 1  
   138   67  137 1  
   139   68  138 ar 
   140   70  139 1  
   141   70  140 1  
   142   71  141 1  
   143   71  142 1  
   144   73  143 1  
   145   73  144 1  
   146   73  145 1  
@<TRIPOS>SUBSTRUCTURE
     1 MET         1

