4tzn_ligand
  -I-interpret- 

145146  0  0  0  0  0  0  0  0999 V2000
  247.5270  -87.1350  -30.8240 N   0  3  0  0  0
  246.9440  -88.1800  -29.9910 C   0  0  0  0  0
  247.7350  -89.4790  -30.1070 C   0  0  0  0  0
  248.1160  -90.0780  -29.1010 O   0  0  0  0  0
  245.4780  -88.4130  -30.3730 C   0  0  0  0  0
  244.8220  -89.5870  -29.6590 C   0  0  0  0  0
  243.0810  -89.7980  -30.1110 S   0  0  0  0  0
  242.3490  -88.3490  -29.3220 C   0  0  0  0  0
  247.9900  -89.9020  -31.3400 N   0  0  0  0  0
  248.6750  -91.1640  -31.5930 C   0  0  0  0  0
  249.9460  -90.9470  -32.4120 C   0  0  0  0  0
  249.9440  -90.1920  -33.3850 O   0  0  0  0  0
  247.7310  -92.1320  -32.3070 C   0  0  0  0  0
  248.2860  -93.5240  -32.5220 C   0  0  0  0  0
  247.2260  -94.4270  -33.1230 C   0  0  0  0  0
  247.7970  -95.6500  -33.6730 N   0  0  0  0  0
  247.3860  -96.2200  -34.8000 C   0  0  0  0  0
  246.4000  -95.6760  -35.5000 N   0  0  0  0  0
  247.9630  -97.3330  -35.2280 N   0  0  0  0  0
  251.0300  -91.6090  -32.0150 N   0  0  0  0  0
  252.3230  -91.4280  -32.6740 C   0  0  0  0  0
  253.0340  -92.7520  -32.9550 C   0  0  0  0  0
  252.6380  -93.8020  -32.4480 O   0  0  0  0  0
  253.2250  -90.5270  -31.8250 C   0  0  0  0  0
  252.6850  -89.1280  -31.6240 C   0  0  0  0  0
  252.6980  -88.2050  -32.6610 C   0  0  0  0  0
  252.1680  -88.7290  -30.3980 C   0  0  0  0  0
  252.2060  -86.9250  -32.4840 C   0  0  0  0  0
  251.6750  -87.4490  -30.2120 C   0  0  0  0  0
  251.6970  -86.5520  -31.2590 C   0  0  0  0  0
  251.2080  -85.2770  -31.0830 O   0  0  0  0  0
  254.0860  -92.6900  -33.7670 N   0  0  0  0  0
  254.8790  -93.8600  -34.1070 C   0  0  0  0  0
  256.3600  -93.5290  -34.1700 C   0  0  0  0  0
  256.7290  -92.3990  -34.4890 O   0  0  0  0  0
  257.2130  -94.5060  -33.8620 N   0  0  0  0  0
  258.6540  -94.2630  -33.7770 C   0  0  0  0  0
  259.4960  -95.3530  -34.4420 C   0  0  0  0  0
  259.0060  -96.4370  -34.7400 O   0  0  0  0  0
  259.0810  -94.1200  -32.3120 C   0  0  0  0  0
  258.2330  -93.1500  -31.5090 C   0  0  0  0  0
  259.0300  -92.3970  -30.4670 C   0  0  0  0  0
  260.1850  -92.7220  -30.1960 O   0  0  0  0  0
  258.4170  -91.3760  -29.8790 N   0  0  0  0  0
  260.7750  -95.0530  -34.6550 N   0  0  0  0  0
  261.7030  -95.9800  -35.2980 C   0  0  0  0  0
  263.1000  -95.8230  -34.6990 C   0  0  0  0  0
  263.3870  -94.8120  -34.0670 O   0  0  0  0  0
  261.7350  -95.7350  -36.8100 C   0  0  0  0  0
  262.6410  -96.6050  -37.4640 O   0  0  0  0  0
  263.9600  -96.8440  -34.8540 N   0  0  0  0  0
  265.3710  -96.6920  -34.4830 C   0  0  0  0  0
  266.3050  -96.5450  -35.6880 C   0  0  0  0  0
  266.1820  -97.2940  -36.6580 O   0  0  0  0  0
  265.6630  -97.9890  -33.7310 C   0  0  0  0  0
  264.7920  -99.0000  -34.4160 C   0  0  0  0  0
  263.5730  -98.2640  -34.9430 C   0  0  0  0  0
  267.2300  -95.5900  -35.6210 N   0  0  0  0  0
  268.2280  -95.4090  -36.6750 C   0  0  0  0  0
  269.6410  -95.4120  -36.0870 C   0  0  0  0  0
  270.0340  -96.3790  -35.4340 O   0  0  0  0  0
  267.9620  -94.1140  -37.4510 C   0  0  0  0  0
  268.6830  -94.0660  -38.7890 C   0  0  0  0  0
  269.7650  -94.6330  -38.9510 O   0  0  0  0  0
  268.0850  -93.3750  -39.7540 N   0  0  0  0  0
  270.3790  -94.3240  -36.3150 N   0  0  0  0  0
  271.7770  -94.1530  -35.8910 C   0  0  0  0  0
  272.6120  -95.4260  -35.9980 C   0  0  0  0  0
  273.8150  -95.4160  -35.7360 O   0  0  0  0  0
  271.8460  -93.6170  -34.4540 C   0  0  0  0  0
  271.4500  -94.6070  -33.3630 C   0  0  0  0  0
  271.6690  -93.9540  -31.6960 S   0  0  0  0  0
  273.3870  -94.3460  -31.3760 C   0  0  0  0  0
  272.0632  -96.5012  -36.3591 O   0  0  0  0  0
  248.5011  -86.9929  -30.5570 H   0  0  0  0  0
  247.4792  -87.4162  -31.8033 H   0  0  0  0  0
  247.0071  -86.2674  -30.6924 H   0  0  0  0  0
  246.9880  -87.8481  -28.9537 H   0  0  0  0  0
  245.4564  -88.6346  -31.4400 H   0  0  0  0  0
  244.9267  -87.5167  -30.0888 H   0  0  0  0  0
  244.8679  -89.3941  -28.5872 H   0  0  0  0  0
  245.3543  -90.4933  -29.9476 H   0  0  0  0  0
  242.5301  -88.3913  -28.2480 H   0  0  0  0  0
  242.8009  -87.4461  -29.7326 H   0  0  0  0  0
  241.2755  -88.3376  -29.5106 H   0  0  0  0  0
  247.6987  -89.3283  -32.1315 H   0  0  0  0  0
  248.9692  -91.5959  -30.6364 H   0  0  0  0  0
  247.5389  -91.7135  -33.2949 H   0  0  0  0  0
  246.8506  -92.2384  -31.6733 H   0  0  0  0  0
  248.5997  -93.9339  -31.5620 H   0  0  0  0  0
  249.1337  -93.4673  -33.2049 H   0  0  0  0  0
  246.7367  -93.8856  -33.9327 H   0  0  0  0  0
  246.5264  -94.7028  -32.3339 H   0  0  0  0  0
  248.5587  -96.0953  -33.1612 H   0  0  0  0  0
  246.0872  -96.1145  -36.3662 H   0  0  0  0  0
  245.9543  -94.8190  -35.1723 H   0  0  0  0  0
  248.7229  -97.7522  -34.6920 H   0  0  0  0  0
  250.9573  -92.2585  -31.2319 H   0  0  0  0  0
  252.1239  -90.9572  -33.6367 H   0  0  0  0  0
  254.1753  -90.4340  -32.3507 H   0  0  0  0  0
  253.3056  -90.9867  -30.8400 H   0  0  0  0  0
  253.1028  -88.4942  -33.6308 H   0  0  0  0  0
  252.1502  -89.4358  -29.5684 H   0  0  0  0  0
  252.2207  -86.2140  -33.3100 H   0  0  0  0  0
  251.2719  -87.1520  -29.2438 H   0  0  0  0  0
  250.8931  -85.1778  -30.1815 H   0  0  0  0  0
  254.3459  -91.7879  -34.1659 H   0  0  0  0  0
  254.5632  -94.2185  -35.0867 H   0  0  0  0  0
  254.7265  -94.6163  -33.3370 H   0  0  0  0  0
  256.8537  -95.4434  -33.6816 H   0  0  0  0  0
  258.8370  -93.3374  -34.3227 H   0  0  0  0  0
  260.1004  -93.7340  -32.3102 H   0  0  0  0  0
  258.9742  -95.1007  -31.8485 H   0  0  0  0  0
  257.4672  -93.7268  -30.9905 H   0  0  0  0  0
  257.8157  -92.4193  -32.2019 H   0  0  0  0  0
  258.9054  -90.8265  -29.1720 H   0  0  0  0  0
  257.4578  -91.1414  -30.1345 H   0  0  0  0  0
  261.1206  -94.1405  -34.3578 H   0  0  0  0  0
  261.3621  -97.0002  -35.1220 H   0  0  0  0  0
  262.0586  -94.7089  -36.9843 H   0  0  0  0  0
  260.7368  -95.9172  -37.2081 H   0  0  0  0  0
  262.6340  -96.4228  -38.4065 H   0  0  0  0  0
  265.5414  -95.7847  -33.9034 H   0  0  0  0  0
  265.4489  -97.9093  -32.6652 H   0  0  0  0  0
  266.7184  -98.2596  -33.7624 H   0  0  0  0  0
  264.4943  -99.7834  -33.7190 H   0  0  0  0  0
  265.3319  -99.4796  -35.2324 H   0  0  0  0  0
  263.3128  -98.5623  -35.9586 H   0  0  0  0  0
  262.6720  -98.4871  -34.3715 H   0  0  0  0  0
  267.2432  -94.9677  -34.8129 H   0  0  0  0  0
  268.1496  -96.2446  -37.3705 H   0  0  0  0  0
  268.3267  -93.2833  -36.8467 H   0  0  0  0  0
  266.8914  -94.0583  -37.6480 H   0  0  0  0  0
  268.5220  -93.2985  -40.6725 H   0  0  0  0  0
  267.1890  -92.9211  -39.5762 H   0  0  0  0  0
  269.9413  -93.5539  -36.8207 H   0  0  0  0  0
  272.2075  -93.4309  -36.5848 H   0  0  0  0  0
  271.1361  -92.7919  -34.3965 H   0  0  0  0  0
  272.8879  -93.3542  -34.2708 H   0  0  0  0  0
  272.0929  -95.4816  -33.4619 H   0  0  0  0  0
  270.3918  -94.8343  -33.4920 H   0  0  0  0  0
  273.5297  -95.4249  -31.4376 H   0  0  0  0  0
  274.0152  -93.8522  -32.1174 H   0  0  0  0  0
  273.6580  -93.9987  -30.3790 H   0  0  0  0  0
  271.1309  -96.3434  -36.5248 H   0  0  0  0  0
  1  2  1  0  0  0
  2  3  1  0  0  0
  2  5  1  0  0  0
  3  4  2  0  0  0
  3  9  1  0  0  0
  5  6  1  0  0  0
  6  7  1  0  0  0
  7  8  1  0  0  0
  9 10  1  0  0  0
 10 11  1  0  0  0
 10 13  1  0  0  0
 11 12  2  0  0  0
 11 20  1  0  0  0
 13 14  1  0  0  0
 14 15  1  0  0  0
 15 16  1  0  0  0
 16 17  1  0  0  0
 17 18  1  0  0  0
 17 19  2  0  0  0
 20 21  1  0  0  0
 21 22  1  0  0  0
 21 24  1  0  0  0
 22 23  2  0  0  0
 22 32  1  0  0  0
 24 25  1  0  0  0
 25 26  4  0  0  0
 25 27  4  0  0  0
 26 28  4  0  0  0
 27 29  4  0  0  0
 28 30  4  0  0  0
 29 30  4  0  0  0
 30 31  1  0  0  0
 32 33  1  0  0  0
 33 34  1  0  0  0
 34 35  2  0  0  0
 34 36  1  0  0  0
 36 37  1  0  0  0
 37 38  1  0  0  0
 37 40  1  0  0  0
 38 39  2  0  0  0
 38 45  1  0  0  0
 40 41  1  0  0  0
 41 42  1  0  0  0
 42 43  2  0  0  0
 42 44  1  0  0  0
 45 46  1  0  0  0
 46 47  1  0  0  0
 46 49  1  0  0  0
 47 48  2  0  0  0
 47 51  1  0  0  0
 49 50  1  0  0  0
 51 52  1  0  0  0
 51 57  1  0  0  0
 52 53  1  0  0  0
 52 55  1  0  0  0
 53 54  2  0  0  0
 53 58  1  0  0  0
 55 56  1  0  0  0
 56 57  1  0  0  0
 58 59  1  0  0  0
 59 60  1  0  0  0
 59 62  1  0  0  0
 60 61  2  0  0  0
 60 66  1  0  0  0
 62 63  1  0  0  0
 63 64  2  0  0  0
 63 65  1  0  0  0
 66 67  1  0  0  0
 67 68  1  0  0  0
 67 70  1  0  0  0
 68 69  2  0  0  0
 70 71  1  0  0  0
 71 72  1  0  0  0
 72 73  1  0  0  0
 68 74  1  0  0  0
  1 75  1  0  0  0
  1 76  1  0  0  0
  1 77  1  0  0  0
  2 78  1  0  0  0
  5 79  1  0  0  0
  5 80  1  0  0  0
  6 81  1  0  0  0
  6 82  1  0  0  0
  8 83  1  0  0  0
  8 84  1  0  0  0
  8 85  1  0  0  0
  9 86  1  0  0  0
 10 87  1  0  0  0
 13 88  1  0  0  0
 13 89  1  0  0  0
 14 90  1  0  0  0
 14 91  1  0  0  0
 15 92  1  0  0  0
 15 93  1  0  0  0
 16 94  1  0  0  0
 18 95  1  0  0  0
 18 96  1  0  0  0
 19 97  1  0  0  0
 20 98  1  0  0  0
 21 99  1  0  0  0
 24100  1  0  0  0
 24101  1  0  0  0
 26102  1  0  0  0
 27103  1  0  0  0
 28104  1  0  0  0
 29105  1  0  0  0
 31106  1  0  0  0
 32107  1  0  0  0
 33108  1  0  0  0
 33109  1  0  0  0
 36110  1  0  0  0
 37111  1  0  0  0
 40112  1  0  0  0
 40113  1  0  0  0
 41114  1  0  0  0
 41115  1  0  0  0
 44116  1  0  0  0
 44117  1  0  0  0
 45118  1  0  0  0
 46119  1  0  0  0
 49120  1  0  0  0
 49121  1  0  0  0
 50122  1  0  0  0
 52123  1  0  0  0
 55124  1  0  0  0
 55125  1  0  0  0
 56126  1  0  0  0
 56127  1  0  0  0
 57128  1  0  0  0
 57129  1  0  0  0
 58130  1  0  0  0
 59131  1  0  0  0
 62132  1  0  0  0
 62133  1  0  0  0
 65134  1  0  0  0
 65135  1  0  0  0
 66136  1  0  0  0
 67137  1  0  0  0
 70138  1  0  0  0
 70139  1  0  0  0
 71140  1  0  0  0
 71141  1  0  0  0
 73142  1  0  0  0
 73143  1  0  0  0
 73144  1  0  0  0
 74145  1  0  0  0
M  END
$$$$
