6bx6_ligand
  -I-interpret- 

 52 54  0  0  0  0  0  0  0  0999 V2000
   52.1510  -42.1640   33.1020 C   0  0  0  0  0
   52.8540  -43.3410   33.3130 C   0  0  0  0  0
   54.0930  -43.4750   32.7170 C   0  0  0  0  0
   54.5720  -42.4270   31.9380 N   0  0  0  0  0
   52.6550  -41.1800   32.3460 N   0  0  0  0  0
   49.9380  -36.9760   30.4030 C   0  0  0  0  0
   50.5670  -37.4960   31.5740 O   0  0  0  0  0
   51.8810  -37.7310   31.3330 C   0  0  0  0  0
   52.4390  -39.0030   31.3060 C   0  0  0  0  0
   52.6810  -36.6280   31.1130 C   0  0  0  0  0
   52.1220  -35.3920   31.1530 O   0  0  0  0  0
   52.3100  -34.6910   29.9250 C   0  0  0  0  0
   54.0340  -36.7620   30.8680 C   0  0  0  0  0
   54.7400  -35.6230   30.6600 O   0  0  0  0  0
   54.7700  -34.8260   31.8470 C   0  0  0  0  0
   54.6000  -38.0250   30.8310 C   0  0  0  0  0
   53.8020  -39.1430   31.0550 C   0  0  0  0  0
   54.3610  -40.3460   31.0160 N   0  0  0  0  0
   53.8550  -41.3120   31.7710 C   0  0  0  0  0
   52.1770  -44.7280   34.3630 Br  0  0  0  0  0
   50.9380  -42.0610   33.7040 O   0  0  0  0  0
   49.9900  -42.6400   32.9280 C   0  0  0  0  0
   50.1880  -43.8670   32.3160 C   0  0  0  0  0
   49.1770  -44.4050   31.5320 C   0  0  0  0  0
   47.9840  -43.7160   31.3700 C   0  0  0  0  0
   47.7960  -42.4880   31.9890 C   0  0  0  0  0
   48.8020  -41.9410   32.7730 C   0  0  0  0  0
   48.5930  -40.7080   33.3840 C   0  0  0  0  0
   47.4600  -40.2410   33.4670 O   0  0  0  0  0
   49.6880  -40.0890   33.8440 N   0  0  0  0  0
   49.4940  -38.7830   34.4890 C   0  0  0  0  0
   54.6821  -44.3818   32.8541 H   0  0  0  0  0
   50.4220  -36.0423   30.1163 H   0  0  0  0  0
   50.0296  -37.6982   29.5918 H   0  0  0  0  0
   48.8838  -36.7917   30.6098 H   0  0  0  0  0
   51.8173  -39.8814   31.4792 H   0  0  0  0  0
   53.3769  -34.5808   29.7307 H   0  0  0  0  0
   51.8476  -35.2524   29.1132 H   0  0  0  0  0
   51.8487  -33.7060   29.9961 H   0  0  0  0  0
   53.7514  -34.5637   32.1328 H   0  0  0  0  0
   55.2402  -35.3919   32.6513 H   0  0  0  0  0
   55.3413  -33.9170   31.6584 H   0  0  0  0  0
   55.6643  -38.1430   30.6276 H   0  0  0  0  0
   55.1660  -40.5247   30.4157 H   0  0  0  0  0
   51.1273  -44.4039   32.4487 H   0  0  0  0  0
   49.3204  -45.3688   31.0436 H   0  0  0  0  0
   47.1911  -44.1406   30.7542 H   0  0  0  0  0
   46.8559  -41.9519   31.8590 H   0  0  0  0  0
   50.6145  -40.5052   33.7508 H   0  0  0  0  0
   49.0424  -38.0914   33.7777 H   0  0  0  0  0
   48.8378  -38.8991   35.3516 H   0  0  0  0  0
   50.4584  -38.3931   34.8145 H   0  0  0  0  0
  1  2  4  0  0  0
  5  1  4  0  0  0
  1 21  1  0  0  0
  3  2  4  0  0  0
  2 20  1  0  0  0
  4  3  4  0  0  0
 19  4  4  0  0  0
 19  5  4  0  0  0
  7  6  1  0  0  0
  8  7  1  0  0  0
  9  8  4  0  0  0
  8 10  4  0  0  0
 17  9  4  0  0  0
 10 11  1  0  0  0
 13 10  4  0  0  0
 11 12  1  0  0  0
 13 14  1  0  0  0
 16 13  4  0  0  0
 14 15  1  0  0  0
 17 16  4  0  0  0
 18 17  1  0  0  0
 18 19  1  0  0  0
 21 22  1  0  0  0
 22 23  4  0  0  0
 22 27  4  0  0  0
 23 24  4  0  0  0
 24 25  4  0  0  0
 25 26  4  0  0  0
 26 27  4  0  0  0
 27 28  1  0  0  0
 28 29  2  0  0  0
 28 30  1  0  0  0
 30 31  1  0  0  0
  3 32  1  0  0  0
  6 33  1  0  0  0
  6 34  1  0  0  0
  6 35  1  0  0  0
  9 36  1  0  0  0
 12 37  1  0  0  0
 12 38  1  0  0  0
 12 39  1  0  0  0
 15 40  1  0  0  0
 15 41  1  0  0  0
 15 42  1  0  0  0
 16 43  1  0  0  0
 18 44  1  0  0  0
 23 45  1  0  0  0
 24 46  1  0  0  0
 25 47  1  0  0  0
 26 48  1  0  0  0
 30 49  1  0  0  0
 31 50  1  0  0  0
 31 51  1  0  0  0
 31 52  1  0  0  0
M  END
$$$$
