4cfm_ligand
  -I-interpret- 

 47 50  0  0  0  0  0  0  0  0999 V2000
   -4.7020  -20.3020   21.0160 C   0  0  0  0  0
   -3.8310  -19.7980   19.9450 C   0  0  0  0  0
   -3.1670  -20.9960   19.2670 C   0  0  0  0  0
   -4.2360  -21.7330   18.5010 C   0  0  0  0  0
   -5.2530  -22.2920   19.4680 C   0  0  0  0  0
   -5.7840  -21.2440   20.4780 C   0  0  0  0  0
   -6.2660  -22.0550   21.6280 C   0  0  0  0  0
   -7.0010  -21.2280   22.4980 O   0  0  0  0  0
   -7.8920  -21.9750   23.2330 C   0  0  0  0  0
   -9.1910  -21.6400   23.2160 N   0  0  0  0  0
  -10.0550  -22.3580   23.9410 C   0  0  0  0  0
  -11.3340  -22.0480   23.9390 N   0  0  0  0  0
   -9.6420  -23.3980   24.6710 N   0  0  0  0  0
   -8.3610  -23.7320   24.6920 C   0  0  0  0  0
   -7.7600  -24.7140   25.3390 N   0  0  0  0  0
   -7.4660  -23.0310   23.9770 C   0  0  0  0  0
   -6.2760  -23.6010   24.1930 N   0  0  0  0  0
   -6.4760  -24.6400   25.0260 C   0  0  0  0  0
   -5.5330  -25.4880   25.4950 C   0  0  0  0  0
   -5.5720  -25.9080   26.8340 C   0  0  0  0  0
   -4.6040  -26.7730   27.3570 C   0  0  0  0  0
   -3.5890  -27.2530   26.5320 C   0  0  0  0  0
   -3.5380  -26.8570   25.1940 C   0  0  0  0  0
   -4.5040  -25.9830   24.6710 C   0  0  0  0  0
   -4.3900  -25.6090   23.3290 C   0  0  0  0  0
   -5.1937  -19.4500   21.4856 H   0  0  0  0  0
   -4.0866  -20.8576   21.7235 H   0  0  0  0  0
   -3.0726  -19.1340   20.3597 H   0  0  0  0  0
   -4.4170  -19.2338   19.2195 H   0  0  0  0  0
   -2.7109  -21.6501   20.0101 H   0  0  0  0  0
   -2.3766  -20.6634   18.5942 H   0  0  0  0  0
   -3.7827  -22.5490   17.9382 H   0  0  0  0  0
   -4.7283  -21.0465   17.8122 H   0  0  0  0  0
   -4.7635  -23.0803   20.0399 H   0  0  0  0  0
   -6.1028  -22.6443   18.8833 H   0  0  0  0  0
   -6.5317  -20.6181   19.9908 H   0  0  0  0  0
   -5.4147  -22.4813   22.1588 H   0  0  0  0  0
   -6.9013  -22.8635   21.2662 H   0  0  0  0  0
  -11.6668  -21.2595   23.3841 H   0  0  0  0  0
  -11.9925  -22.5962   24.4924 H   0  0  0  0  0
   -6.3741  -25.5525   27.4808 H   0  0  0  0  0
   -4.6440  -27.0698   28.4050 H   0  0  0  0  0
   -2.8375  -27.9351   26.9296 H   0  0  0  0  0
   -2.7413  -27.2297   24.5501 H   0  0  0  0  0
   -5.2943  -25.8993   22.7942 H   0  0  0  0  0
   -4.2588  -24.5289   23.2641 H   0  0  0  0  0
   -3.5283  -26.1082   22.8860 H   0  0  0  0  0
  1  2  1  0  0  0
  1  6  1  0  0  0
  2  3  1  0  0  0
  3  4  1  0  0  0
  4  5  1  0  0  0
  5  6  1  0  0  0
  6  7  1  0  0  0
  7  8  1  0  0  0
  8  9  1  0  0  0
  9 10  4  0  0  0
  9 16  4  0  0  0
 10 11  4  0  0  0
 11 12  1  0  0  0
 11 13  4  0  0  0
 13 14  4  0  0  0
 14 15  4  0  0  0
 14 16  4  0  0  0
 15 18  4  0  0  0
 16 17  4  0  0  0
 17 18  4  0  0  0
 18 19  1  0  0  0
 19 20  4  0  0  0
 19 24  4  0  0  0
 20 21  4  0  0  0
 21 22  4  0  0  0
 22 23  4  0  0  0
 23 24  4  0  0  0
 24 25  1  0  0  0
  1 26  1  0  0  0
  1 27  1  0  0  0
  2 28  1  0  0  0
  2 29  1  0  0  0
  3 30  1  0  0  0
  3 31  1  0  0  0
  4 32  1  0  0  0
  4 33  1  0  0  0
  5 34  1  0  0  0
  5 35  1  0  0  0
  6 36  1  0  0  0
  7 37  1  0  0  0
  7 38  1  0  0  0
 12 39  1  0  0  0
 12 40  1  0  0  0
 20 41  1  0  0  0
 21 42  1  0  0  0
 22 43  1  0  0  0
 23 44  1  0  0  0
 25 45  1  0  0  0
 25 46  1  0  0  0
 25 47  1  0  0  0
M  END
$$$$
