4mdq_ligand
  -I-interpret- 

 63 65  0  0  0  0  0  0  0  0999 V2000
    4.8960   19.7930   12.7620 C   0  0  0  0  0
    4.7420   18.4780   12.3440 C   0  0  0  0  0
    5.6820   17.5130   12.6880 C   0  0  0  0  0
    6.7860   17.8810   13.4480 C   0  0  0  0  0
    6.9440   19.2120   13.8610 C   0  0  0  0  0
    6.0030   20.1920   13.5240 C   0  0  0  0  0
    6.2180   21.5020   13.9580 C   0  0  0  0  0
    5.7590   22.4340   12.9000 N   0  0  0  0  0
    4.6400   23.1810   13.0450 C   0  0  0  0  0
    3.8590   23.0330   13.9670 O   0  0  0  0  0
    4.1260   24.0070   11.9120 C   0  0  0  0  0
    3.1990   25.0130   12.2800 N   0  3  0  0  0
    3.0770   26.2280   11.4200 C   0  0  0  0  0
    1.6460   26.7280   11.3770 C   0  0  0  0  0
    0.7180   25.7090   10.6810 C   0  0  0  0  0
   -0.6930   26.3260   10.6620 C   0  0  0  0  0
    1.1660   25.4190    9.2530 C   0  0  0  0  0
    3.8920   27.4570   11.9280 C   0  0  0  0  0
    4.4500   28.2610   11.1700 O   0  0  0  0  0
    3.9010   27.7210   13.2050 N   0  0  0  0  0
    4.7170   29.0390   13.4710 O   0  0  0  0  0
    4.4210   23.5340   10.4980 C   0  0  0  0  0
    3.6570   22.5240   10.0640 C   0  0  0  0  0
    2.6510   21.8480   10.6640 C   0  0  0  0  0
    1.9860   20.8160    9.9930 C   0  0  0  0  0
    2.3950   20.5150    8.6970 C   0  0  0  0  0
    1.6090   19.2330    7.7990 Cl  0  0  0  0  0
    3.4530   21.2360    8.1380 C   0  0  0  0  0
    4.0560   22.2280    8.8230 C   0  0  0  0  0
    5.0590   23.0640    8.5140 N   0  0  0  0  0
    5.3080   23.8600    9.5540 C   0  0  0  0  0
    6.2620   24.8240    9.4920 C   0  0  0  0  0
    6.9930   24.9240    8.5000 O   0  0  0  0  0
    6.3260   25.7360   10.4530 N   0  0  0  0  0
    7.2430   26.6790   10.2560 O   0  0  0  0  0
    4.1403   20.5306   12.4920 H   0  0  0  0  0
    3.8773   18.1999   11.7414 H   0  0  0  0  0
    5.5546   16.4797   12.3654 H   0  0  0  0  0
    7.5303   17.1339   13.7235 H   0  0  0  0  0
    7.8152   19.4883   14.4550 H   0  0  0  0  0
    7.2788   21.6579   14.1544 H   0  0  0  0  0
    5.6624   21.6834   14.8781 H   0  0  0  0  0
    6.3013   22.5142   12.0398 H   0  0  0  0  0
    4.7225   24.7990   11.4592 H   0  0  0  0  0
    3.5282   25.3590   13.1813 H   0  0  0  0  0
    2.2856   24.5616   12.2310 H   0  0  0  0  0
    3.4526   25.8914   10.4537 H   0  0  0  0  0
    1.6208   27.6615   10.8148 H   0  0  0  0  0
    1.2978   26.8733   12.3996 H   0  0  0  0  0
    0.7411   24.7633   11.2224 H   0  0  0  0  0
   -1.0210   26.5110   11.6849 H   0  0  0  0  0
   -0.6697   27.2661   10.1109 H   0  0  0  0  0
   -1.3834   25.6360   10.1769 H   0  0  0  0  0
    1.1550   26.3433    8.6753 H   0  0  0  0  0
    2.1761   25.0095    9.2665 H   0  0  0  0  0
    0.4862   24.6976    8.7997 H   0  0  0  0  0
    3.4469   27.1573   13.9236 H   0  0  0  0  0
    4.7199   29.2278   14.4123 H   0  0  0  0  0
    2.3555   22.1097   11.6800 H   0  0  0  0  0
    1.1745   20.2659   10.4694 H   0  0  0  0  0
    3.7961   20.9926    7.1325 H   0  0  0  0  0
    5.7221   25.7158   11.2748 H   0  0  0  0  0
    7.2274   27.2973   10.9902 H   0  0  0  0  0
  1  2  4  0  0  0
  1  6  4  0  0  0
  2  3  4  0  0  0
  3  4  4  0  0  0
  4  5  4  0  0  0
  5  6  4  0  0  0
  6  7  1  0  0  0
  7  8  1  0  0  0
  8  9  1  0  0  0
  9 10  2  0  0  0
  9 11  1  0  0  0
 11 12  1  0  0  0
 11 22  1  0  0  0
 12 13  1  0  0  0
 13 14  1  0  0  0
 13 18  1  0  0  0
 14 15  1  0  0  0
 15 16  1  0  0  0
 15 17  1  0  0  0
 18 19  2  0  0  0
 18 20  1  0  0  0
 20 21  1  0  0  0
 22 23  4  0  0  0
 22 31  4  0  0  0
 23 24  4  0  0  0
 23 29  4  0  0  0
 24 25  4  0  0  0
 25 26  4  0  0  0
 26 27  1  0  0  0
 26 28  4  0  0  0
 28 29  4  0  0  0
 29 30  4  0  0  0
 30 31  4  0  0  0
 31 32  1  0  0  0
 32 33  2  0  0  0
 32 34  1  0  0  0
 34 35  1  0  0  0
  1 36  1  0  0  0
  2 37  1  0  0  0
  3 38  1  0  0  0
  4 39  1  0  0  0
  5 40  1  0  0  0
  7 41  1  0  0  0
  7 42  1  0  0  0
  8 43  1  0  0  0
 11 44  1  0  0  0
 12 45  1  0  0  0
 12 46  1  0  0  0
 13 47  1  0  0  0
 14 48  1  0  0  0
 14 49  1  0  0  0
 15 50  1  0  0  0
 16 51  1  0  0  0
 16 52  1  0  0  0
 16 53  1  0  0  0
 17 54  1  0  0  0
 17 55  1  0  0  0
 17 56  1  0  0  0
 20 57  1  0  0  0
 21 58  1  0  0  0
 24 59  1  0  0  0
 25 60  1  0  0  0
 28 61  1  0  0  0
 34 62  1  0  0  0
 35 63  1  0  0  0
M  END
$$$$
