2p7z_ligand
  -I-interpret- 

 59 61  0  0  0  0  0  0  0  0999 V2000
   48.2330  -29.3590  -99.9140 C   0  0  0  0  0
   49.2520  -29.0890  -98.7940 C   0  0  0  0  0
   49.0700  -29.9170  -97.4700 C   0  0  0  0  0
   49.3450  -31.3290  -97.7080 C   0  0  0  0  0
   48.3500  -32.2940  -97.4170 C   0  0  0  0  0
   48.6170  -33.6620  -97.6420 C   0  0  0  0  0
   49.8820  -34.0730  -98.1570 C   0  0  0  0  0
   50.8800  -33.1210  -98.4480 C   0  0  0  0  0
   50.6150  -31.7490  -98.2250 C   0  0  0  0  0
   48.7180  -29.4030  -96.2040 C   0  0  0  0  0
   48.2640  -27.9550  -95.9440 C   0  0  0  0  0
   49.0150  -27.0930  -95.0740 C   0  0  0  0  0
   48.5780  -25.7570  -94.8150 C   0  0  0  0  0
   47.3880  -25.2720  -95.4250 C   0  0  0  0  0
   46.9940  -23.9930  -95.1540 O   0  0  0  0  0
   46.6330  -26.0950  -96.2870 C   0  0  0  0  0
   47.0660  -27.4280  -96.5420 C   0  0  0  0  0
   48.7560  -30.2940  -95.0090 C   0  0  0  0  0
   49.9430  -30.9790  -94.5770 C   0  0  0  0  0
   49.9380  -31.7390  -93.3700 C   0  0  0  0  0
   48.7470  -31.8250  -92.5830 C   0  0  0  0  0
   48.7750  -32.5580  -91.4860 O   0  0  0  0  0
   48.5020  -32.0500  -90.1680 C   0  0  0  0  0
   48.6480  -33.2450  -89.2000 C   0  0  0  0  0
   49.9920  -33.4070  -88.5720 N   0  3  0  0  0
   50.9960  -32.6270  -89.3330 C   0  0  0  0  0
   50.0270  -32.9800  -87.1480 C   0  0  0  0  0
   47.5780  -31.1490  -93.0330 C   0  0  0  0  0
   47.5760  -30.3890  -94.2270 C   0  0  0  0  0
   48.2859  -30.4077 -100.2066 H   0  0  0  0  0
   47.2299  -29.1312  -99.5535 H   0  0  0  0  0
   48.4636  -28.7288 -100.7729 H   0  0  0  0  0
   49.1269  -28.0424  -98.5164 H   0  0  0  0  0
   50.2254  -29.3702  -99.1958 H   0  0  0  0  0
   47.3833  -31.9822  -97.0215 H   0  0  0  0  0
   47.8530  -34.4074  -97.4212 H   0  0  0  0  0
   50.0786  -35.1316  -98.3269 H   0  0  0  0  0
   51.8459  -33.4384  -98.8408 H   0  0  0  0  0
   51.3813  -31.0064  -98.4477 H   0  0  0  0  0
   49.9279  -27.4618  -94.6064 H   0  0  0  0  0
   49.1547  -25.1119  -94.1522 H   0  0  0  0  0
   46.1821  -23.8020  -95.6293 H   0  0  0  0  0
   45.7251  -25.7137  -96.7544 H   0  0  0  0  0
   46.4771  -28.0624  -97.2044 H   0  0  0  0  0
   50.8522  -30.9175  -95.1750 H   0  0  0  0  0
   50.8425  -32.2546  -93.0472 H   0  0  0  0  0
   47.5006  -31.6230  -90.1135 H   0  0  0  0  0
   49.1935  -31.2489  -89.9070 H   0  0  0  0  0
   48.4722  -34.1443  -89.7903 H   0  0  0  0  0
   47.9451  -33.0706  -88.3853 H   0  0  0  0  0
   50.2076  -34.4036  -88.5971 H   0  0  0  0  0
   51.0310  -32.9874  -90.3611 H   0  0  0  0  0
   50.7175  -31.5732  -89.3253 H   0  0  0  0  0
   51.9755  -32.7487  -88.8704 H   0  0  0  0  0
   49.7549  -31.9268  -87.0790 H   0  0  0  0  0
   49.3195  -33.5778  -86.5733 H   0  0  0  0  0
   51.0321  -33.1236  -86.7516 H   0  0  0  0  0
   46.6632  -31.2182  -92.4444 H   0  0  0  0  0
   46.6681  -29.8768  -94.5457 H   0  0  0  0  0
  1  2  1  0  0  0
  2  3  1  0  0  0
  3  4  1  0  0  0
  3 10  2  0  0  0
  4  5  4  0  0  0
  4  9  4  0  0  0
  5  6  4  0  0  0
  6  7  4  0  0  0
  7  8  4  0  0  0
  8  9  4  0  0  0
 10 11  1  0  0  0
 10 18  1  0  0  0
 11 12  4  0  0  0
 11 17  4  0  0  0
 12 13  4  0  0  0
 13 14  4  0  0  0
 14 15  1  0  0  0
 14 16  4  0  0  0
 16 17  4  0  0  0
 18 19  4  0  0  0
 18 29  4  0  0  0
 19 20  4  0  0  0
 20 21  4  0  0  0
 21 22  1  0  0  0
 21 28  4  0  0  0
 22 23  1  0  0  0
 23 24  1  0  0  0
 24 25  1  0  0  0
 25 26  1  0  0  0
 25 27  1  0  0  0
 28 29  4  0  0  0
  1 30  1  0  0  0
  1 31  1  0  0  0
  1 32  1  0  0  0
  2 33  1  0  0  0
  2 34  1  0  0  0
  5 35  1  0  0  0
  6 36  1  0  0  0
  7 37  1  0  0  0
  8 38  1  0  0  0
  9 39  1  0  0  0
 12 40  1  0  0  0
 13 41  1  0  0  0
 15 42  1  0  0  0
 16 43  1  0  0  0
 17 44  1  0  0  0
 19 45  1  0  0  0
 20 46  1  0  0  0
 23 47  1  0  0  0
 23 48  1  0  0  0
 24 49  1  0  0  0
 24 50  1  0  0  0
 25 51  1  0  0  0
 26 52  1  0  0  0
 26 53  1  0  0  0
 26 54  1  0  0  0
 27 55  1  0  0  0
 27 56  1  0  0  0
 27 57  1  0  0  0
 28 58  1  0  0  0
 29 59  1  0  0  0
M  END
$$$$
