2hk5_ligand
  -I-interpret- 

 62 65  0  0  0  0  0  0  0  0999 V2000
   50.8600    8.9450    2.0930 O   0  0  0  0  0
   49.9570    9.8340    1.6810 C   0  0  0  0  0
   49.1740   10.5830    2.5600 C   0  0  0  0  0
   48.2310   11.4750    2.0540 C   0  0  0  0  0
   48.0640   11.6020    0.6760 C   0  0  0  0  0
   47.0630   12.5630    0.0980 C   0  0  0  0  0
   49.7910    9.9970    0.3110 C   0  0  0  0  0
   48.8480   10.8740   -0.2050 C   0  0  0  0  0
   48.7100   10.9980   -1.5470 N   0  0  0  0  0
   48.1220   10.0520   -2.3110 C   0  0  0  0  0
   48.0070   10.3040   -3.6290 N   0  0  0  0  0
   47.6200    8.8480   -1.8150 C   0  0  0  0  0
   47.0360    7.9120   -2.6660 C   0  0  0  0  0
   46.5400    6.7210   -2.2460 N   0  0  0  0  0
   46.5130    6.2580   -0.8700 C   0  0  0  0  0
   47.8170    5.7050   -0.2950 C   0  0  0  0  0
   48.0730    4.3820   -0.8520 N   0  3  0  0  0
   47.8700    3.2180    0.0070 C   0  0  0  0  0
   47.7360    1.9020   -0.7310 C   0  0  0  0  0
   48.5400    4.2820   -2.2280 C   0  0  0  0  0
   49.8750    4.9660   -2.4050 C   0  0  0  0  0
   46.9420    8.2130   -3.9820 N   0  0  0  0  0
   47.4250    9.3900   -4.4400 C   0  0  0  0  0
   47.3700    9.7520   -5.7880 N   0  0  0  0  0
   46.7260    9.1750   -6.8850 C   0  0  0  0  0
   45.9370    8.0330   -6.9750 C   0  0  0  0  0
   46.9940    9.9570   -7.9950 C   0  0  0  0  0
   47.7500   11.0340   -7.6980 N   0  0  0  0  0
   48.0310   10.9430   -6.2840 C   0  0  0  0  0
   46.4960    9.6290   -9.2480 C   0  0  0  0  0
   45.7160    8.4790   -9.3500 C   0  0  0  0  0
   45.4430    7.6880   -8.2310 C   0  0  0  0  0
   51.2840    8.5444    1.3306 H   0  0  0  0  0
   49.2994   10.4708    3.6369 H   0  0  0  0  0
   47.6247   12.0727    2.7347 H   0  0  0  0  0
   46.0650   12.3014    0.4498 H   0  0  0  0  0
   47.3080   13.5762    0.4166 H   0  0  0  0  0
   47.0927   12.5058   -0.9901 H   0  0  0  0  0
   50.4156    9.4230   -0.3735 H   0  0  0  0  0
   49.0648   11.8406   -1.9992 H   0  0  0  0  0
   47.6857    8.6370   -0.7476 H   0  0  0  0  0
   46.1538    6.0989   -2.9561 H   0  0  0  0  0
   45.8051    5.4294   -0.8498 H   0  0  0  0  0
   46.2708    7.1333   -0.2673 H   0  0  0  0  0
   47.7333    5.6321    0.7893 H   0  0  0  0  0
   48.6392    6.3725   -0.5530 H   0  0  0  0  0
   47.9469    3.5158   -1.3757 H   0  0  0  0  0
   46.9341    3.3782    0.5422 H   0  0  0  0  0
   48.7509    3.1363    0.6438 H   0  0  0  0  0
   46.8804    1.9502   -1.4047 H   0  0  0  0  0
   48.6429    1.7155   -1.3062 H   0  0  0  0  0
   47.5886    1.0967   -0.0114 H   0  0  0  0  0
   47.8121    4.7678   -2.8778 H   0  0  0  0  0
   48.6540    3.2277   -2.4802 H   0  0  0  0  0
   49.7786    6.0205   -2.1464 H   0  0  0  0  0
   50.6116    4.4966   -1.7530 H   0  0  0  0  0
   50.1948    4.8728   -3.4429 H   0  0  0  0  0
   45.7134    7.4301   -6.0949 H   0  0  0  0  0
   48.6294   11.6408   -5.6983 H   0  0  0  0  0
   46.7072   10.2480  -10.1200 H   0  0  0  0  0
   45.3114    8.1912  -10.3203 H   0  0  0  0  0
   44.8358    6.7896   -8.3422 H   0  0  0  0  0
  1  2  1  0  0  0
  2  3  4  0  0  0
  2  7  4  0  0  0
  3  4  4  0  0  0
  4  5  4  0  0  0
  5  6  1  0  0  0
  5  8  4  0  0  0
  7  8  4  0  0  0
  8  9  1  0  0  0
  9 10  1  0  0  0
 10 11  4  0  0  0
 10 12  4  0  0  0
 11 23  4  0  0  0
 12 13  4  0  0  0
 13 14  1  0  0  0
 13 22  4  0  0  0
 14 15  1  0  0  0
 15 16  1  0  0  0
 16 17  1  0  0  0
 17 18  1  0  0  0
 17 20  1  0  0  0
 18 19  1  0  0  0
 20 21  1  0  0  0
 22 23  4  0  0  0
 23 24  1  0  0  0
 24 25  4  0  0  0
 24 29  4  0  0  0
 25 26  4  0  0  0
 25 27  4  0  0  0
 26 32  4  0  0  0
 27 28  4  0  0  0
 27 30  4  0  0  0
 28 29  4  0  0  0
 30 31  4  0  0  0
 31 32  4  0  0  0
  1 33  1  0  0  0
  3 34  1  0  0  0
  4 35  1  0  0  0
  6 36  1  0  0  0
  6 37  1  0  0  0
  6 38  1  0  0  0
  7 39  1  0  0  0
  9 40  1  0  0  0
 12 41  1  0  0  0
 14 42  1  0  0  0
 15 43  1  0  0  0
 15 44  1  0  0  0
 16 45  1  0  0  0
 16 46  1  0  0  0
 17 47  1  0  0  0
 18 48  1  0  0  0
 18 49  1  0  0  0
 19 50  1  0  0  0
 19 51  1  0  0  0
 19 52  1  0  0  0
 20 53  1  0  0  0
 20 54  1  0  0  0
 21 55  1  0  0  0
 21 56  1  0  0  0
 21 57  1  0  0  0
 26 58  1  0  0  0
 29 59  1  0  0  0
 30 60  1  0  0  0
 31 61  1  0  0  0
 32 62  1  0  0  0
M  END
$$$$
