3zos_ligand
  -I-interpret- 

 68 72  0  0  0  0  0  0  0  0999 V2000
  -14.0080   -1.4160  -44.4390 N   0  0  0  0  0
   -1.4930    5.7440  -37.7560 N   0  3  0  0  0
  -12.5320    2.4740  -42.3900 C   0  0  0  0  0
  -11.7880    3.7030  -42.0800 C   0  0  0  0  0
  -12.2020    4.9460  -42.4370 C   0  0  0  0  0
  -11.3780    6.0180  -42.1010 C   0  0  0  0  0
  -10.1280    5.8080  -41.4670 C   0  0  0  0  0
  -10.5100    3.4460  -41.4600 C   0  0  0  0  0
   -6.0050    5.2320  -39.9050 C   0  0  0  0  0
   -3.9660    6.2020  -39.0510 C   0  0  0  0  0
   -3.8920    3.9900  -39.9930 C   0  0  0  0  0
   -1.7480    5.0670  -39.0290 C   0  0  0  0  0
   -0.0860    6.0510  -37.5810 C   0  0  0  0  0
    0.0650    6.8710  -36.3120 C   0  0  0  0  0
   -2.0760    5.1000  -36.5960 C   0  0  0  0  0
  -15.3490   -2.8380  -42.8280 C   0  0  0  0  0
  -15.8020   -2.8630  -41.5320 C   0  0  0  0  0
  -15.5200   -1.8240  -40.6850 C   0  0  0  0  0
  -14.8040   -0.7310  -41.0820 N   0  0  0  0  0
  -14.3470   -0.6960  -42.3520 N   0  0  0  0  0
  -14.5820   -1.7210  -43.2460 C   0  0  0  0  0
  -13.4190   -0.2390  -44.3330 C   0  0  0  0  0
  -13.6520    0.2250  -43.0390 C   0  0  0  0  0
  -13.0570    1.4850  -42.6500 C   0  0  0  0  0
   -9.6880    4.5210  -41.1280 C   0  0  0  0  0
  -13.5290    5.1100  -43.0950 C   0  0  0  0  0
   -8.3170    4.2040  -40.5510 C   0  0  0  0  0
   -7.9780    3.0220  -40.4710 O   0  0  0  0  0
   -7.4000    5.2880  -40.2970 N   0  0  0  0  0
   -5.3380    6.2790  -39.3330 C   0  0  0  0  0
   -3.2470    5.0450  -39.3740 C   0  0  0  0  0
   -5.2690    4.0830  -40.2550 C   0  0  0  0  0
   -3.1550    2.6990  -40.3230 C   0  0  0  0  0
   -2.0130    2.9820  -40.9800 F   0  0  0  0  0
   -3.9060    1.8400  -41.0290 F   0  0  0  0  0
   -2.8800    2.1140  -39.1650 F   0  0  0  0  0
   -1.9000    5.9040  -35.3310 C   0  0  0  0  0
   -0.2120    6.8790  -33.9020 C   0  0  0  0  0
   -0.4880    6.1850  -35.1700 N   0  3  0  0  0
   -1.9944    6.6298  -37.8218 H   0  0  0  0  0
  -11.6997    7.0341  -42.3293 H   0  0  0  0  0
   -9.4953    6.6655  -41.2381 H   0  0  0  0  0
  -10.1920    2.4239  -41.2542 H   0  0  0  0  0
   -3.4591    7.0441  -38.5798 H   0  0  0  0  0
   -1.4006    4.0373  -38.9451 H   0  0  0  0  0
   -1.2231    5.6083  -39.8161 H   0  0  0  0  0
    0.2846    6.6138  -38.4377 H   0  0  0  0  0
    0.4922    5.1302  -37.5037 H   0  0  0  0  0
   -0.4709    7.8111  -36.4427 H   0  0  0  0  0
    1.1272    7.0379  -36.1333 H   0  0  0  0  0
   -1.5722    4.1435  -36.4566 H   0  0  0  0  0
   -3.1454    4.9914  -36.7766 H   0  0  0  0  0
  -15.5726   -3.6535  -43.5158 H   0  0  0  0  0
  -16.3871   -3.7112  -41.1765 H   0  0  0  0  0
  -15.8800   -1.8714  -39.6573 H   0  0  0  0  0
  -12.8555    0.2743  -45.1121 H   0  0  0  0  0
  -13.5451    4.5408  -44.0244 H   0  0  0  0  0
  -14.3108    4.7438  -42.4296 H   0  0  0  0  0
  -13.6983    6.1650  -43.3106 H   0  0  0  0  0
   -7.7869    6.2251  -40.4088 H   0  0  0  0  0
   -5.8828    7.1916  -39.0913 H   0  0  0  0  0
   -5.7781    3.2494  -40.7388 H   0  0  0  0  0
   -2.2717    5.3425  -34.4739 H   0  0  0  0  0
   -2.4636    6.8348  -35.3956 H   0  0  0  0  0
    0.8658    6.9540  -33.7575 H   0  0  0  0  0
   -0.6460    7.8783  -33.9343 H   0  0  0  0  0
   -0.6521    6.3168  -33.0783 H   0  0  0  0  0
   -0.0067    5.2871  -35.1209 H   0  0  0  0  0
  1 21  4  0  0  0
 22  1  4  0  0  0
 12  2  1  0  0  0
  2 13  1  0  0  0
  2 15  1  0  0  0
  4  3  1  0  0  0
  3 24  3  0  0  0
  4  5  4  0  0  0
  8  4  4  0  0  0
  6  5  4  0  0  0
  5 26  1  0  0  0
  7  6  4  0  0  0
 25  7  4  0  0  0
 25  8  4  0  0  0
 29  9  1  0  0  0
  9 30  4  0  0  0
  9 32  4  0  0  0
 30 10  4  0  0  0
 10 31  4  0  0  0
 11 31  4  0  0  0
 32 11  4  0  0  0
 11 33  1  0  0  0
 31 12  1  0  0  0
 13 14  1  0  0  0
 14 39  1  0  0  0
 15 37  1  0  0  0
 16 17  4  0  0  0
 21 16  4  0  0  0
 18 17  4  0  0  0
 19 18  4  0  0  0
 20 19  4  0  0  0
 20 21  4  0  0  0
 23 20  4  0  0  0
 23 22  4  0  0  0
 24 23  1  0  0  0
 27 25  1  0  0  0
 27 28  2  0  0  0
 27 29  1  0  0  0
 33 34  1  0  0  0
 33 35  1  0  0  0
 33 36  1  0  0  0
 37 39  1  0  0  0
 39 38  1  0  0  0
  2 40  1  0  0  0
  6 41  1  0  0  0
  7 42  1  0  0  0
  8 43  1  0  0  0
 10 44  1  0  0  0
 12 45  1  0  0  0
 12 46  1  0  0  0
 13 47  1  0  0  0
 13 48  1  0  0  0
 14 49  1  0  0  0
 14 50  1  0  0  0
 15 51  1  0  0  0
 15 52  1  0  0  0
 16 53  1  0  0  0
 17 54  1  0  0  0
 18 55  1  0  0  0
 22 56  1  0  0  0
 26 57  1  0  0  0
 26 58  1  0  0  0
 26 59  1  0  0  0
 29 60  1  0  0  0
 30 61  1  0  0  0
 32 62  1  0  0  0
 37 63  1  0  0  0
 37 64  1  0  0  0
 38 65  1  0  0  0
 38 66  1  0  0  0
 38 67  1  0  0  0
 39 68  1  0  0  0
M  END
$$$$
