2jg8_ligand
  -I-interpret- 

 19 18  0  0  0  0  0  0  0  0999 V2000
  -19.7820    9.3090    2.3370 N   0  3  0  0  0
  -18.5420    9.6500    1.5840 C   0  0  0  0  0
  -17.3160    9.0080    2.2360 C   0  0  0  0  0
  -17.4390    7.5980    2.2780 O   0  0  0  0  0
  -18.6430    9.2240    0.1240 C   0  0  0  0  0
  -18.3210   10.0000   -0.7740 O   0  0  0  0  0
  -15.9950    6.8900    2.3650 P   0  0  0  0  0
  -15.0960    7.5450    3.5240 O   0  0  0  0  0
  -15.2520    7.0710    0.9510 O   0  0  0  0  0
  -16.1900    5.3160    2.6190 O   0  0  0  0  0
  -19.6817    9.6066    3.3075 H   0  0  0  0  0
  -20.5775    9.7871    1.9140 H   0  0  0  0  0
  -19.9325    8.3007    2.3031 H   0  0  0  0  0
  -18.4288   10.7337    1.6148 H   0  0  0  0  0
  -17.2291    9.3806    3.2566 H   0  0  0  0  0
  -16.4347    9.2634    1.6476 H   0  0  0  0  0
  -19.0027    8.2258   -0.1256 H   0  0  0  0  0
  -14.9915    8.4841    3.3542 H   0  0  0  0  0
  -15.1235    8.0061    0.7757 H   0  0  0  0  0
  1  2  1  0  0  0
  2  3  1  0  0  0
  2  5  1  0  0  0
  3  4  1  0  0  0
  4  7  1  0  0  0
  5  6  2  0  0  0
  7  8  1  0  0  0
  7  9  1  0  0  0
  7 10  2  0  0  0
  1 11  1  0  0  0
  1 12  1  0  0  0
  1 13  1  0  0  0
  2 14  1  0  0  0
  3 15  1  0  0  0
  3 16  1  0  0  0
  5 17  1  0  0  0
  8 18  1  0  0  0
  9 19  1  0  0  0
M  END
$$$$
