### 
### Created by X-TOOL on Mon Sep 10 21:12:57 2018
### 

@<TRIPOS>MOLECULE
2jg8_ligand
   17    16     1     0     0
SMALL
GAST_HUCK


@<TRIPOS>ATOM
      1 N         -19.7820    9.3090    2.3370 N.4       1 SEP         0.2392
      2 CA        -18.5420    9.6500    1.5840 C.3       1 SEP         0.0747
      3 CB        -17.3160    9.0080    2.2360 C.3       1 SEP         0.1367
      4 OG        -17.4390    7.5980    2.2780 O.3       1 SEP        -0.2679
      5 C         -18.6430    9.2240    0.1240 C.2       1 SEP         0.1492
      6 O         -18.3210   10.0000   -0.7740 O.2       1 SEP        -0.3689
      7 P         -15.9950    6.8900    2.3650 P.3       1 SEP         0.2012
      8 O1P       -15.0960    7.5450    3.5240 O.co2     1 SEP        -0.5537
      9 O2P       -15.2520    7.0710    0.9510 O.co2     1 SEP        -0.5537
     10 O3P       -16.1900    5.3160    2.6190 O.co2     1 SEP        -0.5537
     11 H1        -19.6840    9.6026    3.2963 H         1 SEP         0.2016
     12 H2        -19.9318    8.3127    2.3042 H         1 SEP         0.2016
     13 H3        -20.5689    9.7810    1.9199 H         1 SEP         0.2016
     14 H4        -18.4158   10.7423    1.6139 H         1 SEP         0.1116
     15 H5        -17.2138    9.3901    3.2624 H         1 SEP         0.0697
     16 H6        -16.4203    9.2730    1.6551 H         1 SEP         0.0697
     17 H7        -19.0024    8.2267   -0.1253 H         1 SEP         0.1410
@<TRIPOS>BOND
     1    1    2 1  
     2    2    3 1  
     3    2    5 1  
     4    3    4 1  
     5    4    7 1  
     6    5    6 2  
     7    7    8 ar 
     8    7    9 ar 
     9    7   10 ar 
    10    1   11 1  
    11    1   12 1  
    12    1   13 1  
    13    2   14 1  
    14    3   15 1  
    15    3   16 1  
    16    5   17 1  
@<TRIPOS>SUBSTRUCTURE
     1 SEP         1

