### 
### Created by X-TOOL on Mon Sep 10 21:13:04 2018
### 

@<TRIPOS>MOLECULE
2x6e_ligand
   67    72     1     0     0
SMALL
GAST_HUCK


@<TRIPOS>ATOM
      1 C01        -6.6370   22.4780   -4.4510 C.3       1 YM4         0.0081
      2 C02        -6.4230   23.9110   -3.9240 C.2       1 YM4         0.1285
      3 C03        -7.2110   25.0340   -4.2030 C.2       1 YM4        -0.0348
      4 C04        -6.6330   26.1570   -3.4900 C.2       1 YM4        -0.0089
      5 C05        -7.1090   27.6100   -3.5110 C.3       1 YM4        -0.0746
      6 N06        -6.1560   28.3610   -4.3380 N.4       1 YM4         0.4102
      7 C07        -6.8340   28.9010   -5.5480 C.3       1 YM4        -0.0899
      8 C08        -6.1080   30.1540   -6.0420 C.3       1 YM4         0.0109
      9 N09        -4.6740   30.0980   -5.8510 N.pl3     1 YM4        -0.3045
     10 C10        -3.9650   31.0160   -6.7640 C.ar      1 YM4         0.0950
     11 C11        -4.0690   30.8660   -8.1240 C.ar      1 YM4         0.0429
     12 BR1        -5.0240   29.3360   -8.8510 Br        1 YM4        -0.0623
     13 C13        -3.4590   31.7840   -9.0450 C.ar      1 YM4        -0.0141
     14 N14        -2.7400   32.8880   -8.5460 N.ar      1 YM4        -0.3241
     15 C15        -2.6370   33.0600   -7.1590 C.ar      1 YM4         0.0837
     16 N16        -1.9880   34.0600   -6.4190 N.2       1 YM4        -0.2977
     17 C17        -2.2190   33.7760   -5.1000 C.2       1 YM4         0.1352
     18 C18        -1.6860   34.5060   -4.0200 C.ar      1 YM4         0.0244
     19 C19        -2.0950   34.1100   -2.6940 C.ar      1 YM4        -0.0535
     20 C20        -1.5380   34.8390   -1.5550 C.ar      1 YM4        -0.0366
     21 C21        -0.6150   35.8960   -1.7810 C.ar      1 YM4         0.0475
     22 N22        -0.1170   36.6090   -0.5830 N.pl3     1 YM4        -0.3088
     23 C23         0.1750   35.7120    0.5820 C.3       1 YM4         0.0098
     24 C24         1.2420   36.3850    1.4780 C.3       1 YM4        -0.0929
     25 N25         1.1320   37.8670    1.5050 N.4       1 YM4         0.4034
     26 C26         0.8570   38.4620    2.8200 C.3       1 YM4        -0.1255
     27 C27         0.6090   38.7090    0.3970 C.3       1 YM4        -0.0929
     28 C28        -0.4320   38.0330   -0.4910 C.3       1 YM4         0.0098
     29 C29        -0.1930   36.2890   -3.1180 C.ar      1 YM4        -0.0366
     30 C30        -0.7450   35.5600   -4.2680 C.ar      1 YM4        -0.0535
     31 N31        -2.9730   32.5720   -4.9880 N.pl3     1 YM4        -0.2471
     32 C32        -3.2340   32.1640   -6.2640 C.ar      1 YM4         0.1298
     33 C33        -4.0410   29.6140   -4.6300 C.3       1 YM4         0.0109
     34 C34        -5.1090   29.1410   -3.6320 C.3       1 YM4        -0.0899
     35 N35        -5.5180   25.7120   -2.7980 N.2       1 YM4        -0.1754
     36 O36        -5.3720   24.3090   -3.0550 O.3       1 YM4        -0.1813
     37 H          -7.6131   22.1157   -4.1286 H         1 YM4         0.0449
     38 H          -6.5911   22.4821   -5.5400 H         1 YM4         0.0449
     39 H          -5.8575   21.8267   -4.0557 H         1 YM4         0.0449
     40 H          -8.0959   25.0597   -4.8389 H         1 YM4         0.0258
     41 H          -7.1487   28.0178   -2.5010 H         1 YM4         0.0165
     42 H          -8.1160   27.6804   -3.9221 H         1 YM4         0.0165
     43 H          -7.8627   29.1592   -5.2965 H         1 YM4         0.0039
     44 H          -6.8190   28.1456   -6.3337 H         1 YM4         0.0039
     45 H          -6.4840   31.0005   -5.4674 H         1 YM4         0.0500
     46 H          -6.2945   30.2423   -7.1123 H         1 YM4         0.0500
     47 H          -3.5515   31.6280  -10.1198 H         1 YM4         0.0720
     48 H          -2.7989   33.2911   -2.5455 H         1 YM4         0.0640
     49 H          -1.8290   34.5733   -0.5387 H         1 YM4         0.0536
     50 H           0.5471   34.7522    0.2237 H         1 YM4         0.0497
     51 H          -0.7364   35.5455    1.1562 H         1 YM4         0.0497
     52 H           2.2216   36.1334    1.0716 H         1 YM4         0.0037
     53 H           1.0947   36.0238    2.4958 H         1 YM4         0.0037
     54 H          -0.0895   38.0779    3.2004 H         1 YM4        -0.0019
     55 H           1.6597   38.2021    3.5100 H         1 YM4        -0.0019
     56 H           0.7975   39.5459    2.7216 H         1 YM4        -0.0019
     57 H           1.4582   38.9510   -0.2421 H         1 YM4         0.0037
     58 H           0.1198   39.5671    0.8579 H         1 YM4         0.0037
     59 H          -1.4256   38.1652   -0.0627 H         1 YM4         0.0497
     60 H          -0.4169   38.4802   -1.4849 H         1 YM4         0.0497
     61 H           0.5156   37.1046   -3.2623 H         1 YM4         0.0536
     62 H          -0.4467   35.8139   -5.2852 H         1 YM4         0.0640
     63 H          -3.2603   32.1078   -4.1263 H         1 YM4         0.2307
     64 H          -3.4657   30.4235   -4.1807 H         1 YM4         0.0500
     65 H          -3.3854   28.7783   -4.8745 H         1 YM4         0.0500
     66 H          -4.6395   28.5094   -2.8779 H         1 YM4         0.0039
     67 H          -5.5673   30.0098   -3.1596 H         1 YM4         0.0039
@<TRIPOS>BOND
     1    1    2 1  
     2    2    3 2  
     3    2   36 1  
     4    3    4 1  
     5    4    5 1  
     6    4   35 2  
     7    5    6 1  
     8    6    7 1  
     9    6   34 1  
    10    7    8 1  
    11    8    9 1  
    12    9   10 1  
    13    9   33 1  
    14   10   11 ar 
    15   10   32 ar 
    16   11   12 1  
    17   11   13 ar 
    18   13   14 ar 
    19   14   15 ar 
    20   15   16 1  
    21   15   32 ar 
    22   16   17 2  
    23   17   18 1  
    24   17   31 1  
    25   18   19 ar 
    26   18   30 ar 
    27   19   20 ar 
    28   20   21 ar 
    29   21   22 1  
    30   21   29 ar 
    31   22   23 1  
    32   22   28 1  
    33   23   24 1  
    34   24   25 1  
    35   25   26 1  
    36   25   27 1  
    37   27   28 1  
    38   29   30 ar 
    39   31   32 1  
    40   33   34 1  
    41   35   36 1  
    42    1   37 1  
    43    1   38 1  
    44    1   39 1  
    45    3   40 1  
    46    5   41 1  
    47    5   42 1  
    48    7   43 1  
    49    7   44 1  
    50    8   45 1  
    51    8   46 1  
    52   13   47 1  
    53   19   48 1  
    54   20   49 1  
    55   23   50 1  
    56   23   51 1  
    57   24   52 1  
    58   24   53 1  
    59   26   54 1  
    60   26   55 1  
    61   26   56 1  
    62   27   57 1  
    63   27   58 1  
    64   28   59 1  
    65   28   60 1  
    66   29   61 1  
    67   30   62 1  
    68   31   63 1  
    69   33   64 1  
    70   33   65 1  
    71   34   66 1  
    72   34   67 1  
@<TRIPOS>SUBSTRUCTURE
     1 YM4         1

