2x6e_ligand
  -I-interpret- 

 68 73  0  0  0  0  0  0  0  0999 V2000
   -6.6370   22.4780   -4.4510 C   0  0  0  0  0
   -6.4230   23.9110   -3.9240 C   0  0  0  0  0
   -7.2110   25.0340   -4.2030 C   0  0  0  0  0
   -6.6330   26.1570   -3.4900 C   0  0  0  0  0
   -7.1090   27.6100   -3.5110 C   0  0  0  0  0
   -6.1560   28.3610   -4.3380 N   0  3  0  0  0
   -6.8340   28.9010   -5.5480 C   0  0  0  0  0
   -6.1080   30.1540   -6.0420 C   0  0  0  0  0
   -4.6740   30.0980   -5.8510 N   0  0  0  0  0
   -3.9650   31.0160   -6.7640 C   0  0  0  0  0
   -4.0690   30.8660   -8.1240 C   0  0  0  0  0
   -5.0240   29.3360   -8.8510 Br  0  0  0  0  0
   -3.4590   31.7840   -9.0450 C   0  0  0  0  0
   -2.7400   32.8880   -8.5460 N   0  0  0  0  0
   -2.6370   33.0600   -7.1590 C   0  0  0  0  0
   -1.9880   34.0600   -6.4190 N   0  0  0  0  0
   -2.2190   33.7760   -5.1000 C   0  0  0  0  0
   -1.6860   34.5060   -4.0200 C   0  0  0  0  0
   -2.0950   34.1100   -2.6940 C   0  0  0  0  0
   -1.5380   34.8390   -1.5550 C   0  0  0  0  0
   -0.6150   35.8960   -1.7810 C   0  0  0  0  0
   -0.1170   36.6090   -0.5830 N   0  0  0  0  0
    0.1750   35.7120    0.5820 C   0  0  0  0  0
    1.2420   36.3850    1.4780 C   0  0  0  0  0
    1.1320   37.8670    1.5050 N   0  3  0  0  0
    0.8570   38.4620    2.8200 C   0  0  0  0  0
    0.6090   38.7090    0.3970 C   0  0  0  0  0
   -0.4320   38.0330   -0.4910 C   0  0  0  0  0
   -0.1930   36.2890   -3.1180 C   0  0  0  0  0
   -0.7450   35.5600   -4.2680 C   0  0  0  0  0
   -2.9730   32.5720   -4.9880 N   0  0  0  0  0
   -3.2340   32.1640   -6.2640 C   0  0  0  0  0
   -4.0410   29.6140   -4.6300 C   0  0  0  0  0
   -5.1090   29.1410   -3.6320 C   0  0  0  0  0
   -5.5180   25.7120   -2.7980 N   0  0  0  0  0
   -5.3720   24.3090   -3.0550 O   0  0  0  0  0
   -7.6131   22.1157   -4.1286 H   0  0  0  0  0
   -6.5911   22.4821   -5.5400 H   0  0  0  0  0
   -5.8575   21.8267   -4.0557 H   0  0  0  0  0
   -8.0959   25.0597   -4.8389 H   0  0  0  0  0
   -7.1487   28.0178   -2.5010 H   0  0  0  0  0
   -8.1160   27.6804   -3.9221 H   0  0  0  0  0
   -5.4702   27.7134   -4.7262 H   0  0  0  0  0
   -7.8627   29.1592   -5.2965 H   0  0  0  0  0
   -6.8190   28.1456   -6.3337 H   0  0  0  0  0
   -6.4840   31.0005   -5.4674 H   0  0  0  0  0
   -6.2945   30.2423   -7.1123 H   0  0  0  0  0
   -3.5515   31.6280  -10.1198 H   0  0  0  0  0
   -2.7989   33.2911   -2.5455 H   0  0  0  0  0
   -1.8290   34.5733   -0.5387 H   0  0  0  0  0
    0.5471   34.7522    0.2237 H   0  0  0  0  0
   -0.7364   35.5455    1.1562 H   0  0  0  0  0
    2.2216   36.1334    1.0716 H   0  0  0  0  0
    1.0947   36.0238    2.4958 H   0  0  0  0  0
    2.1121   37.9213    1.2278 H   0  0  0  0  0
   -0.0895   38.0779    3.2004 H   0  0  0  0  0
    1.6597   38.2021    3.5100 H   0  0  0  0  0
    0.7975   39.5459    2.7216 H   0  0  0  0  0
    1.4582   38.9510   -0.2421 H   0  0  0  0  0
    0.1198   39.5671    0.8579 H   0  0  0  0  0
   -1.4256   38.1652   -0.0627 H   0  0  0  0  0
   -0.4169   38.4802   -1.4849 H   0  0  0  0  0
    0.5156   37.1046   -3.2623 H   0  0  0  0  0
   -0.4467   35.8139   -5.2852 H   0  0  0  0  0
   -3.4657   30.4235   -4.1807 H   0  0  0  0  0
   -3.3854   28.7783   -4.8745 H   0  0  0  0  0
   -4.6395   28.5094   -2.8779 H   0  0  0  0  0
   -5.5673   30.0098   -3.1596 H   0  0  0  0  0
  1  2  1  0  0  0
  2  3  4  0  0  0
  2 36  4  0  0  0
  3  4  4  0  0  0
  4  5  1  0  0  0
  4 35  4  0  0  0
  5  6  1  0  0  0
  6  7  1  0  0  0
  6 34  1  0  0  0
  7  8  1  0  0  0
  8  9  1  0  0  0
  9 10  1  0  0  0
  9 33  1  0  0  0
 10 11  4  0  0  0
 10 32  4  0  0  0
 11 12  1  0  0  0
 11 13  4  0  0  0
 13 14  4  0  0  0
 14 15  4  0  0  0
 15 16  4  0  0  0
 15 32  4  0  0  0
 16 17  4  0  0  0
 17 18  1  0  0  0
 17 31  4  0  0  0
 18 19  4  0  0  0
 18 30  4  0  0  0
 19 20  4  0  0  0
 20 21  4  0  0  0
 21 22  1  0  0  0
 21 29  4  0  0  0
 22 23  1  0  0  0
 22 28  1  0  0  0
 23 24  1  0  0  0
 24 25  1  0  0  0
 25 26  1  0  0  0
 25 27  1  0  0  0
 27 28  1  0  0  0
 29 30  4  0  0  0
 31 32  4  0  0  0
 33 34  1  0  0  0
 35 36  4  0  0  0
  1 37  1  0  0  0
  1 38  1  0  0  0
  1 39  1  0  0  0
  3 40  1  0  0  0
  5 41  1  0  0  0
  5 42  1  0  0  0
  6 43  1  0  0  0
  7 44  1  0  0  0
  7 45  1  0  0  0
  8 46  1  0  0  0
  8 47  1  0  0  0
 13 48  1  0  0  0
 19 49  1  0  0  0
 20 50  1  0  0  0
 23 51  1  0  0  0
 23 52  1  0  0  0
 24 53  1  0  0  0
 24 54  1  0  0  0
 25 55  1  0  0  0
 26 56  1  0  0  0
 26 57  1  0  0  0
 26 58  1  0  0  0
 27 59  1  0  0  0
 27 60  1  0  0  0
 28 61  1  0  0  0
 28 62  1  0  0  0
 29 63  1  0  0  0
 30 64  1  0  0  0
 33 65  1  0  0  0
 33 66  1  0  0  0
 34 67  1  0  0  0
 34 68  1  0  0  0
M  END
$$$$
