5ti4_ligand
  -I-interpret- 

 38 40  0  0  0  0  0  0  0  0999 V2000
  -11.4460   -7.2140    0.9560 C   0  0  0  0  0
  -11.4800   -3.9070   -1.7600 C   0  0  0  0  0
  -13.6710   -6.5670    1.6280 C   0  0  0  0  0
  -13.6690   -7.5740    2.6140 C   0  0  0  0  0
   -8.2640   -7.6520    0.9290 O   0  0  0  0  0
   -8.7300   -8.4180    2.2630 S   0  0  0  0  0
   -8.7080   -7.1310    3.4740 C   0  0  0  0  0
   -8.2230   -5.8880    3.0260 C   0  0  0  0  0
   -8.1530   -4.7920    3.8880 C   0  0  0  0  0
   -9.1340   -7.2930    4.8040 C   0  0  0  0  0
   -9.0680   -6.1790    5.6770 C   0  0  0  0  0
   -9.5820   -6.3190    7.2840 Cl  0  0  0  0  0
   -8.5710   -4.9420    5.2060 C   0  0  0  0  0
   -8.4820   -3.8960    5.9620 F   0  0  0  0  0
  -10.3320   -9.0420    2.0840 N   0  0  0  0  0
  -11.4190   -8.2310    1.9340 C   0  0  0  0  0
  -12.5550   -6.3740    0.7730 C   0  0  0  0  0
  -12.4760   -5.4060   -0.2150 N   0  0  0  0  0
  -11.2550   -5.2010   -0.9550 C   0  0  0  0  0
  -13.0050   -3.6810   -1.7110 C   0  0  0  0  0
  -13.4620   -4.5620   -0.6330 C   0  0  0  0  0
  -14.6360   -4.5020   -0.1830 O   0  0  0  0  0
  -12.5400   -8.4040    2.7650 C   0  0  0  0  0
   -7.7150   -9.6070    2.5910 O   0  0  0  0  0
  -10.5725   -7.0758    0.3188 H   0  0  0  0  0
  -11.1127   -3.9933   -2.7826 H   0  0  0  0  0
  -10.9288   -3.0648   -1.3416 H   0  0  0  0  0
  -14.5453   -5.9250    1.5202 H   0  0  0  0  0
  -14.5379   -7.7105    3.2578 H   0  0  0  0  0
   -7.8974   -5.7795    1.9914 H   0  0  0  0  0
   -7.7762   -3.8327    3.5332 H   0  0  0  0  0
   -9.5070   -8.2548    5.1559 H   0  0  0  0  0
  -10.4697  -10.0526    2.0907 H   0  0  0  0  0
  -10.3936   -5.1167   -0.2924 H   0  0  0  0  0
  -11.0345   -6.0460   -1.6072 H   0  0  0  0  0
  -13.4863   -3.9093   -2.6620 H   0  0  0  0  0
  -13.2614   -2.6376   -1.5273 H   0  0  0  0  0
  -12.5358   -9.1823    3.5282 H   0  0  0  0  0
  1 16  4  0  0  0
 17  1  4  0  0  0
 19  2  1  0  0  0
  2 20  1  0  0  0
  3  4  4  0  0  0
 17  3  4  0  0  0
  4 23  4  0  0  0
  6  5  2  0  0  0
  6  7  1  0  0  0
 15  6  1  0  0  0
  6 24  2  0  0  0
  7  8  4  0  0  0
  7 10  4  0  0  0
  8  9  4  0  0  0
  9 13  4  0  0  0
 10 11  4  0  0  0
 11 12  1  0  0  0
 11 13  4  0  0  0
 13 14  1  0  0  0
 16 15  1  0  0  0
 16 23  4  0  0  0
 18 17  1  0  0  0
 18 19  1  0  0  0
 18 21  1  0  0  0
 20 21  1  0  0  0
 21 22  2  0  0  0
  1 25  1  0  0  0
  2 26  1  0  0  0
  2 27  1  0  0  0
  3 28  1  0  0  0
  4 29  1  0  0  0
  8 30  1  0  0  0
  9 31  1  0  0  0
 10 32  1  0  0  0
 15 33  1  0  0  0
 19 34  1  0  0  0
 19 35  1  0  0  0
 20 36  1  0  0  0
 20 37  1  0  0  0
 23 38  1  0  0  0
M  END
$$$$
