6hwz_ligand
  -I-interpret- 

 12 12  0  0  0  0  0  0  0  0999 V2000
  -16.0810   33.8750   40.2130 Se  0  0  0  0  0
  -16.9940   35.1880   40.6610 C   0  0  0  0  0
  -17.5630   36.0890   39.7490 C   0  0  0  0  0
  -18.3510   37.1880   40.1900 C   0  0  0  0  0
  -18.5670   37.4510   41.5460 C   0  0  0  0  0
  -17.9990   36.5770   42.4770 C   0  0  0  0  0
  -17.2550   35.4590   42.0210 C   0  0  0  0  0
  -17.3981   35.9442   38.6813 H   0  0  0  0  0
  -18.8009   37.8463   39.4468 H   0  0  0  0  0
  -19.1584   38.3087   41.8663 H   0  0  0  0  0
  -18.1268   36.7532   43.5450 H   0  0  0  0  0
  -16.8611   34.7675   42.7659 H   0  0  0  0  0
  1  2  1  0  0  0
  2  3  4  0  0  0
  2  7  4  0  0  0
  3  4  4  0  0  0
  4  5  4  0  0  0
  5  6  4  0  0  0
  6  7  4  0  0  0
  3  8  1  0  0  0
  4  9  1  0  0  0
  5 10  1  0  0  0
  6 11  1  0  0  0
  7 12  1  0  0  0
M  END
$$$$
