1p93_ligand
  -I-interpret- 

 57 60  0  0  0  0  0  0  0  0999 V2000
   45.3620   11.6490    1.4280 C   0  0  0  0  0
   44.5080   11.6060    2.5580 C   0  0  0  0  0
   43.2750   10.7160    2.5210 C   0  0  0  0  0
   43.0340    9.8980    1.2260 C   0  0  0  0  0
   43.8680    9.9340    0.1110 C   0  0  0  0  0
   43.5710    9.0470   -1.2390 C   0  0  0  0  0
   43.6360    9.9620   -2.5010 C   0  0  0  0  0
   44.9910   10.8500   -2.6160 C   0  0  0  0  0
   45.2330   11.7580   -1.3120 C   0  0  0  0  0
   45.1930   10.8430    0.0490 C   0  0  0  0  0
   46.5450   12.6900   -1.4270 C   0  0  0  0  0
   46.5410   13.5010   -2.7560 C   0  0  0  0  0
   46.2500   12.7010   -4.1270 C   0  0  0  0  0
   44.9760   11.7950   -3.9210 C   0  0  0  0  0
   44.8000   11.1280   -5.3530 C   0  0  0  0  0
   44.8440   12.3550   -6.2390 C   0  0  0  0  0
   45.7500   13.4130   -5.4670 C   0  0  0  0  0
   47.6290   11.8760   -4.4420 C   0  0  0  0  0
   46.4090    9.8030    0.0310 C   0  0  0  0  0
   46.7980   14.1950   -6.3250 C   0  0  0  0  0
   47.6820   15.2200   -5.6550 C   0  0  0  0  0
   43.3910   12.8960   -6.5150 C   0  0  0  0  0
   44.1630   12.5830   -1.1720 F   0  0  0  0  0
   42.4370   10.6010    3.4880 O   0  0  0  0  0
   47.7590   12.0980   -1.3080 O   0  0  0  0  0
   45.0280   14.5770   -5.2180 O   0  0  0  0  0
   46.8780   13.9440   -7.5680 O   0  0  0  0  0
   48.5160   15.7820   -6.5820 O   0  0  0  0  0
   46.2312   12.3024    1.5031 H   0  0  0  0  0
   44.7317   12.2029    3.4422 H   0  0  0  0  0
   42.1558    9.2536    1.1856 H   0  0  0  0  0
   42.5775    8.6044   -1.1668 H   0  0  0  0  0
   44.3219    8.2617   -1.3254 H   0  0  0  0  0
   42.8010   10.6594   -2.4341 H   0  0  0  0  0
   43.6070    9.3079   -3.3724 H   0  0  0  0  0
   45.8098   10.1356   -2.7013 H   0  0  0  0  0
   46.4436   13.3185   -0.5422 H   0  0  0  0  0
   47.5522   13.8948   -2.8588 H   0  0  0  0  0
   45.7236   14.2153   -2.6577 H   0  0  0  0  0
   44.0774   12.3438   -3.6391 H   0  0  0  0  0
   43.8914   10.5353   -5.4589 H   0  0  0  0  0
   45.5562   10.3800   -5.5912 H   0  0  0  0  0
   45.2642   12.1382   -7.2211 H   0  0  0  0  0
   48.4540   12.5794   -4.5549 H   0  0  0  0  0
   47.8403   11.1956   -3.6171 H   0  0  0  0  0
   47.5074   11.3058   -5.3630 H   0  0  0  0  0
   46.3208    9.1579   -0.8432 H   0  0  0  0  0
   47.3516   10.3487   -0.0122 H   0  0  0  0  0
   46.3801    9.1964    0.9362 H   0  0  0  0  0
   48.2758   14.7353   -4.8800 H   0  0  0  0  0
   47.0616   15.9966   -5.2077 H   0  0  0  0  0
   42.8052   12.1229   -7.0123 H   0  0  0  0  0
   42.9175   13.1607   -5.5695 H   0  0  0  0  0
   43.4481   13.7775   -7.1535 H   0  0  0  0  0
   48.4473   12.7615   -1.3954 H   0  0  0  0  0
   44.7514   14.9651   -6.0514 H   0  0  0  0  0
   49.0766   16.4329   -6.1535 H   0  0  0  0  0
  1  2  2  0  0  0
  1 10  1  0  0  0
  2  3  1  0  0  0
  3  4  1  0  0  0
  3 24  2  0  0  0
  4  5  2  0  0  0
  5  6  1  0  0  0
  5 10  1  0  0  0
  6  7  1  0  0  0
  7  8  1  0  0  0
  8  9  1  0  0  0
  8 14  1  0  0  0
  9 10  1  0  0  0
  9 11  1  0  0  0
  9 23  1  0  0  0
 10 19  1  0  0  0
 11 12  1  0  0  0
 11 25  1  0  0  0
 12 13  1  0  0  0
 13 14  1  0  0  0
 13 17  1  0  0  0
 13 18  1  0  0  0
 14 15  1  0  0  0
 15 16  1  0  0  0
 16 17  1  0  0  0
 16 22  1  0  0  0
 17 20  1  0  0  0
 17 26  1  0  0  0
 20 21  1  0  0  0
 20 27  2  0  0  0
 21 28  1  0  0  0
  1 29  1  0  0  0
  2 30  1  0  0  0
  4 31  1  0  0  0
  6 32  1  0  0  0
  6 33  1  0  0  0
  7 34  1  0  0  0
  7 35  1  0  0  0
  8 36  1  0  0  0
 11 37  1  0  0  0
 12 38  1  0  0  0
 12 39  1  0  0  0
 14 40  1  0  0  0
 15 41  1  0  0  0
 15 42  1  0  0  0
 16 43  1  0  0  0
 18 44  1  0  0  0
 18 45  1  0  0  0
 18 46  1  0  0  0
 19 47  1  0  0  0
 19 48  1  0  0  0
 19 49  1  0  0  0
 21 50  1  0  0  0
 21 51  1  0  0  0
 22 52  1  0  0  0
 22 53  1  0  0  0
 22 54  1  0  0  0
 25 55  1  0  0  0
 26 56  1  0  0  0
 28 57  1  0  0  0
M  END
$$$$
