3g8o_ligand
  -I-interpret- 

 40 40  0  0  0  0  0  0  0  0999 V2000
   -3.9950   -7.4150   26.4570 C   0  0  0  0  0
   -3.7480   -9.8240   29.3570 C   0  0  0  0  0
   -2.1880   -9.4800   27.3460 C   0  0  0  0  0
   -1.9400   -8.7520   26.1500 C   0  0  0  0  0
   -1.1540  -10.5800   27.7410 C   0  0  0  0  0
   -3.7970   -5.2590   20.6200 C   0  0  0  0  0
   -4.8770   -6.6730   22.4470 C   0  0  0  0  0
   -2.0080   -4.6930   25.2740 C   0  0  0  0  0
   -2.9840   -5.5600   24.4390 C   0  0  0  0  0
   -2.5310   -6.9980   24.4150 N   0  0  0  0  0
   -1.0750   -7.1030   24.0600 C   0  0  0  0  0
   -0.8690   -8.0270   22.8410 C   0  0  0  0  0
   -1.6980   -7.6830   21.8710 F   0  0  0  0  0
    0.3860   -7.9070   22.4100 F   0  0  0  0  0
   -1.1090   -9.2930   23.1740 F   0  0  0  0  0
   -2.8250   -7.7150   25.6830 C   0  0  0  0  0
   -4.2650   -8.1240   27.6570 C   0  0  0  0  0
   -3.3900   -9.1510   28.1190 C   0  0  0  0  0
   -4.0370  -10.3590   30.3370 N   0  0  0  0  0
   -0.7140  -11.1890   26.6510 F   0  0  0  0  0
   -1.6750  -11.5230   28.5170 F   0  0  0  0  0
   -0.1210  -10.0170   28.3500 F   0  0  0  0  0
   -3.0460   -5.0620   22.9740 C   0  0  0  0  0
   -2.3330   -4.1130   22.6290 O   0  0  0  0  0
   -3.8770   -5.6470   22.0510 N   0  0  0  0  0
   -4.6813   -6.6375   26.1215 H   0  0  0  0  0
   -1.0498   -8.9864   25.5663 H   0  0  0  0  0
   -3.5532   -6.1359   20.0202 H   0  0  0  0  0
   -4.7572   -4.8542   20.3004 H   0  0  0  0  0
   -3.0221   -4.5031   20.4926 H   0  0  0  0  0
   -4.3644   -7.5239   22.8957 H   0  0  0  0  0
   -5.5705   -6.2427   23.1695 H   0  0  0  0  0
   -5.4268   -7.0021   21.5652 H   0  0  0  0  0
   -1.9733   -5.0695   26.2963 H   0  0  0  0  0
   -1.0123   -4.7423   24.8333 H   0  0  0  0  0
   -2.3543   -3.6595   25.2776 H   0  0  0  0  0
   -3.9658   -5.4799   24.9057 H   0  0  0  0  0
   -0.5366   -7.5207   24.9107 H   0  0  0  0  0
   -0.7025   -6.1089   23.8126 H   0  0  0  0  0
   -5.1561   -7.8793   28.2350 H   0  0  0  0  0
 16  1  4  0  0  0
  1 17  4  0  0  0
 18  2  1  0  0  0
  2 19  3  0  0  0
  4  3  4  0  0  0
  3  5  1  0  0  0
  3 18  4  0  0  0
 16  4  4  0  0  0
  5 20  1  0  0  0
  5 21  1  0  0  0
  5 22  1  0  0  0
 25  6  1  0  0  0
 25  7  1  0  0  0
  9  8  1  0  0  0
  9 10  1  0  0  0
 23  9  1  0  0  0
 10 11  1  0  0  0
 10 16  1  0  0  0
 11 12  1  0  0  0
 12 13  1  0  0  0
 12 14  1  0  0  0
 12 15  1  0  0  0
 17 18  4  0  0  0
 23 24  2  0  0  0
 23 25  1  0  0  0
  1 26  1  0  0  0
  4 27  1  0  0  0
  6 28  1  0  0  0
  6 29  1  0  0  0
  6 30  1  0  0  0
  7 31  1  0  0  0
  7 32  1  0  0  0
  7 33  1  0  0  0
  8 34  1  0  0  0
  8 35  1  0  0  0
  8 36  1  0  0  0
  9 37  1  0  0  0
 11 38  1  0  0  0
 11 39  1  0  0  0
 17 40  1  0  0  0
M  END
$$$$
