4fob_ligand
  -I-interpret- 

 80 84  0  0  0  0  0  0  0  0999 V2000
   16.7440   10.9660   11.0970 C   0  0  0  0  0
   16.4190   11.7600   10.0690 C   0  0  0  0  0
   17.4530   12.5970    9.3750 C   0  0  0  0  0
   17.3770   13.9640    9.8630 N   0  0  0  0  0
   18.4450   14.9760    9.1370 S   0  0  0  0  0
   18.1200   16.3710    9.5860 O   0  0  0  0  0
   18.3860   14.8520    7.6490 O   0  0  0  0  0
   20.0350   14.5410    9.7140 C   0  0  0  0  0
   20.7470   13.4970    9.1200 C   0  0  0  0  0
   20.5880   15.2480   10.7710 C   0  0  0  0  0
   21.8560   14.9310   11.2340 C   0  0  0  0  0
   22.5730   13.9010   10.6590 C   0  0  0  0  0
   22.0280   13.1890    9.5950 C   0  0  0  0  0
   22.8420   12.0440    9.0060 C   0  0  0  0  0
   24.0130   11.8750    9.3630 O   0  0  0  0  0
   22.1550   11.2410    8.1850 N   0  0  0  0  0
   22.6680   10.1210    7.6460 C   0  0  0  0  0
   23.9100    9.6700    7.8250 N   0  0  0  0  0
   24.0360    8.5200    7.1590 C   0  0  0  0  0
   25.0980    7.6340    7.0000 C   0  0  0  0  0
   24.9240    6.4820    6.2200 C   0  0  0  0  0
   26.0960    5.5000    6.0130 C   0  0  0  0  0
   25.7370    4.1050    6.3210 N   0  3  0  0  0
   26.9100    3.2920    5.9120 C   0  0  0  0  0
   26.8000    1.8200    6.3560 C   0  0  0  0  0
   26.5430    1.6990    7.8640 C   0  0  0  0  0
   25.3070    2.5170    8.2310 C   0  0  0  0  0
   25.4560    3.9840    7.7690 C   0  0  0  0  0
   23.7010    6.2330    5.6090 C   0  0  0  0  0
   22.6410    7.1110    5.7660 C   0  0  0  0  0
   22.8230    8.2580    6.5420 C   0  0  0  0  0
   22.0160    9.2580    6.8670 N   0  0  0  0  0
   20.6280    9.3050    6.3950 C   0  0  0  0  0
   19.5900    9.2390    7.5220 C   0  0  0  0  0
   18.2360    8.9570    6.8650 C   0  0  0  0  0
   20.3670   10.5060    5.5260 C   0  0  0  0  0
   19.0370   10.2870    4.8070 C   0  0  0  0  0
   17.8760    9.9600    5.7530 C   0  0  0  0  0
   17.3400   11.2520    6.3860 C   0  0  0  0  0
   17.0430   12.2250    5.3670 O   0  0  0  0  0
   17.7761   10.9192   11.4444 H   0  0  0  0  0
   15.9765   10.3665   11.5865 H   0  0  0  0  0
   15.3838   11.7991    9.7299 H   0  0  0  0  0
   17.2697   12.5840    8.3006 H   0  0  0  0  0
   18.4445   12.1929    9.5793 H   0  0  0  0  0
   16.7236   14.2648   10.5861 H   0  0  0  0  0
   20.3116   12.9293    8.2976 H   0  0  0  0  0
   20.0244   16.0551   11.2391 H   0  0  0  0  0
   22.2894   15.4988   12.0573 H   0  0  0  0  0
   23.5630   13.6463   11.0373 H   0  0  0  0  0
   21.1930   11.4913    7.9564 H   0  0  0  0  0
   26.0569    7.8343    7.4780 H   0  0  0  0  0
   26.8994    5.7937    6.6886 H   0  0  0  0  0
   26.3862    5.5449    4.9633 H   0  0  0  0  0
   24.8997    3.7898    5.8311 H   0  0  0  0  0
   27.7938    3.7187    6.3862 H   0  0  0  0  0
   26.9652    3.3093    4.8235 H   0  0  0  0  0
   27.7418    1.3213    6.1273 H   0  0  0  0  0
   25.9629    1.3638    5.8275 H   0  0  0  0  0
   27.4063    2.0749    8.4131 H   0  0  0  0  0
   26.3795    0.6532    8.1241 H   0  0  0  0  0
   25.1871    2.5022    9.3143 H   0  0  0  0  0
   24.4395    2.0809    7.7356 H   0  0  0  0  0
   24.5137    4.4939    7.9694 H   0  0  0  0  0
   26.2965    4.4198    8.3092 H   0  0  0  0  0
   23.5744    5.3378    5.0001 H   0  0  0  0  0
   21.6805    6.9100    5.2916 H   0  0  0  0  0
   20.5080    8.4021    5.7962 H   0  0  0  0  0
   19.5623   10.1767    8.0771 H   0  0  0  0  0
   19.8439    8.4552    8.2356 H   0  0  0  0  0
   17.4723    9.0357    7.6387 H   0  0  0  0  0
   18.2906    7.9678    6.4106 H   0  0  0  0  0
   21.1717   10.6288    4.8011 H   0  0  0  0  0
   20.3223   11.4091    6.1346 H   0  0  0  0  0
   19.1632    9.4362    4.1374 H   0  0  0  0  0
   18.7874   11.2141    4.2909 H   0  0  0  0  0
   17.1136    9.4807    5.1389 H   0  0  0  0  0
   18.0971   11.6596    7.0559 H   0  0  0  0  0
   16.4272   11.0251    6.9368 H   0  0  0  0  0
   16.7094   13.0258    5.7782 H   0  0  0  0  0
  1  2  2  0  0  0
  2  3  1  0  0  0
  3  4  1  0  0  0
  4  5  1  0  0  0
  5  6  2  0  0  0
  5  7  2  0  0  0
  5  8  1  0  0  0
  8  9  4  0  0  0
  8 10  4  0  0  0
  9 13  4  0  0  0
 10 11  4  0  0  0
 11 12  4  0  0  0
 12 13  4  0  0  0
 13 14  1  0  0  0
 14 15  2  0  0  0
 14 16  1  0  0  0
 16 17  1  0  0  0
 17 18  4  0  0  0
 17 32  4  0  0  0
 18 19  4  0  0  0
 19 20  4  0  0  0
 19 31  4  0  0  0
 20 21  4  0  0  0
 21 22  1  0  0  0
 21 29  4  0  0  0
 22 23  1  0  0  0
 23 24  1  0  0  0
 23 28  1  0  0  0
 24 25  1  0  0  0
 25 26  1  0  0  0
 26 27  1  0  0  0
 27 28  1  0  0  0
 29 30  4  0  0  0
 30 31  4  0  0  0
 31 32  4  0  0  0
 32 33  1  0  0  0
 33 34  1  0  0  0
 33 36  1  0  0  0
 34 35  1  0  0  0
 35 38  1  0  0  0
 36 37  1  0  0  0
 37 38  1  0  0  0
 38 39  1  0  0  0
 39 40  1  0  0  0
  1 41  1  0  0  0
  1 42  1  0  0  0
  2 43  1  0  0  0
  3 44  1  0  0  0
  3 45  1  0  0  0
  4 46  1  0  0  0
  9 47  1  0  0  0
 10 48  1  0  0  0
 11 49  1  0  0  0
 12 50  1  0  0  0
 16 51  1  0  0  0
 20 52  1  0  0  0
 22 53  1  0  0  0
 22 54  1  0  0  0
 23 55  1  0  0  0
 24 56  1  0  0  0
 24 57  1  0  0  0
 25 58  1  0  0  0
 25 59  1  0  0  0
 26 60  1  0  0  0
 26 61  1  0  0  0
 27 62  1  0  0  0
 27 63  1  0  0  0
 28 64  1  0  0  0
 28 65  1  0  0  0
 29 66  1  0  0  0
 30 67  1  0  0  0
 33 68  1  0  0  0
 34 69  1  0  0  0
 34 70  1  0  0  0
 35 71  1  0  0  0
 35 72  1  0  0  0
 36 73  1  0  0  0
 36 74  1  0  0  0
 37 75  1  0  0  0
 37 76  1  0  0  0
 38 77  1  0  0  0
 39 78  1  0  0  0
 39 79  1  0  0  0
 40 80  1  0  0  0
M  END
$$$$
