4md6_ligand
  -I-interpret- 

 41 45  0  0  0  0  0  0  0  0999 V2000
   47.4890   16.2300   45.3900 C   0  0  0  0  0
   48.8620   16.3350   45.1990 C   0  0  0  0  0
   49.3610   17.0610   44.1230 C   0  0  0  0  0
   50.7030   17.2210   43.9740 O   0  0  0  0  0
   48.4860   17.6780   43.2360 C   0  0  0  0  0
   47.1130   17.5760   43.4300 C   0  0  0  0  0
   46.6130   16.8520   44.5070 C   0  0  0  0  0
   45.0910   16.7150   44.6960 C   0  0  0  0  0
   44.7370   16.6990   46.1950 C   0  0  0  0  0
   44.9520   17.7620   47.1390 N   0  0  0  0  0
   44.1900   15.6360   46.9020 C   0  0  0  0  0
   43.8320   14.3330   46.4540 O   0  0  0  0  0
   43.3490   13.3140   47.3230 C   0  0  0  0  0
   43.0480   12.0560   46.8120 C   0  0  0  0  0
   42.6050   11.0480   47.6610 C   0  0  0  0  0
   42.4590   11.2940   49.0220 C   0  0  0  0  0
   42.7560   12.5520   49.5360 C   0  0  0  0  0
   43.2030   13.5560   48.6840 C   0  0  0  0  0
   43.5680   14.9460   49.2320 C   0  0  0  0  0
   43.4550   15.1980   50.4300 O   0  0  0  0  0
   44.0750   16.0000   48.2310 C   0  0  0  0  0
   44.4880   17.2550   48.4040 C   0  0  0  0  0
   44.4960   17.9740   49.5820 C   0  0  0  0  0
   45.1100   19.5620   49.7650 S   0  0  0  0  0
   44.4640   19.9410   51.2950 C   0  0  0  0  0
   43.7720   18.8760   51.6940 C   0  0  0  0  0
   43.7910   17.7110   50.6810 C   0  0  0  0  0
   47.0987   15.6595   46.2328 H   0  0  0  0  0
   49.5475   15.8482   45.8927 H   0  0  0  0  0
   50.8765   17.7429   43.1872 H   0  0  0  0  0
   48.8764   18.2416   42.3886 H   0  0  0  0  0
   46.4276   18.0641   42.7371 H   0  0  0  0  0
   44.7590   15.7812   44.2422 H   0  0  0  0  0
   44.5961   17.5631   44.2228 H   0  0  0  0  0
   43.1594   11.8602   45.7455 H   0  0  0  0  0
   42.3715   10.0622   47.2588 H   0  0  0  0  0
   42.1121   10.5017   49.6854 H   0  0  0  0  0
   42.6389   12.7498   50.6015 H   0  0  0  0  0
   44.5924   20.8752   51.8418 H   0  0  0  0  0
   43.2423   18.8308   52.6455 H   0  0  0  0  0
   43.2770   16.7646   50.8490 H   0  0  0  0  0
  1  2  4  0  0  0
  1  7  4  0  0  0
  2  3  4  0  0  0
  3  4  1  0  0  0
  3  5  4  0  0  0
  5  6  4  0  0  0
  6  7  4  0  0  0
  7  8  1  0  0  0
  8  9  1  0  0  0
  9 10  4  0  0  0
  9 11  4  0  0  0
 10 22  4  0  0  0
 11 12  1  0  0  0
 11 21  4  0  0  0
 12 13  1  0  0  0
 13 14  4  0  0  0
 13 18  4  0  0  0
 14 15  4  0  0  0
 15 16  4  0  0  0
 16 17  4  0  0  0
 17 18  4  0  0  0
 18 19  1  0  0  0
 19 20  2  0  0  0
 19 21  1  0  0  0
 21 22  4  0  0  0
 22 23  1  0  0  0
 23 24  4  0  0  0
 23 27  4  0  0  0
 24 25  4  0  0  0
 25 26  4  0  0  0
 26 27  4  0  0  0
  1 28  1  0  0  0
  2 29  1  0  0  0
  4 30  1  0  0  0
  5 31  1  0  0  0
  6 32  1  0  0  0
  8 33  1  0  0  0
  8 34  1  0  0  0
 14 35  1  0  0  0
 15 36  1  0  0  0
 16 37  1  0  0  0
 17 38  1  0  0  0
 25 39  1  0  0  0
 26 40  1  0  0  0
 27 41  1  0  0  0
M  END
$$$$
