### 
### Created by X-TOOL on Mon Sep 10 21:12:57 2018
### 

@<TRIPOS>MOLECULE
2v22_ligand
  107   109     1     0     0
SMALL
GAST_HUCK


@<TRIPOS>ATOM
      1 C37        36.1420   21.2960   -5.4880 C.ar      1 C35        -0.0245
      2 C36        35.4780   21.4690   -6.6970 C.ar      1 C35        -0.0519
      3 C35        34.1240   21.1580   -6.7880 C.ar      1 C35         0.0330
      4 CL         33.3050   21.3520   -8.2860 Cl        1 C35        -0.0771
      5 C34        33.3950   20.6560   -5.7180 C.ar      1 C35        -0.0519
      6 C33        34.0670   20.4700   -4.5210 C.ar      1 C35        -0.0245
      7 C32        35.4240   20.7640   -4.4250 C.ar      1 C35         0.1184
      8 N10        35.9810   20.6350   -3.2360 N.pl3     1 C35        -0.1240
      9 N9         36.7040   21.4980   -2.7350 N.2       1 C35        -0.1589
     10 C30        35.7220   19.6350   -2.3980 C.2       1 C35         0.1612
     11 C31        34.8580   18.4040   -2.7130 C.3       1 C35         0.0232
     12 N11        36.3750   19.9080   -1.2760 N.2       1 C35        -0.2766
     13 C29        36.9950   21.0710   -1.5080 C.2       1 C35         0.1655
     14 C28        37.8890   21.8810   -0.5650 C.2       1 C35         0.2264
     15 O5         38.0930   23.0760   -0.8060 O.2       1 C35        -0.3819
     16 N8         38.3720   21.2510    0.5140 N.am      1 C35        -0.2634
     17 C23        39.2170   21.9940    1.4600 C.3       1 C35         0.1307
     18 C24        39.7390   21.0430    2.5430 C.3       1 C35        -0.0093
     19 C25        39.8030   21.6860    3.9340 C.3       1 C35        -0.0156
     20 C26        41.2240   21.5920    4.4920 C.3       1 C35         0.0627
     21 N5         41.5400   20.2150    4.9330 N.pl3     1 C35        -0.2723
     22 C27        41.7290   19.9590    6.2320 C.cat     1 C35         0.2882
     23 N6         42.0040   18.7260    6.6510 N.pl3     1 C35        -0.2849
     24 N7         41.6160   20.9400    7.1270 N.pl3     1 C35        -0.2849
     25 C22        40.4020   22.5660    0.6780 C.2       1 C35         0.2039
     26 O4         41.1470   21.8110    0.0560 O.2       1 C35        -0.3944
     27 N4         40.5590   23.8880    0.7200 N.am      1 C35        -0.2637
     28 C17        41.6750   24.5780    0.0560 C.3       1 C35         0.1312
     29 C18        41.2350   25.9900   -0.3730 C.3       1 C35        -0.0101
     30 C19        40.2670   25.9170   -1.5720 C.3       1 C35        -0.0425
     31 C20        39.7010   27.2910   -1.9480 C.3       1 C35        -0.0625
     32 C21        40.8670   25.2410   -2.8050 C.3       1 C35        -0.0625
     33 C16        42.7880   24.7460    1.0840 C.2       1 C35         0.2039
     34 O3         42.5730   25.4930    2.0330 O.2       1 C35        -0.3944
     35 N3         43.9320   24.0660    0.9220 N.am      1 C35        -0.2635
     36 C11        45.0210   24.2300    1.9130 C.3       1 C35         0.1335
     37 C12        45.8910   22.9880    2.2120 C.3       1 C35        -0.0037
     38 C15        47.3560   23.4010    2.4570 C.3       1 C35        -0.0582
     39 C13        45.3980   22.2320    3.4590 C.3       1 C35        -0.0491
     40 C14        44.5120   21.0370    3.0890 C.3       1 C35        -0.0648
     41 C10        45.8940   25.3130    1.3190 C.2       1 C35         0.2043
     42 O2         46.4080   25.0940    0.2250 O.2       1 C35        -0.3944
     43 N2         45.9740   26.4420    2.0220 N.am      1 C35        -0.2620
     44 C8         46.7070   27.6200    1.5360 C.3       1 C35         0.1396
     45 C9         48.1780   27.5940    1.9360 C.2       1 C35         0.2012
     46 O1         49.0400   27.6570    1.0590 O.2       1 C35        -0.3946
     47 N1         48.4410   27.5660    3.2440 N.am      1 C35        -0.2988
     48 C7         46.0800   28.9070    2.0760 C.3       1 C35         0.0196
     49 C6         44.7560   29.1870    1.3760 C.ar      1 C35        -0.0424
     50 C5         43.5350   29.1550    2.0420 C.ar      1 C35        -0.0618
     51 C4         42.3790   29.4090    1.3020 C.ar      1 C35        -0.0349
     52 C1         42.4370   29.7070   -0.0620 C.ar      1 C35         0.1248
     53 F1         41.3370   29.9330   -0.8100 F         1 C35        -0.1893
     54 C2         43.6580   29.7160   -0.7150 C.ar      1 C35        -0.0349
     55 C3         44.8070   29.4210    0.0060 C.ar      1 C35        -0.0618
     56 H1         37.1858   21.5674   -5.3786 H         1 C35         0.0586
     57 H2         36.0110   21.8436   -7.5633 H         1 C35         0.0606
     58 H3         32.3417   20.4190   -5.8156 H         1 C35         0.0606
     59 H4         33.5337   20.0939   -3.6554 H         1 C35         0.0586
     60 H5         34.8214   17.7466   -1.8318 H         1 C35         0.0491
     61 H6         35.2951   17.8565   -3.5610 H         1 C35         0.0491
     62 H7         33.8390   18.7276   -2.9715 H         1 C35         0.0491
     63 H8         38.1603   20.2869    0.6740 H         1 C35         0.1878
     64 H9         38.6401   22.8074    1.9243 H         1 C35         0.0800
     65 H10        40.7511   20.7160    2.2625 H         1 C35         0.0313
     66 H11        39.0719   20.1698    2.5922 H         1 C35         0.0313
     67 H12        39.1115   21.1612    4.6095 H         1 C35         0.0301
     68 H13        39.5107   22.7438    3.8596 H         1 C35         0.0301
     69 H14        41.3173   22.2732    5.3506 H         1 C35         0.0689
     70 H15        41.9367   21.8895    3.7087 H         1 C35         0.0689
     71 H16        41.6142   19.4556    4.2411 H         1 C35         0.2642
     72 H17        42.1472   18.5430    7.6544 H         1 C35         0.2615
     73 H18        42.0736   17.9548    5.9718 H         1 C35         0.2615
     74 H19        41.4035   21.8987    6.8162 H         1 C35         0.2615
     75 H20        41.7412   20.7395    8.1295 H         1 C35         0.2615
     76 H21        39.8900   24.4341    1.2241 H         1 C35         0.1883
     77 H22        42.0234   24.0005   -0.8130 H         1 C35         0.0800
     78 H23        42.1223   26.5735   -0.6599 H         1 C35         0.0315
     79 H24        40.7291   26.4827    0.4704 H         1 C35         0.0315
     80 H25        39.4190   25.2953   -1.2490 H         1 C35         0.0298
     81 H26        39.0194   27.1848   -2.8048 H         1 C35         0.0232
     82 H27        40.5264   27.9663   -2.2176 H         1 C35         0.0232
     83 H28        39.1510   27.7079   -1.0915 H         1 C35         0.0232
     84 H29        41.2698   24.2567   -2.5240 H         1 C35         0.0232
     85 H30        41.6766   25.8667   -3.2088 H         1 C35         0.0232
     86 H31        40.0864   25.1130   -3.5694 H         1 C35         0.0232
     87 H32        44.0491   23.4540    0.1398 H         1 C35         0.1883
     88 H33        44.5842   24.5695    2.8637 H         1 C35         0.0803
     89 H34        45.8452   22.3138    1.3440 H         1 C35         0.0345
     90 H35        47.9590   22.5055    2.6678 H         1 C35         0.0235
     91 H36        47.4050   24.0865    3.3158 H         1 C35         0.0235
     92 H37        47.7493   23.9055    1.5622 H         1 C35         0.0235
     93 H38        44.8182   22.9234    4.0881 H         1 C35         0.0267
     94 H39        46.2699   21.8675    4.0219 H         1 C35         0.0267
     95 H40        44.1827   20.5268    4.0062 H         1 C35         0.0230
     96 H41        45.0846   20.3354    2.4646 H         1 C35         0.0230
     97 H42        43.6329   21.3912    2.5308 H         1 C35         0.0230
     98 H43        45.5195   26.4897    2.9115 H         1 C35         0.1885
     99 H44        46.6452   27.6298    0.4378 H         1 C35         0.0822
    100 H45        49.3885   27.5481    3.5632 H         1 C35         0.1815
    101 H46        47.6906   27.5629    3.9049 H         1 C35         0.1815
    102 H47        46.7679   29.7470    1.8997 H         1 C35         0.0466
    103 H48        45.9030   28.7985    3.1562 H         1 C35         0.0466
    104 H49        43.4829   28.9394    3.1031 H         1 C35         0.0547
    105 H50        41.4149   29.3743    1.7964 H         1 C35         0.0587
    106 H51        43.7157   29.9496   -1.7720 H         1 C35         0.0587
    107 H52        45.7604   29.3722   -0.5076 H         1 C35         0.0547
@<TRIPOS>BOND
     1    1    2 ar 
     2    1    7 ar 
     3    2    3 ar 
     4    3    4 1  
     5    3    5 ar 
     6    5    6 ar 
     7    6    7 ar 
     8    7    8 1  
     9    8    9 1  
    10    8   10 1  
    11    9   13 2  
    12   10   11 1  
    13   10   12 2  
    14   12   13 1  
    15   13   14 1  
    16   14   15 2  
    17   14   16 am 
    18   16   17 1  
    19   17   18 1  
    20   17   25 1  
    21   18   19 1  
    22   19   20 1  
    23   20   21 1  
    24   21   22 ar 
    25   22   23 ar 
    26   22   24 ar 
    27   25   26 2  
    28   25   27 am 
    29   27   28 1  
    30   28   29 1  
    31   28   33 1  
    32   29   30 1  
    33   30   31 1  
    34   30   32 1  
    35   33   34 2  
    36   33   35 am 
    37   35   36 1  
    38   36   37 1  
    39   36   41 1  
    40   37   38 1  
    41   37   39 1  
    42   39   40 1  
    43   41   42 2  
    44   41   43 am 
    45   43   44 1  
    46   44   45 1  
    47   44   48 1  
    48   45   46 2  
    49   45   47 am 
    50   48   49 1  
    51   49   50 ar 
    52   49   55 ar 
    53   50   51 ar 
    54   51   52 ar 
    55   52   53 1  
    56   52   54 ar 
    57   54   55 ar 
    58    1   56 1  
    59    2   57 1  
    60    5   58 1  
    61    6   59 1  
    62   11   60 1  
    63   11   61 1  
    64   11   62 1  
    65   16   63 1  
    66   17   64 1  
    67   18   65 1  
    68   18   66 1  
    69   19   67 1  
    70   19   68 1  
    71   20   69 1  
    72   20   70 1  
    73   21   71 1  
    74   23   72 1  
    75   23   73 1  
    76   24   74 1  
    77   24   75 1  
    78   27   76 1  
    79   28   77 1  
    80   29   78 1  
    81   29   79 1  
    82   30   80 1  
    83   31   81 1  
    84   31   82 1  
    85   31   83 1  
    86   32   84 1  
    87   32   85 1  
    88   32   86 1  
    89   35   87 1  
    90   36   88 1  
    91   37   89 1  
    92   38   90 1  
    93   38   91 1  
    94   38   92 1  
    95   39   93 1  
    96   39   94 1  
    97   40   95 1  
    98   40   96 1  
    99   40   97 1  
   100   43   98 1  
   101   44   99 1  
   102   47  100 1  
   103   47  101 1  
   104   48  102 1  
   105   48  103 1  
   106   50  104 1  
   107   51  105 1  
   108   54  106 1  
   109   55  107 1  
@<TRIPOS>SUBSTRUCTURE
     1 C35         1

