2v22_ligand
  -I-interpret- 

106108  0  0  0  0  0  0  0  0999 V2000
   36.1420   21.2960   -5.4880 C   0  0  0  0  0
   35.4780   21.4690   -6.6970 C   0  0  0  0  0
   34.1240   21.1580   -6.7880 C   0  0  0  0  0
   33.3050   21.3520   -8.2860 Cl  0  0  0  0  0
   33.3950   20.6560   -5.7180 C   0  0  0  0  0
   34.0670   20.4700   -4.5210 C   0  0  0  0  0
   35.4240   20.7640   -4.4250 C   0  0  0  0  0
   35.9810   20.6350   -3.2360 N   0  0  0  0  0
   36.7040   21.4980   -2.7350 N   0  0  0  0  0
   35.7220   19.6350   -2.3980 C   0  0  0  0  0
   34.8580   18.4040   -2.7130 C   0  0  0  0  0
   36.3750   19.9080   -1.2760 N   0  0  0  0  0
   36.9950   21.0710   -1.5080 C   0  0  0  0  0
   37.8890   21.8810   -0.5650 C   0  0  0  0  0
   38.0930   23.0760   -0.8060 O   0  0  0  0  0
   38.3720   21.2510    0.5140 N   0  0  0  0  0
   39.2170   21.9940    1.4600 C   0  0  0  0  0
   39.7390   21.0430    2.5430 C   0  0  0  0  0
   39.8030   21.6860    3.9340 C   0  0  0  0  0
   41.2240   21.5920    4.4920 C   0  0  0  0  0
   41.5400   20.2150    4.9330 N   0  0  0  0  0
   41.7290   19.9590    6.2320 C   0  0  0  0  0
   42.0040   18.7260    6.6510 N   0  0  0  0  0
   41.6160   20.9400    7.1270 N   0  0  0  0  0
   40.4020   22.5660    0.6780 C   0  0  0  0  0
   41.1470   21.8110    0.0560 O   0  0  0  0  0
   40.5590   23.8880    0.7200 N   0  0  0  0  0
   41.6750   24.5780    0.0560 C   0  0  0  0  0
   41.2350   25.9900   -0.3730 C   0  0  0  0  0
   40.2670   25.9170   -1.5720 C   0  0  0  0  0
   39.7010   27.2910   -1.9480 C   0  0  0  0  0
   40.8670   25.2410   -2.8050 C   0  0  0  0  0
   42.7880   24.7460    1.0840 C   0  0  0  0  0
   42.5730   25.4930    2.0330 O   0  0  0  0  0
   43.9320   24.0660    0.9220 N   0  0  0  0  0
   45.0210   24.2300    1.9130 C   0  0  0  0  0
   45.8910   22.9880    2.2120 C   0  0  0  0  0
   47.3560   23.4010    2.4570 C   0  0  0  0  0
   45.3980   22.2320    3.4590 C   0  0  0  0  0
   44.5120   21.0370    3.0890 C   0  0  0  0  0
   45.8940   25.3130    1.3190 C   0  0  0  0  0
   46.4080   25.0940    0.2250 O   0  0  0  0  0
   45.9740   26.4420    2.0220 N   0  0  0  0  0
   46.7070   27.6200    1.5360 C   0  0  0  0  0
   48.1780   27.5940    1.9360 C   0  0  0  0  0
   49.0400   27.6570    1.0590 O   0  0  0  0  0
   48.4410   27.5660    3.2440 N   0  0  0  0  0
   46.0800   28.9070    2.0760 C   0  0  0  0  0
   44.7560   29.1870    1.3760 C   0  0  0  0  0
   43.5350   29.1550    2.0420 C   0  0  0  0  0
   42.3790   29.4090    1.3020 C   0  0  0  0  0
   42.4370   29.7070   -0.0620 C   0  0  0  0  0
   41.3370   29.9330   -0.8100 F   0  0  0  0  0
   43.6580   29.7160   -0.7150 C   0  0  0  0  0
   44.8070   29.4210    0.0060 C   0  0  0  0  0
   37.1915   21.5689   -5.3780 H   0  0  0  0  0
   36.0140   21.8457   -7.5681 H   0  0  0  0  0
   32.3359   20.4177   -5.8161 H   0  0  0  0  0
   33.5308   20.0918   -3.6507 H   0  0  0  0  0
   33.8486   18.7260   -2.9690 H   0  0  0  0  0
   35.2921   17.8624   -3.5534 H   0  0  0  0  0
   34.8225   17.7534   -1.8392 H   0  0  0  0  0
   38.1561   20.2676    0.6772 H   0  0  0  0  0
   38.6448   22.7911    1.9347 H   0  0  0  0  0
   40.7528   20.7532    2.2667 H   0  0  0  0  0
   39.0509   20.1996    2.6009 H   0  0  0  0  0
   39.1208   21.1607    4.6025 H   0  0  0  0  0
   39.5180   22.7352    3.8564 H   0  0  0  0  0
   41.3036   22.2579    5.3513 H   0  0  0  0  0
   41.9244   21.8733    3.7056 H   0  0  0  0  0
   41.6135   19.4630    4.2478 H   0  0  0  0  0
   42.0729   17.9623    5.9784 H   0  0  0  0  0
   41.7400   20.7414    8.1198 H   0  0  0  0  0
   41.4055   21.8894    6.8192 H   0  0  0  0  0
   39.8766   24.4451    1.2342 H   0  0  0  0  0
   41.9978   24.0055   -0.8135 H   0  0  0  0  0
   42.1164   26.5608   -0.6652 H   0  0  0  0  0
   40.7261   26.4702    0.4627 H   0  0  0  0  0
   39.4482   25.2859   -1.2265 H   0  0  0  0  0
   39.1563   27.7030   -1.0985 H   0  0  0  0  0
   40.5198   27.9592   -2.2149 H   0  0  0  0  0
   39.0258   27.1844   -2.7971 H   0  0  0  0  0
   41.7467   25.7963   -3.1303 H   0  0  0  0  0
   41.1527   24.2193   -2.5547 H   0  0  0  0  0
   40.1278   25.2271   -3.6060 H   0  0  0  0  0
   44.0515   23.4418    0.1242 H   0  0  0  0  0
   44.5698   24.4509    2.8803 H   0  0  0  0  0
   45.8157   22.3365    1.3414 H   0  0  0  0  0
   47.7445   23.9008    1.5697 H   0  0  0  0  0
   47.4032   24.0803    3.3082 H   0  0  0  0  0
   47.9525   22.5129    2.6658 H   0  0  0  0  0
   44.8087   22.9199    4.0653 H   0  0  0  0  0
   46.2682   21.8585    3.9988 H   0  0  0  0  0
   43.6413   21.3893    2.5359 H   0  0  0  0  0
   45.0805   20.3426    2.4703 H   0  0  0  0  0
   44.1864   20.5323    3.9986 H   0  0  0  0  0
   45.5104   26.4907    2.9292 H   0  0  0  0  0
   46.6421   27.5938    0.4482 H   0  0  0  0  0
   49.4067   27.5973    3.5708 H   0  0  0  0  0
   47.6763   27.5133    3.9170 H   0  0  0  0  0
   46.7612   29.7379    1.8927 H   0  0  0  0  0
   45.8993   28.7926    3.1448 H   0  0  0  0  0
   43.4826   28.9382    3.1089 H   0  0  0  0  0
   41.4096   29.3741    1.7991 H   0  0  0  0  0
   43.7160   29.9509   -1.7778 H   0  0  0  0  0
   45.7656   29.3719   -0.5105 H   0  0  0  0  0
  1  2  4  0  0  0
  1  7  4  0  0  0
  2  3  4  0  0  0
  3  4  1  0  0  0
  3  5  4  0  0  0
  5  6  4  0  0  0
  6  7  4  0  0  0
  7  8  1  0  0  0
  8  9  4  0  0  0
  8 10  4  0  0  0
  9 13  4  0  0  0
 10 11  1  0  0  0
 10 12  4  0  0  0
 12 13  4  0  0  0
 13 14  1  0  0  0
 14 15  2  0  0  0
 14 16  1  0  0  0
 16 17  1  0  0  0
 17 18  1  0  0  0
 17 25  1  0  0  0
 18 19  1  0  0  0
 19 20  1  0  0  0
 20 21  1  0  0  0
 21 22  1  0  0  0
 22 23  2  0  0  0
 22 24  1  0  0  0
 25 26  2  0  0  0
 25 27  1  0  0  0
 27 28  1  0  0  0
 28 29  1  0  0  0
 28 33  1  0  0  0
 29 30  1  0  0  0
 30 31  1  0  0  0
 30 32  1  0  0  0
 33 34  2  0  0  0
 33 35  1  0  0  0
 35 36  1  0  0  0
 36 37  1  0  0  0
 36 41  1  0  0  0
 37 38  1  0  0  0
 37 39  1  0  0  0
 39 40  1  0  0  0
 41 42  2  0  0  0
 41 43  1  0  0  0
 43 44  1  0  0  0
 44 45  1  0  0  0
 44 48  1  0  0  0
 45 46  2  0  0  0
 45 47  1  0  0  0
 48 49  1  0  0  0
 49 50  4  0  0  0
 49 55  4  0  0  0
 50 51  4  0  0  0
 51 52  4  0  0  0
 52 53  1  0  0  0
 52 54  4  0  0  0
 54 55  4  0  0  0
  1 56  1  0  0  0
  2 57  1  0  0  0
  5 58  1  0  0  0
  6 59  1  0  0  0
 11 60  1  0  0  0
 11 61  1  0  0  0
 11 62  1  0  0  0
 16 63  1  0  0  0
 17 64  1  0  0  0
 18 65  1  0  0  0
 18 66  1  0  0  0
 19 67  1  0  0  0
 19 68  1  0  0  0
 20 69  1  0  0  0
 20 70  1  0  0  0
 21 71  1  0  0  0
 23 72  1  0  0  0
 24 73  1  0  0  0
 24 74  1  0  0  0
 27 75  1  0  0  0
 28 76  1  0  0  0
 29 77  1  0  0  0
 29 78  1  0  0  0
 30 79  1  0  0  0
 31 80  1  0  0  0
 31 81  1  0  0  0
 31 82  1  0  0  0
 32 83  1  0  0  0
 32 84  1  0  0  0
 32 85  1  0  0  0
 35 86  1  0  0  0
 36 87  1  0  0  0
 37 88  1  0  0  0
 38 89  1  0  0  0
 38 90  1  0  0  0
 38 91  1  0  0  0
 39 92  1  0  0  0
 39 93  1  0  0  0
 40 94  1  0  0  0
 40 95  1  0  0  0
 40 96  1  0  0  0
 43 97  1  0  0  0
 44 98  1  0  0  0
 47 99  1  0  0  0
 47100  1  0  0  0
 48101  1  0  0  0
 48102  1  0  0  0
 50103  1  0  0  0
 51104  1  0  0  0
 54105  1  0  0  0
 55106  1  0  0  0
M  END
$$$$
