1at6_ligand
  -I-interpret- 

 84 86  0  0  0  0  0  0  0  0999 V2000
    0.5030   25.5860   35.2660 C   0  0  0  0  0
   -0.0200   25.0100   36.5920 C   0  0  0  0  0
   -1.4070   25.5880   36.8750 C   0  0  0  0  0
   -1.3790   27.1160   36.8460 C   0  0  0  0  0
   -0.8000   27.5870   35.5190 C   0  0  0  0  0
   -0.6710   29.1020   35.4330 C   0  0  0  0  0
    0.5440   22.7870   37.3730 C   0  0  0  0  0
    0.3400   21.2900   37.2490 C   0  0  0  0  0
   -0.1310   23.5610   36.5260 N   0  0  0  0  0
   -1.8810   25.1370   38.1360 O   0  0  0  0  0
   -2.7040   27.6070   36.9860 O   0  0  0  0  0
    0.5180   27.0230   35.3220 O   0  0  0  0  0
   -0.6300   29.5300   34.0780 O   0  0  0  0  0
    1.3540   23.2280   38.1900 O   0  0  0  0  0
    4.1080   24.8800   31.4660 C   0  0  0  0  0
    4.0380   26.2450   32.1730 C   0  0  0  0  0
    3.5710   26.1410   33.6180 C   0  0  0  0  0
    2.2760   25.3290   33.6640 C   0  0  0  0  0
    2.5570   23.9680   33.0420 C   0  0  0  0  0
    1.3870   22.9950   33.1300 C   0  0  0  0  0
    5.5920   27.8740   31.2910 C   0  0  0  0  0
    6.9760   28.5050   31.3240 C   0  0  0  0  0
    5.3410   26.8870   32.1480 N   0  0  0  0  0
    3.3630   27.4550   34.1170 O   0  0  0  0  0
    1.8050   25.1580   35.0210 O   0  0  0  0  0
    2.8920   24.1380   31.6500 O   0  0  0  0  0
    0.2040   23.5540   32.5810 O   0  0  0  0  0
    4.7630   28.2750   30.4730 O   0  0  0  0  0
    5.5090   23.4150   26.5820 C   0  0  0  0  0
    4.1560   22.9030   27.0680 C   0  0  0  0  0
    3.6210   23.8250   28.1640 C   0  0  0  0  0
    4.6730   24.0510   29.2560 C   0  0  0  0  0
    6.0120   24.4500   28.6500 C   0  0  0  0  0
    7.1450   24.5880   29.6680 C   0  0  0  0  0
    2.7390   21.7090   25.5050 C   0  0  0  0  0
    1.8140   21.7800   24.3130 C   0  0  0  0  0
    3.2360   22.8610   25.9420 N   0  0  0  0  0
    6.0350   22.5340   25.6510 O   0  0  0  0  0
    2.4590   23.2450   28.7420 O   0  0  0  0  0
    4.2380   25.1170   30.1080 O   0  0  0  0  0
    6.4180   23.4750   27.6780 O   0  0  0  0  0
    7.3240   23.3910   30.4180 O   0  0  0  0  0
    2.9580   20.6220   26.0560 O   0  0  0  0  0
   -0.1591   25.2392   34.4726 H   0  0  0  0  0
    0.6827   25.2759   37.3817 H   0  0  0  0  0
   -2.0832   25.2404   36.0939 H   0  0  0  0  0
   -0.7606   27.4890   37.6624 H   0  0  0  0  0
   -1.4965   27.2522   34.7503 H   0  0  0  0  0
    0.2537   29.4041   35.9248 H   0  0  0  0  0
   -1.5348   29.5561   35.9186 H   0  0  0  0  0
    1.2825   20.8179   36.9716 H   0  0  0  0  0
   -0.0005   20.8906   38.2043 H   0  0  0  0  0
   -0.4081   21.0888   36.4822 H   0  0  0  0  0
   -0.7330   23.1331   35.8225 H   0  0  0  0  0
   -1.8957   24.1772   38.1464 H   0  0  0  0  0
   -3.0676   27.3092   37.8231 H   0  0  0  0  0
   -0.5487   30.4861   34.0479 H   0  0  0  0  0
    4.9432   24.3133   31.8775 H   0  0  0  0  0
    3.3041   26.8379   31.6272 H   0  0  0  0  0
    4.3164   25.6391   34.2349 H   0  0  0  0  0
    1.4985   25.8590   33.1138 H   0  0  0  0  0
    3.3809   23.5405   33.6134 H   0  0  0  0  0
    1.2060   22.7665   34.1803 H   0  0  0  0  0
    1.6401   22.0983   32.5644 H   0  0  0  0  0
    7.4609   28.3649   30.3579 H   0  0  0  0  0
    6.8832   29.5705   31.5343 H   0  0  0  0  0
    7.5720   28.0301   32.1033 H   0  0  0  0  0
    6.0693   26.5789   32.7923 H   0  0  0  0  0
    3.0676   27.4067   35.0291 H   0  0  0  0  0
   -0.5117   22.9181   32.6516 H   0  0  0  0  0
    5.3700   24.4019   26.1407 H   0  0  0  0  0
    4.2616   21.9003   27.4821 H   0  0  0  0  0
    3.3771   24.7881   27.7156 H   0  0  0  0  0
    4.7927   23.1220   29.8135 H   0  0  0  0  0
    5.8455   25.4309   28.2047 H   0  0  0  0  0
    6.8917   25.3925   30.3584 H   0  0  0  0  0
    8.0688   24.7982   29.1289 H   0  0  0  0  0
    2.2063   21.1529   23.5124 H   0  0  0  0  0
    0.8241   21.4264   24.6013 H   0  0  0  0  0
    1.7464   22.8118   23.9681 H   0  0  0  0  0
    2.9681   23.7302   25.4804 H   0  0  0  0  0
    6.8857   22.8602   25.3484 H   0  0  0  0  0
    2.1225   23.8235   29.4303 H   0  0  0  0  0
    8.0404   23.5120   31.0454 H   0  0  0  0  0
  1  2  1  0  0  0
  1 12  1  0  0  0
 25  1  1  0  0  0
  2  3  1  0  0  0
  2  9  1  0  0  0
  3  4  1  0  0  0
  3 10  1  0  0  0
  5  4  1  0  0  0
  4 11  1  0  0  0
  5  6  1  0  0  0
 12  5  1  0  0  0
  6 13  1  0  0  0
  7  8  1  0  0  0
  9  7  1  0  0  0
  7 14  2  0  0  0
 15 16  1  0  0  0
 15 26  1  0  0  0
 40 15  1  0  0  0
 16 17  1  0  0  0
 16 23  1  0  0  0
 17 18  1  0  0  0
 17 24  1  0  0  0
 19 18  1  0  0  0
 18 25  1  0  0  0
 19 20  1  0  0  0
 26 19  1  0  0  0
 20 27  1  0  0  0
 21 22  1  0  0  0
 23 21  1  0  0  0
 21 28  2  0  0  0
 30 29  1  0  0  0
 29 38  1  0  0  0
 29 41  1  0  0  0
 30 31  1  0  0  0
 37 30  1  0  0  0
 31 32  1  0  0  0
 31 39  1  0  0  0
 32 33  1  0  0  0
 32 40  1  0  0  0
 33 34  1  0  0  0
 41 33  1  0  0  0
 34 42  1  0  0  0
 35 36  1  0  0  0
 35 37  1  0  0  0
 35 43  2  0  0  0
  1 44  1  0  0  0
  2 45  1  0  0  0
  3 46  1  0  0  0
  4 47  1  0  0  0
  5 48  1  0  0  0
  6 49  1  0  0  0
  6 50  1  0  0  0
  8 51  1  0  0  0
  8 52  1  0  0  0
  8 53  1  0  0  0
  9 54  1  0  0  0
 10 55  1  0  0  0
 11 56  1  0  0  0
 13 57  1  0  0  0
 15 58  1  0  0  0
 16 59  1  0  0  0
 17 60  1  0  0  0
 18 61  1  0  0  0
 19 62  1  0  0  0
 20 63  1  0  0  0
 20 64  1  0  0  0
 22 65  1  0  0  0
 22 66  1  0  0  0
 22 67  1  0  0  0
 23 68  1  0  0  0
 24 69  1  0  0  0
 27 70  1  0  0  0
 29 71  1  0  0  0
 30 72  1  0  0  0
 31 73  1  0  0  0
 32 74  1  0  0  0
 33 75  1  0  0  0
 34 76  1  0  0  0
 34 77  1  0  0  0
 36 78  1  0  0  0
 36 79  1  0  0  0
 36 80  1  0  0  0
 37 81  1  0  0  0
 38 82  1  0  0  0
 39 83  1  0  0  0
 42 84  1  0  0  0
M  END
$$$$
