5byi_ligand
  -I-interpret- 

 33 34  0  0  0  0  0  0  0  0999 V2000
   13.6730    1.7870   16.6410 O   0  0  0  0  0
   15.1050    1.7270   16.7850 S   0  0  0  0  0
   15.6600    1.8270   18.1190 O   0  0  0  0  0
   15.6920    0.4190   16.0650 N   0  0  0  0  0
   15.7450    3.1170   15.9070 C   0  0  0  0  0
   17.1130    3.2290   15.6340 C   0  0  0  0  0
   17.6140    4.3680   14.9800 C   0  0  0  0  0
   16.7440    5.4110   14.6180 C   0  0  0  0  0
   15.3810    5.2920   14.8520 C   0  0  0  0  0
   14.8890    4.1580   15.5020 C   0  0  0  0  0
   17.1760    6.5440   14.0220 N   0  0  0  0  0
   18.4370    6.5720   13.5390 N   0  0  0  0  0
   19.2120    7.6800   13.5760 C   0  0  0  0  0
   19.0380    8.7390   14.4850 C   0  0  0  0  0
   19.8980    9.8540   14.4660 C   0  0  0  0  0
   20.9510    9.9040   13.5380 C   0  0  0  0  0
   21.8220   11.0200   13.5040 N   0  0  0  0  0
   21.1270    8.8420   12.6340 C   0  0  0  0  0
   20.2660    7.7350   12.6620 C   0  0  0  0  0
   15.0620   -0.2291   15.5923 H   0  0  0  0  0
   16.6952    0.2354   16.0800 H   0  0  0  0  0
   17.7927    2.4298   15.9297 H   0  0  0  0  0
   18.6776    4.4424   14.7535 H   0  0  0  0  0
   14.6987    6.0789   14.5304 H   0  0  0  0  0
   13.8201    4.0776   15.6997 H   0  0  0  0  0
   16.5657    7.3570   13.9390 H   0  0  0  0  0
   18.8215    5.7210   13.1287 H   0  0  0  0  0
   18.2278    8.6962   15.2129 H   0  0  0  0  0
   19.7472   10.6741   15.1680 H   0  0  0  0  0
   21.6863   11.7929   14.1556 H   0  0  0  0  0
   22.5851   11.0510   12.8279 H   0  0  0  0  0
   21.9379    8.8790   11.9065 H   0  0  0  0  0
   20.4210    6.9115   11.9649 H   0  0  0  0  0
  1  2  2  0  0  0
  2  3  2  0  0  0
  2  4  1  0  0  0
  2  5  1  0  0  0
  5  6  4  0  0  0
  5 10  4  0  0  0
  6  7  4  0  0  0
  7  8  4  0  0  0
  8  9  4  0  0  0
  8 11  1  0  0  0
  9 10  4  0  0  0
 11 12  1  0  0  0
 12 13  1  0  0  0
 13 14  4  0  0  0
 13 19  4  0  0  0
 14 15  4  0  0  0
 15 16  4  0  0  0
 16 17  1  0  0  0
 16 18  4  0  0  0
 18 19  4  0  0  0
  4 20  1  0  0  0
  4 21  1  0  0  0
  6 22  1  0  0  0
  7 23  1  0  0  0
  9 24  1  0  0  0
 10 25  1  0  0  0
 11 26  1  0  0  0
 12 27  1  0  0  0
 14 28  1  0  0  0
 15 29  1  0  0  0
 17 30  1  0  0  0
 17 31  1  0  0  0
 18 32  1  0  0  0
 19 33  1  0  0  0
M  END
$$$$
