6hwu_ligand
  -I-interpret- 

 69 73  0  0  0  0  0  0  0  0999 V2000
   -5.5000    1.7480  -28.1010 C   0  0  0  0  0
   -4.3420    1.1630  -23.7130 C   0  0  0  0  0
   -4.4000   -0.5040  -21.9280 C   0  0  0  0  0
   -4.4070   -1.7930  -21.5410 C   0  0  0  0  0
   -4.7570   -2.3840  -20.3670 C   0  0  0  0  0
   -4.0410   -4.1820  -21.5040 C   0  0  0  0  0
   -2.4590   -6.6790  -23.1960 C   0  0  0  0  0
   -2.2680    2.7020  -33.0460 C   0  0  0  0  0
   -3.7550    2.3540  -31.2860 C   0  0  0  0  0
   -4.5930    3.2920  -31.8830 C   0  0  0  0  0
   -5.7430    3.7250  -31.2270 C   0  0  0  0  0
   -6.0540    3.2160  -29.9700 C   0  0  0  0  0
   -8.2940    3.7550  -30.1550 C   0  0  0  0  0
   -5.2240    2.2760  -29.3640 C   0  0  0  0  0
   -4.1560    1.5510  -27.3890 C   0  0  0  0  0
   -4.2660    0.7770  -26.0740 C   0  0  0  0  0
   -4.3860   -0.1730  -23.2860 C   0  0  0  0  0
   -4.3040    0.5330  -21.0100 C   0  0  0  0  0
   -4.2600    1.8470  -21.4360 C   0  0  0  0  0
   -2.7100   -7.4890  -24.2960 C   0  0  0  0  0
   -1.8930   -8.5850  -24.5730 C   0  0  0  0  0
   -0.7940   -8.8660  -23.7560 C   0  0  0  0  0
   -0.5300   -8.0420  -22.6640 C   0  0  0  0  0
   -1.3600   -6.9550  -22.3960 C   0  0  0  0  0
   -5.2720   -1.7910  -19.2810 C   0  0  0  0  0
   -4.6060   -1.8900  -18.0640 C   0  0  0  0  0
   -5.1050   -1.2860  -16.9150 C   0  0  0  0  0
   -6.2950   -0.5750  -16.9760 C   0  0  0  0  0
   -6.9740   -0.4740  -18.1870 C   0  0  0  0  0
   -6.4720   -1.0830  -19.3340 C   0  0  0  0  0
   -4.0780    1.8530  -30.0310 C   0  0  0  0  0
   -6.8140    0.0370  -15.8120 F   0  0  0  0  0
   -4.3200    1.5830  -24.9910 N   0  0  0  0  0
   -4.2720    2.1380  -22.7960 N   0  0  0  0  0
   -4.5550   -3.7220  -20.3550 N   0  0  0  0  0
   -3.7180   -5.4480  -21.7970 N   0  0  0  0  0
   -3.2480   -5.6350  -22.9490 N   0  0  0  0  0
   -2.6200    1.9120  -31.9060 O   0  0  0  0  0
   -7.1670    3.6010  -29.2800 O   0  0  0  0  0
   -4.2630   -0.4520  -26.0850 O   0  0  0  0  0
   -3.8290   -2.9600  -22.5220 S   0  0  0  0  0
   -6.0308    0.8000  -28.1886 H   0  0  0  0  0
   -6.1398    2.4239  -27.5336 H   0  0  0  0  0
   -3.0795    2.6702  -33.7730 H   0  0  0  0  0
   -2.0982    3.7325  -32.7339 H   0  0  0  0  0
   -1.3591    2.3030  -33.4964 H   0  0  0  0  0
   -4.3481    3.6893  -32.8680 H   0  0  0  0  0
   -6.3968    4.4599  -31.6967 H   0  0  0  0  0
   -8.0694    4.5139  -30.9045 H   0  0  0  0  0
   -8.5017    2.8055  -30.6484 H   0  0  0  0  0
   -9.1639    4.0621  -29.5744 H   0  0  0  0  0
   -3.7632    2.5401  -27.1537 H   0  0  0  0  0
   -3.5153    0.9733  -28.0552 H   0  0  0  0  0
   -4.4098   -0.9699  -24.0293 H   0  0  0  0  0
   -4.2630    0.3089  -19.9441 H   0  0  0  0  0
   -4.2159    2.6553  -20.7061 H   0  0  0  0  0
   -3.5537   -7.2660  -24.9491 H   0  0  0  0  0
   -2.1120   -9.2239  -25.4285 H   0  0  0  0  0
   -0.1512   -9.7197  -23.9708 H   0  0  0  0  0
    0.3250   -8.2473  -22.0198 H   0  0  0  0  0
   -1.1420   -6.3112  -21.5439 H   0  0  0  0  0
   -3.6739   -2.4525  -18.0097 H   0  0  0  0  0
   -4.5646   -1.3706  -15.9722 H   0  0  0  0  0
   -7.9072    0.0870  -18.2377 H   0  0  0  0  0
   -7.0177   -1.0062  -20.2744 H   0  0  0  0  0
   -3.4242    1.1178  -29.5618 H   0  0  0  0  0
   -4.3462    2.5893  -25.1552 H   0  0  0  0  0
   -3.8445   -6.2099  -21.1308 H   0  0  0  0  0
   -3.4730   -4.9819  -23.6995 H   0  0  0  0  0
  1 14  1  0  0  0
 15  1  1  0  0  0
 17  2  4  0  0  0
  2 33  1  0  0  0
  2 34  4  0  0  0
  4  3  1  0  0  0
  3 17  4  0  0  0
  3 18  4  0  0  0
  4  5  4  0  0  0
 41  4  4  0  0  0
  5 25  1  0  0  0
 35  5  4  0  0  0
  6 35  4  0  0  0
 36  6  1  0  0  0
  6 41  4  0  0  0
  7 20  4  0  0  0
  7 24  4  0  0  0
 37  7  1  0  0  0
 38  8  1  0  0  0
  9 10  4  0  0  0
 31  9  4  0  0  0
  9 38  1  0  0  0
 11 10  4  0  0  0
 12 11  4  0  0  0
 14 12  4  0  0  0
 12 39  1  0  0  0
 39 13  1  0  0  0
 14 31  4  0  0  0
 16 15  1  0  0  0
 33 16  1  0  0  0
 16 40  2  0  0  0
 18 19  4  0  0  0
 19 34  4  0  0  0
 20 21  4  0  0  0
 21 22  4  0  0  0
 23 22  4  0  0  0
 24 23  4  0  0  0
 25 26  4  0  0  0
 25 30  4  0  0  0
 26 27  4  0  0  0
 27 28  4  0  0  0
 29 28  4  0  0  0
 28 32  1  0  0  0
 30 29  4  0  0  0
 36 37  1  0  0  0
  1 42  1  0  0  0
  1 43  1  0  0  0
  8 44  1  0  0  0
  8 45  1  0  0  0
  8 46  1  0  0  0
 10 47  1  0  0  0
 11 48  1  0  0  0
 13 49  1  0  0  0
 13 50  1  0  0  0
 13 51  1  0  0  0
 15 52  1  0  0  0
 15 53  1  0  0  0
 17 54  1  0  0  0
 18 55  1  0  0  0
 19 56  1  0  0  0
 20 57  1  0  0  0
 21 58  1  0  0  0
 22 59  1  0  0  0
 23 60  1  0  0  0
 24 61  1  0  0  0
 26 62  1  0  0  0
 27 63  1  0  0  0
 29 64  1  0  0  0
 30 65  1  0  0  0
 31 66  1  0  0  0
 33 67  1  0  0  0
 36 68  1  0  0  0
 37 69  1  0  0  0
M  END
$$$$
