2x8z_ligand
  -I-interpret- 

 29 29  0  0  0  0  0  0  0  0999 V2000
   29.5500    2.8090  -42.5400 O   0  0  0  0  0
   29.0130    3.7410  -43.2180 C   0  0  0  0  0
   27.4920    3.7420  -43.3960 C   0  0  0  0  0
   27.0060    2.2880  -43.3910 C   0  0  0  0  0
   27.1070    1.4620  -44.9800 S   0  0  0  0  0
   26.8970    4.5800  -42.2530 C   0  0  0  0  0
   29.7960    4.7060  -43.7490 N   0  0  0  0  0
   31.2920    4.7310  -43.5470 C   0  0  0  0  0
   31.6420    4.9440  -42.0560 C   0  0  0  0  0
   30.8550    5.4310  -41.2690 O   0  0  0  0  0
   32.8170    4.5760  -41.6830 O   0  0  0  0  0
   29.3770    5.8960  -44.5790 C   0  0  0  0  0
   30.6130    6.6710  -44.8540 C   0  0  0  0  0
   31.7960    5.8760  -44.3820 C   0  0  0  0  0
   27.1755    4.1841  -44.3407 H   0  0  0  0  0
   25.9536    2.3051  -43.1075 H   0  0  0  0  0
   27.6514    1.7390  -42.7053 H   0  0  0  0  0
   26.6622    0.2145  -44.8585 H   0  0  0  0  0
   25.8107    4.5938  -42.3417 H   0  0  0  0  0
   27.1792    4.1399  -41.2966 H   0  0  0  0  0
   27.2806    5.5985  -42.3131 H   0  0  0  0  0
   31.7512    3.7873  -43.8414 H   0  0  0  0  0
   33.2928    4.2173  -42.4357 H   0  0  0  0  0
   28.6438    6.5040  -44.0490 H   0  0  0  0  0
   28.9003    5.5779  -45.5062 H   0  0  0  0  0
   30.5756    7.6255  -44.3290 H   0  0  0  0  0
   30.6991    6.8627  -45.9236 H   0  0  0  0  0
   32.3572    5.4974  -45.2363 H   0  0  0  0  0
   32.4589    6.5072  -43.7902 H   0  0  0  0  0
  1  2  2  0  0  0
  2  3  1  0  0  0
  2  7  1  0  0  0
  3  4  1  0  0  0
  3  6  1  0  0  0
  4  5  1  0  0  0
  7  8  1  0  0  0
  7 12  1  0  0  0
  8  9  1  0  0  0
  8 14  1  0  0  0
  9 10  2  0  0  0
  9 11  1  0  0  0
 12 13  1  0  0  0
 13 14  1  0  0  0
  3 15  1  0  0  0
  4 16  1  0  0  0
  4 17  1  0  0  0
  5 18  1  0  0  0
  6 19  1  0  0  0
  6 20  1  0  0  0
  6 21  1  0  0  0
  8 22  1  0  0  0
 11 23  1  0  0  0
 12 24  1  0  0  0
 12 25  1  0  0  0
 13 26  1  0  0  0
 13 27  1  0  0  0
 14 28  1  0  0  0
 14 29  1  0  0  0
M  END
$$$$
