3jyj_ligand
  -I-interpret- 

 45 47  0  0  0  0  0  0  0  0999 V2000
   15.1840    4.5590    0.8840 C   0  0  0  0  0
   15.0660    5.7450    1.7480 C   0  0  0  0  0
   15.8890    5.8990    2.8590 C   0  0  0  0  0
   15.7420    7.0350    3.6450 C   0  0  0  0  0
   14.8170    8.0150    3.3670 C   0  0  0  0  0
   13.9940    7.8690    2.2610 C   0  0  0  0  0
   14.1300    6.7440    1.4740 C   0  0  0  0  0
   14.8230    1.2240    0.6330 C   0  0  0  0  0
   15.9100    2.2760    0.3190 C   0  0  0  0  0
   15.0170    0.1230   -0.3900 C   0  0  0  0  0
   14.1330    0.0750   -1.4000 O   0  0  0  0  0
   15.9340   -0.6470   -0.2790 O   0  0  0  0  0
   15.8160    3.4490    1.2510 C   0  0  0  0  0
    7.9000    3.9590   -2.1420 C   0  0  0  0  0
    7.3740    4.8600   -1.2110 C   0  0  0  0  0
    7.9610    5.0780    0.0020 C   0  0  0  0  0
    9.0400    3.2620   -1.8550 C   0  0  0  0  0
    9.6840    3.4530   -0.6180 C   0  0  0  0  0
    9.1360    4.3720    0.3220 C   0  0  0  0  0
    9.7780    4.5640    1.5630 C   0  0  0  0  0
   10.9120    3.8750    1.8530 C   0  0  0  0  0
   11.4690    2.9580    0.9320 C   0  0  0  0  0
   10.8570    2.7460   -0.2980 C   0  0  0  0  0
   12.7110    2.2420    1.3000 C   0  0  0  0  0
   13.5480    1.8860    0.2970 N   0  0  0  0  0
   13.0850    2.0500    2.4370 O   0  0  0  0  0
   14.7302    4.5929   -0.1065 H   0  0  0  0  0
   16.6342    5.1435    3.1078 H   0  0  0  0  0
   16.3852    7.1548    4.5168 H   0  0  0  0  0
   14.7326    8.8933    4.0070 H   0  0  0  0  0
   13.2524    8.6298    2.0174 H   0  0  0  0  0
   13.4818    6.6308    0.6050 H   0  0  0  0  0
   14.8532    0.8509    1.6567 H   0  0  0  0  0
   15.7665    2.6304   -0.7017 H   0  0  0  0  0
   16.8887    1.8121    0.4414 H   0  0  0  0  0
   13.4883    0.7782   -1.2931 H   0  0  0  0  0
   16.2711    3.3897    2.2397 H   0  0  0  0  0
    7.3995    3.8122   -3.0991 H   0  0  0  0  0
    6.4650    5.4065   -1.4622 H   0  0  0  0  0
    7.5281    5.7853    0.7094 H   0  0  0  0  0
    9.4493    2.5603   -2.5818 H   0  0  0  0  0
    9.3646    5.2645    2.2886 H   0  0  0  0  0
   11.4020    4.0319    2.8139 H   0  0  0  0  0
   11.2827    2.0376   -1.0087 H   0  0  0  0  0
   13.3011    2.0724   -0.6750 H   0  0  0  0  0
  1  2  1  0  0  0
 13  1  2  0  0  0
  2  3  4  0  0  0
  2  7  4  0  0  0
  3  4  4  0  0  0
  4  5  4  0  0  0
  6  5  4  0  0  0
  7  6  4  0  0  0
  8  9  1  0  0  0
  8 10  1  0  0  0
 25  8  1  0  0  0
  9 13  1  0  0  0
 10 11  1  0  0  0
 10 12  2  0  0  0
 14 15  4  0  0  0
 17 14  4  0  0  0
 16 15  4  0  0  0
 19 16  4  0  0  0
 18 17  4  0  0  0
 18 19  4  0  0  0
 23 18  4  0  0  0
 20 19  4  0  0  0
 21 20  4  0  0  0
 22 21  4  0  0  0
 22 23  4  0  0  0
 24 22  1  0  0  0
 24 25  1  0  0  0
 24 26  2  0  0  0
  1 27  1  0  0  0
  3 28  1  0  0  0
  4 29  1  0  0  0
  5 30  1  0  0  0
  6 31  1  0  0  0
  7 32  1  0  0  0
  8 33  1  0  0  0
  9 34  1  0  0  0
  9 35  1  0  0  0
 11 36  1  0  0  0
 13 37  1  0  0  0
 14 38  1  0  0  0
 15 39  1  0  0  0
 16 40  1  0  0  0
 17 41  1  0  0  0
 20 42  1  0  0  0
 21 43  1  0  0  0
 23 44  1  0  0  0
 25 45  1  0  0  0
M  END
$$$$
