1rnm_ligand
  -I-interpret- 

 35 36  0  0  0  0  0  0  0  0999 V2000
   10.2400   15.6770   29.9640 O   0  0  0  0  0
   11.5520   15.5640   30.6960 P   0  0  0  0  0
   11.9070   16.7120   31.6240 O   0  0  0  0  0
   11.9620   14.1830   31.1670 O   0  0  0  0  0
   12.5920   15.7060   29.4410 O   0  0  0  0  0
   12.6450   14.7280   28.3950 C   0  0  0  0  0
   13.8620   14.9610   27.6230 C   0  0  0  0  0
   14.0130   16.3140   27.4070 O   0  0  0  0  0
   15.0040   14.5750   28.4140 C   0  0  0  0  0
   15.1580   13.2500   27.9370 O   0  0  0  0  0
   16.1130   15.5180   28.0870 C   0  0  0  0  0
   16.8880   15.0520   27.0150 O   0  0  0  0  0
   15.3650   16.6210   27.4730 C   0  0  0  0  0
   15.4640   17.8940   28.1530 N   0  0  0  0  0
   16.4650   18.7180   27.7080 C   0  0  0  0  0
   16.4940   19.9400   28.2440 N   0  0  0  0  0
   15.6020   20.3610   29.1860 C   0  0  0  0  0
   14.5780   19.5080   29.6630 C   0  0  0  0  0
   14.5480   18.2860   29.1140 C   0  0  0  0  0
   17.3410   18.3600   26.9170 O   0  0  0  0  0
   15.7100   21.5830   29.6960 N   0  0  0  0  0
   12.7566   16.5382   32.0357 H   0  0  0  0  0
   12.8086   14.2376   31.6164 H   0  0  0  0  0
   11.7685   14.8147   27.7528 H   0  0  0  0  0
   12.6531   13.7234   28.8179 H   0  0  0  0  0
   13.7932   14.4000   26.6910 H   0  0  0  0  0
   14.9450   14.6100   29.5018 H   0  0  0  0  0
   15.9032   12.8365   28.3790 H   0  0  0  0  0
   16.7439   15.7095   28.9550 H   0  0  0  0  0
   17.5899   15.6808   26.8320 H   0  0  0  0  0
   15.8269   16.7294   26.4917 H   0  0  0  0  0
   17.2171   20.5895   27.9347 H   0  0  0  0  0
   13.8638   19.8232   30.4237 H   0  0  0  0  0
   13.7806   17.5807   29.4331 H   0  0  0  0  0
   16.4577   22.2021   29.3829 H   0  0  0  0  0
  1  2  2  0  0  0
  2  3  1  0  0  0
  2  4  1  0  0  0
  2  5  1  0  0  0
  5  6  1  0  0  0
  6  7  1  0  0  0
  7  8  1  0  0  0
  7  9  1  0  0  0
  8 13  1  0  0  0
  9 10  1  0  0  0
  9 11  1  0  0  0
 11 12  1  0  0  0
 11 13  1  0  0  0
 13 14  1  0  0  0
 14 15  1  0  0  0
 14 19  1  0  0  0
 15 16  1  0  0  0
 15 20  2  0  0  0
 16 17  1  0  0  0
 17 18  1  0  0  0
 17 21  2  0  0  0
 18 19  2  0  0  0
  3 22  1  0  0  0
  4 23  1  0  0  0
  6 24  1  0  0  0
  6 25  1  0  0  0
  7 26  1  0  0  0
  9 27  1  0  0  0
 10 28  1  0  0  0
 11 29  1  0  0  0
 12 30  1  0  0  0
 13 31  1  0  0  0
 16 32  1  0  0  0
 18 33  1  0  0  0
 19 34  1  0  0  0
 21 35  1  0  0  0
M  END
$$$$
