5y7h_ligand
  -I-interpret- 

 39 40  0  0  0  0  0  0  0  0999 V2000
   50.2580   62.3130   50.8390 C   0  0  0  0  0
   51.5760   62.4560   48.6820 C   0  0  0  0  0
   49.1040   61.8660   48.6730 C   0  0  0  0  0
   49.9980   61.2440   57.8720 C   0  0  0  0  0
   51.0450   60.4900   57.3680 C   0  0  0  0  0
   51.3110   60.4900   56.0120 C   0  0  0  0  0
   50.5380   61.2500   55.1500 C   0  0  0  0  0
   49.4880   62.0050   55.6540 C   0  0  0  0  0
   49.2210   62.0020   57.0140 C   0  0  0  0  0
   50.8220   61.2520   53.6460 C   0  0  0  0  0
   51.0950   62.6790   53.1620 C   0  0  0  0  0
   51.4830   62.6670   51.6820 C   0  0  0  0  0
   50.3240   62.2140   49.3880 N   0  0  0  0  0
   49.2230   62.1080   51.3810 O   0  0  0  0  0
   51.3400   62.6050   47.1760 C   0  0  0  0  0
   50.2190   61.9380   46.5450 N   0  0  0  0  0
   49.3410   61.1300   47.3650 C   0  0  0  0  0
   52.0700   63.2720   46.5250 O   0  0  0  0  0
   52.1680   63.2700   53.9460 N   0  3  0  0  0
   48.1910   62.7450   57.5120 F   0  0  0  0  0
   49.7300   61.2440   59.2100 F   0  0  0  0  0
   52.3430   59.7390   55.5320 F   0  0  0  0  0
   52.2400   61.6078   48.8487 H   0  0  0  0  0
   52.0162   63.3791   49.0591 H   0  0  0  0  0
   48.5946   62.7987   48.4308 H   0  0  0  0  0
   48.5303   61.2008   49.3183 H   0  0  0  0  0
   51.6606   59.8952   58.0427 H   0  0  0  0  0
   48.8729   62.6008   54.9796 H   0  0  0  0  0
   49.9544   60.8558   53.1183 H   0  0  0  0  0
   51.6975   60.6339   53.4471 H   0  0  0  0  0
   50.1896   63.2729   53.2869 H   0  0  0  0  0
   51.8508   63.6519   51.3941 H   0  0  0  0  0
   52.2651   61.9260   51.5167 H   0  0  0  0  0
   50.0519   62.0357   45.5435 H   0  0  0  0  0
   48.3943   60.9648   46.8507 H   0  0  0  0  0
   49.7967   60.1589   47.5583 H   0  0  0  0  0
   52.3439   64.2197   53.6179 H   0  0  0  0  0
   51.8962   63.2934   54.9288 H   0  0  0  0  0
   53.0138   62.7100   53.8391 H   0  0  0  0  0
 12  1  1  0  0  0
  1 13  1  0  0  0
  1 14  2  0  0  0
 13  2  1  0  0  0
  2 15  1  0  0  0
 13  3  1  0  0  0
  3 17  1  0  0  0
  5  4  4  0  0  0
  9  4  4  0  0  0
  4 21  1  0  0  0
  6  5  4  0  0  0
  7  6  4  0  0  0
  6 22  1  0  0  0
  7  8  4  0  0  0
 10  7  1  0  0  0
  8  9  4  0  0  0
  9 20  1  0  0  0
 11 10  1  0  0  0
 11 12  1  0  0  0
 11 19  1  0  0  0
 15 16  1  0  0  0
 15 18  2  0  0  0
 16 17  1  0  0  0
  2 23  1  0  0  0
  2 24  1  0  0  0
  3 25  1  0  0  0
  3 26  1  0  0  0
  5 27  1  0  0  0
  8 28  1  0  0  0
 10 29  1  0  0  0
 10 30  1  0  0  0
 11 31  1  0  0  0
 12 32  1  0  0  0
 12 33  1  0  0  0
 16 34  1  0  0  0
 17 35  1  0  0  0
 17 36  1  0  0  0
 19 37  1  0  0  0
 19 38  1  0  0  0
 19 39  1  0  0  0
M  END
$$$$
