2p8s_ligand
  -I-interpret- 

 50 53  0  0  0  0  0  0  0  0999 V2000
   34.7310   50.4710   36.3910 C   0  0  0  0  0
   35.9770   51.0680   36.5800 C   0  0  0  0  0
   37.2100   50.3820   36.3930 C   0  0  0  0  0
   37.1530   49.0100   35.9870 C   0  0  0  0  0
   35.8900   48.3970   35.7950 C   0  0  0  0  0
   34.6950   49.1280   35.9960 C   0  0  0  0  0
   38.5190   51.1180   36.6180 C   0  0  0  0  0
   39.4530   50.3730   37.6060 C   0  0  0  0  0
   40.7550   51.1730   37.8190 C   0  0  0  0  0
   41.5200   51.4310   36.4790 C   0  0  0  0  0
   40.5800   52.1470   35.4690 C   0  0  0  0  0
   39.2640   51.3620   35.2580 C   0  0  0  0  0
   42.7790   52.2300   36.6550 N   0  3  0  0  0
   43.9240   51.4030   37.1440 C   0  0  0  0  0
   45.2800   52.1690   37.1080 C   0  0  0  0  0
   45.1260   53.5950   37.5070 N   0  0  0  0  0
   43.9470   54.2130   37.7040 C   0  0  0  0  0
   42.6280   53.4650   37.5260 C   0  0  0  0  0
   46.0350   54.5570   37.7680 C   0  0  0  0  0
   45.3680   55.6890   38.0910 N   0  0  0  0  0
   44.1360   55.4830   38.0550 N   0  0  0  0  0
   35.8440   47.1120   35.4190 F   0  0  0  0  0
   35.9780   52.3450   36.9570 F   0  0  0  0  0
   38.3910   52.0670   34.3150 N   0  3  0  0  0
   47.5570   54.4190   37.7080 C   0  0  0  0  0
   48.1170   55.5870   38.0250 F   0  0  0  0  0
   47.8820   54.0480   36.4740 F   0  0  0  0  0
   47.9070   53.4850   38.5850 F   0  0  0  0  0
   33.5100   48.5560   35.8190 F   0  0  0  0  0
   33.8107   51.0341   36.5464 H   0  0  0  0  0
   38.0706   48.4437   35.8275 H   0  0  0  0  0
   38.2640   52.0786   37.0655 H   0  0  0  0  0
   39.6999   49.3949   37.1933 H   0  0  0  0  0
   38.9429   50.2622   38.5629 H   0  0  0  0  0
   41.4054   50.5922   38.4730 H   0  0  0  0  0
   40.4914   52.1392   38.2491 H   0  0  0  0  0
   41.8208   50.4554   36.0971 H   0  0  0  0  0
   41.0951   52.2182   34.5110 H   0  0  0  0  0
   40.3331   53.1311   35.8674 H   0  0  0  0  0
   39.5202   50.3892   34.8383 H   0  0  0  0  0
   42.9860   52.5579   35.7116 H   0  0  0  0  0
   44.0129   50.5357   36.4898 H   0  0  0  0  0
   43.7213   51.1313   38.1799 H   0  0  0  0  0
   45.6607   52.1400   36.0871 H   0  0  0  0  0
   45.9608   51.6899   37.8116 H   0  0  0  0  0
   42.2851   53.1451   38.5100 H   0  0  0  0  0
   41.9208   54.1372   37.0401 H   0  0  0  0  0
   38.8903   52.2170   33.4383 H   0  0  0  0  0
   37.5570   51.5061   34.1411 H   0  0  0  0  0
   38.1203   52.9669   34.7117 H   0  0  0  0  0
  1  2  4  0  0  0
  1  6  4  0  0  0
  2  3  4  0  0  0
  2 23  1  0  0  0
  3  4  4  0  0  0
  3  7  1  0  0  0
  4  5  4  0  0  0
  5  6  4  0  0  0
  5 22  1  0  0  0
  6 29  1  0  0  0
  7  8  1  0  0  0
  7 12  1  0  0  0
  8  9  1  0  0  0
  9 10  1  0  0  0
 10 11  1  0  0  0
 10 13  1  0  0  0
 11 12  1  0  0  0
 12 24  1  0  0  0
 13 14  1  0  0  0
 13 18  1  0  0  0
 14 15  1  0  0  0
 15 16  1  0  0  0
 16 17  4  0  0  0
 16 19  4  0  0  0
 17 18  1  0  0  0
 17 21  4  0  0  0
 19 20  4  0  0  0
 19 25  1  0  0  0
 20 21  4  0  0  0
 25 26  1  0  0  0
 25 27  1  0  0  0
 25 28  1  0  0  0
  1 30  1  0  0  0
  4 31  1  0  0  0
  7 32  1  0  0  0
  8 33  1  0  0  0
  8 34  1  0  0  0
  9 35  1  0  0  0
  9 36  1  0  0  0
 10 37  1  0  0  0
 11 38  1  0  0  0
 11 39  1  0  0  0
 12 40  1  0  0  0
 13 41  1  0  0  0
 14 42  1  0  0  0
 14 43  1  0  0  0
 15 44  1  0  0  0
 15 45  1  0  0  0
 18 46  1  0  0  0
 18 47  1  0  0  0
 24 48  1  0  0  0
 24 49  1  0  0  0
 24 50  1  0  0  0
M  END
$$$$
