5m1z_ligand
  -I-interpret- 

 40 41  0  0  0  0  0  0  0  0999 V2000
   77.4050   13.5080   19.0970 C   0  0  0  0  0
   78.7290   12.7550   19.0950 C   0  0  0  0  0
   78.8060   12.3140   17.6450 C   0  0  0  0  0
   77.5640   14.6990   19.8610 O   0  0  0  0  0
   77.6000   12.5970   16.9160 O   0  0  0  0  0
   80.4980   12.5870   16.0100 O   0  0  0  0  0
   77.1230   13.7510   17.6060 C   0  0  0  0  0
   79.8800   11.8270   17.0120 N   0  3  0  0  0
   78.7080   11.7470   20.0980 O   0  0  0  0  0
   75.6840   13.8820   17.1580 C   0  0  0  0  0
   75.7300   14.2380   15.7560 O   0  0  0  0  0
   73.0440   10.6680   13.8380 O   0  0  0  0  0
   72.9690   11.8900   13.0800 C   0  0  0  0  0
   74.0510   12.8900   13.4970 C   0  0  0  0  0
   74.0400   13.0460   14.9130 O   0  0  0  0  0
   73.8220   14.3240   12.9550 C   0  0  0  0  0
   74.2250   14.4670   11.5760 O   0  0  0  0  0
   74.5550   15.2010   13.9780 C   0  0  0  0  0
   74.0170   16.5180   14.1580 O   0  0  0  0  0
   74.3780   14.4050   15.2740 C   0  0  0  0  0
   76.5668   12.9822   19.5542 H   0  0  0  0  0
   79.6322   13.3024   19.3648 H   0  0  0  0  0
   79.4268   11.4353   17.8201 H   0  0  0  0  0
   77.7364   14.4696   20.7771 H   0  0  0  0  0
   81.2474   12.1012   15.6578 H   0  0  0  0  0
   77.5956   14.7110   17.3983 H   0  0  0  0  0
   79.5400   10.9942   16.5310 H   0  0  0  0  0
   80.5886   11.7354   17.7399 H   0  0  0  0  0
   78.6584   12.1594   20.9635 H   0  0  0  0  0
   75.1583   14.6395   17.7393 H   0  0  0  0  0
   75.1383   12.9508   17.3098 H   0  0  0  0  0
   72.3517   10.0697   13.5477 H   0  0  0  0  0
   71.9954   12.3451   13.2620 H   0  0  0  0  0
   73.1156   11.6480   12.0274 H   0  0  0  0  0
   74.9782   12.4796   13.0970 H   0  0  0  0  0
   72.7749   14.6184   12.8839 H   0  0  0  0  0
   74.0639   15.3687   11.2886 H   0  0  0  0  0
   75.5799   15.3842   13.6553 H   0  0  0  0  0
   74.5381   16.9886   14.8127 H   0  0  0  0  0
   73.6591   14.8759   15.9445 H   0  0  0  0  0
  1  2  1  0  0  0
  1  4  1  0  0  0
  7  1  1  0  0  0
  3  2  1  0  0  0
  2  9  1  0  0  0
  5  3  1  0  0  0
  3  8  1  0  0  0
  7  5  1  0  0  0
  8  6  1  0  0  0
 10  7  1  0  0  0
 11 10  1  0  0  0
 20 11  1  0  0  0
 13 12  1  0  0  0
 14 13  1  0  0  0
 15 14  1  0  0  0
 14 16  1  0  0  0
 15 20  1  0  0  0
 16 17  1  0  0  0
 16 18  1  0  0  0
 18 19  1  0  0  0
 18 20  1  0  0  0
  1 21  1  0  0  0
  2 22  1  0  0  0
  3 23  1  0  0  0
  4 24  1  0  0  0
  6 25  1  0  0  0
  7 26  1  0  0  0
  8 27  1  0  0  0
  8 28  1  0  0  0
  9 29  1  0  0  0
 10 30  1  0  0  0
 10 31  1  0  0  0
 12 32  1  0  0  0
 13 33  1  0  0  0
 13 34  1  0  0  0
 14 35  1  0  0  0
 16 36  1  0  0  0
 17 37  1  0  0  0
 18 38  1  0  0  0
 19 39  1  0  0  0
 20 40  1  0  0  0
M  END
$$$$
