5lxp_ligand
  -I-interpret- 

 61 63  0  0  0  0  0  0  0  0999 V2000
  -24.3650  -16.2980  -10.1480 C   0  0  0  0  0
  -25.2580  -17.1860   -9.4910 C   0  0  0  0  0
  -26.0780  -16.6760   -8.4300 C   0  0  0  0  0
  -25.9800  -15.3060   -8.0740 C   0  0  0  0  0
  -25.1070  -14.4440   -8.7500 C   0  0  0  0  0
  -24.3100  -14.9300   -9.7710 C   0  0  0  0  0
  -23.3070  -14.2500  -10.5600 C   0  0  0  0  0
  -23.6360  -13.2070  -11.6010 C   0  0  0  0  0
  -22.1000  -13.6940   -9.7000 C   0  0  0  0  0
  -21.8760  -14.0040   -8.2700 N   0  0  0  0  0
  -21.9150  -15.1280   -7.6040 C   0  0  0  0  0
  -21.6350  -13.1760   -7.5780 N   0  0  0  0  0
  -21.5010  -13.4040   -6.6300 N   0  0  0  0  0
  -21.6420  -14.6760   -6.4170 C   0  0  0  0  0
  -21.5220  -15.4830   -5.0960 C   0  0  0  0  0
  -20.2490  -15.1200   -4.4560 N   0  0  0  0  0
  -19.1020  -15.6920   -4.6810 C   0  0  0  0  0
  -19.0190  -16.6160   -5.4620 O   0  0  0  0  0
  -17.8110  -15.1640   -3.9010 C   0  0  0  0  0
  -17.2670  -16.3320   -3.0320 C   0  0  0  0  0
  -18.2580  -16.6570   -1.8490 C   0  0  0  0  0
  -18.3090  -15.5480   -0.7590 C   0  0  0  0  0
  -17.4640  -14.6930   -0.7030 O   0  0  0  0  0
  -19.3730  -15.5610    0.1000 N   0  0  0  0  0
  -19.5870  -14.7160    1.1470 C   0  0  0  0  0
  -20.8810  -14.5820    1.7280 C   0  0  0  0  0
  -18.5030  -14.0410    1.8240 C   0  0  0  0  0
  -18.7070  -13.2680    2.9860 C   0  0  0  0  0
  -19.9930  -13.1470    3.4960 C   0  0  0  0  0
  -21.1240  -13.7870    2.8960 C   0  0  0  0  0
  -22.4280  -13.6210    3.4920 C   0  0  0  0  0
  -22.7090  -12.5720    4.0210 O   0  0  0  0  0
  -23.3170  -14.6090    3.3800 N   0  0  0  0  0
  -23.7195  -16.6680  -10.9446 H   0  0  0  0  0
  -25.3190  -18.2333   -9.7869 H   0  0  0  0  0
  -26.7690  -17.3340   -7.9030 H   0  0  0  0  0
  -26.5940  -14.9180   -7.2613 H   0  0  0  0  0
  -25.0557  -13.3913   -8.4718 H   0  0  0  0  0
  -23.0793  -15.1238  -11.1705 H   0  0  0  0  0
  -23.9152  -12.2769  -11.1060 H   0  0  0  0  0
  -22.7633  -13.0368  -12.2314 H   0  0  0  0  0
  -24.4662  -13.5570  -12.2144 H   0  0  0  0  0
  -22.2974  -12.6222   -9.6812 H   0  0  0  0  0
  -21.2364  -14.1547  -10.1796 H   0  0  0  0  0
  -22.1168  -16.1438   -7.9439 H   0  0  0  0  0
  -21.5472  -16.5526   -5.3044 H   0  0  0  0  0
  -22.3562  -15.2491   -4.4346 H   0  0  0  0  0
  -20.2664  -14.3567   -3.7797 H   0  0  0  0  0
  -18.0723  -14.3142   -3.2704 H   0  0  0  0  0
  -17.0507  -14.8345   -4.6091 H   0  0  0  0  0
  -16.3035  -16.0404   -2.6139 H   0  0  0  0  0
  -17.1640  -17.2182   -3.6583 H   0  0  0  0  0
  -17.9073  -17.5711   -1.3699 H   0  0  0  0  0
  -19.2579  -16.7445   -2.2741 H   0  0  0  0  0
  -20.0803  -16.2783   -0.0599 H   0  0  0  0  0
  -21.7190  -15.1043    1.2664 H   0  0  0  0  0
  -17.4936  -14.1324    1.4230 H   0  0  0  0  0
  -17.8684  -12.7733    3.4760 H   0  0  0  0  0
  -20.1472  -12.5406    4.3886 H   0  0  0  0  0
  -24.2615  -14.4891    3.7459 H   0  0  0  0  0
  -23.0523  -15.4845    2.9284 H   0  0  0  0  0
  1  2  4  0  0  0
  1  6  4  0  0  0
  2  3  4  0  0  0
  3  4  4  0  0  0
  4  5  4  0  0  0
  5  6  4  0  0  0
  6  7  1  0  0  0
  7  8  1  0  0  0
  7  9  1  0  0  0
  9 10  1  0  0  0
 10 11  4  0  0  0
 10 12  4  0  0  0
 11 14  4  0  0  0
 12 13  4  0  0  0
 13 14  4  0  0  0
 14 15  1  0  0  0
 15 16  1  0  0  0
 16 17  1  0  0  0
 17 18  2  0  0  0
 17 19  1  0  0  0
 19 20  1  0  0  0
 20 21  1  0  0  0
 21 22  1  0  0  0
 22 23  2  0  0  0
 22 24  1  0  0  0
 24 25  1  0  0  0
 25 26  4  0  0  0
 25 27  4  0  0  0
 26 30  4  0  0  0
 27 28  4  0  0  0
 28 29  4  0  0  0
 29 30  4  0  0  0
 30 31  1  0  0  0
 31 32  2  0  0  0
 31 33  1  0  0  0
  1 34  1  0  0  0
  2 35  1  0  0  0
  3 36  1  0  0  0
  4 37  1  0  0  0
  5 38  1  0  0  0
  7 39  1  0  0  0
  8 40  1  0  0  0
  8 41  1  0  0  0
  8 42  1  0  0  0
  9 43  1  0  0  0
  9 44  1  0  0  0
 11 45  1  0  0  0
 15 46  1  0  0  0
 15 47  1  0  0  0
 16 48  1  0  0  0
 19 49  1  0  0  0
 19 50  1  0  0  0
 20 51  1  0  0  0
 20 52  1  0  0  0
 21 53  1  0  0  0
 21 54  1  0  0  0
 24 55  1  0  0  0
 26 56  1  0  0  0
 27 57  1  0  0  0
 28 58  1  0  0  0
 29 59  1  0  0  0
 33 60  1  0  0  0
 33 61  1  0  0  0
M  END
$$$$
