### 
### Created by X-TOOL on Wed Jan  1 15:39:36 2020
### 

@<TRIPOS>MOLECULE
6g85_ligand
  157   160     1     0     0
SMALL
GAST_HUCK


@<TRIPOS>ATOM
      1 N          14.1930   48.9620   56.1310 N.4       1 PHE         0.2394
      2 CA         14.8270   49.9060   57.0500 C.3       1 PHE         0.0744
      3 C          13.9010   51.1050   57.3290 C.2       1 PHE         0.2289
      4 O          13.2280   51.6120   56.4280 O.2       1 PHE        -0.3905
      5 CB         16.1730   50.4180   56.5010 C.3       1 PHE         0.0416
      6 CG         16.9390   49.4220   55.6400 C.ar      1 PHE        -0.0353
      7 CD1        17.8130   48.5020   56.2160 C.ar      1 PHE        -0.0600
      8 CD2        16.8270   49.4550   54.2490 C.ar      1 PHE        -0.0600
      9 CE1        18.5310   47.6010   55.4220 C.ar      1 PHE        -0.0686
     10 CE2        17.5400   48.5660   53.4420 C.ar      1 PHE        -0.0686
     11 CZ         18.3880   47.6320   54.0280 C.ar      1 PHE        -0.0687
     12 N          13.8870   51.5680   58.5770 N.am      1 THR        -0.2585
     13 CA         13.0690   52.7120   58.9850 C.3       1 THR         0.1566
     14 C          13.8040   54.0470   58.9670 C.2       1 THR         0.2066
     15 O          13.1610   55.0950   58.8280 O.2       1 THR        -0.3943
     16 CB         12.5170   52.5130   60.4000 C.3       1 THR         0.0924
     17 OG1        13.5860   52.1290   61.2800 O.3       1 THR        -0.3874
     18 CG2        11.4220   51.4730   60.4010 C.3       1 THR        -0.0346
     19 N          15.1160   54.0600   59.1490 N.am      1 ASP        -0.2621
     20 CA         15.8480   55.3170   59.2060 C.3       1 ASP         0.1423
     21 C          17.0000   55.2580   58.2020 C.2       1 ASP         0.2056
     22 O          18.1650   55.2270   58.5950 O.2       1 ASP        -0.3943
     23 CB         16.3400   55.6050   60.6280 C.3       1 ASP         0.0406
     24 CG         16.8180   57.0390   60.7950 C.2       1 ASP         0.0393
     25 OD1        16.7120   57.8090   59.8110 O.co2     1 ASP        -0.5688
     26 OD2        17.2990   57.3940   61.9000 O.co2     1 ASP        -0.5688
     27 N          16.6600   55.2380   56.9120 N.am      1 VAL        -0.2634
     28 CA         17.6600   55.1570   55.8380 C.3       1 VAL         0.1334
     29 C          18.3320   56.5200   55.7480 C.2       1 VAL         0.2066
     30 O          17.6520   57.5420   55.5700 O.2       1 VAL        -0.3942
     31 CB         17.0320   54.7230   54.5060 C.3       1 VAL        -0.0062
     32 CG1        18.0250   54.8250   53.3350 C.3       1 VAL        -0.0584
     33 CG2        16.5960   53.2770   54.6090 C.3       1 VAL        -0.0584
     34 N          19.6410   56.5980   55.9650 N.am      1 PRO        -0.2498
     35 CA         20.3360   57.8940   55.8580 C.3       1 PRO         0.1338
     36 C          20.2580   58.4640   54.4400 C.2       1 PRO         0.2041
     37 O          20.2200   57.7360   53.4610 O.2       1 PRO        -0.3944
     38 CB         21.7830   57.5500   56.2360 C.3       1 PRO        -0.0104
     39 CG         21.6530   56.2250   57.0280 C.3       1 PRO        -0.0281
     40 CD         20.5330   55.4970   56.3640 C.3       1 PRO         0.0369
     41 N          20.2570   59.8040   54.3470 N.am      1 ALA        -0.2640
     42 CA         20.1270   60.5000   53.0570 C.3       1 ALA         0.1282
     43 C          21.4860   60.5680   52.3600 C.2       1 ALA         0.2036
     44 O          22.2500   61.5120   52.5450 O.2       1 ALA        -0.3944
     45 CB         19.5460   61.9020   53.2840 C.3       1 ALA        -0.0244
     46 N          21.7990   59.5590   51.5040 N.am      1 LEU        -0.2637
     47 CA         23.0710   59.4870   50.8040 C.3       1 LEU         0.1312
     48 C          22.8590   59.4560   49.2910 C.2       1 LEU         0.2040
     49 O          23.5910   58.7810   48.5660 O.2       1 LEU        -0.3944
     50 CB         23.8670   58.2560   51.2380 C.3       1 LEU        -0.0101
     51 CG         24.2380   58.0950   52.7340 C.3       1 LEU        -0.0425
     52 CD1        24.9380   56.7090   52.8900 C.3       1 LEU        -0.0625
     53 CD2        25.1330   59.2230   53.1830 C.3       1 LEU        -0.0625
     54 N          21.8330   60.1600   48.8160 N.am      1 ASN        -0.2616
     55 CA         21.5380   60.1750   47.3890 C.3       1 ASN         0.1476
     56 C          22.6220   60.9390   46.6250 C.2       1 ASN         0.2064
     57 O          23.3100   61.8120   47.1640 O.2       1 ASN        -0.3942
     58 CB         20.1480   60.7920   47.1370 C.3       1 ASN         0.0773
     59 CG         19.0000   59.7950   47.3640 C.2       1 ASN         0.1780
     60 OD1        19.1770   58.7440   47.9870 O.2       1 ASN        -0.3970
     61 ND2        17.8150   60.1320   46.8570 N.am      1 ASN        -0.3007
     62 N          22.7910   60.5810   45.3360 N.am      1 TYR        -0.2620
     63 CA         23.8040   61.2690   44.5320 C.3       1 TYR         0.1392
     64 C          23.4150   62.7330   44.3750 C.2       1 TYR         0.2077
     65 O          22.2650   63.0250   44.0340 O.2       1 TYR        -0.3940
     66 CB         23.9510   60.6210   43.1480 C.3       1 TYR         0.0164
     67 CG         25.2550   60.9670   42.4520 C.ar      1 TYR        -0.0493
     68 CD1        26.4260   60.2710   42.7620 C.ar      1 TYR        -0.0685
     69 CD2        25.3190   61.9630   41.4750 C.ar      1 TYR        -0.0685
     70 CE1        27.6400   60.5790   42.1280 C.ar      1 TYR        -0.0398
     71 CE2        26.5190   62.2610   40.8230 C.ar      1 TYR        -0.0398
     72 CZ         27.6690   61.5600   41.1570 C.ar      1 TYR         0.0805
     73 OH         28.8630   61.8480   40.5310 O.3       1 TYR        -0.3376
     74 N          24.3510   63.6760   44.5680 N.am      1 PRO        -0.2554
     75 CA         24.1080   65.1280   44.6010 C.3       1 PRO         0.0972
     76 C          23.7070   65.7170   43.2430 C.2       1 PRO         0.0603
     77 O          24.4250   65.4410   42.2780 O.co2     1 PRO        -0.5666
     78 CB         25.4580   65.7000   45.0610 C.3       1 PRO        -0.0159
     79 CG         26.4840   64.6740   44.7030 C.3       1 PRO        -0.0288
     80 CD         25.7850   63.3390   44.6670 C.3       1 PRO         0.0362
     81 OXT        22.6960   66.4240   43.2150 O.co2     1 PRO        -0.5666
     82 H1         14.8154   48.1871   55.9630 H         1 PHE         0.2017
     83 H2         13.9911   49.4259   55.2592 H         1 PHE         0.2017
     84 H3         13.3354   48.6221   56.5372 H         1 PHE         0.2017
     85 H4         15.0166   49.3829   57.9989 H         1 PHE         0.1122
     86 H5         16.8092   50.6893   57.3564 H         1 PHE         0.0507
     87 H6         15.9750   51.3129   55.8928 H         1 PHE         0.0507
     88 H7         17.9382   48.4842   57.2926 H         1 PHE         0.0557
     89 H8         16.1734   50.1854   53.7860 H         1 PHE         0.0557
     90 H9         19.1964   46.8806   55.8839 H         1 PHE         0.0599
     91 H10        17.4331   48.6036   52.3639 H         1 PHE         0.0599
     92 H11        18.9361   46.9309   53.4090 H         1 PHE         0.0559
     93 H12        14.4577   51.1167   59.2630 H         1 THR         0.1885
     94 H13        12.2248   52.7786   58.2829 H         1 THR         0.0826
     95 H14        12.0942   53.4654   60.7524 H         1 THR         0.0639
     96 H15        13.2435   52.0056   62.1575 H         1 THR         0.2101
     97 H16        11.0392   51.3446   61.4242 H         1 THR         0.0257
     98 H17        11.8248   50.5161   60.0375 H         1 THR         0.0257
     99 H18        10.6044   51.8007   59.7421 H         1 THR         0.0257
    100 H19        15.6095   53.1960   59.2484 H         1 ASP         0.1884
    101 H20        15.1704   56.1315   58.9104 H         1 ASP         0.0819
    102 H21        17.1738   54.9254   60.8581 H         1 ASP         0.0478
    103 H22        15.5141   55.4235   61.3315 H         1 ASP         0.0478
    104 H23        15.6913   55.2796   56.6674 H         1 VAL         0.1883
    105 H24        18.4170   54.4077   56.1128 H         1 VAL         0.0803
    106 H25        16.1606   55.3614   54.2984 H         1 VAL         0.0343
    107 H26        17.5306   54.5047   52.4061 H         1 VAL         0.0234
    108 H27        18.8916   54.1766   53.5315 H         1 VAL         0.0234
    109 H28        18.3627   55.8666   53.2302 H         1 VAL         0.0234
    110 H29        15.8829   53.1673   55.4393 H         1 VAL         0.0234
    111 H30        17.4745   52.6414   54.7939 H         1 VAL         0.0234
    112 H31        16.1137   52.9715   53.6687 H         1 VAL         0.0234
    113 H32        19.9103   58.6226   56.5636 H         1 PRO         0.0802
    114 H33        22.2226   58.3397   56.8630 H         1 PRO         0.0313
    115 H34        22.4003   57.4098   55.3364 H         1 PRO         0.0313
    116 H35        21.4144   56.4252   58.0830 H         1 PRO         0.0287
    117 H36        22.5845   55.6431   56.9667 H         1 PRO         0.0287
    118 H37        20.8872   54.9332   55.4884 H         1 PRO         0.0524
    119 H38        20.0324   54.8115   57.0636 H         1 PRO         0.0524
    120 H39        20.3476   60.3466   55.1821 H         1 ALA         0.1883
    121 H40        19.4347   59.9338   52.4166 H         1 ALA         0.0797
    122 H41        19.4499   62.4198   52.3183 H         1 ALA         0.0277
    123 H42        20.2162   62.4746   53.9420 H         1 ALA         0.0277
    124 H43        18.5553   61.8166   53.7544 H         1 ALA         0.0277
    125 H44        21.1257   58.8359   51.3495 H         1 LEU         0.1883
    126 H45        23.6538   60.3852   51.0562 H         1 LEU         0.0800
    127 H46        24.8093   58.2639   50.6705 H         1 LEU         0.0315
    128 H47        23.2758   57.3726   50.9549 H         1 LEU         0.0315
    129 H48        23.3220   58.1099   53.3429 H         1 LEU         0.0298
    130 H49        25.2182   56.5562   53.9427 H         1 LEU         0.0232
    131 H50        25.8411   56.6816   52.2626 H         1 LEU         0.0232
    132 H51        24.2482   55.9123   52.5748 H         1 LEU         0.0232
    133 H52        24.6064   60.1807   53.0583 H         1 LEU         0.0232
    134 H53        26.0502   59.2272   52.5759 H         1 LEU         0.0232
    135 H54        25.3950   59.0838   54.2422 H         1 LEU         0.0232
    136 H55        21.2590   60.6839   49.4453 H         1 ASN         0.1885
    137 H56        21.5265   59.1368   47.0257 H         1 ASN         0.0826
    138 H57        20.1046   61.1459   46.0964 H         1 ASN         0.0551
    139 H58        20.0131   61.6437   47.8199 H         1 ASN         0.0551
    140 H59        17.0302   59.5231   46.9727 H         1 ASN         0.1814
    141 H60        17.7103   60.9938   46.3607 H         1 ASN         0.1814
    142 H61        22.2322   59.8555   44.9342 H         1 TYR         0.1885
    143 H62        24.7705   61.2082   45.0537 H         1 TYR         0.0821
    144 H63        23.1179   60.9600   42.5147 H         1 TYR         0.0453
    145 H64        23.8997   59.5288   43.2678 H         1 TYR         0.0453
    146 H65        26.3967   59.4809   43.5036 H         1 TYR         0.0530
    147 H66        24.4221   62.5148   41.2177 H         1 TYR         0.0530
    148 H67        28.5472   60.0509   42.3986 H         1 TYR         0.0525
    149 H68        26.5509   63.0332   40.0629 H         1 TYR         0.0525
    150 H69        29.5439   61.2812   40.8741 H         1 TYR         0.2458
    151 H70        23.3188   65.3611   45.3310 H         1 PRO         0.0728
    152 H71        25.4507   65.8700   46.1477 H         1 PRO         0.0306
    153 H72        25.6681   66.6474   44.5430 H         1 PRO         0.0306
    154 H73        27.2834   64.6606   45.4585 H         1 PRO         0.0286
    155 H74        26.9153   64.9003   43.7167 H         1 PRO         0.0286
    156 H75        26.1083   62.7542   43.7933 H         1 PRO         0.0524
    157 H76        25.9881   62.7688   45.5855 H         1 PRO         0.0524
@<TRIPOS>BOND
     1    1    2 1  
     2    2    3 1  
     3    2    5 1  
     4    3    4 2  
     5    3   12 am 
     6    5    6 1  
     7    6    7 ar 
     8    6    8 ar 
     9    7    9 ar 
    10    8   10 ar 
    11    9   11 ar 
    12   10   11 ar 
    13   12   13 1  
    14   13   14 1  
    15   13   16 1  
    16   14   15 2  
    17   14   19 am 
    18   16   17 1  
    19   16   18 1  
    20   19   20 1  
    21   20   21 1  
    22   20   23 1  
    23   21   22 2  
    24   21   27 am 
    25   23   24 1  
    26   24   25 ar 
    27   24   26 ar 
    28   27   28 1  
    29   28   29 1  
    30   28   31 1  
    31   29   30 2  
    32   29   34 am 
    33   31   32 1  
    34   31   33 1  
    35   34   35 1  
    36   34   40 1  
    37   35   36 1  
    38   35   38 1  
    39   36   37 2  
    40   36   41 am 
    41   38   39 1  
    42   39   40 1  
    43   41   42 1  
    44   42   43 1  
    45   42   45 1  
    46   43   44 2  
    47   43   46 am 
    48   46   47 1  
    49   47   48 1  
    50   47   50 1  
    51   48   49 2  
    52   48   54 am 
    53   50   51 1  
    54   51   52 1  
    55   51   53 1  
    56   54   55 1  
    57   55   56 1  
    58   55   58 1  
    59   56   57 2  
    60   56   62 am 
    61   58   59 1  
    62   59   60 2  
    63   59   61 am 
    64   62   63 1  
    65   63   64 1  
    66   63   66 1  
    67   64   65 2  
    68   64   74 am 
    69   66   67 1  
    70   67   68 ar 
    71   67   69 ar 
    72   68   70 ar 
    73   69   71 ar 
    74   70   72 ar 
    75   71   72 ar 
    76   72   73 1  
    77   74   75 1  
    78   74   80 1  
    79   75   76 1  
    80   75   78 1  
    81   76   77 ar 
    82   76   81 ar 
    83   78   79 1  
    84   79   80 1  
    85    1   82 1  
    86    1   83 1  
    87    1   84 1  
    88    2   85 1  
    89    5   86 1  
    90    5   87 1  
    91    7   88 1  
    92    8   89 1  
    93    9   90 1  
    94   10   91 1  
    95   11   92 1  
    96   12   93 1  
    97   13   94 1  
    98   16   95 1  
    99   17   96 1  
   100   18   97 1  
   101   18   98 1  
   102   18   99 1  
   103   19  100 1  
   104   20  101 1  
   105   23  102 1  
   106   23  103 1  
   107   27  104 1  
   108   28  105 1  
   109   31  106 1  
   110   32  107 1  
   111   32  108 1  
   112   32  109 1  
   113   33  110 1  
   114   33  111 1  
   115   33  112 1  
   116   35  113 1  
   117   38  114 1  
   118   38  115 1  
   119   39  116 1  
   120   39  117 1  
   121   40  118 1  
   122   40  119 1  
   123   41  120 1  
   124   42  121 1  
   125   45  122 1  
   126   45  123 1  
   127   45  124 1  
   128   46  125 1  
   129   47  126 1  
   130   50  127 1  
   131   50  128 1  
   132   51  129 1  
   133   52  130 1  
   134   52  131 1  
   135   52  132 1  
   136   53  133 1  
   137   53  134 1  
   138   53  135 1  
   139   54  136 1  
   140   55  137 1  
   141   58  138 1  
   142   58  139 1  
   143   61  140 1  
   144   61  141 1  
   145   62  142 1  
   146   63  143 1  
   147   66  144 1  
   148   66  145 1  
   149   68  146 1  
   150   69  147 1  
   151   70  148 1  
   152   71  149 1  
   153   73  150 1  
   154   75  151 1  
   155   78  152 1  
   156   78  153 1  
   157   79  154 1  
   158   79  155 1  
   159   80  156 1  
   160   80  157 1  
@<TRIPOS>SUBSTRUCTURE
     1 PHE         1

