6g85_ligand
  -I-interpret- 

159162  0  0  0  0  0  0  0  0999 V2000
   14.1930   48.9620   56.1310 N   0  3  0  0  0
   14.8270   49.9060   57.0500 C   0  0  0  0  0
   13.9010   51.1050   57.3290 C   0  0  0  0  0
   13.2280   51.6120   56.4280 O   0  0  0  0  0
   16.1730   50.4180   56.5010 C   0  0  0  0  0
   16.9390   49.4220   55.6400 C   0  0  0  0  0
   17.8130   48.5020   56.2160 C   0  0  0  0  0
   16.8270   49.4550   54.2490 C   0  0  0  0  0
   18.5310   47.6010   55.4220 C   0  0  0  0  0
   17.5400   48.5660   53.4420 C   0  0  0  0  0
   18.3880   47.6320   54.0280 C   0  0  0  0  0
   13.8870   51.5680   58.5770 N   0  0  0  0  0
   13.0690   52.7120   58.9850 C   0  0  0  0  0
   13.8040   54.0470   58.9670 C   0  0  0  0  0
   13.1610   55.0950   58.8280 O   0  0  0  0  0
   12.5170   52.5130   60.4000 C   0  0  0  0  0
   13.5860   52.1290   61.2800 O   0  0  0  0  0
   11.4220   51.4730   60.4010 C   0  0  0  0  0
   15.1160   54.0600   59.1490 N   0  0  0  0  0
   15.8480   55.3170   59.2060 C   0  0  0  0  0
   17.0000   55.2580   58.2020 C   0  0  0  0  0
   18.1650   55.2270   58.5950 O   0  0  0  0  0
   16.3400   55.6050   60.6280 C   0  0  0  0  0
   16.8180   57.0390   60.7950 C   0  0  0  0  0
   16.7120   57.8090   59.8110 O   0  0  0  0  0
   17.2990   57.3940   61.9000 O   0  0  0  0  0
   16.6600   55.2380   56.9120 N   0  0  0  0  0
   17.6600   55.1570   55.8380 C   0  0  0  0  0
   18.3320   56.5200   55.7480 C   0  0  0  0  0
   17.6520   57.5420   55.5700 O   0  0  0  0  0
   17.0320   54.7230   54.5060 C   0  0  0  0  0
   18.0250   54.8250   53.3350 C   0  0  0  0  0
   16.5960   53.2770   54.6090 C   0  0  0  0  0
   19.6410   56.5980   55.9650 N   0  0  0  0  0
   20.3360   57.8940   55.8580 C   0  0  0  0  0
   20.2580   58.4640   54.4400 C   0  0  0  0  0
   20.2200   57.7360   53.4610 O   0  0  0  0  0
   21.7830   57.5500   56.2360 C   0  0  0  0  0
   21.6530   56.2250   57.0280 C   0  0  0  0  0
   20.5330   55.4970   56.3640 C   0  0  0  0  0
   20.2570   59.8040   54.3470 N   0  0  0  0  0
   20.1270   60.5000   53.0570 C   0  0  0  0  0
   21.4860   60.5680   52.3600 C   0  0  0  0  0
   22.2500   61.5120   52.5450 O   0  0  0  0  0
   19.5460   61.9020   53.2840 C   0  0  0  0  0
   21.7990   59.5590   51.5040 N   0  0  0  0  0
   23.0710   59.4870   50.8040 C   0  0  0  0  0
   22.8590   59.4560   49.2910 C   0  0  0  0  0
   23.5910   58.7810   48.5660 O   0  0  0  0  0
   23.8670   58.2560   51.2380 C   0  0  0  0  0
   24.2380   58.0950   52.7340 C   0  0  0  0  0
   24.9380   56.7090   52.8900 C   0  0  0  0  0
   25.1330   59.2230   53.1830 C   0  0  0  0  0
   21.8330   60.1600   48.8160 N   0  0  0  0  0
   21.5380   60.1750   47.3890 C   0  0  0  0  0
   22.6220   60.9390   46.6250 C   0  0  0  0  0
   23.3100   61.8120   47.1640 O   0  0  0  0  0
   20.1480   60.7920   47.1370 C   0  0  0  0  0
   19.0000   59.7950   47.3640 C   0  0  0  0  0
   19.1770   58.7440   47.9870 O   0  0  0  0  0
   17.8150   60.1320   46.8570 N   0  0  0  0  0
   22.7910   60.5810   45.3360 N   0  0  0  0  0
   23.8040   61.2690   44.5320 C   0  0  0  0  0
   23.4150   62.7330   44.3750 C   0  0  0  0  0
   22.2650   63.0250   44.0340 O   0  0  0  0  0
   23.9510   60.6210   43.1480 C   0  0  0  0  0
   25.2550   60.9670   42.4520 C   0  0  0  0  0
   26.4260   60.2710   42.7620 C   0  0  0  0  0
   25.3190   61.9630   41.4750 C   0  0  0  0  0
   27.6400   60.5790   42.1280 C   0  0  0  0  0
   26.5190   62.2610   40.8230 C   0  0  0  0  0
   27.6690   61.5600   41.1570 C   0  0  0  0  0
   28.8630   61.8480   40.5310 O   0  0  0  0  0
   24.3510   63.6760   44.5680 N   0  0  0  0  0
   24.1080   65.1280   44.6010 C   0  0  0  0  0
   23.7070   65.7170   43.2430 C   0  0  0  0  0
   24.4250   65.4410   42.2780 O   0  0  0  0  0
   25.4580   65.7000   45.0610 C   0  0  0  0  0
   26.4840   64.6740   44.7030 C   0  0  0  0  0
   25.7850   63.3390   44.6670 C   0  0  0  0  0
   22.6960   66.4240   43.2150 O   0  0  0  0  0
   13.3077   48.6462   56.5271 H   0  0  0  0  0
   14.0218   49.4225   55.2371 H   0  0  0  0  0
   14.8087   48.1611   55.9899 H   0  0  0  0  0
   15.0137   49.3683   57.9796 H   0  0  0  0  0
   16.8019   50.6362   57.3641 H   0  0  0  0  0
   15.9479   51.2747   55.8657 H   0  0  0  0  0
   17.9388   48.4841   57.2986 H   0  0  0  0  0
   16.1698   50.1894   53.7834 H   0  0  0  0  0
   19.2000   46.8766   55.8865 H   0  0  0  0  0
   17.4326   48.6038   52.3580 H   0  0  0  0  0
   18.9391   46.9270   53.4056 H   0  0  0  0  0
   14.4691   51.1077   59.2768 H   0  0  0  0  0
   12.2716   52.7532   58.2430 H   0  0  0  0  0
   12.0866   53.4504   60.7525 H   0  0  0  0  0
   13.2399   52.0043   62.1667 H   0  0  0  0  0
   10.6126   51.7989   59.7478 H   0  0  0  0  0
   11.8223   50.5254   60.0406 H   0  0  0  0  0
   11.0435   51.3467   61.4154 H   0  0  0  0  0
   15.6194   53.1787   59.2504 H   0  0  0  0  0
   15.1878   56.1417   58.9375 H   0  0  0  0  0
   17.1803   54.9425   60.8354 H   0  0  0  0  0
   15.5071   55.4446   61.3126 H   0  0  0  0  0
   17.2849   56.6508   62.5075 H   0  0  0  0  0
   15.6719   55.2804   56.6625 H   0  0  0  0  0
   18.4028   54.3916   56.0626 H   0  0  0  0  0
   16.1905   55.3887   54.3142 H   0  0  0  0  0
   18.3588   55.8575   53.2323 H   0  0  0  0  0
   18.8832   54.1821   53.5310 H   0  0  0  0  0
   17.5340   54.5073   52.4152 H   0  0  0  0  0
   17.4623   52.6522   54.8265 H   0  0  0  0  0
   15.8634   53.1759   55.4097 H   0  0  0  0  0
   16.1495   52.9653   53.6648 H   0  0  0  0  0
   19.8949   58.6603   56.4954 H   0  0  0  0  0
   22.2578   58.3380   56.8206 H   0  0  0  0  0
   22.4275   57.4499   55.3627 H   0  0  0  0  0
   21.4545   56.4004   58.0853 H   0  0  0  0  0
   22.5784   55.6492   57.0131 H   0  0  0  0  0
   20.8576   54.8809   55.5255 H   0  0  0  0  0
   20.0505   54.7660   57.0128 H   0  0  0  0  0
   20.3494   60.3575   55.1988 H   0  0  0  0  0
   19.4456   59.9478   52.4098 H   0  0  0  0  0
   18.5645   61.8160   53.7501 H   0  0  0  0  0
   20.2110   62.4683   53.9361 H   0  0  0  0  0
   19.4513   62.4141   52.3264 H   0  0  0  0  0
   21.1123   58.8215   51.3464 H   0  0  0  0  0
   23.6389   60.3807   51.0628 H   0  0  0  0  0
   24.8214   58.3394   50.7180 H   0  0  0  0  0
   23.2192   57.4082   51.0151 H   0  0  0  0  0
   23.3487   58.1353   53.3630 H   0  0  0  0  0
   24.2535   55.9205   52.5773 H   0  0  0  0  0
   25.8326   56.6831   52.2678 H   0  0  0  0  0
   25.2151   56.5587   53.9334 H   0  0  0  0  0
   26.0471   59.2182   52.5892 H   0  0  0  0  0
   24.6149   60.1723   53.0471 H   0  0  0  0  0
   25.3815   59.0908   54.2360 H   0  0  0  0  0
   21.2475   60.6944   49.4579 H   0  0  0  0  0
   21.5276   59.1482   47.0234 H   0  0  0  0  0
   20.1098   61.1118   46.0957 H   0  0  0  0  0
   20.0173   61.6154   47.8392 H   0  0  0  0  0
   17.0138   59.5124   46.9777 H   0  0  0  0  0
   17.7089   61.0096   46.3481 H   0  0  0  0  0
   22.2211   59.8410   44.9262 H   0  0  0  0  0
   24.7625   61.1907   45.0452 H   0  0  0  0  0
   23.1383   60.9932   42.5243 H   0  0  0  0  0
   23.9318   59.5403   43.2888 H   0  0  0  0  0
   26.3965   59.4765   43.5077 H   0  0  0  0  0
   24.4171   62.5178   41.2163 H   0  0  0  0  0
   28.5522   60.0480   42.4001 H   0  0  0  0  0
   26.5511   63.0375   40.0587 H   0  0  0  0  0
   28.7248   62.5456   39.8862 H   0  0  0  0  0
   23.2700   65.3742   45.2531 H   0  0  0  0  0
   25.1449   64.8757   42.5675 H   0  0  0  0  0
   25.4573   65.9003   46.1324 H   0  0  0  0  0
   25.6680   66.6538   44.5770 H   0  0  0  0  0
   27.2906   64.6655   45.4361 H   0  0  0  0  0
   26.9311   64.8996   43.7349 H   0  0  0  0  0
   26.1193   62.7249   43.8308 H   0  0  0  0  0
   26.0039   62.7389   45.5502 H   0  0  0  0  0
  1  2  1  0  0  0
  2  3  1  0  0  0
  2  5  1  0  0  0
  3  4  2  0  0  0
  3 12  1  0  0  0
  5  6  1  0  0  0
  6  7  4  0  0  0
  6  8  4  0  0  0
  7  9  4  0  0  0
  8 10  4  0  0  0
  9 11  4  0  0  0
 10 11  4  0  0  0
 12 13  1  0  0  0
 13 14  1  0  0  0
 13 16  1  0  0  0
 14 15  2  0  0  0
 14 19  1  0  0  0
 16 17  1  0  0  0
 16 18  1  0  0  0
 19 20  1  0  0  0
 20 21  1  0  0  0
 20 23  1  0  0  0
 21 22  2  0  0  0
 21 27  1  0  0  0
 23 24  1  0  0  0
 24 25  2  0  0  0
 24 26  1  0  0  0
 27 28  1  0  0  0
 28 29  1  0  0  0
 28 31  1  0  0  0
 29 30  2  0  0  0
 29 34  1  0  0  0
 31 32  1  0  0  0
 31 33  1  0  0  0
 34 35  1  0  0  0
 34 40  1  0  0  0
 35 36  1  0  0  0
 35 38  1  0  0  0
 36 37  2  0  0  0
 36 41  1  0  0  0
 38 39  1  0  0  0
 39 40  1  0  0  0
 41 42  1  0  0  0
 42 43  1  0  0  0
 42 45  1  0  0  0
 43 44  2  0  0  0
 43 46  1  0  0  0
 46 47  1  0  0  0
 47 48  1  0  0  0
 47 50  1  0  0  0
 48 49  2  0  0  0
 48 54  1  0  0  0
 50 51  1  0  0  0
 51 52  1  0  0  0
 51 53  1  0  0  0
 54 55  1  0  0  0
 55 56  1  0  0  0
 55 58  1  0  0  0
 56 57  2  0  0  0
 56 62  1  0  0  0
 58 59  1  0  0  0
 59 60  2  0  0  0
 59 61  1  0  0  0
 62 63  1  0  0  0
 63 64  1  0  0  0
 63 66  1  0  0  0
 64 65  2  0  0  0
 64 74  1  0  0  0
 66 67  1  0  0  0
 67 68  4  0  0  0
 67 69  4  0  0  0
 68 70  4  0  0  0
 69 71  4  0  0  0
 70 72  4  0  0  0
 71 72  4  0  0  0
 72 73  1  0  0  0
 74 75  1  0  0  0
 74 80  1  0  0  0
 75 76  1  0  0  0
 75 78  1  0  0  0
 76 77  1  0  0  0
 76 81  2  0  0  0
 78 79  1  0  0  0
 79 80  1  0  0  0
  1 82  1  0  0  0
  1 83  1  0  0  0
  1 84  1  0  0  0
  2 85  1  0  0  0
  5 86  1  0  0  0
  5 87  1  0  0  0
  7 88  1  0  0  0
  8 89  1  0  0  0
  9 90  1  0  0  0
 10 91  1  0  0  0
 11 92  1  0  0  0
 12 93  1  0  0  0
 13 94  1  0  0  0
 16 95  1  0  0  0
 17 96  1  0  0  0
 18 97  1  0  0  0
 18 98  1  0  0  0
 18 99  1  0  0  0
 19100  1  0  0  0
 20101  1  0  0  0
 23102  1  0  0  0
 23103  1  0  0  0
 26104  1  0  0  0
 27105  1  0  0  0
 28106  1  0  0  0
 31107  1  0  0  0
 32108  1  0  0  0
 32109  1  0  0  0
 32110  1  0  0  0
 33111  1  0  0  0
 33112  1  0  0  0
 33113  1  0  0  0
 35114  1  0  0  0
 38115  1  0  0  0
 38116  1  0  0  0
 39117  1  0  0  0
 39118  1  0  0  0
 40119  1  0  0  0
 40120  1  0  0  0
 41121  1  0  0  0
 42122  1  0  0  0
 45123  1  0  0  0
 45124  1  0  0  0
 45125  1  0  0  0
 46126  1  0  0  0
 47127  1  0  0  0
 50128  1  0  0  0
 50129  1  0  0  0
 51130  1  0  0  0
 52131  1  0  0  0
 52132  1  0  0  0
 52133  1  0  0  0
 53134  1  0  0  0
 53135  1  0  0  0
 53136  1  0  0  0
 54137  1  0  0  0
 55138  1  0  0  0
 58139  1  0  0  0
 58140  1  0  0  0
 61141  1  0  0  0
 61142  1  0  0  0
 62143  1  0  0  0
 63144  1  0  0  0
 66145  1  0  0  0
 66146  1  0  0  0
 68147  1  0  0  0
 69148  1  0  0  0
 70149  1  0  0  0
 71150  1  0  0  0
 73151  1  0  0  0
 75152  1  0  0  0
 77153  1  0  0  0
 78154  1  0  0  0
 78155  1  0  0  0
 79156  1  0  0  0
 79157  1  0  0  0
 80158  1  0  0  0
 80159  1  0  0  0
M  END
$$$$
