4tt2_ligand
  -I-interpret- 

 85 84  0  0  0  0  0  0  0  0999 V2000
   22.0920   -8.8010   12.1740 N   0  3  0  0  0
   22.8760   -7.8450   13.0080 C   0  0  0  0  0
   22.2250   -7.6500   14.3730 C   0  0  0  0  0
   21.0550   -7.9870   14.5670 O   0  0  0  0  0
   23.0100   -6.4910   12.2960 C   0  0  0  0  0
   23.9020   -6.5660   11.1930 O   0  0  0  0  0
   23.0020   -7.1200   15.3150 N   0  0  0  0  0
   22.4760   -6.6500   16.5940 C   0  0  0  0  0
   21.9360   -5.2410   16.4250 C   0  0  0  0  0
   22.0520   -4.6550   15.3480 O   0  0  0  0  0
   21.3470   -4.6870   17.4800 N   0  0  0  0  0
   20.7770   -3.3460   17.4040 C   0  0  0  0  0
   21.8410   -2.2870   17.1160 C   0  0  0  0  0
   23.0030   -2.4250   17.5010 O   0  0  0  0  0
   20.0460   -2.9920   18.6870 C   0  0  0  0  0
   18.7490   -3.7480   18.8880 C   0  0  0  0  0
   17.7590   -2.8850   19.6460 C   0  0  0  0  0
   17.1800   -3.5570   20.8030 N   0  0  0  0  0
   16.6970   -2.9310   21.8760 C   0  0  0  0  0
   16.7130   -1.6020   21.9630 N   0  0  0  0  0
   16.1960   -3.6400   22.8800 N   0  0  0  0  0
   21.4080   -1.2170   16.4590 N   0  0  0  0  0
   22.2970   -0.1880   15.9530 C   0  0  0  0  0
   22.3930   -0.3330   14.4510 C   0  0  0  0  0
   22.3000   -1.4430   13.9240 O   0  0  0  0  0
   15.6680    3.9370   13.1410 O   0  0  0  0  0
   16.0590    4.2550   12.0250 C   0  0  0  0  0
   15.2810    5.2120   11.1650 C   0  0  0  0  0
   17.1930    3.7890   11.4820 N   0  0  0  0  0
   18.0710    2.8520   12.1730 C   0  0  0  0  0
   19.4250    2.6950   11.4840 C   0  0  0  0  0
   20.3840    1.8390   12.3070 C   0  0  0  0  0
   21.8100    1.9250   11.7610 C   0  0  0  0  0
   22.7100    0.8220   12.3140 C   0  0  0  0  0
   22.5730    0.7930   13.7690 N   0  0  0  0  0
   24.1480    1.0790   11.9420 C   0  0  0  0  0
   24.9930    1.3270   12.8090 O   0  0  0  0  0
   24.4420    1.0090   10.6450 N   0  0  0  0  0
   25.7820    1.3140   10.1250 C   0  0  0  0  0
   26.8540    0.2740   10.4280 C   0  0  0  0  0
   26.6500   -0.6460   11.2280 O   0  0  0  0  0
   27.9714    0.3536    9.8511 O   0  0  0  0  0
   22.0143   -9.6926   12.6633 H   0  0  0  0  0
   21.1603   -8.4206   12.0079 H   0  0  0  0  0
   22.5671   -8.9413   11.2824 H   0  0  0  0  0
   23.8697   -8.2682   13.1546 H   0  0  0  0  0
   23.4030   -5.7651   13.0078 H   0  0  0  0  0
   22.0277   -6.1983   11.9251 H   0  0  0  0  0
   23.9620   -5.7052   10.7723 H   0  0  0  0  0
   24.0030   -7.0390   15.1368 H   0  0  0  0  0
   23.2720   -6.6496   17.3387 H   0  0  0  0  0
   21.6752   -7.3112   16.9251 H   0  0  0  0  0
   21.2927   -5.2071   18.3558 H   0  0  0  0  0
   20.0690   -3.3540   16.5753 H   0  0  0  0  0
   19.7969   -1.9322   18.6345 H   0  0  0  0  0
   20.7038   -3.2537   19.5158 H   0  0  0  0  0
   18.9468   -4.6544   19.4602 H   0  0  0  0  0
   18.3295   -4.0060   17.9156 H   0  0  0  0  0
   16.9445   -2.6400   18.9643 H   0  0  0  0  0
   18.2947   -2.0073   20.0075 H   0  0  0  0  0
   17.1419   -4.5762   20.7905 H   0  0  0  0  0
   16.3430   -1.1408   22.7942 H   0  0  0  0  0
   17.0952   -1.0454   21.1985 H   0  0  0  0  0
   16.1820   -4.6586   22.8279 H   0  0  0  0  0
   20.4053   -1.1140   16.3031 H   0  0  0  0  0
   23.2847   -0.2963   16.4011 H   0  0  0  0  0
   21.9080    0.7979   16.2075 H   0  0  0  0  0
   14.2885    4.8033   10.9750 H   0  0  0  0  0
   15.1891    6.1685   11.6796 H   0  0  0  0  0
   15.8034    5.3555   10.2192 H   0  0  0  0  0
   17.4522    4.1030   10.5468 H   0  0  0  0  0
   17.5829    1.8774   12.1776 H   0  0  0  0  0
   18.2491    3.2383   13.1766 H   0  0  0  0  0
   19.8656    3.6848   11.3648 H   0  0  0  0  0
   19.2659    2.2044   10.5237 H   0  0  0  0  0
   20.0543    0.8013   12.2569 H   0  0  0  0  0
   20.3822    2.2042   13.3340 H   0  0  0  0  0
   22.2294    2.8855   12.0605 H   0  0  0  0  0
   21.7646    1.8130   10.6777 H   0  0  0  0  0
   22.4124   -0.1368   11.8894 H   0  0  0  0  0
   22.6174    1.6735   14.2819 H   0  0  0  0  0
   23.7109    0.7338    9.9892 H   0  0  0  0  0
   26.1000    2.2381   10.6078 H   0  0  0  0  0
   25.6913    1.3600    9.0398 H   0  0  0  0  0
   27.9746    1.1145    9.2658 H   0  0  0  0  0
  2  1  1  0  0  0
  3  2  1  0  0  0
  2  5  1  0  0  0
  3  4  2  0  0  0
  7  3  1  0  0  0
  5  6  1  0  0  0
  8  7  1  0  0  0
  9  8  1  0  0  0
  9 10  2  0  0  0
 11  9  1  0  0  0
 12 11  1  0  0  0
 13 12  1  0  0  0
 12 15  1  0  0  0
 13 14  2  0  0  0
 22 13  1  0  0  0
 15 16  1  0  0  0
 16 17  1  0  0  0
 17 18  1  0  0  0
 18 19  1  0  0  0
 19 20  1  0  0  0
 19 21  2  0  0  0
 23 22  1  0  0  0
 24 23  1  0  0  0
 24 25  2  0  0  0
 35 24  1  0  0  0
 27 26  2  0  0  0
 27 28  1  0  0  0
 29 27  1  0  0  0
 30 29  1  0  0  0
 31 30  1  0  0  0
 32 31  1  0  0  0
 33 32  1  0  0  0
 34 33  1  0  0  0
 34 35  1  0  0  0
 34 36  1  0  0  0
 36 37  2  0  0  0
 36 38  1  0  0  0
 38 39  1  0  0  0
 39 40  1  0  0  0
 40 41  2  0  0  0
 40 42  1  0  0  0
  1 43  1  0  0  0
  1 44  1  0  0  0
  1 45  1  0  0  0
  2 46  1  0  0  0
  5 47  1  0  0  0
  5 48  1  0  0  0
  6 49  1  0  0  0
  7 50  1  0  0  0
  8 51  1  0  0  0
  8 52  1  0  0  0
 11 53  1  0  0  0
 12 54  1  0  0  0
 15 55  1  0  0  0
 15 56  1  0  0  0
 16 57  1  0  0  0
 16 58  1  0  0  0
 17 59  1  0  0  0
 17 60  1  0  0  0
 18 61  1  0  0  0
 20 62  1  0  0  0
 20 63  1  0  0  0
 21 64  1  0  0  0
 22 65  1  0  0  0
 23 66  1  0  0  0
 23 67  1  0  0  0
 28 68  1  0  0  0
 28 69  1  0  0  0
 28 70  1  0  0  0
 29 71  1  0  0  0
 30 72  1  0  0  0
 30 73  1  0  0  0
 31 74  1  0  0  0
 31 75  1  0  0  0
 32 76  1  0  0  0
 32 77  1  0  0  0
 33 78  1  0  0  0
 33 79  1  0  0  0
 34 80  1  0  0  0
 35 81  1  0  0  0
 38 82  1  0  0  0
 39 83  1  0  0  0
 39 84  1  0  0  0
 42 85  1  0  0  0
M  END
$$$$
