### 
### Created by X-TOOL on Mon Sep 10 21:12:58 2018
### 

@<TRIPOS>MOLECULE
2pmc_ligand
  122   122     1     0     0
SMALL
GAST_HUCK


@<TRIPOS>ATOM
      1 N           4.4070   16.0220   -0.1210 N.4       1 ASP         0.2391
      2 CA          3.5530   16.8330    0.8040 C.3       1 ASP         0.0764
      3 C           2.9730   18.0590    0.0940 C.2       1 ASP         0.2284
      4 O           1.8520   18.4980    0.3930 O.2       1 ASP        -0.3906
      5 CB          4.3550   17.2610    2.0470 C.3       1 ASP         0.0607
      6 CG          3.4640   17.5740    3.2630 C.2       1 ASP         0.0425
      7 OD1         2.3130   18.0590    3.0950 O.co2     1 ASP        -0.5686
      8 OD2         3.9380   17.3470    4.4020 O.co2     1 ASP        -0.5686
      9 N           3.7330   18.6030   -0.8520 N.am      1 LEU        -0.2609
     10 CA          3.3380   19.8340   -1.5390 C.3       1 LEU         0.1313
     11 C           2.1130   19.6100   -2.4210 C.2       1 LEU         0.2039
     12 O           1.0800   20.2570   -2.2230 O.2       1 LEU        -0.3944
     13 CB          4.5020   20.4080   -2.3610 C.3       1 LEU        -0.0101
     14 CG          5.9490   20.0260   -1.9740 C.3       1 LEU        -0.0425
     15 CD1         6.8920   20.4090   -3.0930 C.3       1 LEU        -0.0625
     16 CD2         6.4370   20.6210   -0.6190 C.3       1 LEU        -0.0625
     17 N           2.2180   18.6730   -3.3670 N.am      1 LEU        -0.2637
     18 CA          1.1470   18.4350   -4.3380 C.3       1 LEU         0.1312
     19 C          -0.2480   18.4790   -3.7040 C.2       1 LEU         0.2040
     20 O          -1.1190   19.2030   -4.1750 O.2       1 LEU        -0.3944
     21 CB          1.3600   17.1070   -5.0900 C.3       1 LEU        -0.0101
     22 CG          2.2760   17.0420   -6.3370 C.3       1 LEU        -0.0425
     23 CD1         2.8060   15.6080   -6.5630 C.3       1 LEU        -0.0625
     24 CD2         1.5640   17.5690   -7.6030 C.3       1 LEU        -0.0625
     25 N          -0.4270   17.7330   -2.6130 N.am      1 ASP        -0.2622
     26 CA         -1.7400   17.5120   -1.9820 C.3       1 ASP         0.1423
     27 C          -2.3920   18.7920   -1.4560 C.2       1 ASP         0.2057
     28 O          -3.5160   19.1390   -1.8430 O.2       1 ASP        -0.3943
     29 CB         -1.6100   16.4990   -0.8250 C.3       1 ASP         0.0406
     30 CG         -1.3330   15.0640   -1.3030 C.2       1 ASP         0.0393
     31 OD1        -1.4160   14.7830   -2.5240 O.co2     1 ASP        -0.5688
     32 OD2        -1.0370   14.2070   -0.4360 O.co2     1 ASP        -0.5688
     33 N          -1.6750   19.4680   -0.5600 N.am      1 SER        -0.2615
     34 CA         -2.0990   20.7320    0.0360 C.3       1 SER         0.1539
     35 C          -2.6070   21.7370   -0.9940 C.2       1 SER         0.2062
     36 O          -3.4290   22.6060   -0.6910 O.2       1 SER        -0.3943
     37 CB         -0.9140   21.3490    0.7470 C.3       1 SER         0.0843
     38 OG          0.1990   21.3720   -0.1280 O.3       1 SER        -0.3903
     39 N          -2.1080   21.6210   -2.2120 N.am      1 LEU        -0.2636
     40 CA         -2.4260   22.5770   -3.2460 C.3       1 LEU         0.1312
     41 C          -3.6850   22.2050   -4.0290 C.2       1 LEU         0.2037
     42 O          -4.0640   22.9030   -4.9860 O.2       1 LEU        -0.3944
     43 CB         -1.2320   22.7100   -4.1800 C.3       1 LEU        -0.0101
     44 CG         -0.0320   23.3370   -3.4860 C.3       1 LEU        -0.0425
     45 CD1         1.2580   22.9040   -4.1520 C.3       1 LEU        -0.0625
     46 CD2        -0.1770   24.8520   -3.4840 C.3       1 LEU        -0.0625
     47 N          -4.3360   21.1170   -3.6150 N.am      1 GLY        -0.2664
     48 CA         -5.4630   20.5630   -4.3690 C.3       1 GLY         0.1201
     49 C          -5.0180   19.9100   -5.6760 C.2       1 GLY         0.2003
     50 O          -5.8430   19.6530   -6.5630 O.2       1 GLY        -0.3947
     51 N          -3.7110   19.6520   -5.7950 N.am      1 PHE        -0.2679
     52 CA         -3.1610   18.8840   -6.9200 C.3       1 PHE         0.1039
     53 C          -3.1150   17.3730   -6.6150 C.2       1 PHE         0.0621
     54 O          -2.9580   16.5400   -7.5170 O.co2     1 PHE        -0.5664
     55 CB         -1.7620   19.3820   -7.3140 C.3       1 PHE         0.0159
     56 CG         -1.7010   20.8480   -7.7020 C.ar      1 PHE        -0.0392
     57 CD1        -2.8490   21.5520   -8.0720 C.ar      1 PHE        -0.0602
     58 CD2        -0.4740   21.5130   -7.7360 C.ar      1 PHE        -0.0602
     59 CE1        -2.7760   22.8980   -8.4370 C.ar      1 PHE        -0.0686
     60 CE2        -0.3940   22.8530   -8.1060 C.ar      1 PHE        -0.0686
     61 CZ         -1.5480   23.5460   -8.4540 C.ar      1 PHE        -0.0687
     62 OXT        -3.2390   16.9360   -5.4640 O.co2     1 PHE        -0.5664
     63 H1          4.7737   15.2238    0.3735 H         1 ASP         0.2016
     64 H2          5.1699   16.5885   -0.4573 H         1 ASP         0.2016
     65 H3          3.8522   15.7077   -0.9017 H         1 ASP         0.2016
     66 H4          2.7152   16.2021    1.1356 H         1 ASP         0.1117
     67 H5          4.9344   18.1619    1.7966 H         1 ASP         0.0512
     68 H6          5.0426   16.4462    2.3175 H         1 ASP         0.0512
     69 H7          4.5949   18.1607   -1.1000 H         1 LEU         0.1885
     70 H8          3.0694   20.5748   -0.7715 H         1 LEU         0.0800
     71 H9          4.4303   21.5040   -2.3007 H         1 LEU         0.0315
     72 H10         4.3510   20.0874   -3.4023 H         1 LEU         0.0315
     73 H11         5.9765   18.9313   -1.8699 H         1 LEU         0.0298
     74 H12         7.9207   20.1361   -2.8151 H         1 LEU         0.0232
     75 H13         6.8344   21.4938   -3.2659 H         1 LEU         0.0232
     76 H14         6.6067   19.8756   -4.0117 H         1 LEU         0.0232
     77 H15         5.7394   20.3319    0.1808 H         1 LEU         0.0232
     78 H16         6.4758   21.7178   -0.6929 H         1 LEU         0.0232
     79 H17         7.4402   20.2333   -0.3883 H         1 LEU         0.0232
     80 H18         3.0495   18.1194   -3.4138 H         1 LEU         0.1883
     81 H19         1.1946   19.2469   -5.0786 H         1 LEU         0.0800
     82 H20         0.3653   16.7659   -5.4129 H         1 LEU         0.0315
     83 H21         1.7726   16.3953   -4.3598 H         1 LEU         0.0315
     84 H22         3.1416   17.6936   -6.1468 H         1 LEU         0.0298
     85 H23         3.4521   15.5920   -7.4531 H         1 LEU         0.0232
     86 H24         1.9584   14.9231   -6.7128 H         1 LEU         0.0232
     87 H25         3.3849   15.2882   -5.6840 H         1 LEU         0.0232
     88 H26         1.1959   18.5891   -7.4188 H         1 LEU         0.0232
     89 H27         0.7163   16.9119   -7.8473 H         1 LEU         0.0232
     90 H28         2.2728   17.5812   -8.4441 H         1 LEU         0.0232
     91 H29         0.3743   17.2997   -2.2004 H         1 ASP         0.1884
     92 H30        -2.4071   17.0850   -2.7453 H         1 ASP         0.0819
     93 H31        -2.5487   16.5011   -0.2516 H         1 ASP         0.0478
     94 H32        -0.7820   16.8164   -0.1741 H         1 ASP         0.0478
     95 H33        -0.7941   19.0874   -0.2787 H         1 SER         0.1884
     96 H34        -2.9020   20.5293    0.7599 H         1 SER         0.0823
     97 H35        -0.6685   20.7518    1.6375 H         1 SER         0.0606
     98 H36        -1.1628   22.3763    1.0515 H         1 SER         0.0606
     99 H37         0.4125   20.4843   -0.3903 H         1 SER         0.2097
    100 H38        -1.4985   20.8564   -2.4216 H         1 LEU         0.1883
    101 H39        -2.6047   23.5510   -2.7671 H         1 LEU         0.0800
    102 H40        -1.5180   23.3413   -5.0342 H         1 LEU         0.0315
    103 H41        -0.9506   21.7098   -4.5412 H         1 LEU         0.0315
    104 H42        -0.0117   22.9899   -2.4424 H         1 LEU         0.0298
    105 H43         2.1111   23.3680   -3.6353 H         1 LEU         0.0232
    106 H44         1.2511   23.2206   -5.2054 H         1 LEU         0.0232
    107 H45         1.3486   21.8090   -4.0988 H         1 LEU         0.0232
    108 H46        -1.1221   25.1292   -2.9941 H         1 LEU         0.0232
    109 H47        -0.1789   25.2216   -4.5201 H         1 LEU         0.0232
    110 H48         0.6651   25.3002   -2.9364 H         1 LEU         0.0232
    111 H49        -4.0476   20.6685   -2.7690 H         1 GLY         0.1881
    112 H50        -6.1675   21.3753   -4.6009 H         1 GLY         0.0763
    113 H51        -5.9665   19.8068   -3.7488 H         1 GLY         0.0763
    114 H52        -3.0861   19.9940   -5.0932 H         1 PHE         0.1877
    115 H53        -3.8284   19.0340   -7.7814 H         1 PHE         0.0749
    116 H54        -1.4136   18.7855   -8.1700 H         1 PHE         0.0467
    117 H55        -1.0881   19.2248   -6.4590 H         1 PHE         0.0467
    118 H56        -3.8084   21.0475   -8.0759 H         1 PHE         0.0557
    119 H57         0.4305   20.9779   -7.4702 H         1 PHE         0.0557
    120 H58        -3.6773   23.4365   -8.7068 H         1 PHE         0.0599
    121 H59         0.5666   23.3551   -8.1227 H         1 PHE         0.0599
    122 H60        -1.4892   24.5905   -8.7381 H         1 PHE         0.0559
@<TRIPOS>BOND
     1    1    2 1  
     2    2    3 1  
     3    2    5 1  
     4    3    4 2  
     5    3    9 am 
     6    5    6 1  
     7    6    7 ar 
     8    6    8 ar 
     9    9   10 1  
    10   10   11 1  
    11   10   13 1  
    12   11   12 2  
    13   11   17 am 
    14   13   14 1  
    15   14   15 1  
    16   14   16 1  
    17   17   18 1  
    18   18   19 1  
    19   18   21 1  
    20   19   20 2  
    21   19   25 am 
    22   21   22 1  
    23   22   23 1  
    24   22   24 1  
    25   25   26 1  
    26   26   27 1  
    27   26   29 1  
    28   27   28 2  
    29   27   33 am 
    30   29   30 1  
    31   30   31 ar 
    32   30   32 ar 
    33   33   34 1  
    34   34   35 1  
    35   34   37 1  
    36   35   36 2  
    37   35   39 am 
    38   37   38 1  
    39   39   40 1  
    40   40   41 1  
    41   40   43 1  
    42   41   42 2  
    43   41   47 am 
    44   43   44 1  
    45   44   45 1  
    46   44   46 1  
    47   47   48 1  
    48   48   49 1  
    49   49   50 2  
    50   49   51 am 
    51   51   52 1  
    52   52   53 1  
    53   52   55 1  
    54   53   54 ar 
    55   53   62 ar 
    56   55   56 1  
    57   56   57 ar 
    58   56   58 ar 
    59   57   59 ar 
    60   58   60 ar 
    61   59   61 ar 
    62   60   61 ar 
    63    1   63 1  
    64    1   64 1  
    65    1   65 1  
    66    2   66 1  
    67    5   67 1  
    68    5   68 1  
    69    9   69 1  
    70   10   70 1  
    71   13   71 1  
    72   13   72 1  
    73   14   73 1  
    74   15   74 1  
    75   15   75 1  
    76   15   76 1  
    77   16   77 1  
    78   16   78 1  
    79   16   79 1  
    80   17   80 1  
    81   18   81 1  
    82   21   82 1  
    83   21   83 1  
    84   22   84 1  
    85   23   85 1  
    86   23   86 1  
    87   23   87 1  
    88   24   88 1  
    89   24   89 1  
    90   24   90 1  
    91   25   91 1  
    92   26   92 1  
    93   29   93 1  
    94   29   94 1  
    95   33   95 1  
    96   34   96 1  
    97   37   97 1  
    98   37   98 1  
    99   38   99 1  
   100   39  100 1  
   101   40  101 1  
   102   43  102 1  
   103   43  103 1  
   104   44  104 1  
   105   45  105 1  
   106   45  106 1  
   107   45  107 1  
   108   46  108 1  
   109   46  109 1  
   110   46  110 1  
   111   47  111 1  
   112   48  112 1  
   113   48  113 1  
   114   51  114 1  
   115   52  115 1  
   116   55  116 1  
   117   55  117 1  
   118   57  118 1  
   119   58  119 1  
   120   59  120 1  
   121   60  121 1  
   122   61  122 1  
@<TRIPOS>SUBSTRUCTURE
     1 ASP         1

