2pmc_ligand
  -I-interpret- 

125125  0  0  0  0  0  0  0  0999 V2000
    4.4070   16.0220   -0.1210 N   0  3  0  0  0
    3.5530   16.8330    0.8040 C   0  0  0  0  0
    2.9730   18.0590    0.0940 C   0  0  0  0  0
    1.8520   18.4980    0.3930 O   0  0  0  0  0
    4.3550   17.2610    2.0470 C   0  0  0  0  0
    3.4640   17.5740    3.2630 C   0  0  0  0  0
    2.3130   18.0590    3.0950 O   0  0  0  0  0
    3.9380   17.3470    4.4020 O   0  0  0  0  0
    3.7330   18.6030   -0.8520 N   0  0  0  0  0
    3.3380   19.8340   -1.5390 C   0  0  0  0  0
    2.1130   19.6100   -2.4210 C   0  0  0  0  0
    1.0800   20.2570   -2.2230 O   0  0  0  0  0
    4.5020   20.4080   -2.3610 C   0  0  0  0  0
    5.9490   20.0260   -1.9740 C   0  0  0  0  0
    6.8920   20.4090   -3.0930 C   0  0  0  0  0
    6.4370   20.6210   -0.6190 C   0  0  0  0  0
    2.2180   18.6730   -3.3670 N   0  0  0  0  0
    1.1470   18.4350   -4.3380 C   0  0  0  0  0
   -0.2480   18.4790   -3.7040 C   0  0  0  0  0
   -1.1190   19.2030   -4.1750 O   0  0  0  0  0
    1.3600   17.1070   -5.0900 C   0  0  0  0  0
    2.2760   17.0420   -6.3370 C   0  0  0  0  0
    2.8060   15.6080   -6.5630 C   0  0  0  0  0
    1.5640   17.5690   -7.6030 C   0  0  0  0  0
   -0.4270   17.7330   -2.6130 N   0  0  0  0  0
   -1.7400   17.5120   -1.9820 C   0  0  0  0  0
   -2.3920   18.7920   -1.4560 C   0  0  0  0  0
   -3.5160   19.1390   -1.8430 O   0  0  0  0  0
   -1.6100   16.4990   -0.8250 C   0  0  0  0  0
   -1.3330   15.0640   -1.3030 C   0  0  0  0  0
   -1.4160   14.7830   -2.5240 O   0  0  0  0  0
   -1.0370   14.2070   -0.4360 O   0  0  0  0  0
   -1.6750   19.4680   -0.5600 N   0  0  0  0  0
   -2.0990   20.7320    0.0360 C   0  0  0  0  0
   -2.6070   21.7370   -0.9940 C   0  0  0  0  0
   -3.4290   22.6060   -0.6910 O   0  0  0  0  0
   -0.9140   21.3490    0.7470 C   0  0  0  0  0
    0.1990   21.3720   -0.1280 O   0  0  0  0  0
   -2.1080   21.6210   -2.2120 N   0  0  0  0  0
   -2.4260   22.5770   -3.2460 C   0  0  0  0  0
   -3.6850   22.2050   -4.0290 C   0  0  0  0  0
   -4.0640   22.9030   -4.9860 O   0  0  0  0  0
   -1.2320   22.7100   -4.1800 C   0  0  0  0  0
   -0.0320   23.3370   -3.4860 C   0  0  0  0  0
    1.2580   22.9040   -4.1520 C   0  0  0  0  0
   -0.1770   24.8520   -3.4840 C   0  0  0  0  0
   -4.3360   21.1170   -3.6150 N   0  0  0  0  0
   -5.4630   20.5630   -4.3690 C   0  0  0  0  0
   -5.0180   19.9100   -5.6760 C   0  0  0  0  0
   -5.8430   19.6530   -6.5630 O   0  0  0  0  0
   -3.7110   19.6520   -5.7950 N   0  0  0  0  0
   -3.1610   18.8840   -6.9200 C   0  0  0  0  0
   -3.1150   17.3730   -6.6150 C   0  0  0  0  0
   -2.9580   16.5400   -7.5170 O   0  0  0  0  0
   -1.7620   19.3820   -7.3140 C   0  0  0  0  0
   -1.7010   20.8480   -7.7020 C   0  0  0  0  0
   -2.8490   21.5520   -8.0720 C   0  0  0  0  0
   -0.4740   21.5130   -7.7360 C   0  0  0  0  0
   -2.7760   22.8980   -8.4370 C   0  0  0  0  0
   -0.3940   22.8530   -8.1060 C   0  0  0  0  0
   -1.5480   23.5460   -8.4540 C   0  0  0  0  0
   -3.2390   16.9360   -5.4640 O   0  0  0  0  0
    3.8585   15.7488   -0.9364 H   0  0  0  0  0
    5.2074   16.5795   -0.4194 H   0  0  0  0  0
    4.7348   15.1872    0.3650 H   0  0  0  0  0
    2.7212   16.2056    1.1243 H   0  0  0  0  0
    4.8994   18.1704    1.7927 H   0  0  0  0  0
    5.0090   16.4329    2.3202 H   0  0  0  0  0
    2.1413   18.1547    2.1553 H   0  0  0  0  0
    4.6121   18.1518   -1.1050 H   0  0  0  0  0
    3.0710   20.5634   -0.7742 H   0  0  0  0  0
    4.4462   21.4865   -2.2134 H   0  0  0  0  0
    4.3633   20.0061   -3.3647 H   0  0  0  0  0
    5.9484   18.9460   -1.8264 H   0  0  0  0  0
    6.6082   19.8798   -4.0027 H   0  0  0  0  0
    6.8340   21.4840   -3.2634 H   0  0  0  0  0
    7.9109   20.1381   -2.8164 H   0  0  0  0  0
    6.3989   21.7093   -0.6668 H   0  0  0  0  0
    5.7908   20.2685    0.1849 H   0  0  0  0  0
    7.4615   20.2999   -0.4306 H   0  0  0  0  0
    3.0661   18.1083   -3.4147 H   0  0  0  0  0
    1.1968   19.2536   -5.0560 H   0  0  0  0  0
    0.3708   16.8556   -5.4725 H   0  0  0  0  0
    1.8552   16.4647   -4.3617 H   0  0  0  0  0
    3.1269   17.6956   -6.1446 H   0  0  0  0  0
    3.3793   15.2923   -5.6914 H   0  0  0  0  0
    1.9652   14.9304   -6.7113 H   0  0  0  0  0
    3.4460   15.5934   -7.4452 H   0  0  0  0  0
    0.6777   16.9651   -7.7978 H   0  0  0  0  0
    1.2708   18.6073   -7.4478 H   0  0  0  0  0
    2.2429   17.5051   -8.4533 H   0  0  0  0  0
    0.3903   17.2910   -2.1922 H   0  0  0  0  0
   -2.3880   17.1222   -2.7670 H   0  0  0  0  0
   -2.5575   16.4901   -0.2863 H   0  0  0  0  0
   -0.7670   16.8096   -0.2077 H   0  0  0  0  0
   -1.6520   15.5719   -3.0174 H   0  0  0  0  0
   -0.7764   19.0798   -0.2731 H   0  0  0  0  0
   -2.9208   20.5093    0.7166 H   0  0  0  0  0
   -0.6709   20.7579    1.6300 H   0  0  0  0  0
   -1.1604   22.3667    1.0497 H   0  0  0  0  0
    0.9509   21.7633    0.3227 H   0  0  0  0  0
   -1.4863   20.8411   -2.4257 H   0  0  0  0  0
   -2.6378   23.5330   -2.7672 H   0  0  0  0  0
   -1.5197   23.3539   -5.0111 H   0  0  0  0  0
   -0.9488   21.7122   -4.5151 H   0  0  0  0  0
    0.0056   22.9932   -2.4523 H   0  0  0  0  0
    1.3465   21.8189   -4.0986 H   0  0  0  0  0
    1.2498   23.2183   -5.1957 H   0  0  0  0  0
    2.1025   23.3644   -3.6392 H   0  0  0  0  0
   -0.2307   25.2119   -4.5115 H   0  0  0  0  0
   -1.0881   25.1278   -2.9530 H   0  0  0  0  0
    0.6843   25.2975   -2.9861 H   0  0  0  0  0
   -4.0418   20.6595   -2.7521 H   0  0  0  0  0
   -6.1423   21.3799   -4.6123 H   0  0  0  0  0
   -5.9399   19.7998   -3.7540 H   0  0  0  0  0
   -3.0736   20.0009   -5.0792 H   0  0  0  0  0
   -3.8349   19.0422   -7.7620 H   0  0  0  0  0
   -2.8741   16.9936   -8.3589 H   0  0  0  0  0
   -1.4538   18.8080   -8.1878 H   0  0  0  0  0
   -1.1215   19.2565   -6.4410 H   0  0  0  0  0
   -3.8137   21.0447   -8.0759 H   0  0  0  0  0
    0.4355   20.9749   -7.4688 H   0  0  0  0  0
   -3.6822   23.4395   -8.7083 H   0  0  0  0  0
    0.5719   23.3579   -8.1228 H   0  0  0  0  0
   -1.4889   24.5962   -8.7397 H   0  0  0  0  0
  1  2  1  0  0  0
  2  3  1  0  0  0
  2  5  1  0  0  0
  3  4  2  0  0  0
  3  9  1  0  0  0
  5  6  1  0  0  0
  6  7  1  0  0  0
  6  8  2  0  0  0
  9 10  1  0  0  0
 10 11  1  0  0  0
 10 13  1  0  0  0
 11 12  2  0  0  0
 11 17  1  0  0  0
 13 14  1  0  0  0
 14 15  1  0  0  0
 14 16  1  0  0  0
 17 18  1  0  0  0
 18 19  1  0  0  0
 18 21  1  0  0  0
 19 20  2  0  0  0
 19 25  1  0  0  0
 21 22  1  0  0  0
 22 23  1  0  0  0
 22 24  1  0  0  0
 25 26  1  0  0  0
 26 27  1  0  0  0
 26 29  1  0  0  0
 27 28  2  0  0  0
 27 33  1  0  0  0
 29 30  1  0  0  0
 30 31  1  0  0  0
 30 32  2  0  0  0
 33 34  1  0  0  0
 34 35  1  0  0  0
 34 37  1  0  0  0
 35 36  2  0  0  0
 35 39  1  0  0  0
 37 38  1  0  0  0
 39 40  1  0  0  0
 40 41  1  0  0  0
 40 43  1  0  0  0
 41 42  2  0  0  0
 41 47  1  0  0  0
 43 44  1  0  0  0
 44 45  1  0  0  0
 44 46  1  0  0  0
 47 48  1  0  0  0
 48 49  1  0  0  0
 49 50  2  0  0  0
 49 51  1  0  0  0
 51 52  1  0  0  0
 52 53  1  0  0  0
 52 55  1  0  0  0
 53 54  1  0  0  0
 53 62  2  0  0  0
 55 56  1  0  0  0
 56 57  4  0  0  0
 56 58  4  0  0  0
 57 59  4  0  0  0
 58 60  4  0  0  0
 59 61  4  0  0  0
 60 61  4  0  0  0
  1 63  1  0  0  0
  1 64  1  0  0  0
  1 65  1  0  0  0
  2 66  1  0  0  0
  5 67  1  0  0  0
  5 68  1  0  0  0
  7 69  1  0  0  0
  9 70  1  0  0  0
 10 71  1  0  0  0
 13 72  1  0  0  0
 13 73  1  0  0  0
 14 74  1  0  0  0
 15 75  1  0  0  0
 15 76  1  0  0  0
 15 77  1  0  0  0
 16 78  1  0  0  0
 16 79  1  0  0  0
 16 80  1  0  0  0
 17 81  1  0  0  0
 18 82  1  0  0  0
 21 83  1  0  0  0
 21 84  1  0  0  0
 22 85  1  0  0  0
 23 86  1  0  0  0
 23 87  1  0  0  0
 23 88  1  0  0  0
 24 89  1  0  0  0
 24 90  1  0  0  0
 24 91  1  0  0  0
 25 92  1  0  0  0
 26 93  1  0  0  0
 29 94  1  0  0  0
 29 95  1  0  0  0
 31 96  1  0  0  0
 33 97  1  0  0  0
 34 98  1  0  0  0
 37 99  1  0  0  0
 37100  1  0  0  0
 38101  1  0  0  0
 39102  1  0  0  0
 40103  1  0  0  0
 43104  1  0  0  0
 43105  1  0  0  0
 44106  1  0  0  0
 45107  1  0  0  0
 45108  1  0  0  0
 45109  1  0  0  0
 46110  1  0  0  0
 46111  1  0  0  0
 46112  1  0  0  0
 47113  1  0  0  0
 48114  1  0  0  0
 48115  1  0  0  0
 51116  1  0  0  0
 52117  1  0  0  0
 54118  1  0  0  0
 55119  1  0  0  0
 55120  1  0  0  0
 57121  1  0  0  0
 58122  1  0  0  0
 59123  1  0  0  0
 60124  1  0  0  0
 61125  1  0  0  0
M  END
$$$$
