4ode_ligand
  -I-interpret- 

 82 86  0  0  0  0  0  0  0  0999 V2000
   12.6700  -23.6660   -2.2260 C   0  0  0  0  0
   13.7000  -23.0470   -1.5140 C   0  0  0  0  0
   15.3070  -23.0110   -2.1750 Cl  0  0  0  0  0
   13.4520  -22.4620   -0.2740 C   0  0  0  0  0
   12.1670  -22.4930    0.2620 C   0  0  0  0  0
   11.1390  -23.1080   -0.4580 C   0  0  0  0  0
   11.3780  -23.6970   -1.7000 C   0  0  0  0  0
   10.2210  -24.3640   -2.4660 C   0  0  0  0  0
    9.3550  -25.2310   -1.5640 C   0  0  0  0  0
    9.3240  -23.1960   -2.9420 C   0  0  0  0  0
   10.1540  -22.3440   -3.9280 C   0  0  0  0  0
   10.6940  -22.9230   -5.0670 C   0  0  0  0  0
   11.4440  -22.1620   -5.9550 C   0  0  0  0  0
   11.9480  -22.7490   -7.0580 F   0  0  0  0  0
   11.6750  -20.8150   -5.6990 C   0  0  0  0  0
   12.6270  -19.8500   -6.7810 Cl  0  0  0  0  0
   11.1430  -20.2320   -4.5550 C   0  0  0  0  0
   10.3890  -20.9990   -3.6720 C   0  0  0  0  0
    8.0810  -23.6450   -3.6100 N   0  0  0  0  0
    7.2160  -22.6660   -4.3250 C   0  0  0  0  0
    6.7940  -22.9900   -5.7630 C   0  0  0  0  0
    6.9860  -21.8450   -6.7490 C   0  0  0  0  0
    7.8850  -23.0870   -6.8240 C   0  0  0  0  0
    5.9490  -22.3860   -3.4970 C   0  0  0  0  0
    6.2100  -21.7290   -1.8190 S   0  0  0  0  0
    6.9690  -22.7130   -0.9690 O   0  0  0  0  0
    6.9630  -20.4370   -1.8680 O   0  0  0  0  0
    4.5740  -21.4650   -1.0420 C   0  0  0  0  0
    3.8410  -22.8060   -1.0010 C   0  0  0  0  0
    4.7760  -20.9200    0.3670 C   0  0  0  0  0
    3.7800  -20.4630   -1.8700 C   0  0  0  0  0
    7.5890  -24.9420   -3.3550 C   0  0  0  0  0
    6.5050  -25.3090   -3.8060 O   0  0  0  0  0
    8.2780  -25.9200   -2.4170 C   0  0  0  0  0
    7.1990  -26.4700   -1.4840 C   0  0  0  0  0
    8.7890  -27.0150   -3.3620 C   0  0  0  0  0
    9.2960  -28.2400   -2.5880 C   0  0  0  0  0
    8.2890  -29.6030   -2.3930 S   0  0  0  0  0
   10.4530  -28.5060   -1.9680 N   0  0  0  0  0
   10.4900  -29.7330   -1.3830 C   0  0  0  0  0
    9.3750  -30.4730   -1.5200 C   0  0  0  0  0
    9.0370  -31.8740   -1.0230 C   0  0  0  0  0
   10.3060  -32.5010   -0.4750 C   0  0  0  0  0
   10.8770  -33.3370   -1.2100 O   0  0  0  0  0
   10.6830  -32.1170    0.6560 O   0  0  0  0  0
   12.8756  -24.1251   -3.1930 H   0  0  0  0  0
   14.2616  -21.9813    0.2751 H   0  0  0  0  0
   11.9650  -22.0420    1.2335 H   0  0  0  0  0
   10.1319  -23.1278   -0.0415 H   0  0  0  0  0
   10.6243  -24.9916   -3.2608 H   0  0  0  0  0
    8.8807  -24.6111   -0.8032 H   0  0  0  0  0
    9.9728  -25.9834   -1.0737 H   0  0  0  0  0
    9.0129  -22.6280   -2.0652 H   0  0  0  0  0
   10.5288  -23.9818   -5.2666 H   0  0  0  0  0
   11.3161  -19.1756   -4.3497 H   0  0  0  0  0
    9.9794  -20.5406   -2.7719 H   0  0  0  0  0
    7.8692  -21.7993   -4.4262 H   0  0  0  0  0
    5.9771  -23.6479   -5.4666 H   0  0  0  0  0
    7.0879  -20.7599   -6.7342 H   0  0  0  0  0
    6.3831  -21.2288   -7.4161 H   0  0  0  0  0
    8.2423  -23.7967   -7.5702 H   0  0  0  0  0
    8.9459  -23.3285   -6.8895 H   0  0  0  0  0
    5.4496  -23.3468   -3.3723 H   0  0  0  0  0
    5.3949  -21.6202   -4.0398 H   0  0  0  0  0
    3.7172  -23.1821   -2.0165 H   0  0  0  0  0
    4.4227  -23.5189   -0.4166 H   0  0  0  0  0
    2.8624  -22.6698   -0.5408 H   0  0  0  0  0
    5.3508  -21.6368    0.9535 H   0  0  0  0  0
    5.3160  -19.9746    0.3155 H   0  0  0  0  0
    3.8051  -20.7603    0.8361 H   0  0  0  0  0
    4.3217  -19.5181   -1.9120 H   0  0  0  0  0
    3.6470  -20.8522   -2.8794 H   0  0  0  0  0
    2.8051  -20.3042   -1.4090 H   0  0  0  0  0
    7.6463  -27.1883   -0.7969 H   0  0  0  0  0
    6.7577  -25.6499   -0.9177 H   0  0  0  0  0
    6.4265  -26.9625   -2.0745 H   0  0  0  0  0
    9.6167  -26.6088   -3.9433 H   0  0  0  0  0
    7.9644  -27.3295   -4.0017 H   0  0  0  0  0
   11.3639  -30.0926   -0.8398 H   0  0  0  0  0
    8.6437  -32.4774   -1.8411 H   0  0  0  0  0
    8.2773  -31.8221   -0.2430 H   0  0  0  0  0
   10.0600  -31.4714    0.9976 H   0  0  0  0  0
  1  2  4  0  0  0
  1  7  4  0  0  0
  2  3  1  0  0  0
  2  4  4  0  0  0
  4  5  4  0  0  0
  5  6  4  0  0  0
  6  7  4  0  0  0
  7  8  1  0  0  0
  8  9  1  0  0  0
  8 10  1  0  0  0
  9 34  1  0  0  0
 10 11  1  0  0  0
 10 19  1  0  0  0
 11 12  4  0  0  0
 11 18  4  0  0  0
 12 13  4  0  0  0
 13 14  1  0  0  0
 13 15  4  0  0  0
 15 16  1  0  0  0
 15 17  4  0  0  0
 17 18  4  0  0  0
 19 20  1  0  0  0
 19 32  1  0  0  0
 20 21  1  0  0  0
 20 24  1  0  0  0
 21 22  1  0  0  0
 21 23  1  0  0  0
 22 23  1  0  0  0
 24 25  1  0  0  0
 25 26  2  0  0  0
 25 27  2  0  0  0
 25 28  1  0  0  0
 28 29  1  0  0  0
 28 30  1  0  0  0
 28 31  1  0  0  0
 32 33  2  0  0  0
 32 34  1  0  0  0
 34 35  1  0  0  0
 34 36  1  0  0  0
 36 37  1  0  0  0
 37 38  4  0  0  0
 37 39  4  0  0  0
 38 41  4  0  0  0
 39 40  4  0  0  0
 40 41  4  0  0  0
 41 42  1  0  0  0
 42 43  1  0  0  0
 43 44  2  0  0  0
 43 45  1  0  0  0
  1 46  1  0  0  0
  4 47  1  0  0  0
  5 48  1  0  0  0
  6 49  1  0  0  0
  8 50  1  0  0  0
  9 51  1  0  0  0
  9 52  1  0  0  0
 10 53  1  0  0  0
 12 54  1  0  0  0
 17 55  1  0  0  0
 18 56  1  0  0  0
 20 57  1  0  0  0
 21 58  1  0  0  0
 22 59  1  0  0  0
 22 60  1  0  0  0
 23 61  1  0  0  0
 23 62  1  0  0  0
 24 63  1  0  0  0
 24 64  1  0  0  0
 29 65  1  0  0  0
 29 66  1  0  0  0
 29 67  1  0  0  0
 30 68  1  0  0  0
 30 69  1  0  0  0
 30 70  1  0  0  0
 31 71  1  0  0  0
 31 72  1  0  0  0
 31 73  1  0  0  0
 35 74  1  0  0  0
 35 75  1  0  0  0
 35 76  1  0  0  0
 36 77  1  0  0  0
 36 78  1  0  0  0
 40 79  1  0  0  0
 42 80  1  0  0  0
 42 81  1  0  0  0
 45 82  1  0  0  0
M  END
$$$$
