1juy_ligand
  -I-interpret- 

 30 31  0  0  0  0  0  0  0  0999 V2000
  -10.7280   52.8510   51.4510 C   0  0  0  0  0
  -10.1330   52.8610   52.5320 O   0  0  0  0  0
  -10.3390   52.3060   50.2360 N   0  0  0  0  0
  -11.3810   52.3040   49.3260 C   0  0  0  0  0
  -11.3370   51.8470   48.1890 O   0  0  0  0  0
  -12.4740   52.8990   49.9820 N   0  0  0  0  0
  -12.1960   53.2880   51.2970 C   0  0  0  0  0
  -12.3370   54.7540   51.5470 C   0  0  0  0  0
  -11.0840   55.3820   51.3910 O   0  0  0  0  0
  -12.9560   54.8880   52.9330 C   0  0  0  0  0
  -11.9760   55.0050   53.9940 O   0  0  0  0  0
  -13.7820   53.5840   52.9760 C   0  0  0  0  0
  -13.0360   52.6300   52.2600 O   0  0  0  0  0
  -15.1970   53.7780   52.4420 C   0  0  0  0  0
  -15.2850   54.5360   51.1590 O   0  0  0  0  0
  -15.9990   53.9340   49.8330 P   0  0  0  0  0
  -15.5040   54.8890   48.8390 O   0  0  0  0  0
  -17.4540   54.1050   50.0730 O   0  0  0  0  0
  -15.3420   52.6100   49.6380 O   0  0  0  0  0
   -9.4031   51.9516   50.0386 H   0  0  0  0  0
  -13.3836   53.0341   49.5406 H   0  0  0  0  0
  -12.9880   55.2599   50.8340 H   0  0  0  0  0
  -11.1771   56.3238   51.5521 H   0  0  0  0  0
  -13.5392   55.7950   53.0922 H   0  0  0  0  0
  -12.4273   55.0858   54.8374 H   0  0  0  0  0
  -13.9403   53.2451   53.9998 H   0  0  0  0  0
  -15.7399   54.3571   53.1890 H   0  0  0  0  0
  -15.6013   52.7841   52.2501 H   0  0  0  0  0
  -17.7465   53.4663   50.7273 H   0  0  0  0  0
  -15.6720   51.9907   50.2931 H   0  0  0  0  0
  1  2  2  0  0  0
  1  3  1  0  0  0
  1  7  1  0  0  0
  3  4  1  0  0  0
  4  5  2  0  0  0
  4  6  1  0  0  0
  6  7  1  0  0  0
  7  8  1  0  0  0
  7 13  1  0  0  0
  8  9  1  0  0  0
  8 10  1  0  0  0
 10 11  1  0  0  0
 10 12  1  0  0  0
 12 13  1  0  0  0
 12 14  1  0  0  0
 14 15  1  0  0  0
 15 16  1  0  0  0
 16 17  2  0  0  0
 16 18  1  0  0  0
 16 19  1  0  0  0
  3 20  1  0  0  0
  6 21  1  0  0  0
  8 22  1  0  0  0
  9 23  1  0  0  0
 10 24  1  0  0  0
 11 25  1  0  0  0
 12 26  1  0  0  0
 14 27  1  0  0  0
 14 28  1  0  0  0
 18 29  1  0  0  0
 19 30  1  0  0  0
M  END
$$$$
