### 
### Created by X-TOOL on Mon Sep 10 21:12:46 2018
### 

@<TRIPOS>MOLECULE
1juy_ligand
   28    29     1     0     0
SMALL
GAST_HUCK


@<TRIPOS>ATOM
      1 C2        -10.7280   52.8510   51.4510 C.2       1 H5P         0.2833
      2 O2        -10.1330   52.8610   52.5320 O.2       1 H5P        -0.3284
      3 N3        -10.3390   52.3060   50.2360 N.am      1 H5P        -0.1805
      4 C4        -11.3810   52.3040   49.3260 C.2       1 H5P         0.2891
      5 O4        -11.3370   51.8470   48.1890 O.2       1 H5P        -0.3911
      6 N5        -12.4740   52.8990   49.9820 N.am      1 H5P        -0.2328
      7 C1'       -12.1960   53.2880   51.2970 C.3       1 H5P         0.2714
      8 C2'       -12.3370   54.7540   51.5470 C.3       1 H5P         0.1421
      9 O2'       -11.0840   55.3820   51.3910 O.3       1 H5P        -0.3851
     10 C3'       -12.9560   54.8880   52.9330 C.3       1 H5P         0.1134
     11 O3'       -11.9760   55.0050   53.9940 O.3       1 H5P        -0.3866
     12 C4'       -13.7820   53.5840   52.9760 C.3       1 H5P         0.1158
     13 O4'       -13.0360   52.6300   52.2600 O.3       1 H5P        -0.3387
     14 C5'       -15.1970   53.7780   52.4420 C.3       1 H5P         0.1069
     15 O5'       -15.2850   54.5360   51.1590 O.3       1 H5P        -0.2734
     16 P         -15.9990   53.9340   49.8330 P.3       1 H5P         0.2008
     17 O1P       -15.5040   54.8890   48.8390 O.co2     1 H5P        -0.5537
     18 O2P       -17.4540   54.1050   50.0730 O.co2     1 H5P        -0.5537
     19 O3P       -15.3420   52.6100   49.6380 O.co2     1 H5P        -0.5537
     20 H1         -9.4215   51.9586   50.0425 H         1 H5P         0.2260
     21 H2        -13.3657   53.0315   49.5492 H         1 H5P         0.1863
     22 H3        -13.0281   55.1907   50.8110 H         1 H5P         0.0658
     23 H4        -10.4666   55.0130   52.0116 H         1 H5P         0.2099
     24 H5        -13.6161   55.7666   52.9823 H         1 H5P         0.0646
     25 H6        -12.4226   55.0850   54.8287 H         1 H5P         0.2100
     26 H7        -13.8677   53.2509   54.0208 H         1 H5P         0.0648
     27 H8        -15.7774   54.3226   53.2013 H         1 H5P         0.0639
     28 H9        -15.6418   52.7845   52.2833 H         1 H5P         0.0639
@<TRIPOS>BOND
     1    1    2 2  
     2    1    3 am 
     3    1    7 1  
     4    3    4 am 
     5    3   20 1  
     6    4    5 2  
     7    4    6 am 
     8    6    7 1  
     9    6   21 1  
    10    7    8 1  
    11    7   13 1  
    12    8    9 1  
    13    8   10 1  
    14    8   22 1  
    15    9   23 1  
    16   10   11 1  
    17   10   12 1  
    18   10   24 1  
    19   11   25 1  
    20   12   13 1  
    21   12   14 1  
    22   12   26 1  
    23   14   15 1  
    24   14   27 1  
    25   14   28 1  
    26   15   16 1  
    27   16   17 ar 
    28   16   18 ar 
    29   16   19 ar 
@<TRIPOS>SUBSTRUCTURE
     1 H5P         1

