3ta1_ligand
  -I-interpret- 

 42 44  0  0  0  0  0  0  0  0999 V2000
    4.4500  -14.4340  -14.8080 P   0  0  0  0  0
    5.2200  -15.3710  -15.7710 O   0  0  0  0  0
    3.6410  -15.2120  -13.8340 O   0  0  0  0  0
    5.5160  -13.6110  -14.1080 O   0  0  0  0  0
    3.8330  -12.6540  -16.8640 P   0  0  0  0  0
    4.5180  -13.4840  -17.9300 O   0  0  0  0  0
    2.5180  -12.0450  -17.3070 O   0  0  0  0  0
    3.5200  -13.5490  -15.6440 O   0  0  0  0  0
    4.8920  -11.4950  -16.4640 O   0  0  0  0  0
    4.5140  -10.6570  -15.4110 C   0  0  0  0  0
    5.2720   -9.3360  -15.6180 C   0  0  0  0  0
    6.6890   -9.5730  -15.6290 O   0  0  0  0  0
    4.9460   -8.7260  -16.9780 C   0  0  0  0  0
    3.7570   -7.9130  -16.9820 O   0  0  0  0  0
    6.2390   -7.9110  -17.3100 C   0  0  0  0  0
    6.1580   -6.6840  -16.6060 O   0  0  0  0  0
    7.3300   -8.7740  -16.6930 C   0  0  0  0  0
    8.0440   -9.7080  -17.5980 N   0  0  0  0  0
    7.7420  -11.0130  -17.9150 C   0  0  0  0  0
    8.6530  -11.5580  -18.7230 N   0  0  0  0  0
    9.5900  -10.5500  -18.9230 C   0  0  0  0  0
   10.7950  -10.4790  -19.6850 C   0  0  0  0  0
   11.2720  -11.5970  -20.3690 N   0  0  0  0  0
   11.4920   -9.2940  -19.6930 N   0  0  0  0  0
   11.0330   -8.2200  -19.0260 C   0  0  0  0  0
    9.8830   -8.2170  -18.2580 N   0  0  0  0  0
    9.2260   -9.3930  -18.2630 C   0  0  0  0  0
    5.7327  -14.8431  -16.3875 H   0  0  0  0  0
    6.0207  -13.1210  -14.7613 H   0  0  0  0  0
    2.1430  -11.5358  -16.5847 H   0  0  0  0  0
    4.7595  -11.1031  -14.4473 H   0  0  0  0  0
    3.4362  -10.4942  -15.4068 H   0  0  0  0  0
    4.9751   -8.6724  -14.8059 H   0  0  0  0  0
    4.7086   -9.4834  -17.7250 H   0  0  0  0  0
    3.6128   -7.5632  -17.8643 H   0  0  0  0  0
    6.3974   -7.7001  -18.3676 H   0  0  0  0  0
    6.9403   -6.1587  -16.7897 H   0  0  0  0  0
    8.0996   -8.0806  -16.3539 H   0  0  0  0  0
    6.8610  -11.5398  -17.5485 H   0  0  0  0  0
   10.7586  -12.4774  -20.3280 H   0  0  0  0  0
   12.1343  -11.5342  -20.9103 H   0  0  0  0  0
   11.6034   -7.2937  -19.0952 H   0  0  0  0  0
  1  2  1  0  0  0
  1  3  2  0  0  0
  1  4  1  0  0  0
  8  1  1  0  0  0
  5  6  2  0  0  0
  5  7  1  0  0  0
  5  8  1  0  0  0
  5  9  1  0  0  0
  9 10  1  0  0  0
 10 11  1  0  0  0
 11 12  1  0  0  0
 11 13  1  0  0  0
 12 17  1  0  0  0
 13 14  1  0  0  0
 13 15  1  0  0  0
 15 16  1  0  0  0
 15 17  1  0  0  0
 17 18  1  0  0  0
 18 19  4  0  0  0
 18 27  4  0  0  0
 19 20  4  0  0  0
 20 21  4  0  0  0
 21 22  4  0  0  0
 21 27  4  0  0  0
 22 23  1  0  0  0
 22 24  4  0  0  0
 24 25  4  0  0  0
 25 26  4  0  0  0
 26 27  4  0  0  0
  2 28  1  0  0  0
  4 29  1  0  0  0
  7 30  1  0  0  0
 10 31  1  0  0  0
 10 32  1  0  0  0
 11 33  1  0  0  0
 13 34  1  0  0  0
 14 35  1  0  0  0
 15 36  1  0  0  0
 16 37  1  0  0  0
 17 38  1  0  0  0
 19 39  1  0  0  0
 23 40  1  0  0  0
 23 41  1  0  0  0
 25 42  1  0  0  0
M  END
$$$$
