1yei_ligand
  -I-interpret- 

 38 38  0  0  0  0  0  0  0  0999 V2000
   11.8160   37.6100   61.7770 C   0  0  0  0  0
   11.6170   38.9150   61.3230 C   0  0  0  0  0
   10.3510   39.4890   61.4830 C   0  0  0  0  0
    9.3390   38.7460   62.0880 C   0  0  0  0  0
    9.5750   37.4180   62.5310 C   0  0  0  0  0
   10.8320   36.8280   62.3770 C   0  0  0  0  0
   14.2800   37.6130   62.6360 P   0  0  0  0  0
   13.0930   37.0790   61.6490 O   0  0  0  0  0
   14.4440   39.0080   62.3740 O   0  0  0  0  0
   13.9260   37.2270   63.9920 O   0  0  0  0  0
   15.6960   36.7280   62.1440 C   0  0  0  0  0
   16.1100   36.8950   60.6990 C   0  0  0  0  0
   17.3960   36.1000   60.5310 C   0  0  0  0  0
   17.8600   35.9380   59.0990 C   0  0  0  0  0
   17.5560   34.7760   58.4840 N   0  0  0  0  0
   18.4960   36.8780   58.5530 O   0  0  0  0  0
   17.8940   34.4970   57.2240 C   0  0  0  0  0
   16.7390   34.7250   56.2150 C   0  0  0  0  0
   16.6240   33.9260   55.2600 O   0  0  0  0  0
   16.2180   35.8600   56.1190 O   0  0  0  0  0
    8.0100   39.3660   62.3160 N   0  0  0  0  0
    7.7370   40.5310   61.9380 O   0  0  0  0  0
    7.1700   38.7140   62.9130 O   0  0  0  0  0
   12.4280   39.4732   60.8553 H   0  0  0  0  0
   10.1586   40.5051   61.1386 H   0  0  0  0  0
    8.7672   36.8529   62.9960 H   0  0  0  0  0
   11.0321   35.8092   62.7090 H   0  0  0  0  0
   13.8451   36.2717   64.0408 H   0  0  0  0  0
   15.4593   35.6722   62.2756 H   0  0  0  0  0
   16.5209   37.1093   62.7458 H   0  0  0  0  0
   16.2628   37.9458   60.4531 H   0  0  0  0  0
   15.3341   36.5342   60.0238 H   0  0  0  0  0
   17.2016   35.0989   60.9158 H   0  0  0  0  0
   18.1778   36.6481   61.0568 H   0  0  0  0  0
   17.0394   34.0723   59.0115 H   0  0  0  0  0
   18.1655   33.4422   57.1814 H   0  0  0  0  0
   18.7106   35.1635   56.9464 H   0  0  0  0  0
   16.3877   36.3577   56.9221 H   0  0  0  0  0
  8  1  1  0  0  0
  1  6  4  0  0  0
  1  2  4  0  0  0
  2  3  4  0  0  0
  3  4  4  0  0  0
  4 21  1  0  0  0
  4  5  4  0  0  0
  6  5  4  0  0  0
 21 23  2  0  0  0
 21 22  2  0  0  0
  8  7  1  0  0  0
  7  9  2  0  0  0
  7 10  1  0  0  0
  7 11  1  0  0  0
 11 12  1  0  0  0
 12 13  1  0  0  0
 13 14  1  0  0  0
 14 16  2  0  0  0
 14 15  1  0  0  0
 15 17  1  0  0  0
 17 18  1  0  0  0
 18 20  1  0  0  0
 18 19  2  0  0  0
  2 24  1  0  0  0
  3 25  1  0  0  0
  5 26  1  0  0  0
  6 27  1  0  0  0
 10 28  1  0  0  0
 11 29  1  0  0  0
 11 30  1  0  0  0
 12 31  1  0  0  0
 12 32  1  0  0  0
 13 33  1  0  0  0
 13 34  1  0  0  0
 15 35  1  0  0  0
 17 36  1  0  0  0
 17 37  1  0  0  0
 20 38  1  0  0  0
M  END
$$$$
