4j0r_ligand
  -I-interpret- 

 39 41  0  0  0  0  0  0  0  0999 V2000
   29.3800   15.6470   -0.9940 C   0  0  0  0  0
   26.0090   17.9680   -3.7910 C   0  0  0  0  0
   28.0800   15.0940   -1.1510 C   0  0  0  0  0
   27.2270   14.9920   -0.0710 C   0  0  0  0  0
   27.8630   16.0610   -4.7090 C   0  0  0  0  0
   27.6940   15.4360    1.1840 C   0  0  0  0  0
   28.9850   15.9750    1.3560 C   0  0  0  0  0
   27.5930   14.6740   -2.5520 C   0  0  0  0  0
   27.2950   15.9130   -3.4150 C   0  0  0  0  0
   27.4660   17.1530   -5.5540 C   0  0  0  0  0
   26.5180   18.0920   -5.0640 C   0  0  0  0  0
   29.7960   16.0860    0.2630 C   0  0  0  0  0
   28.6100   13.8550   -3.1450 O   0  0  0  0  0
   26.3650   16.8860   -2.9600 C   0  0  0  0  0
   26.8850   15.3520    2.2260 O   0  0  0  0  0
   31.1290   16.6460    0.4310 C   0  0  0  0  0
   32.2630   16.0670   -0.0170 C   0  0  0  0  0
   32.4610   14.6970   -0.5630 C   0  0  0  0  0
   33.3720   16.9180    0.1810 O   0  0  0  0  0
   32.8010   18.0980    0.8520 N   0  0  0  0  0
   31.4440   17.9120    1.0110 C   0  0  0  0  0
   30.4610   18.8280    1.6960 C   0  0  0  0  0
   30.0483   15.7276   -1.8513 H   0  0  0  0  0
   25.3162   18.7221   -3.4176 H   0  0  0  0  0
   26.2237   14.5812   -0.1841 H   0  0  0  0  0
   28.6031   15.3429   -5.0621 H   0  0  0  0  0
   29.3283   16.2960    2.3395 H   0  0  0  0  0
   26.6642   14.1083   -2.4789 H   0  0  0  0  0
   27.8850   17.2597   -6.5546 H   0  0  0  0  0
   26.1922   18.9151   -5.7000 H   0  0  0  0  0
   28.7726   13.0927   -2.5846 H   0  0  0  0  0
   25.9258   16.7958   -1.9665 H   0  0  0  0  0
   27.3334   15.6877    3.0057 H   0  0  0  0  0
   32.1788   13.9624    0.1912 H   0  0  0  0  0
   31.8396   14.5671   -1.4490 H   0  0  0  0  0
   33.5091   14.5615   -0.8297 H   0  0  0  0  0
   29.6774   19.1092    0.9925 H   0  0  0  0  0
   30.0182   18.3119    2.5478 H   0  0  0  0  0
   30.9795   19.7226    2.0410 H   0  0  0  0  0
  3  1  4  0  0  0
  1 12  4  0  0  0
  2 11  4  0  0  0
 14  2  4  0  0  0
  3  4  4  0  0  0
  8  3  1  0  0  0
  4  6  4  0  0  0
  9  5  4  0  0  0
  5 10  4  0  0  0
  6  7  4  0  0  0
  6 15  1  0  0  0
 12  7  4  0  0  0
  9  8  1  0  0  0
  8 13  1  0  0  0
  9 14  4  0  0  0
 10 11  4  0  0  0
 12 16  1  0  0  0
 16 17  4  0  0  0
 16 21  4  0  0  0
 17 18  1  0  0  0
 17 19  4  0  0  0
 19 20  4  0  0  0
 20 21  4  0  0  0
 21 22  1  0  0  0
  1 23  1  0  0  0
  2 24  1  0  0  0
  4 25  1  0  0  0
  5 26  1  0  0  0
  7 27  1  0  0  0
  8 28  1  0  0  0
 10 29  1  0  0  0
 11 30  1  0  0  0
 13 31  1  0  0  0
 14 32  1  0  0  0
 15 33  1  0  0  0
 18 34  1  0  0  0
 18 35  1  0  0  0
 18 36  1  0  0  0
 22 37  1  0  0  0
 22 38  1  0  0  0
 22 39  1  0  0  0
M  END
$$$$
