6n3e_ligand
  -I-interpret- 

121123  0  0  0  0  0  0  0  0999 V2000
   18.3350  -25.3370   14.0030 N   0  3  0  0  0
   18.6570  -24.2160   13.1390 C   0  0  0  0  0
   18.0900  -22.9160   13.7090 C   0  0  0  0  0
   17.3570  -22.9170   14.6960 O   0  0  0  0  0
   18.1230  -24.4690   11.7170 C   0  0  0  0  0
   16.6080  -24.5990   11.6640 C   0  0  0  0  0
   15.8770  -23.7820   12.2250 O   0  0  0  0  0
   16.1300  -25.6390   10.9840 N   0  0  0  0  0
   18.4200  -21.8040   13.0650 N   0  0  0  0  0
   17.9490  -20.4980   13.5020 C   0  0  0  0  0
   16.6160  -20.0930   12.8710 C   0  0  0  0  0
   16.1130  -19.0030   13.1590 O   0  0  0  0  0
   19.0200  -19.4510   13.1940 C   0  0  0  0  0
   20.3660  -19.7820   13.8310 C   0  0  0  0  0
   21.4390  -18.7700   13.4590 C   0  0  0  0  0
   22.7310  -19.0140   14.1080 N   0  0  0  0  0
   23.5200  -20.0630   13.8710 C   0  0  0  0  0
   23.1600  -21.0200   13.0160 N   0  0  0  0  0
   24.6760  -20.1670   14.5040 N   0  0  0  0  0
   16.0060  -20.9410   12.0480 N   0  0  0  0  0
   14.7520  -20.5480   11.4250 C   0  0  0  0  0
   13.6680  -20.3490   12.4780 C   0  0  0  0  0
   13.5330  -21.1370   13.4170 O   0  0  0  0  0
   14.3210  -21.5750   10.3670 C   0  0  0  0  0
   15.1610  -21.4240    9.1570 C   0  0  0  0  0
   16.1460  -22.2560    8.7200 C   0  0  0  0  0
   15.1440  -20.3140    8.2590 C   0  0  0  0  0
   16.7510  -21.7250    7.5930 N   0  0  0  0  0
   16.1390  -20.5400    7.2890 C   0  0  0  0  0
   14.3780  -19.1510    8.1800 C   0  0  0  0  0
   16.3860  -19.6430    6.2560 C   0  0  0  0  0
   14.6330  -18.2570    7.1550 C   0  0  0  0  0
   15.6190  -18.5200    6.2040 C   0  0  0  0  0
   12.9330  -19.2480   12.3420 N   0  0  0  0  0
   11.7490  -18.9400   13.1250 C   0  0  0  0  0
   12.0800  -18.5600   14.5600 C   0  0  0  0  0
   11.1670  -18.4620   15.3860 O   0  0  0  0  0
   10.7670  -20.1140   13.0800 C   0  0  0  0  0
   10.4240  -20.4920   11.6460 C   0  0  0  0  0
    9.9740  -19.5940   10.9010 O   0  0  0  0  0
   10.6640  -21.6480   11.2490 O   0  0  0  0  0
   13.3560  -18.3240   14.8700 N   0  0  0  0  0
   13.7590  -17.8640   16.1950 C   0  0  0  0  0
   13.3930  -16.3920   16.3310 C   0  0  0  0  0
   13.8050  -15.5640   15.5050 O   0  0  0  0  0
   15.2630  -18.0260   16.4070 C   0  0  0  0  0
   15.7310  -19.3590   16.9530 C   0  0  0  0  0
   17.2400  -19.3870   17.1150 C   0  0  0  0  0
   17.8110  -20.4970   17.1720 O   0  0  0  0  0
   17.8530  -18.2950   17.1710 O   0  0  0  0  0
   12.6420  -16.0660   17.3690 N   0  0  0  0  0
   12.2810  -14.6890   17.6760 C   0  0  0  0  0
   13.2820  -14.0940   18.6540 C   0  0  0  0  0
   14.1530  -14.7890   19.1810 O   0  0  0  0  0
   10.8630  -14.6470   18.2440 C   0  0  0  0  0
   10.6550  -15.7740   19.1090 O   0  0  0  0  0
    9.8470  -14.6740   17.1140 C   0  0  0  0  0
   13.2050  -12.7780   18.9080 N   0  0  0  0  0
   14.0960  -12.1370   19.8860 C   0  0  0  0  0
   13.9380  -12.7050   21.2990 C   0  0  0  0  0
   12.9480  -13.3980   21.5290 O   0  0  0  0  0
   13.6630  -10.6690   19.8450 C   0  0  0  0  0
   12.9970  -10.4900   18.5110 C   0  0  0  0  0
   12.3350  -11.8020   18.2280 C   0  0  0  0  0
   14.8100  -12.4360   22.1240 O   0  0  0  0  0
   18.6941  -25.1563   14.9404 H   0  0  0  0  0
   17.3226  -25.4546   14.0422 H   0  0  0  0  0
   18.7629  -26.1851   13.6313 H   0  0  0  0  0
   19.7412  -24.1166   13.0874 H   0  0  0  0  0
   18.5490  -25.4086   11.3651 H   0  0  0  0  0
   18.4044  -23.6154   11.1003 H   0  0  0  0  0
   15.1226  -25.7825   10.9130 H   0  0  0  0  0
   16.7711  -26.2923   10.5340 H   0  0  0  0  0
   19.0195  -21.8659   12.2421 H   0  0  0  0  0
   17.7700  -20.5593   14.5755 H   0  0  0  0  0
   18.6827  -18.4973   13.6000 H   0  0  0  0  0
   19.1590  -19.4218   12.1133 H   0  0  0  0  0
   20.6817  -20.7608   13.4698 H   0  0  0  0  0
   20.2432  -19.7649   14.9139 H   0  0  0  0  0
   21.0902  -17.7905   13.7861 H   0  0  0  0  0
   21.5963  -18.8429   12.3829 H   0  0  0  0  0
   23.0508  -18.3293   14.7930 H   0  0  0  0  0
   23.7735  -21.8192   12.8572 H   0  0  0  0  0
   22.2710  -20.9531   12.5205 H   0  0  0  0  0
   24.9598  -19.4476   15.1690 H   0  0  0  0  0
   16.4129  -21.8564   11.8559 H   0  0  0  0  0
   14.9046  -19.5954   10.9176 H   0  0  0  0  0
   13.2760  -21.4088   10.1055 H   0  0  0  0  0
   14.4419  -22.5811   10.7685 H   0  0  0  0  0
   16.4186  -23.2017    9.1885 H   0  0  0  0  0
   13.5945  -18.9504    8.9108 H   0  0  0  0  0
   17.1640  -19.8319    5.5163 H   0  0  0  0  0
   14.0556  -17.3348    7.0899 H   0  0  0  0  0
   15.7797  -17.8059    5.3964 H   0  0  0  0  0
   13.2223  -18.5708   11.6362 H   0  0  0  0  0
   11.2793  -18.0654   12.6750 H   0  0  0  0  0
    9.8500  -19.8196   13.5905 H   0  0  0  0  0
   11.2306  -20.9734   13.5644 H   0  0  0  0  0
    9.8633  -18.7857   11.4069 H   0  0  0  0  0
   14.0723  -18.4697   14.1586 H   0  0  0  0  0
   13.2432  -18.4648   16.9441 H   0  0  0  0  0
   15.5442  -17.2805   17.1508 H   0  0  0  0  0
   15.7182  -17.9278   15.4215 H   0  0  0  0  0
   15.4418  -20.1426   16.2526 H   0  0  0  0  0
   15.2734  -19.5146   17.9300 H   0  0  0  0  0
   17.2238  -17.5726   17.1093 H   0  0  0  0  0
   12.3017  -16.8089   17.9795 H   0  0  0  0  0
   12.3057  -14.0918   16.7645 H   0  0  0  0  0
   10.7359  -13.7260   18.8129 H   0  0  0  0  0
    9.7633  -15.7436   19.4634 H   0  0  0  0  0
   10.0003  -13.8092   16.4685 H   0  0  0  0  0
    9.9741  -15.5885   16.5346 H   0  0  0  0  0
    8.8405  -14.6437   17.5313 H   0  0  0  0  0
   15.1460  -12.2977   19.6417 H   0  0  0  0  0
   14.5126   -9.9965   19.9629 H   0  0  0  0  0
   12.9885  -10.4264   20.6662 H   0  0  0  0  0
   13.7142  -10.2241   17.7344 H   0  0  0  0  0
   12.2786   -9.6704   18.5254 H   0  0  0  0  0
   11.3062  -11.8375   18.5864 H   0  0  0  0  0
   12.2382  -12.0002   17.1606 H   0  0  0  0  0
   15.4784  -11.8831   21.7127 H   0  0  0  0  0
  1  2  1  0  0  0
  2  3  1  0  0  0
  2  5  1  0  0  0
  3  4  2  0  0  0
  3  9  1  0  0  0
  5  6  1  0  0  0
  6  7  2  0  0  0
  6  8  1  0  0  0
  9 10  1  0  0  0
 10 11  1  0  0  0
 10 13  1  0  0  0
 11 12  2  0  0  0
 11 20  1  0  0  0
 13 14  1  0  0  0
 14 15  1  0  0  0
 15 16  1  0  0  0
 16 17  1  0  0  0
 17 18  1  0  0  0
 17 19  2  0  0  0
 20 21  1  0  0  0
 21 22  1  0  0  0
 21 24  1  0  0  0
 22 23  2  0  0  0
 22 34  1  0  0  0
 24 25  1  0  0  0
 25 26  4  0  0  0
 25 27  4  0  0  0
 26 28  4  0  0  0
 27 29  4  0  0  0
 27 30  4  0  0  0
 28 29  4  0  0  0
 29 31  4  0  0  0
 30 32  4  0  0  0
 31 33  4  0  0  0
 32 33  4  0  0  0
 34 35  1  0  0  0
 35 36  1  0  0  0
 35 38  1  0  0  0
 36 37  2  0  0  0
 36 42  1  0  0  0
 38 39  1  0  0  0
 39 40  1  0  0  0
 39 41  2  0  0  0
 42 43  1  0  0  0
 43 44  1  0  0  0
 43 46  1  0  0  0
 44 45  2  0  0  0
 44 51  1  0  0  0
 46 47  1  0  0  0
 47 48  1  0  0  0
 48 49  2  0  0  0
 48 50  1  0  0  0
 51 52  1  0  0  0
 52 53  1  0  0  0
 52 55  1  0  0  0
 53 54  2  0  0  0
 53 58  1  0  0  0
 55 56  1  0  0  0
 55 57  1  0  0  0
 58 59  1  0  0  0
 58 64  1  0  0  0
 59 60  1  0  0  0
 59 62  1  0  0  0
 60 61  2  0  0  0
 60 65  1  0  0  0
 62 63  1  0  0  0
 63 64  1  0  0  0
  1 66  1  0  0  0
  1 67  1  0  0  0
  1 68  1  0  0  0
  2 69  1  0  0  0
  5 70  1  0  0  0
  5 71  1  0  0  0
  8 72  1  0  0  0
  8 73  1  0  0  0
  9 74  1  0  0  0
 10 75  1  0  0  0
 13 76  1  0  0  0
 13 77  1  0  0  0
 14 78  1  0  0  0
 14 79  1  0  0  0
 15 80  1  0  0  0
 15 81  1  0  0  0
 16 82  1  0  0  0
 18 83  1  0  0  0
 18 84  1  0  0  0
 19 85  1  0  0  0
 20 86  1  0  0  0
 21 87  1  0  0  0
 24 88  1  0  0  0
 24 89  1  0  0  0
 26 90  1  0  0  0
 30 91  1  0  0  0
 31 92  1  0  0  0
 32 93  1  0  0  0
 33 94  1  0  0  0
 34 95  1  0  0  0
 35 96  1  0  0  0
 38 97  1  0  0  0
 38 98  1  0  0  0
 40 99  1  0  0  0
 42100  1  0  0  0
 43101  1  0  0  0
 46102  1  0  0  0
 46103  1  0  0  0
 47104  1  0  0  0
 47105  1  0  0  0
 50106  1  0  0  0
 51107  1  0  0  0
 52108  1  0  0  0
 55109  1  0  0  0
 56110  1  0  0  0
 57111  1  0  0  0
 57112  1  0  0  0
 57113  1  0  0  0
 59114  1  0  0  0
 62115  1  0  0  0
 62116  1  0  0  0
 63117  1  0  0  0
 63118  1  0  0  0
 64119  1  0  0  0
 64120  1  0  0  0
 65121  1  0  0  0
M  END
$$$$
