### 
### Created by X-TOOL on Mon Aug  2 16:15:09 2021
### 

@<TRIPOS>MOLECULE
6n3e_ligand
  120   122     1     0     0
SMALL
GAST_HUCK


@<TRIPOS>ATOM
      1 N          18.3350  -25.3370   14.0030 N.4       1 ASN         0.2396
      2 CA         18.6570  -24.2160   13.1390 C.3       1 ASN         0.0818
      3 C          18.0900  -22.9160   13.7090 C.2       1 ASN         0.2291
      4 O          17.3570  -22.9170   14.6960 O.2       1 ASN        -0.3905
      5 CB         18.1230  -24.4690   11.7170 C.3       1 ASN         0.0972
      6 CG         16.6080  -24.5990   11.6640 C.2       1 ASN         0.1813
      7 OD1        15.8770  -23.7820   12.2250 O.2       1 ASN        -0.3969
      8 ND2        16.1300  -25.6390   10.9840 N.am      1 ASN        -0.3006
      9 N          18.4200  -21.8040   13.0650 N.am      1 ASN        -0.2609
     10 CA         17.9490  -20.4980   13.5020 C.3       1 ASN         0.1312
     11 C          16.6160  -20.0930   12.8710 C.2       1 ASN         0.2040
     12 O          16.1130  -19.0030   13.1590 O.2       1 ASN        -0.3944
     13 CB         19.0200  -19.4510   13.1940 C.3       1 ASN        -0.0092
     14 CG         20.3660  -19.7820   13.8310 C.3       1 ASN        -0.0156
     15 CD         21.4390  -18.7700   13.4590 C.3       1 ASN         0.0627
     16 NE         22.7310  -19.0140   14.1080 N.pl3     1 ASN        -0.2723
     17 CZ         23.5200  -20.0630   13.8710 C.cat     1 ASN         0.2882
     18 NH1        23.1600  -21.0200   13.0160 N.pl3     1 ASN        -0.2849
     19 NH2        24.6760  -20.1670   14.5040 N.pl3     1 ASN        -0.2849
     20 N          16.0060  -20.9410   12.0480 N.am      1 ASN        -0.2627
     21 CA         14.7520  -20.5480   11.4250 C.3       1 ASN         0.1352
     22 C          13.6680  -20.3490   12.4780 C.2       1 ASN         0.2052
     23 O          13.5330  -21.1370   13.4170 O.2       1 ASN        -0.3942
     24 CB         14.3210  -21.5750   10.3670 C.3       1 ASN         0.0042
     25 CG         15.1610  -21.4240    9.1570 C.2       1 ASN        -0.0418
     26 CD1        16.1460  -22.2560    8.7200 C.2       1 ASN         0.0167
     27 CD2        15.1440  -20.3140    8.2590 C.ar      1 ASN        -0.0214
     28 NE1        16.7510  -21.7250    7.5930 N.pl3     1 ASN        -0.2890
     29 CE2        16.1390  -20.5400    7.2890 C.ar      1 ASN         0.0603
     30 CE3        14.3780  -19.1510    8.1800 C.ar      1 ASN        -0.0747
     31 CZ2        16.3860  -19.6430    6.2560 C.ar      1 ASN        -0.0443
     32 CZ3        14.6330  -18.2570    7.1550 C.ar      1 ASN        -0.0792
     33 CH2        15.6190  -18.5200    6.2040 C.ar      1 ASN        -0.0768
     34 N          12.9330  -19.2480   12.3420 N.am      1 ASN        -0.2621
     35 CA         11.7490  -18.9400   13.1250 C.3       1 ASN         0.1423
     36 C          12.0800  -18.5600   14.5600 C.2       1 ASN         0.2056
     37 O          11.1670  -18.4620   15.3860 O.2       1 ASN        -0.3943
     38 CB         10.7670  -20.1140   13.0800 C.3       1 ASN         0.0406
     39 CG         10.4240  -20.4920   11.6460 C.2       1 ASN         0.0393
     40 OD1         9.9740  -19.5940   10.9010 O.co2     1 ASN        -0.5688
     41 OD2        10.6640  -21.6480   11.2490 O.co2     1 ASN        -0.5688
     42 N          13.3560  -18.3240   14.8700 N.am      1 ASN        -0.2635
     43 CA         13.7590  -17.8640   16.1950 C.3       1 ASN         0.1325
     44 C          13.3930  -16.3920   16.3310 C.2       1 ASN         0.2041
     45 O          13.8050  -15.5640   15.5050 O.2       1 ASN        -0.3944
     46 CB         15.2630  -18.0260   16.4070 C.3       1 ASN        -0.0008
     47 CG         15.7310  -19.3590   16.9530 C.3       1 ASN         0.0044
     48 CD         17.2400  -19.3870   17.1150 C.2       1 ASN         0.0350
     49 OE1        17.8110  -20.4970   17.1720 O.co2     1 ASN        -0.5690
     50 OE2        17.8530  -18.2950   17.1710 O.co2     1 ASN        -0.5690
     51 N          12.6420  -16.0660   17.3690 N.am      1 ASN        -0.2613
     52 CA         12.2810  -14.6890   17.6760 C.3       1 ASN         0.1566
     53 C          13.2820  -14.0940   18.6540 C.2       1 ASN         0.2084
     54 O          14.1530  -14.7890   19.1810 O.2       1 ASN        -0.3941
     55 CB         10.8630  -14.6470   18.2440 C.3       1 ASN         0.0924
     56 OG1        10.6550  -15.7740   19.1090 O.3       1 ASN        -0.3874
     57 CG2         9.8470  -14.6740   17.1140 C.3       1 ASN        -0.0346
     58 N          13.2050  -12.7780   18.9080 N.am      1 ASN        -0.2555
     59 CA         14.0960  -12.1370   19.8860 C.3       1 ASN         0.0972
     60 C          13.9380  -12.7050   21.2990 C.2       1 ASN         0.0603
     61 O          12.9480  -13.3980   21.5290 O.co2     1 ASN        -0.5666
     62 CB         13.6630  -10.6690   19.8450 C.3       1 ASN        -0.0159
     63 CG         12.9970  -10.4900   18.5110 C.3       1 ASN        -0.0288
     64 CD         12.3350  -11.8020   18.2280 C.3       1 ASN         0.0362
     65 OXT        14.8100  -12.4360   22.1240 O.co2     1 ASN        -0.5666
     66 H1         18.7166  -26.1837   13.6111 H         1 ASN         0.2017
     67 H2         17.3338  -25.4244   14.0810 H         1 ASN         0.2017
     68 H3         18.7310  -25.1815   14.9168 H         1 ASN         0.2017
     69 H4         19.7516  -24.1213   13.0864 H         1 ASN         0.1125
     70 H5         18.5680  -25.4001   11.3362 H         1 ASN         0.0585
     71 H6         18.4251  -23.6287   11.0747 H         1 ASN         0.0585
     72 H7         15.1424  -25.7787   10.9130 H         1 ASN         0.1814
     73 H8         16.7586  -26.2805   10.5443 H         1 ASN         0.1814
     74 H9         19.0077  -21.8647   12.2582 H         1 ASN         0.1885
     75 H10        17.8038  -20.5385   14.5916 H         1 ASN         0.0800
     76 H11        18.6801  -18.4769   13.5754 H         1 ASN         0.0313
     77 H12        19.1516  -19.3922   12.1035 H         1 ASN         0.0313
     78 H13        20.6845  -20.7782   13.4901 H         1 ASN         0.0301
     79 H14        20.2488  -19.7889   14.9247 H         1 ASN         0.0301
     80 H15        21.0879  -17.7690   13.7501 H         1 ASN         0.0689
     81 H16        21.5859  -18.8046   12.3694 H         1 ASN         0.0689
     82 H17        23.0540  -18.3225   14.7997 H         1 ASN         0.2642
     83 H18        23.7844  -21.8217   12.8476 H         1 ASN         0.2615
     84 H19        22.2574  -20.9579   12.5237 H         1 ASN         0.2615
     85 H20        24.9674  -19.4352   15.1676 H         1 ASN         0.2615
     86 H21        25.2852  -20.9799   14.3335 H         1 ASN         0.2615
     87 H22        16.4049  -21.8385   11.8597 H         1 ASN         0.1884
     88 H23        14.9113  -19.5856   10.9166 H         1 ASN         0.0815
     89 H24        13.2661  -21.4084   10.1034 H         1 ASN         0.0397
     90 H25        14.4418  -22.5906   10.7720 H         1 ASN         0.0397
     91 H26        16.4183  -23.2008    9.1881 H         1 ASN         0.0795
     92 H27        17.5306  -22.1507    7.0715 H         1 ASN         0.2216
     93 H28        13.5988  -18.9516    8.9067 H         1 ASN         0.0540
     94 H29        17.1597  -19.8308    5.5203 H         1 ASN         0.0541
     95 H30        14.0587  -17.3399    7.0902 H         1 ASN         0.0510
     96 H31        15.7788  -17.8098    5.4008 H         1 ASN         0.0530
     97 H32        13.2166  -18.5841   11.6501 H         1 ASN         0.1884
     98 H33        11.2593  -18.0720   12.6594 H         1 ASN         0.0819
     99 H34         9.8439  -19.8297   13.6064 H         1 ASN         0.0478
    100 H35        11.2221  -20.9815   13.5803 H         1 ASN         0.0478
    101 H36        14.0583  -18.4668   14.1725 H         1 ASN         0.1883
    102 H37        13.2242  -18.4490   16.9577 H         1 ASN         0.0801
    103 H38        15.5870  -17.2449   17.1105 H         1 ASN         0.0330
    104 H39        15.7555  -17.8718   15.4356 H         1 ASN         0.0330
    105 H40        15.4300  -20.1569   16.2582 H         1 ASN         0.0433
    106 H41        15.2618  -19.5299   17.9331 H         1 ASN         0.0433
    107 H42        12.3084  -16.7944   17.9675 H         1 ASN         0.1884
    108 H43        12.3056  -14.0992   16.7478 H         1 ASN         0.0826
    109 H44        10.7340  -13.7197   18.8215 H         1 ASN         0.0639
    110 H45        10.7735  -16.5769   18.6152 H         1 ASN         0.2101
    111 H46         8.8307  -14.6434   17.5339 H         1 ASN         0.0257
    112 H47         9.9742  -15.5965   16.5285 H         1 ASN         0.0257
    113 H48        10.0006  -13.8016   16.4618 H         1 ASN         0.0257
    114 H49        15.1455  -12.2439   19.5743 H         1 ASN         0.0728
    115 H50        14.5371  -10.0068   19.9313 H         1 ASN         0.0306
    116 H51        12.9570  -10.4525   20.6603 H         1 ASN         0.0306
    117 H52        13.7416  -10.2577   17.7354 H         1 ASN         0.0286
    118 H53        12.2511   -9.6828   18.5567 H         1 ASN         0.0286
    119 H54        11.3166  -11.8265   18.6430 H         1 ASN         0.0524
    120 H55        12.2949  -11.9972   17.1462 H         1 ASN         0.0524
@<TRIPOS>BOND
     1    1    2 1  
     2    2    3 1  
     3    2    5 1  
     4    3    4 2  
     5    3    9 am 
     6    5    6 1  
     7    6    7 2  
     8    6    8 am 
     9    9   10 1  
    10   10   11 1  
    11   10   13 1  
    12   11   12 2  
    13   11   20 am 
    14   13   14 1  
    15   14   15 1  
    16   15   16 1  
    17   16   17 ar 
    18   17   18 ar 
    19   17   19 ar 
    20   20   21 1  
    21   21   22 1  
    22   21   24 1  
    23   22   23 2  
    24   22   34 am 
    25   24   25 1  
    26   25   26 2  
    27   25   27 1  
    28   26   28 1  
    29   27   29 ar 
    30   27   30 ar 
    31   28   29 1  
    32   29   31 ar 
    33   30   32 ar 
    34   31   33 ar 
    35   32   33 ar 
    36   34   35 1  
    37   35   36 1  
    38   35   38 1  
    39   36   37 2  
    40   36   42 am 
    41   38   39 1  
    42   39   40 ar 
    43   39   41 ar 
    44   42   43 1  
    45   43   44 1  
    46   43   46 1  
    47   44   45 2  
    48   44   51 am 
    49   46   47 1  
    50   47   48 1  
    51   48   49 ar 
    52   48   50 ar 
    53   51   52 1  
    54   52   53 1  
    55   52   55 1  
    56   53   54 2  
    57   53   58 am 
    58   55   56 1  
    59   55   57 1  
    60   58   59 1  
    61   58   64 1  
    62   59   60 1  
    63   59   62 1  
    64   60   61 ar 
    65   60   65 ar 
    66   62   63 1  
    67   63   64 1  
    68    1   66 1  
    69    1   67 1  
    70    1   68 1  
    71    2   69 1  
    72    5   70 1  
    73    5   71 1  
    74    8   72 1  
    75    8   73 1  
    76    9   74 1  
    77   10   75 1  
    78   13   76 1  
    79   13   77 1  
    80   14   78 1  
    81   14   79 1  
    82   15   80 1  
    83   15   81 1  
    84   16   82 1  
    85   18   83 1  
    86   18   84 1  
    87   19   85 1  
    88   19   86 1  
    89   20   87 1  
    90   21   88 1  
    91   24   89 1  
    92   24   90 1  
    93   26   91 1  
    94   28   92 1  
    95   30   93 1  
    96   31   94 1  
    97   32   95 1  
    98   33   96 1  
    99   34   97 1  
   100   35   98 1  
   101   38   99 1  
   102   38  100 1  
   103   42  101 1  
   104   43  102 1  
   105   46  103 1  
   106   46  104 1  
   107   47  105 1  
   108   47  106 1  
   109   51  107 1  
   110   52  108 1  
   111   55  109 1  
   112   56  110 1  
   113   57  111 1  
   114   57  112 1  
   115   57  113 1  
   116   59  114 1  
   117   62  115 1  
   118   62  116 1  
   119   63  117 1  
   120   63  118 1  
   121   64  119 1  
   122   64  120 1  
@<TRIPOS>SUBSTRUCTURE
     1 ASN         1

