6eqp_ligand
  -I-interpret- 

 47 49  0  0  0  0  0  0  0  0999 V2000
   42.4870  -16.2200   41.5890 C   0  0  0  0  0
   42.4690  -17.0870   40.4890 C   0  0  0  0  0
   43.2590  -16.8260   39.3710 C   0  0  0  0  0
   44.0690  -15.6940   39.3390 C   0  0  0  0  0
   44.0940  -14.8260   40.4260 C   0  0  0  0  0
   43.3110  -15.0860   41.5480 C   0  0  0  0  0
   41.6610  -14.1680   43.3980 C   0  0  0  0  0
   40.9560  -13.0920   43.9370 C   0  0  0  0  0
   39.6210  -13.2520   44.3130 C   0  0  0  0  0
   38.9950  -14.4860   44.1500 C   0  0  0  0  0
   39.6970  -15.5650   43.6120 C   0  0  0  0  0
   41.0310  -15.4080   43.2260 C   0  0  0  0  0
   41.7300  -16.4610   42.7070 N   0  0  0  0  0
   43.3590  -13.9620   42.9200 S   0  0  0  0  0
   41.4490  -17.8310   43.1730 C   0  0  0  0  0
   42.6670  -18.7860   43.3400 C   0  0  0  0  0
   43.5300  -18.3610   44.5540 C   0  0  0  0  0
   43.2940  -21.1130   44.0610 C   0  0  0  0  0
   43.6500  -22.4770   43.4470 C   0  0  0  0  0
   42.0670  -20.7090   41.8690 C   0  0  0  0  0
   40.7720  -21.5040   41.6210 C   0  0  0  0  0
   42.2750  -20.2640   43.3080 N   0  3  0  0  0
   41.8328  -17.9718   40.5076 H   0  0  0  0  0
   43.2428  -17.5084   38.5212 H   0  0  0  0  0
   44.6834  -15.4879   38.4626 H   0  0  0  0  0
   44.7282  -13.9399   40.3994 H   0  0  0  0  0
   41.4468  -12.1272   44.0645 H   0  0  0  0  0
   39.0687  -12.4118   44.7339 H   0  0  0  0  0
   37.9526  -14.6089   44.4440 H   0  0  0  0  0
   39.2051  -16.5303   43.4927 H   0  0  0  0  0
   40.8203  -18.2827   42.4057 H   0  0  0  0  0
   41.0171  -17.7236   44.1680 H   0  0  0  0  0
   43.3093  -18.6813   42.4656 H   0  0  0  0  0
   43.8950  -17.3454   44.4009 H   0  0  0  0  0
   42.9244  -18.3982   45.4595 H   0  0  0  0  0
   44.3758  -19.0414   44.6529 H   0  0  0  0  0
   44.2190  -20.5364   44.0651 H   0  0  0  0  0
   42.8449  -21.3295   45.0303 H   0  0  0  0  0
   42.7504  -23.0884   43.3770 H   0  0  0  0  0
   44.0679  -22.3279   42.4514 H   0  0  0  0  0
   44.3832  -22.9782   44.0789 H   0  0  0  0  0
   42.0045  -19.8047   41.2636 H   0  0  0  0  0
   42.8971  -21.3694   41.6184 H   0  0  0  0  0
   40.7785  -22.4064   42.2323 H   0  0  0  0  0
   39.9127  -20.8888   41.8881 H   0  0  0  0  0
   40.7112  -21.7776   40.5676 H   0  0  0  0  0
   41.3881  -20.3958   43.7942 H   0  0  0  0  0
  1  2  4  0  0  0
  1  6  4  0  0  0
 13  1  1  0  0  0
  2  3  4  0  0  0
  3  4  4  0  0  0
  5  4  4  0  0  0
  6  5  4  0  0  0
  6 14  1  0  0  0
  7  8  4  0  0  0
 12  7  4  0  0  0
  7 14  1  0  0  0
  8  9  4  0  0  0
 10  9  4  0  0  0
 11 10  4  0  0  0
 12 11  4  0  0  0
 13 12  1  0  0  0
 15 13  1  0  0  0
 16 15  1  0  0  0
 16 17  1  0  0  0
 22 16  1  0  0  0
 18 19  1  0  0  0
 22 18  1  0  0  0
 20 21  1  0  0  0
 20 22  1  0  0  0
  2 23  1  0  0  0
  3 24  1  0  0  0
  4 25  1  0  0  0
  5 26  1  0  0  0
  8 27  1  0  0  0
  9 28  1  0  0  0
 10 29  1  0  0  0
 11 30  1  0  0  0
 15 31  1  0  0  0
 15 32  1  0  0  0
 16 33  1  0  0  0
 17 34  1  0  0  0
 17 35  1  0  0  0
 17 36  1  0  0  0
 18 37  1  0  0  0
 18 38  1  0  0  0
 19 39  1  0  0  0
 19 40  1  0  0  0
 19 41  1  0  0  0
 20 42  1  0  0  0
 20 43  1  0  0  0
 21 44  1  0  0  0
 21 45  1  0  0  0
 21 46  1  0  0  0
 22 47  1  0  0  0
M  END
$$$$
