4o09_ligand
  -I-interpret- 

 58 61  0  0  0  0  0  0  0  0999 V2000
   -1.1740  -10.6650  -26.4400 O   0  0  0  0  0
   -0.7710  -11.1080  -25.3650 C   0  0  0  0  0
   -1.5910  -11.8460  -24.5890 N   0  0  0  0  0
   -1.2210  -12.5500  -23.3480 C   0  0  0  0  0
    0.2020  -13.0500  -23.4740 C   0  0  0  0  0
    1.1160  -11.9670  -23.9990 C   0  0  0  0  0
    2.4490  -11.9470  -23.5870 C   0  0  0  0  0
    0.6390  -10.9560  -24.8890 C   0  0  0  0  0
    1.5210   -9.9130  -25.3100 C   0  0  0  0  0
    1.1630   -8.7060  -26.1480 C   0  0  0  0  0
    0.4060   -7.5520  -25.4770 C   0  0  0  0  0
    0.1500   -6.4470  -26.4950 C   0  0  0  0  0
    1.0980   -6.9660  -24.2420 C   0  0  0  0  0
    2.8520   -9.9380  -24.8940 C   0  0  0  0  0
    3.3110  -10.9500  -24.0510 C   0  0  0  0  0
    4.7100  -10.9970  -23.7010 N   0  0  0  0  0
    5.4490   -9.9140  -23.2690 C   0  0  0  0  0
    5.6110  -11.9980  -24.0540 C   0  0  0  0  0
    5.2730  -13.3350  -24.6470 C   0  0  0  0  0
    6.4270  -14.0140  -25.3970 C   0  0  0  0  0
    6.6140  -13.3680  -26.7740 C   0  0  0  0  0
    6.1040  -15.4940  -25.5890 C   0  0  0  0  0
    7.7090  -13.8620  -24.5640 C   0  0  0  0  0
    8.0220  -12.4580  -24.0960 C   0  0  0  0  0
    9.1880  -12.0990  -23.9940 O   0  0  0  0  0
    6.8940  -11.5410  -23.8220 C   0  0  0  0  0
    6.7770  -10.1940  -23.3270 C   0  0  0  0  0
    7.8760   -9.2340  -22.9550 C   0  0  0  0  0
   -2.5623  -11.9246  -24.8905 H   0  0  0  0  0
   -1.8945  -13.3917  -23.1869 H   0  0  0  0  0
   -1.2987  -11.8688  -22.5006 H   0  0  0  0  0
    0.2166  -13.8869  -24.1722 H   0  0  0  0  0
    0.5529  -13.3543  -22.4879 H   0  0  0  0  0
    2.8184  -12.7103  -22.9022 H   0  0  0  0  0
    0.4887   -9.0816  -26.9176 H   0  0  0  0  0
    2.1170   -8.2802  -26.4589 H   0  0  0  0  0
   -0.5295   -7.9800  -25.1168 H   0  0  0  0  0
    1.1021   -6.0811  -26.8793 H   0  0  0  0  0
   -0.4469   -6.8429  -27.3167 H   0  0  0  0  0
   -0.3877   -5.6296  -26.0146 H   0  0  0  0  0
    1.2171   -7.7457  -23.4896 H   0  0  0  0  0
    2.0772   -6.5796  -24.5248 H   0  0  0  0  0
    0.4903   -6.1573  -23.8360 H   0  0  0  0  0
    3.5385   -9.1610  -25.2301 H   0  0  0  0  0
    5.0268   -8.9682  -22.9295 H   0  0  0  0  0
    4.4774  -13.1681  -25.3731 H   0  0  0  0  0
    5.0036  -13.9905  -23.8188 H   0  0  0  0  0
    5.6971  -13.4779  -27.3530 H   0  0  0  0  0
    6.8419  -12.3094  -26.6494 H   0  0  0  0  0
    7.4356  -13.8589  -27.2956 H   0  0  0  0  0
    5.9741  -15.9656  -24.6149 H   0  0  0  0  0
    5.1851  -15.5920  -26.1670 H   0  0  0  0  0
    6.9231  -15.9772  -26.1216 H   0  0  0  0  0
    8.5344  -14.1646  -25.2084 H   0  0  0  0  0
    7.5676  -14.4632  -23.6659 H   0  0  0  0  0
    7.8148   -8.3500  -23.5898 H   0  0  0  0  0
    7.7634   -8.9417  -21.9110 H   0  0  0  0  0
    8.8425   -9.7179  -23.0959 H   0  0  0  0  0
  1  2  2  0  0  0
  2  3  1  0  0  0
  2  8  1  0  0  0
  3  4  1  0  0  0
  4  5  1  0  0  0
  5  6  1  0  0  0
  6  7  4  0  0  0
  6  8  4  0  0  0
  7 15  4  0  0  0
  8  9  4  0  0  0
  9 10  1  0  0  0
  9 14  4  0  0  0
 10 11  1  0  0  0
 11 12  1  0  0  0
 11 13  1  0  0  0
 14 15  4  0  0  0
 15 16  1  0  0  0
 16 17  4  0  0  0
 16 18  4  0  0  0
 17 27  4  0  0  0
 18 19  1  0  0  0
 18 26  4  0  0  0
 19 20  1  0  0  0
 20 21  1  0  0  0
 20 22  1  0  0  0
 20 23  1  0  0  0
 23 24  1  0  0  0
 24 25  2  0  0  0
 24 26  1  0  0  0
 26 27  4  0  0  0
 27 28  1  0  0  0
  3 29  1  0  0  0
  4 30  1  0  0  0
  4 31  1  0  0  0
  5 32  1  0  0  0
  5 33  1  0  0  0
  7 34  1  0  0  0
 10 35  1  0  0  0
 10 36  1  0  0  0
 11 37  1  0  0  0
 12 38  1  0  0  0
 12 39  1  0  0  0
 12 40  1  0  0  0
 13 41  1  0  0  0
 13 42  1  0  0  0
 13 43  1  0  0  0
 14 44  1  0  0  0
 17 45  1  0  0  0
 19 46  1  0  0  0
 19 47  1  0  0  0
 21 48  1  0  0  0
 21 49  1  0  0  0
 21 50  1  0  0  0
 22 51  1  0  0  0
 22 52  1  0  0  0
 22 53  1  0  0  0
 23 54  1  0  0  0
 23 55  1  0  0  0
 28 56  1  0  0  0
 28 57  1  0  0  0
 28 58  1  0  0  0
M  END
$$$$
