1vzq_ligand
  -I-interpret- 

 58 63  0  0  0  0  0  0  0  0999 V2000
   11.2730   -9.8910   24.4230 N   0  0  0  0  0
   11.5310  -10.9910   23.6610 C   0  0  0  0  0
   10.7380  -12.0870   23.8820 N   0  0  0  0  0
   12.6280  -11.0420   22.7280 C   0  0  0  0  0
   13.3690   -9.8970   22.4750 C   0  0  0  0  0
   14.4520   -9.9450   21.5940 C   0  0  0  0  0
   14.8080  -11.1520   20.9470 C   0  0  0  0  0
   14.0210  -12.2790   21.1820 C   0  0  0  0  0
   12.9520  -12.2380   22.0500 C   0  0  0  0  0
   16.0330  -11.1260   20.0470 C   0  0  0  0  0
   15.9840  -12.2420   19.0630 N   0  3  0  0  0
   15.1070  -11.8710   17.9050 C   0  0  0  0  0
   15.9910  -11.7140   16.6510 C   0  0  0  0  0
   17.3470  -11.3690   17.2850 C   0  0  0  0  0
   17.3700  -12.2570   18.5040 C   0  0  0  0  0
   18.3570  -11.6980   19.5540 C   0  0  0  0  0
   19.1540  -12.7910   20.1560 C   0  0  0  0  0
   18.5860  -13.2780   21.3270 N   0  0  0  0  0
   17.4670  -12.4790   21.6720 C   0  0  0  0  0
   16.7470  -12.7340   22.6270 O   0  0  0  0  0
   17.3990  -11.2870   20.7360 C   0  0  0  0  0
   18.9930  -14.4320   22.1400 C   0  0  0  0  0
   20.0690  -14.1490   23.1270 C   0  0  0  0  0
   19.6810  -13.8530   24.4260 C   0  0  0  0  0
   20.5780  -13.5150   25.4190 C   0  0  0  0  0
   21.9210  -13.4690   25.0290 C   0  0  0  0  0
   22.9690  -13.1850   25.8140 O   0  0  0  0  0
   24.1320  -13.2920   24.9510 C   0  0  0  0  0
   16.1570  -12.9510   15.9450 O   0  0  0  0  0
   23.6860  -13.7380   23.6270 O   0  0  0  0  0
   22.3270  -13.7490   23.7400 C   0  0  0  0  0
   21.4170  -14.1010   22.7560 C   0  0  0  0  0
   20.1560  -13.3290   19.7070 O   0  0  0  0  0
   11.8664   -9.0652   24.3439 H   0  0  0  0  0
   10.0017  -12.0500   24.5869 H   0  0  0  0  0
   10.8842  -12.9396   23.3416 H   0  0  0  0  0
   13.1060   -8.9590   22.9640 H   0  0  0  0  0
   15.0302   -9.0411   21.4025 H   0  0  0  0  0
   14.2564  -13.2112   20.6685 H   0  0  0  0  0
   12.3528  -13.1336   22.2145 H   0  0  0  0  0
   15.9766  -10.1277   19.6130 H   0  0  0  0  0
   15.6546  -13.1083   19.4890 H   0  0  0  0  0
   14.5902  -10.9346   18.1151 H   0  0  0  0  0
   14.3614  -12.6486   17.7392 H   0  0  0  0  0
   15.5790  -10.9973   15.9405 H   0  0  0  0  0
   17.4506  -10.3107   17.5245 H   0  0  0  0  0
   18.1890  -11.5408   16.6145 H   0  0  0  0  0
   17.6897  -13.2667   18.2463 H   0  0  0  0  0
   19.0017  -10.9341   19.1195 H   0  0  0  0  0
   17.6257  -10.3796   21.2957 H   0  0  0  0  0
   19.3828  -15.1826   21.4524 H   0  0  0  0  0
   18.1166  -14.7450   22.7074 H   0  0  0  0  0
   18.6200  -13.8891   24.6733 H   0  0  0  0  0
   20.2613  -13.2983   26.4392 H   0  0  0  0  0
   24.8406  -14.0083   25.3669 H   0  0  0  0  0
   24.6278  -12.3246   24.8714 H   0  0  0  0  0
   16.7118  -12.8067   15.1750 H   0  0  0  0  0
   21.7369  -14.3300   21.7395 H   0  0  0  0  0
  1  2  2  0  0  0
  2  3  1  0  0  0
  2  4  1  0  0  0
  4  5  4  0  0  0
  4  9  4  0  0  0
  5  6  4  0  0  0
  6  7  4  0  0  0
  7  8  4  0  0  0
  7 10  1  0  0  0
  8  9  4  0  0  0
 10 11  1  0  0  0
 10 21  1  0  0  0
 11 12  1  0  0  0
 11 15  1  0  0  0
 12 13  1  0  0  0
 13 14  1  0  0  0
 13 29  1  0  0  0
 14 15  1  0  0  0
 15 16  1  0  0  0
 16 17  1  0  0  0
 16 21  1  0  0  0
 17 18  1  0  0  0
 17 33  2  0  0  0
 18 19  1  0  0  0
 18 22  1  0  0  0
 19 20  2  0  0  0
 19 21  1  0  0  0
 22 23  1  0  0  0
 23 24  4  0  0  0
 23 32  4  0  0  0
 24 25  4  0  0  0
 25 26  4  0  0  0
 26 27  1  0  0  0
 26 31  4  0  0  0
 27 28  1  0  0  0
 28 30  1  0  0  0
 30 31  1  0  0  0
 31 32  4  0  0  0
  1 34  1  0  0  0
  3 35  1  0  0  0
  3 36  1  0  0  0
  5 37  1  0  0  0
  6 38  1  0  0  0
  8 39  1  0  0  0
  9 40  1  0  0  0
 10 41  1  0  0  0
 11 42  1  0  0  0
 12 43  1  0  0  0
 12 44  1  0  0  0
 13 45  1  0  0  0
 14 46  1  0  0  0
 14 47  1  0  0  0
 15 48  1  0  0  0
 16 49  1  0  0  0
 21 50  1  0  0  0
 22 51  1  0  0  0
 22 52  1  0  0  0
 24 53  1  0  0  0
 25 54  1  0  0  0
 28 55  1  0  0  0
 28 56  1  0  0  0
 29 57  1  0  0  0
 32 58  1  0  0  0
M  END
$$$$
