1btn_ligand
  -I-interpret- 

 39 39  0  0  0  0  0  0  0  0999 V2000
    2.9720   57.1700   28.8190 C   0  0  0  0  0
    2.4020   58.3430   28.1350 C   0  0  0  0  0
    1.4030   57.9360   27.0360 C   0  0  0  0  0
    0.3390   57.0300   27.6070 C   0  0  0  0  0
    1.0100   55.8010   28.2000 C   0  0  0  0  0
    1.9660   56.2270   29.3130 C   0  0  0  0  0
    3.9250   57.5400   29.8890 O   0  0  0  0  0
    1.7800   59.2290   29.0640 O   0  0  0  0  0
    0.7800   59.0900   26.5110 O   0  0  0  0  0
   -0.5670   56.7020   26.5080 O   0  0  0  0  0
   -0.0140   54.9490   28.7810 O   0  0  0  0  0
    2.5840   55.0740   29.9100 O   0  0  0  0  0
    5.3330   57.8810   29.8540 P   0  0  0  0  0
    5.4030   59.2600   29.6600 O   0  0  0  0  0
    5.8470   57.1720   28.7090 O   0  0  0  0  0
    6.0190   57.2350   30.8790 O   0  0  0  0  0
   -1.9800   57.0140   26.2900 P   0  0  0  0  0
   -2.7620   56.8830   27.4260 O   0  0  0  0  0
   -1.8490   58.3970   26.0960 O   0  0  0  0  0
   -2.3680   56.6220   25.0320 O   0  0  0  0  0
   -0.3600   53.6560   28.4800 P   0  0  0  0  0
   -1.6900   53.6490   28.3100 O   0  0  0  0  0
    0.1900   53.1570   27.2850 O   0  0  0  0  0
    0.2120   52.9030   29.4380 O   0  0  0  0  0
    3.5313   56.6461   28.0439 H   0  0  0  0  0
    3.2309   58.8654   27.6573 H   0  0  0  0  0
    1.9456   57.4109   26.2499 H   0  0  0  0  0
   -0.2312   57.4986   28.4091 H   0  0  0  0  0
    1.5590   55.2724   27.4207 H   0  0  0  0  0
    1.3874   56.7419   30.0799 H   0  0  0  0  0
    2.4127   59.4747   29.7429 H   0  0  0  0  0
    1.4479   59.6742   26.1447 H   0  0  0  0  0
    3.1810   55.3569   30.6065 H   0  0  0  0  0
    4.8614   59.5038   28.9058 H   0  0  0  0  0
    5.4477   57.5242   27.9102 H   0  0  0  0  0
   -2.2825   57.2245   28.1843 H   0  0  0  0  0
   -1.5747   58.8098   26.9182 H   0  0  0  0  0
    1.1472   53.1418   27.3565 H   0  0  0  0  0
    1.1634   53.0295   29.4174 H   0  0  0  0  0
  1  2  1  0  0  0
  1  6  1  0  0  0
  1  7  1  0  0  0
  2  3  1  0  0  0
  2  8  1  0  0  0
  3  4  1  0  0  0
  3  9  1  0  0  0
  4  5  1  0  0  0
  4 10  1  0  0  0
  5  6  1  0  0  0
  5 11  1  0  0  0
  6 12  1  0  0  0
  7 13  1  0  0  0
 10 17  1  0  0  0
 11 21  1  0  0  0
 13 14  1  0  0  0
 13 15  1  0  0  0
 13 16  2  0  0  0
 17 18  1  0  0  0
 17 19  1  0  0  0
 17 20  2  0  0  0
 21 22  2  0  0  0
 21 23  1  0  0  0
 21 24  1  0  0  0
  1 25  1  0  0  0
  2 26  1  0  0  0
  3 27  1  0  0  0
  4 28  1  0  0  0
  5 29  1  0  0  0
  6 30  1  0  0  0
  8 31  1  0  0  0
  9 32  1  0  0  0
 12 33  1  0  0  0
 14 34  1  0  0  0
 15 35  1  0  0  0
 18 36  1  0  0  0
 19 37  1  0  0  0
 23 38  1  0  0  0
 24 39  1  0  0  0
M  END
$$$$
