### 
### Created by X-TOOL on Mon Sep 10 21:12:45 2018
### 

@<TRIPOS>MOLECULE
1btn_ligand
   33    33     1     0     0
SMALL
GAST_HUCK


@<TRIPOS>ATOM
      1 C1          2.9720   57.1700   28.8190 C.3       1 I3P         0.1460
      2 C2          2.4020   58.3430   28.1350 C.3       1 I3P         0.1168
      3 C3          1.4030   57.9360   27.0360 C.3       1 I3P         0.1172
      4 C4          0.3390   57.0300   27.6070 C.3       1 I3P         0.1503
      5 C5          1.0100   55.8010   28.2000 C.3       1 I3P         0.1506
      6 C6          1.9660   56.2270   29.3130 C.3       1 I3P         0.1215
      7 O1          3.9250   57.5400   29.8890 O.3       1 I3P        -0.2676
      8 O2          1.7800   59.2290   29.0640 O.3       1 I3P        -0.3861
      9 O3          0.7800   59.0900   26.5110 O.3       1 I3P        -0.3861
     10 O4         -0.5670   56.7020   26.5080 O.3       1 I3P        -0.2672
     11 O5         -0.0140   54.9490   28.7810 O.3       1 I3P        -0.2672
     12 O6          2.5840   55.0740   29.9100 O.3       1 I3P        -0.3858
     13 P1          5.3330   57.8810   29.8540 P.3       1 I3P         0.2013
     14 O11         5.4030   59.2600   29.6600 O.co2     1 I3P        -0.5537
     15 O12         5.8470   57.1720   28.7090 O.co2     1 I3P        -0.5537
     16 O13         6.0190   57.2350   30.8790 O.co2     1 I3P        -0.5537
     17 P4         -1.9800   57.0140   26.2900 P.3       1 I3P         0.2013
     18 O41        -2.7620   56.8830   27.4260 O.co2     1 I3P        -0.5537
     19 O42        -1.8490   58.3970   26.0960 O.co2     1 I3P        -0.5537
     20 O43        -2.3680   56.6220   25.0320 O.co2     1 I3P        -0.5537
     21 P5         -0.3600   53.6560   28.4800 P.3       1 I3P         0.2013
     22 O51        -1.6900   53.6490   28.3100 O.co2     1 I3P        -0.5537
     23 O52         0.1900   53.1570   27.2850 O.co2     1 I3P        -0.5537
     24 O53         0.2120   52.9030   29.4380 O.co2     1 I3P        -0.5537
     25 H1          3.5530   56.6292   28.0574 H         1 I3P         0.0703
     26 H2          3.2304   58.8834   27.6536 H         1 I3P         0.0650
     27 H3          1.9405   57.4097   26.2335 H         1 I3P         0.0650
     28 H4         -0.2195   57.5509   28.3987 H         1 I3P         0.0706
     29 H5          1.5595   55.2574   27.4174 H         1 I3P         0.0706
     30 H6          1.3776   56.7380   30.0893 H         1 I3P         0.0654
     31 H7          1.4848   60.0083   28.6077 H         1 I3P         0.2100
     32 H8          1.4409   59.6681   26.1485 H         1 I3P         0.2100
     33 H9          1.9127   54.5103   30.2764 H         1 I3P         0.2100
@<TRIPOS>BOND
     1    1    2 1  
     2    1    6 1  
     3    1    7 1  
     4    2    3 1  
     5    2    8 1  
     6    3    4 1  
     7    3    9 1  
     8    4    5 1  
     9    4   10 1  
    10    5    6 1  
    11    5   11 1  
    12    6   12 1  
    13    7   13 1  
    14   10   17 1  
    15   11   21 1  
    16   13   14 ar 
    17   13   15 ar 
    18   13   16 ar 
    19   17   18 ar 
    20   17   19 ar 
    21   17   20 ar 
    22   21   22 ar 
    23   21   23 ar 
    24   21   24 ar 
    25    1   25 1  
    26    2   26 1  
    27    3   27 1  
    28    4   28 1  
    29    5   29 1  
    30    6   30 1  
    31    8   31 1  
    32    9   32 1  
    33   12   33 1  
@<TRIPOS>SUBSTRUCTURE
     1 I3P         1

