5acy_ligand
  -I-interpret- 

 70 74  0  0  0  0  0  0  0  0999 V2000
   -3.7220  -10.0140   18.1450 O   0  0  0  0  0
   -3.3860   -8.9830   18.7270 C   0  0  0  0  0
   -4.1430   -7.6960   18.5380 C   0  0  0  0  0
   -2.2900   -9.0140   19.5920 N   0  0  0  0  0
   -1.5960  -10.3250   19.7300 C   0  0  0  0  0
   -0.5220  -10.4870   18.6640 C   0  0  0  0  0
   -1.7900   -7.8980   20.3300 C   0  0  0  0  0
   -1.4430   -8.0980   21.6670 C   0  0  0  0  0
   -1.6440   -9.5080   22.1470 C   0  0  0  0  0
   -1.1560   -9.7270   23.4960 N   0  0  0  0  0
   -1.8320   -9.3730   24.6610 C   0  0  0  0  0
   -1.1270   -9.2670   25.8540 C   0  0  0  0  0
   -1.7890   -8.9360   27.0250 C   0  0  0  0  0
   -3.1490   -8.7070   27.0160 C   0  0  0  0  0
   -3.8520   -8.8170   25.8370 C   0  0  0  0  0
   -3.2020   -9.1420   24.6610 C   0  0  0  0  0
   -1.0540  -10.5090   21.1570 C   0  0  0  0  0
   -1.6350   -6.6310   19.7700 C   0  0  0  0  0
   -1.1500   -5.5800   20.5210 C   0  0  0  0  0
   -0.7890   -5.7600   21.8600 C   0  0  0  0  0
   -0.9460   -7.0380   22.4170 C   0  0  0  0  0
   -0.2600   -4.5990   22.6890 C   0  0  0  0  0
   -0.7170   -3.3020   22.4790 C   0  0  0  0  0
   -0.2510   -2.2480   23.2430 C   0  0  0  0  0
    0.7080   -2.4500   24.2250 C   0  0  0  0  0
    1.1590   -3.7500   24.4410 C   0  0  0  0  0
    0.6920   -4.8040   23.6770 C   0  0  0  0  0
    1.2110   -1.3020   25.0740 C   0  0  0  0  0
    2.4510   -0.6670   24.6000 N   0  3  0  0  0
    2.9860    0.2450   25.6230 C   0  0  0  0  0
    4.2600    0.9410   25.1870 C   0  0  0  0  0
    5.3210   -0.0640   24.7850 C   0  0  0  0  0
    4.7690   -1.0400   23.7690 C   0  0  0  0  0
    3.4730   -1.6640   24.2560 C   0  0  0  0  0
   -4.1156   -7.4109   17.4863 H   0  0  0  0  0
   -5.1777   -7.8352   18.8512 H   0  0  0  0  0
   -3.6820   -6.9130   19.1401 H   0  0  0  0  0
   -2.3194  -11.1235   19.5651 H   0  0  0  0  0
    0.2596   -9.7439   18.8217 H   0  0  0  0  0
   -0.0933  -11.4869   18.7310 H   0  0  0  0  0
   -0.9658  -10.3459   17.6785 H   0  0  0  0  0
   -2.7203   -9.6732   22.1952 H   0  0  0  0  0
   -0.2458  -10.1757   23.5991 H   0  0  0  0  0
   -0.0517   -9.4446   25.8683 H   0  0  0  0  0
   -1.2320   -8.8561   27.9585 H   0  0  0  0  0
   -3.6652   -8.4401   27.9382 H   0  0  0  0  0
   -4.9286   -8.6466   25.8310 H   0  0  0  0  0
   -3.7659   -9.2172   23.7312 H   0  0  0  0  0
    0.0244  -10.3533   21.1273 H   0  0  0  0  0
   -1.3269  -11.5099   21.4914 H   0  0  0  0  0
   -1.9003   -6.4684   18.7254 H   0  0  0  0  0
   -1.0468   -4.5957   20.0642 H   0  0  0  0  0
   -0.6727   -7.2033   23.4592 H   0  0  0  0  0
   -1.4548   -3.1135   21.6991 H   0  0  0  0  0
   -0.6422   -1.2452   23.0715 H   0  0  0  0  0
    1.8920   -3.9398   25.2251 H   0  0  0  0  0
    1.0768   -5.8084   23.8534 H   0  0  0  0  0
    1.4278   -1.7138   26.0597 H   0  0  0  0  0
    0.4379   -0.5340   25.0507 H   0  0  0  0  0
    2.2179   -0.1399   23.7584 H   0  0  0  0  0
    3.2173   -0.3475   26.5082 H   0  0  0  0  0
    2.2350    1.0127   25.8093 H   0  0  0  0  0
    4.6377    1.5318   26.0215 H   0  0  0  0  0
    4.0354    1.5734   24.3281 H   0  0  0  0  0
    5.6392   -0.6158   25.6695 H   0  0  0  0  0
    6.1635    0.4682   24.3433 H   0  0  0  0  0
    5.5008   -1.8329   23.6145 H   0  0  0  0  0
    4.5698   -0.5023   22.8420 H   0  0  0  0  0
    3.0773   -2.2809   23.4492 H   0  0  0  0  0
    3.6970   -2.2350   25.1571 H   0  0  0  0  0
  1  2  2  0  0  0
  2  3  1  0  0  0
  2  4  1  0  0  0
  4  5  1  0  0  0
  4  7  1  0  0  0
  5  6  1  0  0  0
  5 17  1  0  0  0
  7  8  4  0  0  0
  7 18  4  0  0  0
  8  9  1  0  0  0
  8 21  4  0  0  0
  9 10  1  0  0  0
  9 17  1  0  0  0
 10 11  1  0  0  0
 11 12  4  0  0  0
 11 16  4  0  0  0
 12 13  4  0  0  0
 13 14  4  0  0  0
 14 15  4  0  0  0
 15 16  4  0  0  0
 18 19  4  0  0  0
 19 20  4  0  0  0
 20 21  4  0  0  0
 20 22  1  0  0  0
 22 23  4  0  0  0
 22 27  4  0  0  0
 23 24  4  0  0  0
 24 25  4  0  0  0
 25 26  4  0  0  0
 25 28  1  0  0  0
 26 27  4  0  0  0
 28 29  1  0  0  0
 29 30  1  0  0  0
 29 34  1  0  0  0
 30 31  1  0  0  0
 31 32  1  0  0  0
 32 33  1  0  0  0
 33 34  1  0  0  0
  3 35  1  0  0  0
  3 36  1  0  0  0
  3 37  1  0  0  0
  5 38  1  0  0  0
  6 39  1  0  0  0
  6 40  1  0  0  0
  6 41  1  0  0  0
  9 42  1  0  0  0
 10 43  1  0  0  0
 12 44  1  0  0  0
 13 45  1  0  0  0
 14 46  1  0  0  0
 15 47  1  0  0  0
 16 48  1  0  0  0
 17 49  1  0  0  0
 17 50  1  0  0  0
 18 51  1  0  0  0
 19 52  1  0  0  0
 21 53  1  0  0  0
 23 54  1  0  0  0
 24 55  1  0  0  0
 26 56  1  0  0  0
 27 57  1  0  0  0
 28 58  1  0  0  0
 28 59  1  0  0  0
 29 60  1  0  0  0
 30 61  1  0  0  0
 30 62  1  0  0  0
 31 63  1  0  0  0
 31 64  1  0  0  0
 32 65  1  0  0  0
 32 66  1  0  0  0
 33 67  1  0  0  0
 33 68  1  0  0  0
 34 69  1  0  0  0
 34 70  1  0  0  0
M  END
$$$$
