6a8g_ligand
  -I-interpret- 

155158  0  0  0  0  0  0  0  0999 V2000
   55.7500  -41.9250   29.5290 C   0  0  0  0  0
   55.2700  -41.2280   28.6300 O   0  0  0  0  0
   56.0640  -41.3510   30.8870 C   0  0  0  0  0
   56.0140  -43.2310   29.3700 N   0  0  0  0  0
   55.8040  -43.9320   28.1030 C   0  0  0  0  0
   55.0830  -45.2800   28.1710 C   0  0  0  0  0
   55.6590  -46.2700   28.6000 O   0  0  0  0  0
   57.1530  -44.1440   27.4270 C   0  0  0  0  0
   57.9630  -42.5930   27.0560 S   0  0  0  0  0
   53.8360  -45.3110   27.7120 N   0  0  0  0  0
   53.0960  -46.5780   27.6420 C   0  0  0  0  0
   53.1310  -47.3440   26.3200 C   0  0  0  0  0
   52.1300  -47.3510   25.6090 O   0  0  0  0  0
   51.6590  -46.1360   27.9400 C   0  0  0  0  0
   51.6060  -44.7590   27.4520 C   0  0  0  0  0
   52.9330  -44.1550   27.7700 C   0  0  0  0  0
   54.2250  -48.0070   25.9790 N   0  0  0  0  0
   54.2270  -49.1000   24.9960 C   0  0  0  0  0
   53.5870  -48.8200   23.6310 C   0  0  0  0  0
   54.2350  -49.0580   22.6110 O   0  0  0  0  0
   53.5730  -50.3420   25.5820 C   0  0  0  0  0
   52.3310  -48.3630   23.5770 N   0  0  0  0  0
   51.6900  -47.9660   22.3240 C   0  0  0  0  0
   51.7660  -46.4600   22.0740 C   0  0  0  0  0
   50.9050  -45.9080   21.3840 O   0  0  0  0  0
   50.2290  -48.4140   22.2990 C   0  0  0  0  0
   50.0400  -49.9160   22.3070 C   0  0  0  0  0
   51.1280  -50.7890   22.1810 C   0  0  0  0  0
   48.7720  -50.4700   22.4420 C   0  0  0  0  0
   50.9500  -52.1620   22.1830 C   0  0  0  0  0
   48.5920  -51.8570   22.4420 C   0  0  0  0  0
   49.6790  -52.6840   22.3210 C   0  0  0  0  0
   49.4860  -54.0340   22.3100 O   0  0  0  0  0
   52.7570  -45.7850   22.6440 N   0  0  0  0  0
   52.9020  -44.3510   22.4630 C   0  0  0  0  0
   53.3180  -44.0410   21.0240 C   0  0  0  0  0
   53.9980  -44.8360   20.3770 O   0  0  0  0  0
   53.9410  -43.8280   23.4590 C   0  0  0  0  0
   54.3720  -42.5080   23.2100 O   0  0  0  0  0
   52.9060  -42.8730   20.5230 N   0  0  0  0  0
   53.4140  -42.3530   19.2570 C   0  0  0  0  0
   54.1770  -41.0540   19.4630 C   0  0  0  0  0
   54.3090  -40.2680   18.5220 O   0  0  0  0  0
   52.2820  -42.1420   18.2450 C   0  0  0  0  0
   51.7030  -43.4600   17.7650 C   0  0  0  0  0
   50.4330  -43.3360   16.9220 C   0  0  0  0  0
   50.1520  -44.6500   16.3770 N   0  0  0  0  0
   49.2230  -44.9340   15.4770 C   0  0  0  0  0
   48.4300  -43.9920   14.9940 N   0  0  0  0  0
   49.0870  -46.1840   15.0710 N   0  0  0  0  0
   54.6650  -40.8320   20.6900 N   0  0  0  0  0
   55.3770  -39.6250   21.0870 C   0  0  0  0  0
   56.8510  -39.7240   20.6990 C   0  0  0  0  0
   57.4890  -40.7640   20.8810 O   0  0  0  0  0
   55.2290  -39.4200   22.6150 C   0  0  0  0  0
   55.9410  -38.1890   23.1710 C   0  0  0  0  0
   55.8360  -36.9620   22.5260 C   0  0  0  0  0
   56.7320  -38.2560   24.3290 C   0  0  0  0  0
   56.4830  -35.8420   22.9940 C   0  0  0  0  0
   57.3970  -37.1230   24.8150 C   0  0  0  0  0
   57.2590  -35.9100   24.1430 C   0  0  0  0  0
   57.9010  -34.7520   24.5780 O   0  0  0  0  0
   57.3960  -38.6210   20.1820 N   0  0  0  0  0
   58.8030  -38.5730   19.7900 C   0  0  0  0  0
   59.7220  -38.7760   20.9940 C   0  0  0  0  0
   60.8410  -39.2820   20.8520 O   0  0  0  0  0
   59.0810  -37.2320   19.0710 C   0  0  0  0  0
   60.0020  -37.3960   17.8890 C   0  0  0  0  0
   59.7680  -36.2230   19.9660 C   0  0  0  0  0
   60.0370  -36.1390   17.1140 C   0  0  0  0  0
   59.2840  -38.3750   22.1890 N   0  0  0  0  0
   60.0700  -38.5610   23.3860 C   0  0  0  0  0
   59.9390  -39.9090   24.0730 C   0  0  0  0  0
   60.3550  -40.0470   25.2290 O   0  0  0  0  0
   59.3520  -40.9000   23.4010 N   0  0  0  0  0
   59.3120  -42.2960   23.8470 C   0  0  0  0  0
   59.9850  -43.1880   22.8110 C   0  0  0  0  0
   60.6170  -42.6920   21.8850 O   0  0  0  0  0
   57.8760  -42.7680   24.0590 C   0  0  0  0  0
   56.9980  -41.9490   25.3680 S   0  0  0  0  0
   59.8190  -44.4980   22.9460 N   0  0  0  0  0
   56.7910  -40.5458   30.7805 H   0  0  0  0  0
   55.1503  -40.9604   31.3350 H   0  0  0  0  0
   56.4770  -42.1332   31.5240 H   0  0  0  0  0
   56.3761  -43.7569   30.1654 H   0  0  0  0  0
   55.1333  -43.2814   27.5417 H   0  0  0  0  0
   56.9864  -44.6756   26.4901 H   0  0  0  0  0
   57.7910  -44.7092   28.1064 H   0  0  0  0  0
   53.5487  -47.2937   28.3282 H   0  0  0  0  0
   51.4149  -46.2091   28.9998 H   0  0  0  0  0
   50.9206  -46.7753   27.4560 H   0  0  0  0  0
   50.7970  -44.2040   27.9270 H   0  0  0  0  0
   51.4062  -44.7285   26.3809 H   0  0  0  0  0
   53.2149  -43.3602   27.0794 H   0  0  0  0  0
   52.9499  -43.6503   28.7360 H   0  0  0  0  0
   55.1078  -47.7473   26.4189 H   0  0  0  0  0
   55.2888  -49.2371   24.7911 H   0  0  0  0  0
   54.1252  -50.6587   26.4668 H   0  0  0  0  0
   52.5434  -50.1134   25.8572 H   0  0  0  0  0
   53.5834  -51.1408   24.8404 H   0  0  0  0  0
   51.7992  -48.2885   24.4442 H   0  0  0  0  0
   52.2418  -48.4622   21.5256 H   0  0  0  0  0
   49.7939  -48.0401   21.3722 H   0  0  0  0  0
   49.7582  -48.0259   23.2022 H   0  0  0  0  0
   52.1332  -50.3800   22.0795 H   0  0  0  0  0
   47.9073  -49.8151   22.5492 H   0  0  0  0  0
   51.8074  -52.8265   22.0764 H   0  0  0  0  0
   47.5915  -52.2789   22.5378 H   0  0  0  0  0
   48.5509  -54.2233   22.4164 H   0  0  0  0  0
   53.4322  -46.2849   23.2224 H   0  0  0  0  0
   51.9494  -43.8549   22.6486 H   0  0  0  0  0
   54.8166  -44.4719   23.3764 H   0  0  0  0  0
   53.4720  -43.8317   24.4429 H   0  0  0  0  0
   55.0186  -42.2534   23.8723 H   0  0  0  0  0
   52.2160  -42.3284   21.0404 H   0  0  0  0  0
   54.0998  -43.0988   18.8552 H   0  0  0  0  0
   52.6870  -41.6114   17.3833 H   0  0  0  0  0
   51.4880  -41.5758   18.7319 H   0  0  0  0  0
   51.4368  -44.0306   18.6548 H   0  0  0  0  0
   52.4584  -43.9245   17.1313 H   0  0  0  0  0
   50.5724  -42.6095   16.1214 H   0  0  0  0  0
   49.5997  -42.9863   17.5314 H   0  0  0  0  0
   50.7209  -45.4251   16.7174 H   0  0  0  0  0
   47.7136  -44.2306   14.3082 H   0  0  0  0  0
   48.5348  -43.0270   15.3073 H   0  0  0  0  0
   49.6923  -46.9121   15.4502 H   0  0  0  0  0
   54.5289  -41.5572   21.3943 H   0  0  0  0  0
   54.9481  -38.7674   20.5687 H   0  0  0  0  0
   55.6799  -40.2887   23.0948 H   0  0  0  0  0
   54.1657  -39.2858   22.8136 H   0  0  0  0  0
   55.2253  -36.8855   21.6264 H   0  0  0  0  0
   56.8301  -39.2040   24.8579 H   0  0  0  0  0
   56.3859  -34.8967   22.4602 H   0  0  0  0  0
   58.0161  -37.1894   25.7097 H   0  0  0  0  0
   58.3979  -34.9437   25.3767 H   0  0  0  0  0
   56.8163  -37.7911   20.0574 H   0  0  0  0  0
   59.0148  -39.3905   19.1008 H   0  0  0  0  0
   58.0927  -36.8868   18.7673 H   0  0  0  0  0
   59.6383  -38.2041   17.2544 H   0  0  0  0  0
   61.0058  -37.6340   18.2408 H   0  0  0  0  0
   59.1361  -36.0157   20.8296 H   0  0  0  0  0
   60.7228  -36.6277   20.3016 H   0  0  0  0  0
   59.9381  -35.3016   19.4090 H   0  0  0  0  0
   59.0327  -35.9021   16.7628 H   0  0  0  0  0
   60.4008  -35.3317   17.7497 H   0  0  0  0  0
   60.7032  -36.2588   16.2597 H   0  0  0  0  0
   58.3709  -37.9257   22.2587 H   0  0  0  0  0
   59.7144  -37.8195   24.1014 H   0  0  0  0  0
   61.1130  -38.4754   23.0811 H   0  0  0  0  0
   58.8998  -40.6710   22.5159 H   0  0  0  0  0
   59.8424  -42.3607   24.7971 H   0  0  0  0  0
   57.9293  -43.8226   24.3292 H   0  0  0  0  0
   57.3360  -42.5530   23.1369 H   0  0  0  0  0
   60.2255  -45.1367   22.2625 H   0  0  0  0  0
   59.2849  -44.8660   23.7332 H   0  0  0  0  0
  1  2  2  0  0  0
  1  3  1  0  0  0
  1  4  1  0  0  0
  4  5  1  0  0  0
  5  6  1  0  0  0
  5  8  1  0  0  0
  6  7  2  0  0  0
  6 10  1  0  0  0
  8  9  1  0  0  0
  9 80  1  0  0  0
 10 11  1  0  0  0
 10 16  1  0  0  0
 11 12  1  0  0  0
 11 14  1  0  0  0
 12 13  2  0  0  0
 12 17  1  0  0  0
 14 15  1  0  0  0
 15 16  1  0  0  0
 17 18  1  0  0  0
 18 19  1  0  0  0
 18 21  1  0  0  0
 19 20  2  0  0  0
 19 22  1  0  0  0
 22 23  1  0  0  0
 23 24  1  0  0  0
 23 26  1  0  0  0
 24 25  2  0  0  0
 24 34  1  0  0  0
 26 27  1  0  0  0
 27 28  4  0  0  0
 27 29  4  0  0  0
 28 30  4  0  0  0
 29 31  4  0  0  0
 30 32  4  0  0  0
 31 32  4  0  0  0
 32 33  1  0  0  0
 34 35  1  0  0  0
 35 36  1  0  0  0
 35 38  1  0  0  0
 36 37  2  0  0  0
 36 40  1  0  0  0
 38 39  1  0  0  0
 40 41  1  0  0  0
 41 42  1  0  0  0
 41 44  1  0  0  0
 42 43  2  0  0  0
 42 51  1  0  0  0
 44 45  1  0  0  0
 45 46  1  0  0  0
 46 47  1  0  0  0
 47 48  1  0  0  0
 48 49  1  0  0  0
 48 50  2  0  0  0
 51 52  1  0  0  0
 52 53  1  0  0  0
 52 55  1  0  0  0
 53 54  2  0  0  0
 53 63  1  0  0  0
 55 56  1  0  0  0
 56 57  4  0  0  0
 56 58  4  0  0  0
 57 59  4  0  0  0
 58 60  4  0  0  0
 59 61  4  0  0  0
 60 61  4  0  0  0
 61 62  1  0  0  0
 63 64  1  0  0  0
 64 65  1  0  0  0
 64 67  1  0  0  0
 65 66  2  0  0  0
 65 71  1  0  0  0
 67 68  1  0  0  0
 67 69  1  0  0  0
 68 70  1  0  0  0
 71 72  1  0  0  0
 72 73  1  0  0  0
 73 74  2  0  0  0
 73 75  1  0  0  0
 75 76  1  0  0  0
 76 77  1  0  0  0
 76 79  1  0  0  0
 77 78  2  0  0  0
 77 81  1  0  0  0
 79 80  1  0  0  0
  3 82  1  0  0  0
  3 83  1  0  0  0
  3 84  1  0  0  0
  4 85  1  0  0  0
  5 86  1  0  0  0
  8 87  1  0  0  0
  8 88  1  0  0  0
 11 89  1  0  0  0
 14 90  1  0  0  0
 14 91  1  0  0  0
 15 92  1  0  0  0
 15 93  1  0  0  0
 16 94  1  0  0  0
 16 95  1  0  0  0
 17 96  1  0  0  0
 18 97  1  0  0  0
 21 98  1  0  0  0
 21 99  1  0  0  0
 21100  1  0  0  0
 22101  1  0  0  0
 23102  1  0  0  0
 26103  1  0  0  0
 26104  1  0  0  0
 28105  1  0  0  0
 29106  1  0  0  0
 30107  1  0  0  0
 31108  1  0  0  0
 33109  1  0  0  0
 34110  1  0  0  0
 35111  1  0  0  0
 38112  1  0  0  0
 38113  1  0  0  0
 39114  1  0  0  0
 40115  1  0  0  0
 41116  1  0  0  0
 44117  1  0  0  0
 44118  1  0  0  0
 45119  1  0  0  0
 45120  1  0  0  0
 46121  1  0  0  0
 46122  1  0  0  0
 47123  1  0  0  0
 49124  1  0  0  0
 49125  1  0  0  0
 50126  1  0  0  0
 51127  1  0  0  0
 52128  1  0  0  0
 55129  1  0  0  0
 55130  1  0  0  0
 57131  1  0  0  0
 58132  1  0  0  0
 59133  1  0  0  0
 60134  1  0  0  0
 62135  1  0  0  0
 63136  1  0  0  0
 64137  1  0  0  0
 67138  1  0  0  0
 68139  1  0  0  0
 68140  1  0  0  0
 69141  1  0  0  0
 69142  1  0  0  0
 69143  1  0  0  0
 70144  1  0  0  0
 70145  1  0  0  0
 70146  1  0  0  0
 71147  1  0  0  0
 72148  1  0  0  0
 72149  1  0  0  0
 75150  1  0  0  0
 76151  1  0  0  0
 79152  1  0  0  0
 79153  1  0  0  0
 81154  1  0  0  0
 81155  1  0  0  0
M  END
$$$$
