### 
### Created by X-TOOL on Mon Aug  2 16:12:34 2021
### 

@<TRIPOS>MOLECULE
6a8g_ligand
  156   159     1     0     0
SMALL
GAST_HUCK


@<TRIPOS>ATOM
      1 C          55.7500  -41.9250   29.5290 C.2       1 ACE         0.1752
      2 O          55.2700  -41.2280   28.6300 O.2       1 ACE        -0.3972
      3 CH3        56.0640  -41.3510   30.8870 C.3       1 ACE         0.0258
      4 N          56.0140  -43.2310   29.3700 N.am      1 ACE        -0.2650
      5 CA         55.8040  -43.9320   28.1030 C.3       1 ACE         0.1407
      6 C          55.0830  -45.2800   28.1710 C.2       1 ACE         0.2072
      7 O          55.6590  -46.2700   28.6000 O.2       1 ACE        -0.3942
      8 CB         57.1530  -44.1440   27.4270 C.3       1 ACE         0.0443
      9 SG         57.9630  -42.5930   27.0560 S.3       1 ACE        -0.0882
     10 N          53.8360  -45.3110   27.7120 N.am      1 ACE        -0.2498
     11 CA         53.0960  -46.5780   27.6420 C.3       1 ACE         0.1338
     12 C          53.1310  -47.3440   26.3200 C.2       1 ACE         0.2041
     13 O          52.1300  -47.3510   25.6090 O.2       1 ACE        -0.3944
     14 CB         51.6590  -46.1360   27.9400 C.3       1 ACE        -0.0104
     15 CG         51.6060  -44.7590   27.4520 C.3       1 ACE        -0.0281
     16 CD         52.9330  -44.1550   27.7700 C.3       1 ACE         0.0369
     17 N          54.2250  -48.0070   25.9790 N.am      1 ACE        -0.2640
     18 CA         54.2270  -49.1000   24.9960 C.3       1 ACE         0.1282
     19 C          53.5870  -48.8200   23.6310 C.2       1 ACE         0.2037
     20 O          54.2350  -49.0580   22.6110 O.2       1 ACE        -0.3944
     21 CB         53.5730  -50.3420   25.5820 C.3       1 ACE        -0.0244
     22 N          52.3310  -48.3630   23.5770 N.am      1 ACE        -0.2621
     23 CA         51.6900  -47.9660   22.3240 C.3       1 ACE         0.1390
     24 C          51.7660  -46.4600   22.0740 C.2       1 ACE         0.2058
     25 O          50.9050  -45.9080   21.3840 O.2       1 ACE        -0.3942
     26 CB         50.2290  -48.4140   22.2990 C.3       1 ACE         0.0163
     27 CG         50.0400  -49.9160   22.3070 C.ar      1 ACE        -0.0493
     28 CD1        51.1280  -50.7890   22.1810 C.ar      1 ACE        -0.0685
     29 CD2        48.7720  -50.4700   22.4420 C.ar      1 ACE        -0.0685
     30 CE1        50.9500  -52.1620   22.1830 C.ar      1 ACE        -0.0398
     31 CE2        48.5920  -51.8570   22.4420 C.ar      1 ACE        -0.0398
     32 CZ         49.6790  -52.6840   22.3210 C.ar      1 ACE         0.0805
     33 OH         49.4860  -54.0340   22.3100 O.3       1 ACE        -0.3376
     34 N          52.7570  -45.7850   22.6440 N.am      1 ACE        -0.2614
     35 CA         52.9020  -44.3510   22.4630 C.3       1 ACE         0.1539
     36 C          53.3180  -44.0410   21.0240 C.2       1 ACE         0.2062
     37 O          53.9980  -44.8360   20.3770 O.2       1 ACE        -0.3943
     38 CB         53.9410  -43.8280   23.4590 C.3       1 ACE         0.0843
     39 OG         54.3720  -42.5080   23.2100 O.3       1 ACE        -0.3903
     40 N          52.9060  -42.8730   20.5230 N.am      1 ACE        -0.2637
     41 CA         53.4140  -42.3530   19.2570 C.3       1 ACE         0.1311
     42 C          54.1770  -41.0540   19.4630 C.2       1 ACE         0.2040
     43 O          54.3090  -40.2680   18.5220 O.2       1 ACE        -0.3944
     44 CB         52.2820  -42.1420   18.2450 C.3       1 ACE        -0.0092
     45 CG         51.7030  -43.4600   17.7650 C.3       1 ACE        -0.0156
     46 CD         50.4330  -43.3360   16.9220 C.3       1 ACE         0.0627
     47 NE         50.1520  -44.6500   16.3770 N.pl3     1 ACE        -0.2723
     48 CZ         49.2230  -44.9340   15.4770 C.cat     1 ACE         0.2882
     49 NH1        48.4300  -43.9920   14.9940 N.pl3     1 ACE        -0.2849
     50 NH2        49.0870  -46.1840   15.0710 N.pl3     1 ACE        -0.2849
     51 N          54.6650  -40.8320   20.6900 N.am      1 ACE        -0.2621
     52 CA         55.3770  -39.6250   21.0870 C.3       1 ACE         0.1390
     53 C          56.8510  -39.7240   20.6990 C.2       1 ACE         0.2057
     54 O          57.4890  -40.7640   20.8810 O.2       1 ACE        -0.3942
     55 CB         55.2290  -39.4200   22.6150 C.3       1 ACE         0.0163
     56 CG         55.9410  -38.1890   23.1710 C.ar      1 ACE        -0.0493
     57 CD1        55.8360  -36.9620   22.5260 C.ar      1 ACE        -0.0685
     58 CD2        56.7320  -38.2560   24.3290 C.ar      1 ACE        -0.0685
     59 CE1        56.4830  -35.8420   22.9940 C.ar      1 ACE        -0.0398
     60 CE2        57.3970  -37.1230   24.8150 C.ar      1 ACE        -0.0398
     61 CZ         57.2590  -35.9100   24.1430 C.ar      1 ACE         0.0805
     62 OH         57.9010  -34.7520   24.5780 O.3       1 ACE        -0.3376
     63 N          57.3960  -38.6210   20.1820 N.am      1 ACE        -0.2633
     64 CA         58.8030  -38.5730   19.7900 C.3       1 ACE         0.1335
     65 C          59.7220  -38.7760   20.9940 C.2       1 ACE         0.2040
     66 O          60.8410  -39.2820   20.8520 O.2       1 ACE        -0.3944
     67 CB         59.0810  -37.2320   19.0710 C.3       1 ACE        -0.0037
     68 CG1        60.0020  -37.3960   17.8890 C.3       1 ACE        -0.0491
     69 CG2        59.7680  -36.2230   19.9660 C.3       1 ACE        -0.0582
     70 CD1        60.0370  -36.1390   17.1140 C.3       1 ACE        -0.0648
     71 N          59.2840  -38.3750   22.1890 N.am      1 ACE        -0.2664
     72 CA         60.0700  -38.5610   23.3860 C.3       1 ACE         0.1201
     73 C          59.9390  -39.9090   24.0730 C.2       1 ACE         0.2008
     74 O          60.3550  -40.0470   25.2290 O.2       1 ACE        -0.3947
     75 N          59.3520  -40.9000   23.4010 N.am      1 ACE        -0.2631
     76 CA         59.3120  -42.2960   23.8470 C.3       1 ACE         0.1403
     77 C          59.9850  -43.1880   22.8110 C.2       1 ACE         0.2000
     78 O          60.6170  -42.6920   21.8850 O.2       1 ACE        -0.3947
     79 CB         57.8760  -42.7680   24.0590 C.3       1 ACE         0.0443
     80 SG         56.9980  -41.9490   25.3680 S.3       1 ACE        -0.0882
     81 N          59.8190  -44.4980   22.9460 N.am      1 ACE        -0.2989
     82 H1         56.4809  -42.1395   31.5308 H         1 ACE         0.0467
     83 H2         55.1427  -40.9565   31.3403 H         1 ACE         0.0467
     84 H3         56.7976  -40.5383   30.7809 H         1 ACE         0.0467
     85 H4         56.3690  -43.7466   30.1498 H         1 ACE         0.1883
     86 H5         55.1935  -43.2719   27.4693 H         1 ACE         0.0809
     87 H6         56.9980  -44.6976   26.4892 H         1 ACE         0.0432
     88 H7         57.7984  -44.7310   28.0970 H         1 ACE         0.0432
     89 H8         53.4658  -47.2526   28.4282 H         1 ACE         0.0802
     90 H9         51.4530  -46.1766   29.0198 H         1 ACE         0.0313
     91 H10        50.9359  -46.7689   27.4047 H         1 ACE         0.0313
     92 H11        50.8030  -44.2048   27.9599 H         1 ACE         0.0287
     93 H12        51.4310  -44.7454   26.3661 H         1 ACE         0.0287
     94 H13        53.2121  -43.3958   27.0245 H         1 ACE         0.0524
     95 H14        52.9326  -43.7019   28.7723 H         1 ACE         0.0524
     96 H15        55.0905  -47.7523   26.4103 H         1 ACE         0.1883
     97 H16        55.2843  -49.3342   24.8030 H         1 ACE         0.0797
     98 H17        53.5829  -51.1489   24.8345 H         1 ACE         0.0277
     99 H18        52.5338  -50.1126   25.8602 H         1 ACE         0.0277
    100 H19        54.1294  -50.6627   26.4751 H         1 ACE         0.0277
    101 H20        51.8097  -48.2899   24.4272 H         1 ACE         0.1885
    102 H21        52.2200  -48.4718   21.5035 H         1 ACE         0.0821
    103 H22        49.7606  -48.0123   21.3884 H         1 ACE         0.0453
    104 H23        49.7256  -47.9983   23.1843 H         1 ACE         0.0453
    105 H24        52.1277  -50.3822   22.0801 H         1 ACE         0.0530
    106 H25        47.9120  -49.8187   22.5486 H         1 ACE         0.0530
    107 H26        51.8027  -52.8229   22.0769 H         1 ACE         0.0525
    108 H27        47.5970  -52.2766   22.5373 H         1 ACE         0.0525
    109 H28        50.3243  -54.4719   22.2210 H         1 ACE         0.2458
    110 H29        53.4190  -46.2751   23.2111 H         1 ACE         0.1884
    111 H30        51.9370  -43.8630   22.6642 H         1 ACE         0.0823
    112 H31        54.8188  -44.4898   23.4204 H         1 ACE         0.0606
    113 H32        53.5001  -43.8620   24.4662 H         1 ACE         0.0606
    114 H33        53.6270  -41.9199   23.2505 H         1 ACE         0.2097
    115 H34        52.2295  -42.3391   21.0303 H         1 ACE         0.1883
    116 H35        54.1098  -43.0967   18.8414 H         1 ACE         0.0800
    117 H36        52.6766  -41.5900   17.3792 H         1 ACE         0.0313
    118 H37        51.4833  -41.5546   18.7214 H         1 ACE         0.0313
    119 H38        51.4684  -44.0722   18.6483 H         1 ACE         0.0301
    120 H39        52.4672  -43.9685   17.1589 H         1 ACE         0.0301
    121 H40        50.5907  -42.6152   16.1062 H         1 ACE         0.0689
    122 H41        49.5945  -43.0011   17.5502 H         1 ACE         0.0689
    123 H42        50.7265  -45.4327   16.7207 H         1 ACE         0.2642
    124 H43        47.7129  -44.2313   14.2944 H         1 ACE         0.2615
    125 H44        48.5296  -43.0192   15.3174 H         1 ACE         0.2615
    126 H45        49.7044  -46.9177   15.4470 H         1 ACE         0.2615
    127 H46        48.3635  -46.4247   14.3785 H         1 ACE         0.2615
    128 H47        54.5316  -41.5430   21.3805 H         1 ACE         0.1885
    129 H48        54.9335  -38.7626   20.5678 H         1 ACE         0.0821
    130 H49        55.6373  -40.3079   23.1199 H         1 ACE         0.0453
    131 H50        54.1573  -39.3277   22.8451 H         1 ACE         0.0453
    132 H51        55.2287  -36.8859   21.6313 H         1 ACE         0.0530
    133 H52        56.8296  -39.1988   24.8550 H         1 ACE         0.0530
    134 H53        56.3865  -34.9019   22.4631 H         1 ACE         0.0525
    135 H54        58.0127  -37.1891   25.7047 H         1 ACE         0.0525
    136 H55        57.6859  -34.0338   23.9946 H         1 ACE         0.2458
    137 H56        56.8276  -37.8073   20.0598 H         1 ACE         0.1883
    138 H57        58.9934  -39.3909   19.0795 H         1 ACE         0.0803
    139 H58        58.1180  -36.8231   18.7313 H         1 ACE         0.0345
    140 H59        59.6350  -38.2115   17.2485 H         1 ACE         0.0267
    141 H60        61.0150  -37.6361   18.2440 H         1 ACE         0.0267
    142 H61        59.1522  -36.0471   20.8604 H         1 ACE         0.0235
    143 H62        59.8993  -35.2775   19.4194 H         1 ACE         0.0235
    144 H63        60.7517  -36.6112   20.2687 H         1 ACE         0.0235
    145 H64        60.7091  -36.2587   16.2515 H         1 ACE         0.0230
    146 H65        60.4041  -35.3235   17.7544 H         1 ACE         0.0230
    147 H66        59.0240  -35.8988   16.7589 H         1 ACE         0.0230
    148 H67        58.3888  -37.9346   22.2573 H         1 ACE         0.1881
    149 H68        59.7707  -37.7865   24.1075 H         1 ACE         0.0763
    150 H69        61.1277  -38.4229   23.1175 H         1 ACE         0.0763
    151 H70        58.9086  -40.6755   22.5332 H         1 ACE         0.1884
    152 H71        59.8560  -42.3773   24.7996 H         1 ACE         0.0808
    153 H72        57.9012  -43.8438   24.2869 H         1 ACE         0.0432
    154 H73        57.3220  -42.6044   23.1229 H         1 ACE         0.0432
    155 H74        60.2407  -45.1255   22.2915 H         1 ACE         0.1815
    156 H75        59.2723  -44.8574   23.7022 H         1 ACE         0.1815
@<TRIPOS>BOND
     1    1    2 2  
     2    1    3 1  
     3    1    4 am 
     4    4    5 1  
     5    5    6 1  
     6    5    8 1  
     7    6    7 2  
     8    6   10 am 
     9    8    9 1  
    10    9   80 1  
    11   10   11 1  
    12   10   16 1  
    13   11   12 1  
    14   11   14 1  
    15   12   13 2  
    16   12   17 am 
    17   14   15 1  
    18   15   16 1  
    19   17   18 1  
    20   18   19 1  
    21   18   21 1  
    22   19   20 2  
    23   19   22 am 
    24   22   23 1  
    25   23   24 1  
    26   23   26 1  
    27   24   25 2  
    28   24   34 am 
    29   26   27 1  
    30   27   28 ar 
    31   27   29 ar 
    32   28   30 ar 
    33   29   31 ar 
    34   30   32 ar 
    35   31   32 ar 
    36   32   33 1  
    37   34   35 1  
    38   35   36 1  
    39   35   38 1  
    40   36   37 2  
    41   36   40 am 
    42   38   39 1  
    43   40   41 1  
    44   41   42 1  
    45   41   44 1  
    46   42   43 2  
    47   42   51 am 
    48   44   45 1  
    49   45   46 1  
    50   46   47 1  
    51   47   48 ar 
    52   48   49 ar 
    53   48   50 ar 
    54   51   52 1  
    55   52   53 1  
    56   52   55 1  
    57   53   54 2  
    58   53   63 am 
    59   55   56 1  
    60   56   57 ar 
    61   56   58 ar 
    62   57   59 ar 
    63   58   60 ar 
    64   59   61 ar 
    65   60   61 ar 
    66   61   62 1  
    67   63   64 1  
    68   64   65 1  
    69   64   67 1  
    70   65   66 2  
    71   65   71 am 
    72   67   68 1  
    73   67   69 1  
    74   68   70 1  
    75   71   72 1  
    76   72   73 1  
    77   73   74 2  
    78   73   75 am 
    79   75   76 1  
    80   76   77 1  
    81   76   79 1  
    82   77   78 2  
    83   77   81 am 
    84   79   80 1  
    85    3   82 1  
    86    3   83 1  
    87    3   84 1  
    88    4   85 1  
    89    5   86 1  
    90    8   87 1  
    91    8   88 1  
    92   11   89 1  
    93   14   90 1  
    94   14   91 1  
    95   15   92 1  
    96   15   93 1  
    97   16   94 1  
    98   16   95 1  
    99   17   96 1  
   100   18   97 1  
   101   21   98 1  
   102   21   99 1  
   103   21  100 1  
   104   22  101 1  
   105   23  102 1  
   106   26  103 1  
   107   26  104 1  
   108   28  105 1  
   109   29  106 1  
   110   30  107 1  
   111   31  108 1  
   112   33  109 1  
   113   34  110 1  
   114   35  111 1  
   115   38  112 1  
   116   38  113 1  
   117   39  114 1  
   118   40  115 1  
   119   41  116 1  
   120   44  117 1  
   121   44  118 1  
   122   45  119 1  
   123   45  120 1  
   124   46  121 1  
   125   46  122 1  
   126   47  123 1  
   127   49  124 1  
   128   49  125 1  
   129   50  126 1  
   130   50  127 1  
   131   51  128 1  
   132   52  129 1  
   133   55  130 1  
   134   55  131 1  
   135   57  132 1  
   136   58  133 1  
   137   59  134 1  
   138   60  135 1  
   139   62  136 1  
   140   63  137 1  
   141   64  138 1  
   142   67  139 1  
   143   68  140 1  
   144   68  141 1  
   145   69  142 1  
   146   69  143 1  
   147   69  144 1  
   148   70  145 1  
   149   70  146 1  
   150   70  147 1  
   151   71  148 1  
   152   72  149 1  
   153   72  150 1  
   154   75  151 1  
   155   76  152 1  
   156   79  153 1  
   157   79  154 1  
   158   81  155 1  
   159   81  156 1  
@<TRIPOS>SUBSTRUCTURE
     1 ACE         1

