2vvv_ligand
  -I-interpret- 

 46 49  0  0  0  0  0  0  0  0999 V2000
   -3.6350    9.6440   19.9520 F   0  0  0  0  0
   -4.8340    9.0660   19.9590 C   0  0  0  0  0
   -5.0610    8.0090   19.0820 C   0  0  0  0  0
   -6.2980    7.3880   19.0840 C   0  0  0  0  0
   -6.5380    6.2780   18.1860 N   0  0  0  0  0
   -6.3240    4.9850   18.5650 C   0  0  0  0  0
   -6.5390    3.9300   17.7550 C   0  0  0  0  0
   -7.0150    4.1770   16.4480 C   0  0  0  0  0
   -7.2450    5.4450   16.0460 C   0  0  0  0  0
   -7.0110    6.5640   16.8960 C   0  0  0  0  0
   -7.1930    7.7250   16.5680 O   0  0  0  0  0
   -7.2850    7.8420   19.9720 C   0  0  0  0  0
   -7.0540    8.9190   20.8410 C   0  0  0  0  0
   -5.8040    9.5480   20.8340 C   0  0  0  0  0
   -5.5050   10.6020   21.6640 N   0  0  0  0  0
   -5.2140   11.8080   21.1430 C   0  0  0  0  0
   -5.2340   11.9710   19.9400 O   0  0  0  0  0
   -4.8650   13.0060   22.0170 C   0  0  0  0  0
   -4.8030   12.6490   23.4180 N   0  0  0  0  0
   -5.4830   13.1570   24.4410 C   0  0  0  0  0
   -3.5850   10.7420   26.0210 N   0  0  0  0  0
   -2.3420   10.1530   25.8370 C   0  0  0  0  0
   -1.6140   10.3940   24.8920 O   0  0  0  0  0
   -2.0660    9.0860   26.7980 C   0  0  0  0  0
   -2.7130    8.7270   27.9430 C   0  0  0  0  0
   -2.1780    7.5590   28.5160 C   0  0  0  0  0
   -0.8190    8.0040   26.3740 S   0  0  0  0  0
   -1.1780    7.0690   27.7600 C   0  0  0  0  0
   -0.2510    5.6570   27.9990 Cl  0  0  0  0  0
   -5.1480   12.5460   25.5690 N   0  0  0  0  0
   -3.9760   11.6780   23.8560 N   0  0  0  0  0
   -4.2040   11.7120   25.1430 C   0  0  0  0  0
   -4.2759    7.6752   18.4035 H   0  0  0  0  0
   -5.9604    4.7957   19.5750 H   0  0  0  0  0
   -6.3507    2.9130   18.0990 H   0  0  0  0  0
   -7.1960    3.3461   15.7661 H   0  0  0  0  0
   -7.6221    5.6183   15.0381 H   0  0  0  0  0
   -8.2553    7.3456   19.9871 H   0  0  0  0  0
   -7.8396    9.2620   21.5142 H   0  0  0  0  0
   -5.5037   10.4699   22.6754 H   0  0  0  0  0
   -5.6411   13.7607   21.8897 H   0  0  0  0  0
   -3.8859   13.3773   21.7143 H   0  0  0  0  0
   -6.2132   13.9625   24.3634 H   0  0  0  0  0
   -4.1103   10.4662   26.8507 H   0  0  0  0  0
   -3.5500    9.2821   28.3665 H   0  0  0  0  0
   -2.5263    7.1112   29.4467 H   0  0  0  0  0
  2  1  1  0  0  0
  2  3  4  0  0  0
 14  2  4  0  0  0
  3  4  4  0  0  0
  4  5  1  0  0  0
 12  4  4  0  0  0
  5  6  1  0  0  0
  5 10  1  0  0  0
  6  7  2  0  0  0
  7  8  1  0  0  0
  9  8  2  0  0  0
 10  9  1  0  0  0
 10 11  2  0  0  0
 13 12  4  0  0  0
 14 13  4  0  0  0
 15 14  1  0  0  0
 16 15  1  0  0  0
 16 17  2  0  0  0
 18 16  1  0  0  0
 19 18  1  0  0  0
 20 19  4  0  0  0
 19 31  4  0  0  0
 30 20  4  0  0  0
 21 22  1  0  0  0
 32 21  1  0  0  0
 22 23  2  0  0  0
 22 24  1  0  0  0
 24 25  4  0  0  0
 24 27  4  0  0  0
 25 26  4  0  0  0
 28 26  4  0  0  0
 27 28  4  0  0  0
 28 29  1  0  0  0
 30 32  4  0  0  0
 31 32  4  0  0  0
  3 33  1  0  0  0
  6 34  1  0  0  0
  7 35  1  0  0  0
  8 36  1  0  0  0
  9 37  1  0  0  0
 12 38  1  0  0  0
 13 39  1  0  0  0
 15 40  1  0  0  0
 18 41  1  0  0  0
 18 42  1  0  0  0
 20 43  1  0  0  0
 21 44  1  0  0  0
 25 45  1  0  0  0
 26 46  1  0  0  0
M  END
$$$$
