2yig_ligand
  -I-interpret- 

 62 66  0  0  0  0  0  0  0  0999 V2000
   23.1050   14.4070   12.6740 C   0  0  0  0  0
   23.4960   13.8490   13.8770 C   0  0  0  0  0
   22.6310   13.0050   14.5770 C   0  0  0  0  0
   21.3680   12.7240   14.0800 C   0  0  0  0  0
   20.9610   13.2780   12.8650 C   0  0  0  0  0
   21.8350   14.1180   12.1670 C   0  0  0  0  0
   21.4040   14.6200   10.9130 C   0  0  0  0  0
   21.0410   14.9990    9.8290 C   0  0  0  0  0
   20.6150   15.5170    8.4900 C   0  0  0  0  0
   19.1040   15.2820    8.4030 C   0  0  0  0  0
   18.8360   14.4450    7.1700 N   0  3  0  0  0
   19.3300   15.1330    5.9200 C   0  0  0  0  0
   20.8320   15.3740    6.0610 C   0  0  0  0  0
   21.3750   14.8040    7.3510 C   0  0  0  0  0
   21.0810   13.3380    7.4270 C   0  0  0  0  0
   19.5420   13.1430    7.3890 C   0  0  0  0  0
   20.9900   16.8750    8.3850 O   0  0  0  0  0
   22.9370   12.3840   15.7550 O   0  0  0  0  0
   23.4940   13.0730   16.8130 C   0  0  0  0  0
   23.4720   14.4700   16.8910 C   0  0  0  0  0
   24.0360   15.1030   17.9780 C   0  0  0  0  0
   24.6160   14.3350   18.9390 C   0  0  0  0  0
   24.6410   12.9430   18.8840 C   0  0  0  0  0
   24.0730   12.3080   17.7830 C   0  0  0  0  0
   25.2390   14.9940   20.1330 C   0  0  0  0  0
   25.2680   14.3570   21.1720 O   0  0  0  0  0
   25.6910   16.2610   19.9550 N   0  0  0  0  0
   26.0230   17.0310   21.1640 C   0  0  0  0  0
   27.4150   16.7210   21.6510 C   0  0  0  0  0
   28.3170   15.9920   20.8740 C   0  0  0  0  0
   29.5650   15.7390   21.4120 C   0  0  0  0  0
   30.0020   16.1600   22.6200 N   0  0  0  0  0
   29.1280   16.8660   23.3430 C   0  0  0  0  0
   27.8310   17.1680   22.9020 C   0  0  0  0  0
   23.7799   15.0652   12.1269 H   0  0  0  0  0
   24.4842   14.0688   14.2811 H   0  0  0  0  0
   20.6944   12.0722   14.6363 H   0  0  0  0  0
   19.9716   13.0581   12.4640 H   0  0  0  0  0
   18.5763   16.2334    8.3365 H   0  0  0  0  0
   18.7493   14.7659    9.2951 H   0  0  0  0  0
   17.8352   14.3026    7.0339 H   0  0  0  0  0
   18.8115   16.0827    5.7882 H   0  0  0  0  0
   19.1335   14.5081    5.0488 H   0  0  0  0  0
   21.0071   16.4498    6.0621 H   0  0  0  0  0
   21.3369   14.8812    5.2301 H   0  0  0  0  0
   22.4533   14.9483    7.4179 H   0  0  0  0  0
   21.4862   12.9242    8.3504 H   0  0  0  0  0
   21.5428   12.8214    6.5856 H   0  0  0  0  0
   19.2968   12.4717    6.5660 H   0  0  0  0  0
   19.2202   12.7294    8.3448 H   0  0  0  0  0
   20.7203   17.2150    7.5287 H   0  0  0  0  0
   23.0108   15.0553   16.0955 H   0  0  0  0  0
   24.0176   16.1894   18.0649 H   0  0  0  0  0
   25.0961   12.3629   19.6868 H   0  0  0  0  0
   24.0905   11.2215   17.6976 H   0  0  0  0  0
   25.7961   16.6623   19.0232 H   0  0  0  0  0
   25.3151   16.7640   21.9487 H   0  0  0  0  0
   25.9700   18.0926   20.9227 H   0  0  0  0  0
   28.0472   15.6355   19.8799 H   0  0  0  0  0
   30.2564   15.1491   20.8102 H   0  0  0  0  0
   29.4382   17.2252   24.3243 H   0  0  0  0  0
   27.1559   17.7467   23.5324 H   0  0  0  0  0
  1  2  4  0  0  0
  1  6  4  0  0  0
  2  3  4  0  0  0
  3  4  4  0  0  0
  3 18  1  0  0  0
  4  5  4  0  0  0
  5  6  4  0  0  0
  6  7  1  0  0  0
  7  8  3  0  0  0
  8  9  1  0  0  0
  9 10  1  0  0  0
  9 14  1  0  0  0
  9 17  1  0  0  0
 10 11  1  0  0  0
 11 12  1  0  0  0
 11 16  1  0  0  0
 12 13  1  0  0  0
 13 14  1  0  0  0
 14 15  1  0  0  0
 15 16  1  0  0  0
 18 19  1  0  0  0
 19 20  4  0  0  0
 19 24  4  0  0  0
 20 21  4  0  0  0
 21 22  4  0  0  0
 22 23  4  0  0  0
 22 25  1  0  0  0
 23 24  4  0  0  0
 25 26  2  0  0  0
 25 27  1  0  0  0
 27 28  1  0  0  0
 28 29  1  0  0  0
 29 30  4  0  0  0
 29 34  4  0  0  0
 30 31  4  0  0  0
 31 32  4  0  0  0
 32 33  4  0  0  0
 33 34  4  0  0  0
  1 35  1  0  0  0
  2 36  1  0  0  0
  4 37  1  0  0  0
  5 38  1  0  0  0
 10 39  1  0  0  0
 10 40  1  0  0  0
 11 41  1  0  0  0
 12 42  1  0  0  0
 12 43  1  0  0  0
 13 44  1  0  0  0
 13 45  1  0  0  0
 14 46  1  0  0  0
 15 47  1  0  0  0
 15 48  1  0  0  0
 16 49  1  0  0  0
 16 50  1  0  0  0
 17 51  1  0  0  0
 20 52  1  0  0  0
 21 53  1  0  0  0
 23 54  1  0  0  0
 24 55  1  0  0  0
 27 56  1  0  0  0
 28 57  1  0  0  0
 28 58  1  0  0  0
 30 59  1  0  0  0
 31 60  1  0  0  0
 33 61  1  0  0  0
 34 62  1  0  0  0
M  END
$$$$
