### 
### Created by X-TOOL on Mon Sep 10 21:13:06 2018
### 

@<TRIPOS>MOLECULE
2yig_ligand
   61    65     1     0     0
SMALL
GAST_HUCK


@<TRIPOS>ATOM
      1 C1         23.1050   14.4070   12.6740 C.ar      1 5EL        -0.0532
      2 C2         23.4960   13.8490   13.8770 C.ar      1 5EL        -0.0260
      3 C3         22.6310   13.0050   14.5770 C.ar      1 5EL         0.1189
      4 C4         21.3680   12.7240   14.0800 C.ar      1 5EL        -0.0260
      5 C5         20.9610   13.2780   12.8650 C.ar      1 5EL        -0.0532
      6 C6         21.8350   14.1180   12.1670 C.ar      1 5EL         0.0151
      7 C7         21.4040   14.6200   10.9130 C.1       1 5EL        -0.0722
      8 C8         21.0410   14.9990    9.8290 C.1       1 5EL        -0.0699
      9 C9         20.6150   15.5170    8.4900 C.3       1 5EL         0.1093
     10 C10        19.1040   15.2820    8.4030 C.3       1 5EL        -0.0721
     11 N1         18.8360   14.4450    7.1700 N.4       1 5EL         0.4054
     12 C11        19.3300   15.1330    5.9200 C.3       1 5EL        -0.1125
     13 C12        20.8320   15.3740    6.0610 C.3       1 5EL        -0.0655
     14 C13        21.3750   14.8040    7.3510 C.3       1 5EL        -0.0069
     15 C14        21.0810   13.3380    7.4270 C.3       1 5EL        -0.0655
     16 C15        19.5420   13.1430    7.3890 C.3       1 5EL        -0.1125
     17 O1         20.9900   16.8750    8.3850 O.3       1 5EL        -0.3787
     18 O2         22.9370   12.3840   15.7550 O.3       1 5EL        -0.2536
     19 C16        23.4940   13.0730   16.8130 C.ar      1 5EL         0.1219
     20 C17        23.4720   14.4700   16.8910 C.ar      1 5EL        -0.0222
     21 C18        24.0360   15.1030   17.9780 C.ar      1 5EL        -0.0495
     22 C19        24.6160   14.3350   18.9390 C.ar      1 5EL         0.0392
     23 C20        24.6410   12.9430   18.8840 C.ar      1 5EL        -0.0495
     24 C21        24.0730   12.3080   17.7830 C.ar      1 5EL        -0.0222
     25 C22        25.2390   14.9940   20.1330 C.2       1 5EL         0.1992
     26 O3         25.2680   14.3570   21.1720 O.2       1 5EL        -0.3894
     27 N2         25.6910   16.2610   19.9550 N.am      1 5EL        -0.2743
     28 C23        26.0230   17.0310   21.1640 C.3       1 5EL         0.0708
     29 C24        27.4150   16.7210   21.6510 C.ar      1 5EL        -0.0011
     30 C25        28.3170   15.9920   20.8740 C.ar      1 5EL        -0.0305
     31 C26        29.5650   15.7390   21.4120 C.ar      1 5EL         0.0031
     32 N3         30.0020   16.1600   22.6200 N.ar      1 5EL        -0.3066
     33 C27        29.1280   16.8660   23.3430 C.ar      1 5EL         0.0031
     34 C28        27.8310   17.1680   22.9020 C.ar      1 5EL        -0.0305
     35 H          23.7799   15.0652   12.1269 H         1 5EL         0.0607
     36 H          24.4842   14.0688   14.2811 H         1 5EL         0.0558
     37 H          20.6944   12.0722   14.6363 H         1 5EL         0.0558
     38 H          19.9716   13.0581   12.4640 H         1 5EL         0.0607
     39 H          18.5763   16.2334    8.3365 H         1 5EL         0.0055
     40 H          18.7493   14.7659    9.2951 H         1 5EL         0.0055
     41 H          18.8115   16.0827    5.7882 H         1 5EL         0.0017
     42 H          19.1335   14.5081    5.0488 H         1 5EL         0.0017
     43 H          21.0071   16.4498    6.0621 H         1 5EL         0.0249
     44 H          21.3369   14.8812    5.2301 H         1 5EL         0.0249
     45 H          22.4533   14.9483    7.4179 H         1 5EL         0.0336
     46 H          21.4862   12.9242    8.3504 H         1 5EL         0.0249
     47 H          21.5428   12.8214    6.5856 H         1 5EL         0.0249
     48 H          19.2968   12.4717    6.5660 H         1 5EL         0.0017
     49 H          19.2202   12.7294    8.3448 H         1 5EL         0.0017
     50 H          21.9452   16.9478    8.4474 H         1 5EL         0.2113
     51 H          23.0108   15.0553   16.0955 H         1 5EL         0.0567
     52 H          24.0176   16.1894   18.0649 H         1 5EL         0.0643
     53 H          25.0961   12.3629   19.6868 H         1 5EL         0.0643
     54 H          24.0905   11.2215   17.6976 H         1 5EL         0.0567
     55 H          25.7961   16.6623   19.0232 H         1 5EL         0.1872
     56 H          25.3151   16.7640   21.9487 H         1 5EL         0.0709
     57 H          25.9700   18.0926   20.9227 H         1 5EL         0.0709
     58 H          28.0472   15.6355   19.8799 H         1 5EL         0.0652
     59 H          30.2564   15.1491   20.8102 H         1 5EL         0.0803
     60 H          29.4382   17.2252   24.3243 H         1 5EL         0.0803
     61 H          27.1559   17.7467   23.5324 H         1 5EL         0.0652
@<TRIPOS>BOND
     1    1    2 ar 
     2    1    6 ar 
     3    2    3 ar 
     4    3    4 ar 
     5    3   18 1  
     6    4    5 ar 
     7    5    6 ar 
     8    6    7 1  
     9    7    8 3  
    10    8    9 1  
    11    9   10 1  
    12    9   14 1  
    13    9   17 1  
    14   10   11 1  
    15   11   12 1  
    16   11   16 1  
    17   12   13 1  
    18   13   14 1  
    19   14   15 1  
    20   15   16 1  
    21   18   19 1  
    22   19   20 ar 
    23   19   24 ar 
    24   20   21 ar 
    25   21   22 ar 
    26   22   23 ar 
    27   22   25 1  
    28   23   24 ar 
    29   25   26 2  
    30   25   27 am 
    31   27   28 1  
    32   28   29 1  
    33   29   30 ar 
    34   29   34 ar 
    35   30   31 ar 
    36   31   32 ar 
    37   32   33 ar 
    38   33   34 ar 
    39    1   35 1  
    40    2   36 1  
    41    4   37 1  
    42    5   38 1  
    43   10   39 1  
    44   10   40 1  
    45   12   41 1  
    46   12   42 1  
    47   13   43 1  
    48   13   44 1  
    49   14   45 1  
    50   15   46 1  
    51   15   47 1  
    52   16   48 1  
    53   16   49 1  
    54   17   50 1  
    55   20   51 1  
    56   21   52 1  
    57   23   53 1  
    58   24   54 1  
    59   27   55 1  
    60   28   56 1  
    61   28   57 1  
    62   30   58 1  
    63   31   59 1  
    64   33   60 1  
    65   34   61 1  
@<TRIPOS>SUBSTRUCTURE
     1 5EL         1

