7gpb_ligand
  -I-interpret- 

 37 39  0  0  0  0  0  0  0  0999 V2000
   64.8910  -16.3960   36.4870 P   0  0  0  0  0
   66.2430  -16.6980   37.0020 O   0  0  0  0  0
   64.7460  -16.5060   35.0190 O   0  0  0  0  0
   64.2450  -15.2100   37.0990 O   0  0  0  0  0
   64.0200  -17.6380   37.0390 O   0  0  0  0  0
   62.6460  -17.5170   37.4540 C   0  0  0  0  0
   62.2170  -18.7880   38.2050 C   0  0  0  0  0
   62.3670  -19.8890   37.2960 O   0  0  0  0  0
   63.0960  -19.1600   39.3960 C   0  0  0  0  0
   62.6710  -18.3760   40.5190 O   0  0  0  0  0
   62.7260  -20.6360   39.5630 C   0  0  0  0  0
   61.3740  -20.8180   40.0260 O   0  0  0  0  0
   62.7430  -21.0370   38.0720 C   0  0  0  0  0
   64.0750  -21.5040   37.5800 N   0  0  0  0  0
   65.1150  -20.7490   37.0670 C   0  0  0  0  0
   66.1420  -21.4600   36.6900 N   0  0  0  0  0
   65.7650  -22.7670   36.9680 C   0  0  0  0  0
   66.4260  -23.9890   36.7910 C   0  0  0  0  0
   67.6450  -24.0680   36.2650 N   0  0  0  0  0
   65.7800  -25.1010   37.1680 N   0  0  0  0  0
   64.5610  -24.9970   37.6840 C   0  0  0  0  0
   63.8300  -23.9130   37.9030 N   0  0  0  0  0
   64.5090  -22.8080   37.5120 C   0  0  0  0  0
   63.8430  -16.2946   34.7710 H   0  0  0  0  0
   63.3758  -15.0847   36.7112 H   0  0  0  0  0
   62.0138  -17.3858   36.5758 H   0  0  0  0  0
   62.5426  -16.6555   38.1138 H   0  0  0  0  0
   61.2064  -18.5943   38.5645 H   0  0  0  0  0
   64.1677  -18.9928   39.2884 H   0  0  0  0  0
   63.2111  -18.5934   41.2823 H   0  0  0  0  0
   63.3641  -21.1740   40.2640 H   0  0  0  0  0
   61.1908  -21.7562   40.1145 H   0  0  0  0  0
   62.0513  -21.8726   37.9646 H   0  0  0  0  0
   65.0796  -19.6626   36.9855 H   0  0  0  0  0
   68.1311  -23.2196   35.9745 H   0  0  0  0  0
   68.0938  -24.9770   36.1521 H   0  0  0  0  0
   64.0936  -25.9396   37.9688 H   0  0  0  0  0
  1  2  2  0  0  0
  1  3  1  0  0  0
  1  4  1  0  0  0
  1  5  1  0  0  0
  5  6  1  0  0  0
  6  7  1  0  0  0
  7  8  1  0  0  0
  7  9  1  0  0  0
  8 13  1  0  0  0
  9 10  1  0  0  0
  9 11  1  0  0  0
 11 12  1  0  0  0
 11 13  1  0  0  0
 13 14  1  0  0  0
 14 15  4  0  0  0
 14 23  4  0  0  0
 15 16  4  0  0  0
 16 17  4  0  0  0
 17 18  4  0  0  0
 17 23  4  0  0  0
 18 19  1  0  0  0
 18 20  4  0  0  0
 20 21  4  0  0  0
 21 22  4  0  0  0
 22 23  4  0  0  0
  3 24  1  0  0  0
  4 25  1  0  0  0
  6 26  1  0  0  0
  6 27  1  0  0  0
  7 28  1  0  0  0
  9 29  1  0  0  0
 10 30  1  0  0  0
 11 31  1  0  0  0
 12 32  1  0  0  0
 13 33  1  0  0  0
 15 34  1  0  0  0
 19 35  1  0  0  0
 19 36  1  0  0  0
 21 37  1  0  0  0
M  END
$$$$
