1b2h_ligand
  -I-interpret- 

 67 66  0  0  0  0  0  0  0  0999 V2000
    7.0350   16.7300   15.3030 N   0  3  0  0  0
    6.5930   18.0400   14.7270 C   0  0  0  0  0
    5.3860   18.5660   15.5180 C   0  0  0  0  0
    4.6400   17.7880   16.1040 O   0  0  0  0  0
    6.2050   17.9940   13.2500 C   0  0  0  0  0
    5.3550   16.7740   12.8610 C   0  0  0  0  0
    5.1560   16.7600   11.3380 C   0  0  0  0  0
    6.3760   16.1890   10.6240 C   0  0  0  0  0
    6.5550   14.7410   10.9400 N   0  3  0  0  0
    5.2970   19.8800   15.6070 N   0  0  0  0  0
    4.2090   20.4900   16.3680 C   0  0  0  0  0
    4.5770   21.9150   16.8250 C   0  0  0  0  0
    5.5710   21.9000   18.0100 C   0  0  0  0  0
    5.8240   23.2770   18.5850 C   0  0  0  0  0
    6.7200   23.2890   19.5940 N   0  3  0  0  0
    2.9030   20.5330   15.5910 C   0  0  0  0  0
    2.7960   20.8830   14.4250 O   0  0  0  0  0
    1.8260   20.2050   16.3180 N   0  0  0  0  0
    0.4910   20.2680   15.7410 C   0  0  0  0  0
   -0.4770   20.8350   16.7860 C   0  0  0  0  0
   -1.6470   20.4320   16.8290 O   0  0  0  0  0
    0.0100   18.8770   15.3080 C   0  0  0  0  0
   -1.0150   19.0060   14.1650 C   0  0  0  0  0
   -1.7120   17.6980   13.9050 C   0  0  0  0  0
   -2.6110   17.7110   12.6760 C   0  0  0  0  0
   -3.6990   18.7330   12.8060 N   0  3  0  0  0
   -0.1140   21.6420   17.6580 O   0  0  0  0  0
    7.2727   16.8555   16.2869 H   0  0  0  0  0
    6.2790   16.0505   15.2186 H   0  0  0  0  0
    7.8532   16.3951   14.7943 H   0  0  0  0  0
    7.4606   18.6951   14.8053 H   0  0  0  0  0
    7.1297   17.9386   12.6756 H   0  0  0  0  0
    5.6063   18.8818   13.0465 H   0  0  0  0  0
    4.3854   16.8318   13.3555 H   0  0  0  0  0
    5.8630   15.8609   13.1714 H   0  0  0  0  0
    5.0041   17.7847   10.9989 H   0  0  0  0  0
    4.2944   16.1336   11.1068 H   0  0  0  0  0
    7.2609   16.7308   10.9580 H   0  0  0  0  0
    6.2327   16.2962    9.5488 H   0  0  0  0  0
    7.3764   14.3863   10.4501 H   0  0  0  0  0
    6.6818   14.6268   11.9456 H   0  0  0  0  0
    5.7287   14.2240   10.6394 H   0  0  0  0  0
    5.9884   20.4701   15.1441 H   0  0  0  0  0
    4.0614   19.8543   17.2410 H   0  0  0  0  0
    3.6653   22.4168   17.1491 H   0  0  0  0  0
    5.0485   22.4317   15.9890 H   0  0  0  0  0
    6.5214   21.5134   17.6421 H   0  0  0  0  0
    5.1389   21.2844   18.7989 H   0  0  0  0  0
    4.8780   23.6410   18.9857 H   0  0  0  0  0
    6.2285   23.8950   17.7834 H   0  0  0  0  0
    6.8393   24.2447   19.9298 H   0  0  0  0  0
    6.3815   22.6998   20.3547 H   0  0  0  0  0
    7.6141   22.9315   19.2574 H   0  0  0  0  0
    1.9430   19.9078   17.2867 H   0  0  0  0  0
    0.5218   20.9099   14.8606 H   0  0  0  0  0
   -0.4599   18.3798   16.1566 H   0  0  0  0  0
    0.8633   18.2946   14.9604 H   0  0  0  0  0
   -0.4881   19.3044   13.2587 H   0  0  0  0  0
   -1.7621   19.7463   14.4510 H   0  0  0  0  0
   -2.3455   17.4913   14.7676 H   0  0  0  0  0
   -0.9399   16.9479   13.7338 H   0  0  0  0  0
   -3.0700   16.7278   12.5722 H   0  0  0  0  0
   -2.0041   17.9600   11.8055 H   0  0  0  0  0
   -4.2815   18.7161   11.9689 H   0  0  0  0  0
   -4.2700   18.5179   13.6234 H   0  0  0  0  0
   -3.2835   19.6583   12.9139 H   0  0  0  0  0
    0.8063   21.8743   17.5142 H   0  0  0  0  0
  3  2  1  0  0  0
  2  5  1  0  0  0
  2  1  1  0  0  0
  5  6  1  0  0  0
  6  7  1  0  0  0
  7  8  1  0  0  0
  8  9  1  0  0  0
  3  4  2  0  0  0
 10 11  1  0  0  0
 11 16  1  0  0  0
 11 12  1  0  0  0
 12 13  1  0  0  0
 13 14  1  0  0  0
 14 15  1  0  0  0
 16 17  2  0  0  0
 19 20  1  0  0  0
 19 22  1  0  0  0
 18 19  1  0  0  0
 22 23  1  0  0  0
 23 24  1  0  0  0
 24 25  1  0  0  0
 25 26  1  0  0  0
 20 27  1  0  0  0
 20 21  2  0  0  0
 16 18  1  0  0  0
 10  3  1  0  0  0
  1 28  1  0  0  0
  1 29  1  0  0  0
  1 30  1  0  0  0
  2 31  1  0  0  0
  5 32  1  0  0  0
  5 33  1  0  0  0
  6 34  1  0  0  0
  6 35  1  0  0  0
  7 36  1  0  0  0
  7 37  1  0  0  0
  8 38  1  0  0  0
  8 39  1  0  0  0
  9 40  1  0  0  0
  9 41  1  0  0  0
  9 42  1  0  0  0
 10 43  1  0  0  0
 11 44  1  0  0  0
 12 45  1  0  0  0
 12 46  1  0  0  0
 13 47  1  0  0  0
 13 48  1  0  0  0
 14 49  1  0  0  0
 14 50  1  0  0  0
 15 51  1  0  0  0
 15 52  1  0  0  0
 15 53  1  0  0  0
 18 54  1  0  0  0
 19 55  1  0  0  0
 22 56  1  0  0  0
 22 57  1  0  0  0
 23 58  1  0  0  0
 23 59  1  0  0  0
 24 60  1  0  0  0
 24 61  1  0  0  0
 25 62  1  0  0  0
 25 63  1  0  0  0
 26 64  1  0  0  0
 26 65  1  0  0  0
 26 66  1  0  0  0
 27 67  1  0  0  0
M  END
$$$$
