1f8e_ligand
  -I-interpret- 

 41 41  0  0  0  0  0  0  0  0999 V2000
   23.5370   19.8410   64.7380 C   0  0  0  0  0
   24.1250   18.7730   64.0580 C   0  0  0  0  0
   23.4520   17.6490   63.6220 C   0  0  0  0  0
   24.1130   16.6520   62.6490 C   0  0  0  0  0
   25.6290   16.6840   62.7420 C   0  0  0  0  0
   26.0790   18.1690   62.6850 C   0  0  0  0  0
   27.6420   18.3860   62.8000 C   0  0  0  0  0
   27.9270   19.8710   62.5510 C   0  0  0  0  0
   29.3330   20.2820   62.9920 C   0  0  0  0  0
   26.9630   14.8260   61.8030 C   0  0  0  0  0
   27.5060   14.1840   60.5530 C   0  0  0  0  0
   26.2370   15.9270   61.6270 N   0  0  0  0  0
   24.2410   20.8580   64.9270 O   0  0  0  0  0
   22.3570   19.7650   65.1340 O   0  0  0  0  0
   23.6780   15.2990   63.0060 N   0  3  0  0  0
   25.4800   18.8980   63.7870 O   0  0  0  0  0
   28.1110   17.9780   64.1020 O   0  0  0  0  0
   27.7800   20.1390   61.1890 O   0  0  0  0  0
   30.3930   19.6150   62.1900 N   0  3  0  0  0
   27.1870   14.3390   62.9110 O   0  0  0  0  0
   22.4364   17.4633   63.9715 H   0  0  0  0  0
   23.8184   16.9286   61.6367 H   0  0  0  0  0
   25.9537   16.2211   63.6739 H   0  0  0  0  0
   25.7578   18.5257   61.7064 H   0  0  0  0  0
   28.1686   17.7796   62.0631 H   0  0  0  0  0
   27.2167   20.4462   63.1449 H   0  0  0  0  0
   29.4607   19.9871   64.0335 H   0  0  0  0  0
   29.4302   21.3587   62.8525 H   0  0  0  0  0
   28.5944   14.1551   60.6043 H   0  0  0  0  0
   27.1178   13.1689   60.4694 H   0  0  0  0  0
   27.1973   14.7652   59.6841 H   0  0  0  0  0
   26.0927   16.2656   60.6757 H   0  0  0  0  0
   25.1121   20.7176   64.5487 H   0  0  0  0  0
   22.6608   15.2451   62.9529 H   0  0  0  0  0
   24.0896   14.6285   62.3569 H   0  0  0  0  0
   23.9819   15.0850   63.9559 H   0  0  0  0  0
   27.9205   17.0461   64.2320 H   0  0  0  0  0
   27.9573   21.0683   61.0259 H   0  0  0  0  0
   31.3091   19.9192   62.5196 H   0  0  0  0  0
   30.3112   18.6037   62.2947 H   0  0  0  0  0
   30.2831   19.8663   61.2076 H   0  0  0  0  0
  1 14  2  0  0  0
  1 13  1  0  0  0
  1  2  1  0  0  0
  2 16  1  0  0  0
  2  3  2  0  0  0
  3  4  1  0  0  0
  4 15  1  0  0  0
  4  5  1  0  0  0
  5 12  1  0  0  0
  5  6  1  0  0  0
  6 16  1  0  0  0
  6  7  1  0  0  0
  7 17  1  0  0  0
  7  8  1  0  0  0
  8 18  1  0  0  0
  8  9  1  0  0  0
  9 19  1  0  0  0
 12 10  1  0  0  0
 10 20  2  0  0  0
 10 11  1  0  0  0
  3 21  1  0  0  0
  4 22  1  0  0  0
  5 23  1  0  0  0
  6 24  1  0  0  0
  7 25  1  0  0  0
  8 26  1  0  0  0
  9 27  1  0  0  0
  9 28  1  0  0  0
 11 29  1  0  0  0
 11 30  1  0  0  0
 11 31  1  0  0  0
 12 32  1  0  0  0
 13 33  1  0  0  0
 15 34  1  0  0  0
 15 35  1  0  0  0
 15 36  1  0  0  0
 17 37  1  0  0  0
 18 38  1  0  0  0
 19 39  1  0  0  0
 19 40  1  0  0  0
 19 41  1  0  0  0
M  END
$$$$
