4xta_ligand
  -I-interpret- 

 30 31  0  0  0  0  0  0  0  0999 V2000
   -9.6090    4.9160  -14.6530 C   0  0  0  0  0
  -10.4920    5.4590  -13.7260 C   0  0  0  0  0
  -10.1660    7.0320  -13.0520 Cl  0  0  0  0  0
  -11.6320    4.7580  -13.3470 C   0  0  0  0  0
  -11.8650    3.5010  -13.8990 C   0  0  0  0  0
  -13.2690    2.5800  -13.4520 Cl  0  0  0  0  0
  -10.9790    2.9630  -14.8260 C   0  0  0  0  0
   -9.8490    3.6670  -15.2070 C   0  0  0  0  0
  -12.5230    5.3300  -12.3830 N   0  0  0  0  0
  -14.7230    6.0480  -11.6060 C   0  0  0  0  0
  -13.8330    5.8380  -12.6610 C   0  0  0  0  0
  -14.2410    6.1230  -13.9560 C   0  0  0  0  0
  -15.5200    6.6150  -14.1890 C   0  0  0  0  0
  -16.3990    6.8240  -13.1340 C   0  0  0  0  0
  -15.9980    6.5440  -11.8370 C   0  0  0  0  0
  -14.2880    5.7490  -10.1900 C   0  0  0  0  0
  -13.4870    6.9420   -9.7360 C   0  0  0  0  0
  -14.0790    7.9990   -9.3950 O   0  0  0  0  0
  -12.2310    6.8820   -9.7190 O   0  0  0  0  0
   -8.7213    5.4762  -14.9466 H   0  0  0  0  0
  -11.1753    1.9806  -15.2556 H   0  0  0  0  0
   -9.1557    3.2444  -15.9342 H   0  0  0  0  0
  -12.1976    5.3799  -11.4176 H   0  0  0  0  0
  -13.5588    5.9612  -14.7906 H   0  0  0  0  0
  -15.8358    6.8386  -15.2080 H   0  0  0  0  0
  -17.4013    7.2071  -13.3255 H   0  0  0  0  0
  -16.6801    6.7125  -11.0037 H   0  0  0  0  0
  -13.6935    4.8364  -10.1458 H   0  0  0  0  0
  -15.1481    5.5830   -9.5413 H   0  0  0  0  0
  -15.0277    7.8705   -9.4668 H   0  0  0  0  0
  1  2  4  0  0  0
  1  8  4  0  0  0
  2  3  1  0  0  0
  2  4  4  0  0  0
  4  5  4  0  0  0
  4  9  1  0  0  0
  5  6  1  0  0  0
  5  7  4  0  0  0
  7  8  4  0  0  0
  9 11  1  0  0  0
 11 10  4  0  0  0
 10 15  4  0  0  0
 10 16  1  0  0  0
 11 12  4  0  0  0
 12 13  4  0  0  0
 13 14  4  0  0  0
 14 15  4  0  0  0
 16 17  1  0  0  0
 17 18  1  0  0  0
 17 19  2  0  0  0
  1 20  1  0  0  0
  7 21  1  0  0  0
  8 22  1  0  0  0
  9 23  1  0  0  0
 12 24  1  0  0  0
 13 25  1  0  0  0
 14 26  1  0  0  0
 15 27  1  0  0  0
 16 28  1  0  0  0
 16 29  1  0  0  0
 18 30  1  0  0  0
M  END
$$$$
