4z7o_ligand
  -I-interpret- 

 50 49  0  0  0  0  0  0  0  0999 V2000
   51.2560  107.2190   75.0390 N   0  3  0  0  0
   52.1530  108.3270   75.3320 C   0  0  0  0  0
   52.3930  109.1570   74.0770 C   0  0  0  0  0
   51.7950  110.2190   73.9040 O   0  0  0  0  0
   53.4710  107.8120   75.8950 C   0  0  0  0  0
   53.2670  108.6710   73.2050 N   0  0  0  0  0
   53.5160  109.3600   71.9490 C   0  0  0  0  0
   54.5320  110.4660   72.1120 C   0  0  0  0  0
   55.5780  110.2820   72.7370 O   0  0  0  0  0
   54.2190  111.6310   71.5440 N   0  0  0  0  0
   55.1640  112.7420   71.4610 C   0  0  0  0  0
   55.0860  113.5550   72.7480 C   0  0  0  0  0
   54.4870  114.6280   72.8090 O   0  0  0  0  0
   54.8670  113.5960   70.2360 C   0  0  0  0  0
   55.9430  114.6210   69.9670 C   0  0  0  0  0
   57.1210  114.3420   70.2640 O   0  0  0  0  0
   55.6120  115.7040   69.4440 O   0  0  0  0  0
   55.7130  113.0200   73.7940 N   0  0  0  0  0
   55.7630  113.6920   75.0890 C   0  0  0  0  0
   57.1150  113.4560   75.7510 C   0  0  0  0  0
   57.9120  112.6410   75.2910 O   0  0  0  0  0
   54.6280  113.2200   76.0110 C   0  0  0  0  0
   53.2760  113.5130   75.3880 C   0  0  0  0  0
   54.7660  111.7390   76.3160 C   0  0  0  0  0
   57.4380  114.0740   76.7640 O   0  0  0  0  0
   50.3800  107.5824   74.6635 H   0  0  0  0  0
   51.6917  106.6027   74.3529 H   0  0  0  0  0
   51.0698  106.6981   75.8960 H   0  0  0  0  0
   51.6865  108.9635   76.0839 H   0  0  0  0  0
   53.9650  107.1897   75.1488 H   0  0  0  0  0
   54.1118  108.6569   76.1472 H   0  0  0  0  0
   53.2763  107.2220   76.7906 H   0  0  0  0  0
   53.7677  107.8081   73.4172 H   0  0  0  0  0
   52.5796  109.8008   71.6070 H   0  0  0  0  0
   53.9060  108.6377   71.2319 H   0  0  0  0  0
   53.2847  111.7510   71.1528 H   0  0  0  0  0
   56.1798  112.3624   71.3512 H   0  0  0  0  0
   53.9339  114.1293   70.4175 H   0  0  0  0  0
   54.8109  112.9342   69.3717 H   0  0  0  0  0
   54.6629  115.7116   69.2998 H   0  0  0  0  0
   56.1713  112.1150   73.6873 H   0  0  0  0  0
   55.6305  114.7604   74.9183 H   0  0  0  0  0
   54.6993  113.7704   76.9491 H   0  0  0  0  0
   53.1768  114.5864   75.2264 H   0  0  0  0  0
   53.1963  112.9917   74.4340 H   0  0  0  0  0
   52.4870  113.1707   76.0576 H   0  0  0  0  0
   54.7241  111.1723   75.3858 H   0  0  0  0  0
   55.7206  111.5585   76.8102 H   0  0  0  0  0
   53.9520  111.4267   76.9702 H   0  0  0  0  0
   56.7291  114.6718   77.0124 H   0  0  0  0  0
  1  2  1  0  0  0
  2  3  1  0  0  0
  2  5  1  0  0  0
  3  4  2  0  0  0
  3  6  1  0  0  0
  6  7  1  0  0  0
  7  8  1  0  0  0
  8  9  2  0  0  0
  8 10  1  0  0  0
 10 11  1  0  0  0
 11 12  1  0  0  0
 11 14  1  0  0  0
 12 13  2  0  0  0
 12 18  1  0  0  0
 14 15  1  0  0  0
 15 16  2  0  0  0
 15 17  1  0  0  0
 18 19  1  0  0  0
 19 20  1  0  0  0
 19 22  1  0  0  0
 20 21  2  0  0  0
 20 25  1  0  0  0
 22 23  1  0  0  0
 22 24  1  0  0  0
  1 26  1  0  0  0
  1 27  1  0  0  0
  1 28  1  0  0  0
  2 29  1  0  0  0
  5 30  1  0  0  0
  5 31  1  0  0  0
  5 32  1  0  0  0
  6 33  1  0  0  0
  7 34  1  0  0  0
  7 35  1  0  0  0
 10 36  1  0  0  0
 11 37  1  0  0  0
 14 38  1  0  0  0
 14 39  1  0  0  0
 17 40  1  0  0  0
 18 41  1  0  0  0
 19 42  1  0  0  0
 22 43  1  0  0  0
 23 44  1  0  0  0
 23 45  1  0  0  0
 23 46  1  0  0  0
 24 47  1  0  0  0
 24 48  1  0  0  0
 24 49  1  0  0  0
 25 50  1  0  0  0
M  END
$$$$
