2ada_ligand
  -I-interpret- 

 31 33  0  0  0  0  0  0  0  0999 V2000
    1.3740   21.0250   39.0150 N   0  0  0  0  0
    2.3800   20.6620   39.8120 C   0  0  0  0  0
    3.5440   20.1910   39.3810 N   0  0  0  0  0
    3.7140   20.0710   38.0510 C   0  0  0  0  0
    2.7580   20.4160   37.1670 C   0  0  0  0  0
    1.4950   20.9620   37.6150 C   0  0  0  0  0
    1.2590   22.2410   37.0340 O   0  0  0  0  0
    3.2090   20.1790   35.9160 N   0  0  0  0  0
    4.4450   19.6980   36.0730 C   0  0  0  0  0
    4.7840   19.6280   37.3620 N   0  0  0  0  0
    5.9050   18.9790   37.9010 C   0  0  0  0  0
    6.2900   17.7450   37.0850 C   0  0  0  0  0
    6.5180   16.7490   38.0750 O   0  0  0  0  0
    7.6790   18.0480   36.5420 C   0  0  0  0  0
    8.5210   16.8940   36.5830 O   0  0  0  0  0
    8.1990   19.1680   37.4400 C   0  0  0  0  0
    7.0470   19.8500   37.9560 O   0  0  0  0  0
    9.1110   20.1360   36.6980 C   0  0  0  0  0
    8.6500   20.4200   35.3740 O   0  0  0  0  0
    0.5014   21.3541   39.4281 H   0  0  0  0  0
    2.2370   20.7584   40.8883 H   0  0  0  0  0
    5.0957   19.3998   35.2510 H   0  0  0  0  0
    5.6213   18.6793   38.9099 H   0  0  0  0  0
    5.5664   17.4751   36.3158 H   0  0  0  0  0
    6.7687   15.9265   37.6481 H   0  0  0  0  0
    7.6606   18.3423   35.4926 H   0  0  0  0  0
    9.3869   17.1185   36.2346 H   0  0  0  0  0
    8.8077   18.7462   38.2398 H   0  0  0  0  0
   10.0958   19.6756   36.6190 H   0  0  0  0  0
    9.1302   21.0728   37.2549 H   0  0  0  0  0
    9.2560   21.0319   34.9497 H   0  0  0  0  0
  2  1  1  0  0  0
  1  6  1  0  0  0
  2  3  2  0  0  0
  3  4  1  0  0  0
  4  5  4  0  0  0
  4 10  4  0  0  0
  5  6  1  0  0  0
  5  8  4  0  0  0
  6  7  2  0  0  0
  8  9  4  0  0  0
 10  9  4  0  0  0
 10 11  1  0  0  0
 11 12  1  0  0  0
 11 17  1  0  0  0
 12 13  1  0  0  0
 12 14  1  0  0  0
 14 15  1  0  0  0
 14 16  1  0  0  0
 16 17  1  0  0  0
 16 18  1  0  0  0
 18 19  1  0  0  0
  1 20  1  0  0  0
  2 21  1  0  0  0
  9 22  1  0  0  0
 11 23  1  0  0  0
 12 24  1  0  0  0
 13 25  1  0  0  0
 14 26  1  0  0  0
 15 27  1  0  0  0
 16 28  1  0  0  0
 18 29  1  0  0  0
 18 30  1  0  0  0
 19 31  1  0  0  0
M  END
$$$$
