5ap4_ligand
  -I-interpret- 

 57 60  0  0  0  0  0  0  0  0999 V2000
   -0.0580   -6.9250  -16.0290 N   0  0  0  0  0
   -1.1370   -7.2330  -15.8770 C   0  0  0  0  0
   -2.5080   -7.6070  -15.6570 C   0  0  0  0  0
   -2.6000   -8.5050  -14.5640 O   0  0  0  0  0
   -2.2240   -9.8390  -14.7090 C   0  0  0  0  0
   -2.3430  -10.6520  -13.5880 C   0  0  0  0  0
   -2.8600  -10.1930  -12.3280 C   0  0  0  0  0
   -3.5510   -9.0170  -12.0460 C   0  0  0  0  0
   -2.7770  -10.8900  -11.0800 C   0  0  0  0  0
   -3.3820  -10.1880  -10.0920 N   0  0  0  0  0
   -3.8460   -9.0590  -10.6900 N   0  0  0  0  0
   -4.5730   -8.0360   -9.9350 C   0  0  0  0  0
   -1.7460  -10.3380  -15.9310 C   0  0  0  0  0
   -1.3800  -11.6720  -16.0240 C   0  0  0  0  0
   -1.4840  -12.4950  -14.9130 C   0  0  0  0  0
   -1.9570  -11.9850  -13.7250 C   0  0  0  0  0
   -0.9130  -12.1340  -17.2650 N   0  0  0  0  0
   -0.0470  -13.1930  -17.4730 C   0  0  0  0  0
    0.2420  -14.0200  -16.4360 N   0  0  0  0  0
    1.1140  -15.0390  -16.7050 C   0  0  0  0  0
    1.6840  -15.2360  -17.9770 C   0  0  0  0  0
    2.5770  -16.2870  -18.2280 C   0  0  0  0  0
    3.3130  -17.1490  -18.4410 N   0  0  0  0  0
    1.3540  -14.3650  -19.0060 C   0  0  0  0  0
    0.4890  -13.3320  -18.7770 C   0  0  0  0  0
    1.4500  -15.8940  -15.6930 N   0  0  0  0  0
    1.0050  -15.7310  -14.3160 C   0  0  0  0  0
   -0.2550  -16.5380  -14.0750 C   0  0  0  0  0
   -0.7080  -16.4360  -12.6250 C   0  0  0  0  0
    0.3880  -16.8610  -11.6750 C   0  0  0  0  0
    1.6430  -16.0510  -11.9110 C   0  0  0  0  0
    2.1030  -16.1520  -13.3590 C   0  0  0  0  0
   -2.8936   -8.0939  -16.5528 H   0  0  0  0  0
   -3.0909   -6.7131  -15.4349 H   0  0  0  0  0
   -3.8082   -8.2239  -12.7481 H   0  0  0  0  0
   -2.2918  -11.8564  -10.9432 H   0  0  0  0  0
   -4.0351   -7.0900   -9.9966 H   0  0  0  0  0
   -5.5711   -7.9160  -10.3563 H   0  0  0  0  0
   -4.6519   -8.3434   -8.8922 H   0  0  0  0  0
   -1.6634   -9.6830  -16.7983 H   0  0  0  0  0
   -1.1920  -13.5430  -14.9801 H   0  0  0  0  0
   -2.0324  -12.6460  -12.8616 H   0  0  0  0  0
   -1.2445  -11.6409  -18.0941 H   0  0  0  0  0
    1.7850  -14.5049  -19.9973 H   0  0  0  0  0
    0.2200  -12.6370  -19.5725 H   0  0  0  0  0
    2.0462  -16.6914  -15.9148 H   0  0  0  0  0
    0.7788  -14.6796  -14.1389 H   0  0  0  0  0
   -0.0459  -17.5837  -14.3006 H   0  0  0  0  0
   -1.0460  -16.1457  -14.7142 H   0  0  0  0  0
   -1.5649  -17.0944  -12.4824 H   0  0  0  0  0
   -0.9658  -15.3980  -12.4146 H   0  0  0  0  0
    0.6115  -17.9145  -11.8432 H   0  0  0  0  0
    0.0503  -16.6978  -10.6515 H   0  0  0  0  0
    2.4328  -16.4399  -11.2683 H   0  0  0  0  0
    1.4285  -15.0060  -11.6873 H   0  0  0  0  0
    2.9578  -15.4902  -13.4986 H   0  0  0  0  0
    2.3669  -17.1887  -13.5679 H   0  0  0  0  0
  1  2  3  0  0  0
  2  3  1  0  0  0
  3  4  1  0  0  0
  4  5  1  0  0  0
  5  6  4  0  0  0
  5 13  4  0  0  0
  6  7  1  0  0  0
  6 16  4  0  0  0
  7  8  4  0  0  0
  7  9  4  0  0  0
  8 11  4  0  0  0
  9 10  4  0  0  0
 10 11  4  0  0  0
 11 12  1  0  0  0
 13 14  4  0  0  0
 14 15  4  0  0  0
 14 17  1  0  0  0
 15 16  4  0  0  0
 17 18  1  0  0  0
 18 19  4  0  0  0
 18 25  4  0  0  0
 19 20  4  0  0  0
 20 21  4  0  0  0
 20 26  1  0  0  0
 21 22  1  0  0  0
 21 24  4  0  0  0
 22 23  3  0  0  0
 24 25  4  0  0  0
 26 27  1  0  0  0
 27 28  1  0  0  0
 27 32  1  0  0  0
 28 29  1  0  0  0
 29 30  1  0  0  0
 30 31  1  0  0  0
 31 32  1  0  0  0
  3 33  1  0  0  0
  3 34  1  0  0  0
  8 35  1  0  0  0
  9 36  1  0  0  0
 12 37  1  0  0  0
 12 38  1  0  0  0
 12 39  1  0  0  0
 13 40  1  0  0  0
 15 41  1  0  0  0
 16 42  1  0  0  0
 17 43  1  0  0  0
 24 44  1  0  0  0
 25 45  1  0  0  0
 26 46  1  0  0  0
 27 47  1  0  0  0
 28 48  1  0  0  0
 28 49  1  0  0  0
 29 50  1  0  0  0
 29 51  1  0  0  0
 30 52  1  0  0  0
 30 53  1  0  0  0
 31 54  1  0  0  0
 31 55  1  0  0  0
 32 56  1  0  0  0
 32 57  1  0  0  0
M  END
$$$$
