3h2c_ligand
  -I-interpret- 

 16 17  0  0  0  0  0  0  0  0999 V2000
  -77.4520   82.1780   91.0700 N   0  0  0  0  0
  -77.3210   83.1420   92.0090 C   0  0  0  0  0
  -76.3370   83.1050   92.9470 N   0  0  0  0  0
  -76.1670   84.1110   93.9430 N   0  0  0  0  0
  -78.2590   84.2860   91.9790 C   0  0  0  0  0
  -79.3290   84.6500   91.2260 N   0  0  0  0  0
  -79.8470   85.8010   91.7260 C   0  0  0  0  0
  -79.1120   86.2080   92.7990 N   0  0  0  0  0
  -78.1150   85.3210   93.0100 C   0  0  0  0  0
  -77.0210   85.1700   94.0200 C   0  0  0  0  0
  -76.9040   86.1190   94.9730 N   0  0  0  0  0
  -76.8013   81.3927   91.0510 H   0  0  0  0  0
  -78.2015   82.2360   90.3806 H   0  0  0  0  0
  -80.7189   86.3210   91.3292 H   0  0  0  0  0
  -76.1579   86.0568   95.6658 H   0  0  0  0  0
  -77.5617   86.8982   95.0003 H   0  0  0  0  0
  1  2  1  0  0  0
  2  3  4  0  0  0
  2  5  4  0  0  0
  3  4  4  0  0  0
  4 10  4  0  0  0
  5  6  4  0  0  0
  5  9  4  0  0  0
  6  7  4  0  0  0
  7  8  4  0  0  0
  8  9  4  0  0  0
  9 10  4  0  0  0
 10 11  1  0  0  0
  1 12  1  0  0  0
  1 13  1  0  0  0
  7 14  1  0  0  0
 11 15  1  0  0  0
 11 16  1  0  0  0
M  END
$$$$
