6h5w_ligand
  -I-interpret- 

 51 53  0  0  0  0  0  0  0  0999 V2000
  -14.9430   -7.5910   24.1630 C   0  0  0  0  0
  -11.7460   -8.9550   24.9880 C   0  0  0  0  0
  -13.5630   -6.7860   19.8740 C   0  0  0  0  0
  -13.2730   -6.4870   18.4310 C   0  0  0  0  0
  -11.9460   -5.7400   18.3490 C   0  0  0  0  0
  -11.4290   -5.8280   16.9230 C   0  0  0  0  0
  -10.7260   -6.9300   16.4680 C   0  0  0  0  0
  -10.2870   -7.0000   15.1630 C   0  0  0  0  0
  -10.5630   -5.9570   14.3170 C   0  0  0  0  0
  -11.2720   -4.8560   14.7620 C   0  0  0  0  0
  -11.7070   -4.7860   16.0720 C   0  0  0  0  0
  -13.1490   -8.1630   22.4720 C   0  0  0  0  0
  -14.2940   -8.3870   21.5280 C   0  0  0  0  0
  -14.8540   -9.8080   21.6110 C   0  0  0  0  0
  -15.0270  -10.3180   23.0400 C   0  0  0  0  0
  -15.1270   -6.9340   25.5280 C   0  0  0  0  0
  -14.1640   -7.4410   26.5250 C   0  0  0  0  0
  -12.7970   -7.0410   26.1070 C   0  0  0  0  0
  -12.4000   -7.6160   24.7540 C   0  0  0  0  0
  -13.5140   -7.7870   23.7830 N   0  0  0  0  0
  -13.8870   -8.1290   20.1830 N   0  0  0  0  0
  -10.5280   -8.9800   25.2860 O   0  0  0  0  0
  -12.3870  -10.0430   24.9160 O   0  0  0  0  0
  -12.0170   -8.3160   22.1770 O   0  0  0  0  0
  -13.5780   -5.9560   20.7280 O   0  0  0  0  0
  -15.8940   -9.1580   24.1530 S   0  0  0  0  0
  -14.7690   -5.5410   17.9460 S   0  0  0  0  0
  -15.3283   -6.9190   23.3961 H   0  0  0  0  0
  -13.1283   -7.3318   17.7575 H   0  0  0  0  0
  -11.2252   -6.1867   19.0338 H   0  0  0  0  0
  -12.0892   -4.6962   18.6286 H   0  0  0  0  0
  -10.5166   -7.7536   17.1506 H   0  0  0  0  0
   -9.7308   -7.8685   14.8103 H   0  0  0  0  0
  -10.2201   -5.9959   13.2831 H   0  0  0  0  0
  -11.4891   -4.0381   14.0750 H   0  0  0  0  0
  -12.2624   -3.9169   16.4247 H   0  0  0  0  0
  -15.0815   -7.6949   21.8262 H   0  0  0  0  0
  -14.1431  -10.4678   21.1136 H   0  0  0  0  0
  -15.8405   -9.7968   21.1476 H   0  0  0  0  0
  -14.0282  -10.4691   23.4495 H   0  0  0  0  0
  -15.6319  -11.2232   22.9862 H   0  0  0  0  0
  -16.1326   -7.1619   25.8813 H   0  0  0  0  0
  -14.9640   -5.8624   25.4134 H   0  0  0  0  0
  -14.2307   -8.5272   26.5873 H   0  0  0  0  0
  -14.3899   -7.0230   27.5060 H   0  0  0  0  0
  -12.0964   -7.4225   26.8498 H   0  0  0  0  0
  -12.7780   -5.9542   26.0258 H   0  0  0  0  0
  -11.7289   -6.8878   24.2985 H   0  0  0  0  0
  -13.8329   -8.8706   19.4848 H   0  0  0  0  0
  -13.2995   -9.8605   24.6801 H   0  0  0  0  0
  -15.8417   -6.3177   18.0681 H   0  0  0  0  0
 16  1  1  0  0  0
  1 20  1  0  0  0
  1 26  1  0  0  0
 19  2  1  0  0  0
  2 22  2  0  0  0
  2 23  1  0  0  0
  3  4  1  0  0  0
 21  3  1  0  0  0
  3 25  2  0  0  0
  4  5  1  0  0  0
  4 27  1  0  0  0
  5  6  1  0  0  0
  6  7  4  0  0  0
  6 11  4  0  0  0
  7  8  4  0  0  0
  8  9  4  0  0  0
 10  9  4  0  0  0
 11 10  4  0  0  0
 12 13  1  0  0  0
 20 12  1  0  0  0
 12 24  2  0  0  0
 14 13  1  0  0  0
 13 21  1  0  0  0
 15 14  1  0  0  0
 26 15  1  0  0  0
 17 16  1  0  0  0
 18 17  1  0  0  0
 18 19  1  0  0  0
 19 20  1  0  0  0
  1 28  1  0  0  0
  4 29  1  0  0  0
  5 30  1  0  0  0
  5 31  1  0  0  0
  7 32  1  0  0  0
  8 33  1  0  0  0
  9 34  1  0  0  0
 10 35  1  0  0  0
 11 36  1  0  0  0
 13 37  1  0  0  0
 14 38  1  0  0  0
 14 39  1  0  0  0
 15 40  1  0  0  0
 15 41  1  0  0  0
 16 42  1  0  0  0
 16 43  1  0  0  0
 17 44  1  0  0  0
 17 45  1  0  0  0
 18 46  1  0  0  0
 18 47  1  0  0  0
 19 48  1  0  0  0
 21 49  1  0  0  0
 23 50  1  0  0  0
 27 51  1  0  0  0
M  END
$$$$
