1ibc_ligand
  -I-interpret- 

 77 79  0  0  0  0  0  0  0  0999 V2000
   31.8020   70.9310   11.1460 C   0  0  0  0  0
   32.1910   71.5280   10.1430 O   0  0  0  0  0
   30.7830   71.5700   12.0600 C   0  0  0  0  0
   32.2840   69.7530   11.5290 N   0  0  0  0  0
   33.2620   68.9950   10.7490 C   0  0  0  0  0
   32.6670   67.6170   10.5260 C   0  0  0  0  0
   31.8890   67.1410   11.3500 O   0  0  0  0  0
   34.5880   68.8670   11.4990 C   0  0  0  0  0
   35.4100   70.1160   11.4880 C   0  0  0  0  0
   35.2230   71.2250   12.2560 C   0  0  0  0  0
   36.5440   70.3910   10.6550 C   0  0  0  0  0
   36.1670   72.1770   11.9540 N   0  0  0  0  0
   36.9900   71.6940   10.9720 C   0  0  0  0  0
   37.2230   69.6690    9.6640 C   0  0  0  0  0
   38.0850   72.2920   10.3350 C   0  0  0  0  0
   38.3120   70.2630    9.0290 C   0  0  0  0  0
   38.7290   71.5640    9.3690 C   0  0  0  0  0
   33.0260   66.9730    9.4230 N   0  0  0  0  0
   32.4870   65.6540    9.1130 C   0  0  0  0  0
   33.5740   64.6470    8.7540 C   0  0  0  0  0
   34.7590   64.9720    8.7370 O   0  0  0  0  0
   31.4830   65.7490    7.9560 C   0  0  0  0  0
   30.2700   66.6420    8.2050 C   0  0  0  0  0
   29.3400   66.7110    7.0020 C   0  0  0  0  0
   29.0350   65.6510    6.4090 O   0  0  0  0  0
   28.9120   67.8290    6.6460 O   0  0  0  0  0
   33.1510   63.4170    8.4830 N   0  0  0  0  0
   34.0550   62.3430    8.1060 C   0  0  0  0  0
   34.0280   62.1810    6.5960 C   0  0  0  0  0
   32.9540   62.1590    5.9860 O   0  0  0  0  0
   33.6050   61.0140    8.7190 C   0  0  0  0  0
   33.7350   60.9410   10.2080 C   0  0  0  0  0
   34.3780   61.9080   10.9520 N   0  0  0  0  0
   33.3130   60.0060   11.0890 C   0  0  0  0  0
   34.3460   61.5680   12.2280 C   0  0  0  0  0
   33.7070   60.4180   12.3390 N   0  0  0  0  0
   35.2080   62.0920    6.0000 N   0  0  0  0  0
   35.3190   61.8840    4.5710 C   0  0  0  0  0
   35.5730   60.4080    4.3170 C   0  0  0  0  0
   34.3460   59.7810    3.9470 O   0  0  0  0  0
   36.4590   62.7230    3.9890 C   0  0  0  0  0
   36.0540   63.4740    2.7290 C   0  0  0  0  0
   34.9050   63.9440    2.6530 O   0  0  0  0  0
   36.8900   63.6000    1.8110 O   0  0  0  0  0
   31.1827   72.5064   12.4493 H   0  0  0  0  0
   29.8688   71.7684   11.5005 H   0  0  0  0  0
   30.5649   70.8947   12.8873 H   0  0  0  0  0
   31.9557   69.3581   12.4103 H   0  0  0  0  0
   33.4696   69.5035    9.8075 H   0  0  0  0  0
   35.1694   68.0907   11.0016 H   0  0  0  0  0
   34.3528   68.6416   12.5392 H   0  0  0  0  0
   34.4376   71.3409   13.0028 H   0  0  0  0  0
   36.9052   68.6617    9.3950 H   0  0  0  0  0
   38.4123   73.2980   10.5977 H   0  0  0  0  0
   38.8492   69.7118    8.2572 H   0  0  0  0  0
   39.5831   72.0019    8.8524 H   0  0  0  0  0
   33.6896   67.4074    8.7816 H   0  0  0  0  0
   31.9893   65.2986   10.0153 H   0  0  0  0  0
   31.0978   64.7417    7.7976 H   0  0  0  0  0
   32.0212   66.1862    7.1150 H   0  0  0  0  0
   30.6309   67.6500    8.4093 H   0  0  0  0  0
   29.7091   66.2221    9.0400 H   0  0  0  0  0
   29.4670   64.9094    6.8391 H   0  0  0  0  0
   32.1522   63.2185    8.5418 H   0  0  0  0  0
   35.0533   62.5951    8.4636 H   0  0  0  0  0
   34.2482   60.2378    8.3045 H   0  0  0  0  0
   32.5468   60.8973    8.4853 H   0  0  0  0  0
   32.7629   59.0954   10.8517 H   0  0  0  0  0
   34.7748   62.1403   13.0506 H   0  0  0  0  0
   36.0569   62.1717    6.5599 H   0  0  0  0  0
   34.3940   62.1938    4.0847 H   0  0  0  0  0
   35.9652   59.9422    5.2210 H   0  0  0  0  0
   36.3005   60.2937    3.5134 H   0  0  0  0  0
   34.5010   58.8475    3.7853 H   0  0  0  0  0
   37.2721   62.0459    3.7274 H   0  0  0  0  0
   36.7479   63.4597    4.7386 H   0  0  0  0  0
   37.7094   63.1689    2.0646 H   0  0  0  0  0
  1  2  2  0  0  0
  1  3  1  0  0  0
  1  4  1  0  0  0
  4  5  1  0  0  0
  5  6  1  0  0  0
  5  8  1  0  0  0
  6  7  2  0  0  0
  6 18  1  0  0  0
  8  9  1  0  0  0
  9 10  4  0  0  0
  9 11  4  0  0  0
 10 12  4  0  0  0
 11 13  4  0  0  0
 11 14  4  0  0  0
 12 13  4  0  0  0
 13 15  4  0  0  0
 14 16  4  0  0  0
 15 17  4  0  0  0
 16 17  4  0  0  0
 18 19  1  0  0  0
 19 20  1  0  0  0
 19 22  1  0  0  0
 20 21  2  0  0  0
 20 27  1  0  0  0
 22 23  1  0  0  0
 23 24  1  0  0  0
 24 25  1  0  0  0
 24 26  2  0  0  0
 27 28  1  0  0  0
 28 29  1  0  0  0
 28 31  1  0  0  0
 29 30  2  0  0  0
 29 37  1  0  0  0
 31 32  1  0  0  0
 32 33  4  0  0  0
 32 34  4  0  0  0
 33 35  4  0  0  0
 34 36  4  0  0  0
 35 36  4  0  0  0
 37 38  1  0  0  0
 38 39  1  0  0  0
 38 41  1  0  0  0
 39 40  1  0  0  0
 41 42  1  0  0  0
 42 43  2  0  0  0
 42 44  1  0  0  0
  3 45  1  0  0  0
  3 46  1  0  0  0
  3 47  1  0  0  0
  4 48  1  0  0  0
  5 49  1  0  0  0
  8 50  1  0  0  0
  8 51  1  0  0  0
 10 52  1  0  0  0
 14 53  1  0  0  0
 15 54  1  0  0  0
 16 55  1  0  0  0
 17 56  1  0  0  0
 18 57  1  0  0  0
 19 58  1  0  0  0
 22 59  1  0  0  0
 22 60  1  0  0  0
 23 61  1  0  0  0
 23 62  1  0  0  0
 25 63  1  0  0  0
 27 64  1  0  0  0
 28 65  1  0  0  0
 31 66  1  0  0  0
 31 67  1  0  0  0
 34 68  1  0  0  0
 35 69  1  0  0  0
 37 70  1  0  0  0
 38 71  1  0  0  0
 39 72  1  0  0  0
 39 73  1  0  0  0
 40 74  1  0  0  0
 41 75  1  0  0  0
 41 76  1  0  0  0
 44 77  1  0  0  0
M  END
$$$$
