1r9l_ligand
  -I-interpret- 

 20 19  0  0  0  0  0  0  0  0999 V2000
   26.6760   22.9550   72.6820 N   0  3  0  0  0
   25.2290   22.9420   72.3760 C   0  0  0  0  0
   24.2530   22.8310   73.5110 C   0  0  0  0  0
   23.0980   23.1860   73.3110 O   0  0  0  0  0
   24.6270   22.3770   74.6580 O   0  0  0  0  0
   27.3580   23.3720   71.4420 C   0  0  0  0  0
   27.0140   23.9190   73.7460 C   0  0  0  0  0
   27.0870   21.5820   73.0400 C   0  0  0  0  0
   25.0736   22.0428   71.7799 H   0  0  0  0  0
   25.0267   23.9123   71.9224 H   0  0  0  0  0
   25.5596   22.1519   74.6232 H   0  0  0  0  0
   27.0218   24.3704   71.1621 H   0  0  0  0  0
   28.4353   23.3831   71.6075 H   0  0  0  0  0
   27.1190   22.6695   70.6435 H   0  0  0  0  0
   26.5036   23.6359   74.6666 H   0  0  0  0  0
   28.0916   23.9140   73.9102 H   0  0  0  0  0
   26.6957   24.9170   73.4448 H   0  0  0  0  0
   28.1652   21.5564   73.1979 H   0  0  0  0  0
   26.5773   21.2783   73.9543 H   0  0  0  0  0
   26.8207   20.9018   72.2310 H   0  0  0  0  0
  1  2  1  0  0  0
  1  6  1  0  0  0
  1  7  1  0  0  0
  1  8  1  0  0  0
  2  3  1  0  0  0
  3  4  2  0  0  0
  3  5  1  0  0  0
  2  9  1  0  0  0
  2 10  1  0  0  0
  5 11  1  0  0  0
  6 12  1  0  0  0
  6 13  1  0  0  0
  6 14  1  0  0  0
  7 15  1  0  0  0
  7 16  1  0  0  0
  7 17  1  0  0  0
  8 18  1  0  0  0
  8 19  1  0  0  0
  8 20  1  0  0  0
M  END
$$$$
