6cbg_ligand
  -I-interpret- 

 21 22  0  0  0  0  0  0  0  0999 V2000
  -33.9160  -12.4210    6.8620 C   0  0  0  0  0
  -32.6110  -12.8710    6.8620 C   0  0  0  0  0
  -33.8690  -11.0380    6.9420 C   0  0  0  0  0
  -31.8270  -11.8090    6.9740 N   0  0  0  0  0
  -32.5740  -10.6540    7.0170 N   0  0  0  0  0
  -35.1320  -13.2570    6.6990 C   0  0  0  0  0
  -36.4000  -12.6870    6.6880 C   0  0  0  0  0
  -37.5140  -13.5030    6.4820 C   0  0  0  0  0
  -37.3910  -14.8840    6.2930 C   0  0  0  0  0
  -36.1190  -15.4360    6.3060 C   0  0  0  0  0
  -35.0030  -14.6210    6.4890 C   0  0  0  0  0
  -38.8660  -12.9250    6.4980 C   0  0  0  0  0
  -39.8030  -13.5010    5.9280 O   0  0  0  0  0
  -39.0210  -11.8040    7.1930 O   0  0  0  0  0
  -32.2857  -13.9084    6.7842 H   0  0  0  0  0
  -34.7313  -10.3713    6.9441 H   0  0  0  0  0
  -36.5231  -11.6145    6.8386 H   0  0  0  0  0
  -38.2710  -15.5087    6.1398 H   0  0  0  0  0
  -35.9914  -16.5103    6.1727 H   0  0  0  0  0
  -34.0081  -15.0657    6.4665 H   0  0  0  0  0
  -38.1727  -11.5295    7.5488 H   0  0  0  0  0
  1  2  4  0  0  0
  1  3  4  0  0  0
  1  6  1  0  0  0
  2  4  4  0  0  0
  3  5  4  0  0  0
  4  5  4  0  0  0
  6  7  4  0  0  0
  6 11  4  0  0  0
  7  8  4  0  0  0
  8  9  4  0  0  0
  8 12  1  0  0  0
  9 10  4  0  0  0
 10 11  4  0  0  0
 12 13  2  0  0  0
 12 14  1  0  0  0
  2 15  1  0  0  0
  3 16  1  0  0  0
  7 17  1  0  0  0
  9 18  1  0  0  0
 10 19  1  0  0  0
 11 20  1  0  0  0
 14 21  1  0  0  0
M  END
$$$$
