4xit_ligand
  -I-interpret- 

 58 62  0  0  0  0  0  0  0  0999 V2000
    2.7440   -8.8030  -25.6150 N   0  0  0  0  0
    6.4160  -11.5830  -24.3170 C   0  0  0  0  0
    7.5470  -12.5360  -24.4700 C   0  0  0  0  0
    7.2590  -13.9720  -24.8520 C   0  0  0  0  0
    6.0090  -14.2010  -25.7170 C   0  0  0  0  0
    4.8310  -13.4460  -25.0920 C   0  0  0  0  0
    5.6820  -15.6900  -25.7690 C   0  0  0  0  0
    0.7560  -12.2500  -24.1760 C   0  0  0  0  0
    0.7170  -10.1210  -25.2710 C   0  0  0  0  0
    3.6010   -7.9190  -24.8170 C   0  0  0  0  0
    3.0670   -7.4420  -27.8670 C   0  0  0  0  0
    3.4610   -6.1690  -27.7320 C   0  0  0  0  0
    3.9870   -5.7780  -28.9610 C   0  0  0  0  0
   -1.4510  -11.2950  -25.0690 C   0  0  0  0  0
    0.0150  -13.7180  -23.6430 Cl  0  0  0  0  0
    2.1190  -12.1440  -23.9930 C   0  0  0  0  0
    0.0250  -11.2460  -24.8160 C   0  0  0  0  0
   -2.2330  -11.7920  -24.1230 N   0  0  0  0  0
   -1.8980  -10.8680  -26.1440 O   0  0  0  0  0
    2.1000  -10.0000  -25.1150 C   0  0  0  0  0
    2.3900   -8.4080  -26.9700 C   0  0  0  0  0
    3.3270   -7.8730  -29.1240 O   0  0  0  0  0
    3.8830   -6.8240  -29.7650 C   0  0  0  0  0
    4.3090   -8.5880  -23.6450 C   0  0  0  0  0
    4.9300   -9.9130  -23.9770 C   0  0  0  0  0
    2.8190  -11.0450  -24.4920 C   0  0  0  0  0
    4.2530  -11.0410  -24.3830 N   0  0  0  0  0
    5.1550  -12.0660  -24.6000 C   0  0  0  0  0
    6.2560  -13.7080  -27.1470 C   0  0  0  0  0
    8.7110  -12.1840  -24.3300 O   0  0  0  0  0
    6.2720  -10.1950  -23.9210 C   0  0  0  0  0
    7.4150   -9.2930  -23.5470 C   0  0  0  0  0
    7.0882  -14.5088  -23.9188 H   0  0  0  0  0
    8.1087  -14.3070  -25.4469 H   0  0  0  0  0
    4.5107  -14.0232  -24.2246 H   0  0  0  0  0
    4.0781  -13.3343  -25.8722 H   0  0  0  0  0
    4.7897  -15.8437  -26.3758 H   0  0  0  0  0
    6.5202  -16.2296  -26.2099 H   0  0  0  0  0
    5.5033  -16.0570  -24.7583 H   0  0  0  0  0
    0.1646   -9.3183  -25.7595 H   0  0  0  0  0
    2.9524   -7.1516  -24.3945 H   0  0  0  0  0
    4.3799   -7.5512  -25.4849 H   0  0  0  0  0
    3.3847   -5.5569  -26.8334 H   0  0  0  0  0
    4.4027   -4.8020  -29.2114 H   0  0  0  0  0
    2.6540  -12.9257  -23.4538 H   0  0  0  0  0
   -3.2422  -11.8335  -24.2652 H   0  0  0  0  0
   -1.8262  -12.1333  -23.2521 H   0  0  0  0  0
    1.4479   -7.8902  -26.7898 H   0  0  0  0  0
    2.5690   -9.3404  -27.5054 H   0  0  0  0  0
    4.2039   -6.8364  -30.8066 H   0  0  0  0  0
    3.5579   -8.7684  -22.8760 H   0  0  0  0  0
    5.1154   -7.9236  -23.3346 H   0  0  0  0  0
    7.0911  -14.2583  -27.5805 H   0  0  0  0  0
    5.3606  -13.8724  -27.7464 H   0  0  0  0  0
    6.4914  -12.6439  -27.1275 H   0  0  0  0  0
    7.9407   -9.7116  -22.6888 H   0  0  0  0  0
    8.1012   -9.2097  -24.3898 H   0  0  0  0  0
    7.0289   -8.3060  -23.2922 H   0  0  0  0  0
 10  1  1  0  0  0
  1 20  1  0  0  0
  1 21  1  0  0  0
  2  3  1  0  0  0
  2 28  4  0  0  0
 31  2  4  0  0  0
  3  4  1  0  0  0
  3 30  2  0  0  0
  4  5  1  0  0  0
  6  5  1  0  0  0
  5  7  1  0  0  0
  5 29  1  0  0  0
 28  6  1  0  0  0
  8 15  1  0  0  0
 16  8  4  0  0  0
 17  8  4  0  0  0
  9 17  4  0  0  0
 20  9  4  0  0  0
 24 10  1  0  0  0
 11 12  4  0  0  0
 21 11  1  0  0  0
 11 22  4  0  0  0
 12 13  4  0  0  0
 23 13  4  0  0  0
 17 14  1  0  0  0
 14 18  1  0  0  0
 14 19  2  0  0  0
 26 16  4  0  0  0
 20 26  4  0  0  0
 22 23  4  0  0  0
 25 24  1  0  0  0
 25 27  4  0  0  0
 25 31  4  0  0  0
 26 27  1  0  0  0
 27 28  4  0  0  0
 31 32  1  0  0  0
  4 33  1  0  0  0
  4 34  1  0  0  0
  6 35  1  0  0  0
  6 36  1  0  0  0
  7 37  1  0  0  0
  7 38  1  0  0  0
  7 39  1  0  0  0
  9 40  1  0  0  0
 10 41  1  0  0  0
 10 42  1  0  0  0
 12 43  1  0  0  0
 13 44  1  0  0  0
 16 45  1  0  0  0
 18 46  1  0  0  0
 18 47  1  0  0  0
 21 48  1  0  0  0
 21 49  1  0  0  0
 23 50  1  0  0  0
 24 51  1  0  0  0
 24 52  1  0  0  0
 29 53  1  0  0  0
 29 54  1  0  0  0
 29 55  1  0  0  0
 32 56  1  0  0  0
 32 57  1  0  0  0
 32 58  1  0  0  0
M  END
$$$$
