5wl0_ligand
  -I-interpret- 

 47 51  0  0  0  0  0  0  0  0999 V2000
  -24.6360    4.8550    8.7940 C   0  0  0  0  0
  -24.5810    4.7800    7.4320 C   0  0  0  0  0
  -25.2130    3.7380    6.6940 C   0  0  0  0  0
  -25.9450    2.8370    8.6210 C   0  0  0  0  0
  -25.3390    3.8600    9.4250 C   0  0  0  0  0
  -25.6500    3.5560   10.7780 C   0  0  0  0  0
  -25.9090    2.7510    7.2570 N   0  0  0  0  0
  -26.4040    2.3780   10.7840 C   0  0  0  0  0
  -26.5900    1.9260    9.4860 N   0  0  0  0  0
  -25.2730    4.3200   11.9460 C   0  0  0  0  0
  -25.6740    3.8800   13.1730 N   0  0  0  0  0
  -25.3930    4.6910   14.2280 C   0  0  0  0  0
  -24.7400    5.9200   14.0670 C   0  0  0  0  0
  -24.3460    6.2670   12.7790 C   0  0  0  0  0
  -24.6000    5.4610   11.7020 N   0  0  0  0  0
  -23.7520    7.4480   12.5630 N   0  0  0  0  0
  -23.3000    7.8460   11.2620 C   0  0  0  0  0
  -22.0490    8.7150   11.5410 C   0  0  0  0  0
  -21.9810    9.8200   10.4690 C   0  0  0  0  0
  -22.4000    9.2420    9.1150 C   0  0  0  0  0
  -23.8900    8.8430    9.1170 C   0  0  0  0  0
  -24.3730    8.6960   10.5610 C   0  0  0  0  0
  -24.4320   10.1240   11.1740 C   0  0  0  0  0
  -23.0550   10.8380   10.9660 C   0  0  0  0  0
  -20.8160    7.8390   11.6630 C   0  0  0  0  0
  -20.5160    7.1140   12.6110 O   0  0  0  0  0
  -19.9650    7.8860   10.6200 O   0  0  0  0  0
  -24.5260    6.7760   15.0820 F   0  0  0  0  0
  -23.9160    5.7220    6.7610 F   0  0  0  0  0
  -24.1499    5.6583    9.3477 H   0  0  0  0  0
  -25.1221    3.7488    5.6079 H   0  0  0  0  0
  -26.7890    1.8871   11.6778 H   0  0  0  0  0
  -25.6848    4.3751   15.2296 H   0  0  0  0  0
  -23.6170    8.0841   13.3488 H   0  0  0  0  0
  -23.0907    6.9925   10.6171 H   0  0  0  0  0
  -22.1081    9.2246   12.5027 H   0  0  0  0  0
  -20.9901   10.2559   10.3415 H   0  0  0  0  0
  -21.8017    8.3530    8.9156 H   0  0  0  0  0
  -22.2438   10.0014    8.3488 H   0  0  0  0  0
  -24.0144    7.8955    8.5927 H   0  0  0  0  0
  -24.4744    9.6133    8.6138 H   0  0  0  0  0
  -25.3545    8.2315   10.6556 H   0  0  0  0  0
  -24.6473   10.0532   12.2402 H   0  0  0  0  0
  -25.2171   10.6984   10.6823 H   0  0  0  0  0
  -23.1722   11.6225   10.2184 H   0  0  0  0  0
  -22.7287   11.2616   11.9158 H   0  0  0  0  0
  -20.3115    8.4825    9.9524 H   0  0  0  0  0
  1  2  4  0  0  0
  1  5  4  0  0  0
  2  3  4  0  0  0
  2 29  1  0  0  0
  3  7  4  0  0  0
  5  4  4  0  0  0
  4  7  4  0  0  0
  4  9  4  0  0  0
  5  6  4  0  0  0
  6  8  4  0  0  0
  6 10  1  0  0  0
  8  9  4  0  0  0
 10 11  4  0  0  0
 10 15  4  0  0  0
 11 12  4  0  0  0
 12 13  4  0  0  0
 13 14  4  0  0  0
 13 28  1  0  0  0
 14 15  4  0  0  0
 14 16  1  0  0  0
 16 17  1  0  0  0
 17 18  1  0  0  0
 17 22  1  0  0  0
 18 19  1  0  0  0
 18 25  1  0  0  0
 19 20  1  0  0  0
 19 24  1  0  0  0
 20 21  1  0  0  0
 21 22  1  0  0  0
 22 23  1  0  0  0
 23 24  1  0  0  0
 25 26  2  0  0  0
 25 27  1  0  0  0
  1 30  1  0  0  0
  3 31  1  0  0  0
  8 32  1  0  0  0
 12 33  1  0  0  0
 16 34  1  0  0  0
 17 35  1  0  0  0
 18 36  1  0  0  0
 19 37  1  0  0  0
 20 38  1  0  0  0
 20 39  1  0  0  0
 21 40  1  0  0  0
 21 41  1  0  0  0
 22 42  1  0  0  0
 23 43  1  0  0  0
 23 44  1  0  0  0
 24 45  1  0  0  0
 24 46  1  0  0  0
 27 47  1  0  0  0
M  END
$$$$
