6ajx_ligand
  -I-interpret- 

 33 34  0  0  0  0  0  0  0  0999 V2000
  -10.2020   11.4550   -3.8330 C   0  0  0  0  0
  -11.2510   10.7610   -3.2320 C   0  0  0  0  0
  -11.0050    9.6670   -2.4050 C   0  0  0  0  0
   -9.7000    9.2490   -2.1740 C   0  0  0  0  0
   -8.6510    9.9460   -2.7750 C   0  0  0  0  0
   -8.8920   11.0380   -3.6030 C   0  0  0  0  0
   -9.4590    8.1540   -1.3410 C   0  0  0  0  0
  -10.6890    7.4680   -0.7280 C   0  0  0  0  0
  -10.3200    6.2970    0.1740 C   0  0  0  0  0
   -7.3880    9.5070   -2.5190 O   0  0  0  0  0
  -11.3540    5.5900    0.7910 C   0  0  0  0  0
  -11.0210    4.6220    1.7280 C   0  0  0  0  0
  -12.0090    3.8760    2.3820 C   0  0  0  0  0
  -13.3500    4.1220    2.0830 C   0  0  0  0  0
  -13.6870    5.0930    1.1380 C   0  0  0  0  0
  -12.6940    5.8380    0.4920 C   0  0  0  0  0
   -8.3210    7.7520   -1.0940 O   0  0  0  0  0
  -14.3330    3.4260    2.7290 O   0  0  0  0  0
  -10.4610   12.5280   -4.6380 O   0  0  0  0  0
  -12.2781   11.0787   -3.4116 H   0  0  0  0  0
  -11.8367    9.1387   -1.9389 H   0  0  0  0  0
   -8.0599   11.5651   -4.0698 H   0  0  0  0  0
  -11.2991    7.0822   -1.5448 H   0  0  0  0  0
  -11.2158    8.2048   -0.1216 H   0  0  0  0  0
   -9.7422    6.7323    0.9893 H   0  0  0  0  0
   -9.8267    5.5758   -0.4776 H   0  0  0  0  0
   -6.7573   10.0615   -2.9841 H   0  0  0  0  0
   -9.9715    4.4392    1.9589 H   0  0  0  0  0
  -11.7353    3.1152    3.1130 H   0  0  0  0  0
  -14.7355    5.2728    0.9007 H   0  0  0  0  0
  -12.9642    6.6029   -0.2360 H   0  0  0  0  0
  -15.1909    3.7141    2.4086 H   0  0  0  0  0
   -9.6336   12.8866   -4.9674 H   0  0  0  0  0
  1  2  4  0  0  0
  1  6  4  0  0  0
  1 19  1  0  0  0
  2  3  4  0  0  0
  3  4  4  0  0  0
  4  5  4  0  0  0
  4  7  1  0  0  0
  5  6  4  0  0  0
  5 10  1  0  0  0
  7  8  1  0  0  0
  7 17  2  0  0  0
  8  9  1  0  0  0
  9 11  1  0  0  0
 11 12  4  0  0  0
 11 16  4  0  0  0
 12 13  4  0  0  0
 13 14  4  0  0  0
 14 15  4  0  0  0
 14 18  1  0  0  0
 15 16  4  0  0  0
  2 20  1  0  0  0
  3 21  1  0  0  0
  6 22  1  0  0  0
  8 23  1  0  0  0
  8 24  1  0  0  0
  9 25  1  0  0  0
  9 26  1  0  0  0
 10 27  1  0  0  0
 12 28  1  0  0  0
 13 29  1  0  0  0
 15 30  1  0  0  0
 16 31  1  0  0  0
 18 32  1  0  0  0
 19 33  1  0  0  0
M  END
$$$$
