2bvr_ligand
  -I-interpret- 

 47 48  0  0  0  0  0  0  0  0999 V2000
   16.4540   -9.5390   12.2240 C   0  0  0  0  0
   15.4440   -9.5710   13.2400 C   0  0  0  0  0
   15.4380  -10.6260   14.2120 C   0  0  0  0  0
   16.4460  -11.6510   14.1660 C   0  0  0  0  0
   17.4560  -11.6110   13.1400 C   0  0  0  0  0
   17.4600  -10.5590   12.1720 C   0  0  0  0  0
   16.4640   -8.2810   11.0660 Cl  0  0  0  0  0
   16.4050  -12.9200   15.3700 S   0  0  0  0  0
   16.6940  -14.5870   14.7000 C   0  0  0  0  0
   15.3890  -15.2740   14.3200 C   0  0  0  0  0
   15.4540  -16.4010   13.8540 O   0  0  0  0  0
   14.1320  -14.6730   14.4830 N   0  0  0  0  0
   12.8060  -15.2770   14.1350 C   0  0  0  0  0
   12.1130  -15.7490   15.4400 C   0  0  0  0  0
   12.8310  -16.8140   16.2830 C   0  0  0  0  0
   13.4700  -16.4110   17.5100 C   0  0  0  0  0
   14.1490  -17.3790   18.3290 C   0  0  0  0  0
   14.2010  -18.7790   17.9370 C   0  0  0  0  0
   13.5580  -19.1680   16.7020 C   0  0  0  0  0
   12.8760  -18.1970   15.8820 C   0  0  0  0  0
   14.8640  -19.8290   18.7020 N   0  0  0  0  0
   15.5740  -19.7960   19.9360 C   0  0  0  0  0
   15.7520  -18.7030   20.6300 N   0  0  0  0  0
   16.0990  -20.9800   20.4200 N   0  0  0  0  0
   11.9320  -14.2320   13.4280 C   0  0  0  0  0
   12.3020  -13.0670   13.3840 O   0  0  0  0  0
   10.7260  -14.5680   12.8210 N   0  0  0  0  0
   14.6805   -8.7939   13.2743 H   0  0  0  0  0
   14.6699  -10.6508   14.9850 H   0  0  0  0  0
   18.2210  -12.3865   13.1014 H   0  0  0  0  0
   18.2257  -10.5325   11.3967 H   0  0  0  0  0
   17.1869  -15.1850   15.4665 H   0  0  0  0  0
   17.3082  -14.4958   13.8041 H   0  0  0  0  0
   14.1196  -13.7323   14.8772 H   0  0  0  0  0
   12.9488  -16.1265   13.4672 H   0  0  0  0  0
   11.1767  -16.2089   15.1238 H   0  0  0  0  0
   12.0529  -14.8652   16.0751 H   0  0  0  0  0
   13.4386  -15.3663   17.8194 H   0  0  0  0  0
   14.6300  -17.0600   19.2537 H   0  0  0  0  0
   13.5891  -20.2107   16.3858 H   0  0  0  0  0
   12.3933  -18.5104   14.9563 H   0  0  0  0  0
   14.8092  -20.7542   18.2761 H   0  0  0  0  0
   15.3739  -17.8176   20.2930 H   0  0  0  0  0
   16.6125  -20.9876   21.3013 H   0  0  0  0  0
   15.9728  -21.8458   19.8958 H   0  0  0  0  0
   10.1728  -13.8498   12.3535 H   0  0  0  0  0
   10.3950  -15.5325   12.8435 H   0  0  0  0  0
  1  2  4  0  0  0
  1  6  4  0  0  0
  1  7  1  0  0  0
  2  3  4  0  0  0
  3  4  4  0  0  0
  4  5  4  0  0  0
  4  8  1  0  0  0
  5  6  4  0  0  0
  8  9  1  0  0  0
  9 10  1  0  0  0
 10 11  2  0  0  0
 10 12  1  0  0  0
 12 13  1  0  0  0
 13 14  1  0  0  0
 13 25  1  0  0  0
 14 15  1  0  0  0
 15 16  4  0  0  0
 15 20  4  0  0  0
 16 17  4  0  0  0
 17 18  4  0  0  0
 18 19  4  0  0  0
 18 21  1  0  0  0
 19 20  4  0  0  0
 21 22  1  0  0  0
 22 23  2  0  0  0
 22 24  1  0  0  0
 25 26  2  0  0  0
 25 27  1  0  0  0
  2 28  1  0  0  0
  3 29  1  0  0  0
  5 30  1  0  0  0
  6 31  1  0  0  0
  9 32  1  0  0  0
  9 33  1  0  0  0
 12 34  1  0  0  0
 13 35  1  0  0  0
 14 36  1  0  0  0
 14 37  1  0  0  0
 16 38  1  0  0  0
 17 39  1  0  0  0
 19 40  1  0  0  0
 20 41  1  0  0  0
 21 42  1  0  0  0
 23 43  1  0  0  0
 24 44  1  0  0  0
 24 45  1  0  0  0
 27 46  1  0  0  0
 27 47  1  0  0  0
M  END
$$$$
