6dim_ligand
  -I-interpret- 

 21 22  0  0  0  0  0  0  0  0999 V2000
   -6.7880  -14.8030   32.2730 C   0  0  0  0  0
   -6.6500  -15.8370   31.3180 C   0  0  0  0  0
   -7.3590  -15.7720   30.1260 C   0  0  0  0  0
   -8.1940  -14.6830   29.8650 C   0  0  0  0  0
   -8.3310  -13.6620   30.8070 C   0  0  0  0  0
   -7.6120  -13.7320   32.0190 C   0  0  0  0  0
   -7.7220  -12.7110   32.9910 C   0  0  0  0  0
   -6.1800  -13.9390   34.3530 C   0  0  0  0  0
   -6.0960  -14.8750   33.4200 N   0  0  0  0  0
   -7.0540  -11.7620   35.2900 C   0  0  0  0  0
   -6.9880  -12.8170   34.1800 C   0  0  0  0  0
   -6.8860  -12.0860   36.5040 O   0  0  0  0  0
   -7.2990  -10.5670   35.0170 O   0  0  0  0  0
   -8.5600  -11.6110   32.7240 O   0  0  0  0  0
   -5.9899  -16.6813   31.5169 H   0  0  0  0  0
   -7.2638  -16.5725   29.3923 H   0  0  0  0  0
   -8.7401  -14.6303   28.9231 H   0  0  0  0  0
   -8.9891  -12.8163   30.6076 H   0  0  0  0  0
   -5.6064  -14.0483   35.2734 H   0  0  0  0  0
   -6.7071  -13.0275   36.5609 H   0  0  0  0  0
   -8.5353  -11.0036   33.4670 H   0  0  0  0  0
  1  2  4  0  0  0
  1  6  4  0  0  0
  1  9  4  0  0  0
  2  3  4  0  0  0
  3  4  4  0  0  0
  4  5  4  0  0  0
  5  6  4  0  0  0
  6  7  4  0  0  0
  7 11  4  0  0  0
  7 14  1  0  0  0
  9  8  4  0  0  0
  8 11  4  0  0  0
 11 10  1  0  0  0
 10 12  1  0  0  0
 10 13  2  0  0  0
  2 15  1  0  0  0
  3 16  1  0  0  0
  4 17  1  0  0  0
  5 18  1  0  0  0
  8 19  1  0  0  0
 12 20  1  0  0  0
 14 21  1  0  0  0
M  END
$$$$
