1t5a_ligand
  -I-interpret- 

  8  7  0  0  0  0  0  0  0  0999 V2000
   70.9350    0.5140   71.7250 C   0  0  0  0  0
   71.5060    1.6510   72.6370 C   0  0  0  0  0
   70.6550    0.8880   70.5780 O   0  0  0  0  0
   71.8250    1.3750   73.8390 O   0  0  0  0  0
   70.7890   -0.6670   72.1700 O   0  0  0  0  0
   71.6000    2.7760   72.0800 O   0  0  0  0  0
   71.6542    0.4457   74.0089 H   0  0  0  0  0
   71.0774   -0.7009   73.0850 H   0  0  0  0  0
  1  2  1  0  0  0
  1  3  2  0  0  0
  1  5  1  0  0  0
  2  4  1  0  0  0
  2  6  2  0  0  0
  4  7  1  0  0  0
  5  8  1  0  0  0
M  END
$$$$
