#	Name:			4hww_ligand
#	Creating user name:	wangrx
#	Creation time:		Wed Aug  4 17:10:28 2021

#	Modifying user name:	wangrx
#	Modification time:	Wed Aug  4 17:10:58 2021

@<TRIPOS>MOLECULE
4hww_ligand
   52    52     1     0     0
SMALL
GAST_HUCK


@<TRIPOS>ATOM
      1 O20       -19.9760   15.7950  -10.5940 O.co2     1 X7A        -0.5422 
      2 C18       -20.1320   16.2430  -11.7410 C.2       1 X7A         0.0962 
      3 O21       -19.3830   15.9210  -12.6940 O.co2     1 X7A        -0.5422 
      4 C1        -21.2600   17.2240  -11.9840 C.3       1 X7A         0.0372 
      5 N2        -21.2550   17.5620  -13.4120 N.4       1 X7A         0.2231 
      6 C3        -22.6240   16.6630  -11.5620 C.3       1 X7A        -0.0038 
      7 C4        -22.9350   15.2570  -12.0600 C.3       1 X7A        -0.0754 
      8 C5        -24.3990   14.8820  -11.8060 C.3       1 X7A        -0.1826 
      9 C6        -24.5960   13.3970  -12.0790 C.3       1 X7A        -0.3457 
     10 B7        -26.0480   12.9760  -12.5560 B         1 X7A         3.0000 
     11 O8        -26.9420   13.3980  -11.3770 O.3       1 X7A        -0.8710 
     12 O9        -26.3240   11.5050  -12.6180 O.3       1 X7A        -0.4105 
     13 O19       -26.7000   13.7050  -13.6860 O.3       1 X7A        -0.4105 
     14 C10       -21.0400   18.4810  -11.1530 C.3       1 X7A         0.0384 
     15 C11       -19.6520   19.0820  -11.3400 C.3       1 X7A        -0.0269 
     16 N12       -19.5350   20.4000  -10.6820 N.4       1 X7A         0.2353 
     17 C13       -20.8270   21.0890  -10.5470 C.3       1 X7A        -0.0319 
     18 C14       -20.6200   22.3600   -9.7320 C.3       1 X7A        -0.0123 
     19 C15       -19.6360   23.2880  -10.4350 C.3       1 X7A        -0.0434 
     20 C16       -18.3380   22.5500  -10.7290 C.3       1 X7A        -0.0123 
     21 C17       -18.6140   21.2420  -11.4630 C.3       1 X7A        -0.0319 
     22 H1        -21.9976   18.2157  -13.6051 H         1 X7A         0.1999 
     23 H2        -21.3944   16.7249  -13.9559 H         1 X7A         0.1999 
     24 H3        -20.3696   17.9776  -13.6558 H         1 X7A         0.1999 
     25 H4        -23.4024   17.3388  -11.9459 H         1 X7A         0.0315 
     26 H5        -22.6599   16.6492  -10.4627 H         1 X7A         0.0315 
     27 H6        -22.2863   14.5403  -11.5351 H         1 X7A         0.0242 
     28 H7        -22.7360   15.2085  -13.1408 H         1 X7A         0.0242 
     29 H8        -25.0487   15.4670  -12.4735 H         1 X7A        -0.0084 
     30 H9        -24.6573   15.1000  -10.7592 H         1 X7A        -0.0084 
     31 H10       -24.2104   13.1540  -13.0801 H         1 X7A        -0.2101 
     32 H12       -24.0522   12.8101  -11.3241 H         1 X7A        -0.2101 
     33 H13       -27.2590   12.9641  -12.2204 H         1 X7A        -0.1290 
     34 H14       -25.9885   11.1552  -13.4351 H         1 X7A         0.2052 
     35 H15       -25.9885   11.1552  -13.4351 H         1 X7A         0.2052 
     36 H16       -26.3673   13.3710  -14.5108 H         1 X7A         0.2052 
     37 H17       -26.3672   13.3710  -14.5108 H         1 X7A         0.2052 
     38 H18       -21.1719   18.2268  -10.0909 H         1 X7A         0.0368 
     39 H19       -21.7893   19.2310  -11.4464 H         1 X7A         0.0368 
     40 H20       -19.4573   19.2020  -12.4159 H         1 X7A         0.0815 
     41 H21       -18.9064   18.3994  -10.9063 H         1 X7A         0.0815 
     42 H22       -19.1528   20.2615   -9.7596 H         1 X7A         0.2033 
     43 H23       -21.5447   20.4326  -10.0331 H         1 X7A         0.0814 
     44 H24       -21.2147   21.3473  -11.5435 H         1 X7A         0.0814 
     45 H25       -20.2230   22.0945   -8.7411 H         1 X7A         0.0317 
     46 H26       -21.5842   22.8762   -9.6145 H         1 X7A         0.0317 
     47 H27       -19.4245   24.1516   -9.7874 H         1 X7A         0.0269 
     48 H28       -20.0775   23.6376  -11.3799 H         1 X7A         0.0269 
     49 H29       -17.8251   22.3304   -9.7810 H         1 X7A         0.0317 
     50 H30       -17.6950   23.1862  -11.3550 H         1 X7A         0.0317 
     51 H31       -19.0664   21.4636  -12.4409 H         1 X7A         0.0814 
     52 H32       -17.6668   20.7026  -11.6109 H         1 X7A         0.0814 
@<TRIPOS>BOND
     1    1    2 ar   
     2    2    3 ar   
     3    2    4 1    
     4    4    5 1    
     5    4    6 1    
     6    4   14 1    
     7    6    7 1    
     8    7    8 1    
     9    8    9 1    
    10    9   10 1    
    11   10   12 1    
    12   10   13 1    
    13   14   15 1    
    14   15   16 1    
    15   16   17 1    
    16   16   21 1    
    17   17   18 1    
    18   18   19 1    
    19   19   20 1    
    20   20   21 1    
    21   10   11 du   
    22    5   22 1    
    23    5   23 1    
    24    5   24 1    
    25    6   25 1    
    26    6   26 1    
    27    7   27 1    
    28    7   28 1    
    29    8   29 1    
    30    8   30 1    
    31    9   31 1    
    32    9   32 1    
    33   11   33 1    
    34   12   34 1    
    35   12   35 1    
    36   13   36 1    
    37   13   37 1    
    38   14   38 1    
    39   14   39 1    
    40   15   40 1    
    41   15   41 1    
    42   16   42 1    
    43   17   43 1    
    44   17   44 1    
    45   18   45 1    
    46   18   46 1    
    47   19   47 1    
    48   19   48 1    
    49   20   49 1    
    50   20   50 1    
    51   21   51 1    
    52   21   52 1    
@<TRIPOS>SUBSTRUCTURE
     1 X7A         1 PERM              0 ****  ****    0 ROOT 
