4hww_ligand

Created by X-TOOL on Fri Nov 18 17:22:55 2016
 53 53  0  0  0  0  0  0  0  0999 V2000
  -19.9760   15.7950  -10.5940  O 0  0  0  1  0  1
  -20.1320   16.2430  -11.7410  C 0  5  0  1  0  3
  -19.3830   15.9210  -12.6940  O 0  0  0  1  0  1
  -21.2600   17.2240  -11.9840  C 0  0  0  1  0  4
  -21.2550   17.5620  -13.4120  N 0  3  0  4  0  4
  -22.6240   16.6630  -11.5620  C 0  0  0  3  0  4
  -22.9350   15.2570  -12.0600  C 0  0  0  3  0  4
  -24.3990   14.8820  -11.8060  C 0  0  0  3  0  4
  -24.5960   13.3970  -12.0790  C 0  0  0  4  0  5
  -26.0480   12.9760  -12.5560  B 0  0  0  1  0  4
  -26.9420   13.3980  -11.3770  O 0  0  0  2  0  2
  -26.3240   11.5050  -12.6180  O 0  0  0  3  0  3
  -26.7000   13.7050  -13.6860  O 0  0  0  3  0  3
  -21.0400   18.4810  -11.1530  C 0  0  0  3  0  4
  -19.6520   19.0820  -11.3400  C 0  0  0  3  0  4
  -19.5350   20.4000  -10.6820  N 0  3  0  2  0  4
  -20.8270   21.0890  -10.5470  C 0  0  0  3  0  4
  -20.6200   22.3600   -9.7320  C 0  0  0  3  0  4
  -19.6360   23.2880  -10.4350  C 0  0  0  3  0  4
  -18.3380   22.5500  -10.7290  C 0  0  0  3  0  4
  -18.6140   21.2420  -11.4630  C 0  0  0  3  0  4
  -21.9976   18.2157  -13.6051  H 0  0  0  1  0  1
  -21.3944   16.7249  -13.9559  H 0  0  0  1  0  1
  -20.3696   17.9776  -13.6558  H 0  0  0  1  0  1
  -23.4024   17.3388  -11.9459  H 0  0  0  1  0  1
  -22.6599   16.6492  -10.4627  H 0  0  0  1  0  1
  -22.2863   14.5403  -11.5351  H 0  0  0  1  0  1
  -22.7360   15.2085  -13.1408  H 0  0  0  1  0  1
  -25.0487   15.4670  -12.4735  H 0  0  0  1  0  1
  -24.6573   15.1000  -10.7592  H 0  0  0  1  0  1
  -24.2104   13.1540  -13.0801  H 0  0  0  1  0  1
  -25.6677   13.1542  -12.0300  H 0  0  0  1  0  1
  -24.0522   12.8101  -11.3241  H 0  0  0  1  0  1
  -27.2590   12.9641  -12.2204  H 0  0  0  1  0  1
  -25.9885   11.1552  -13.4351  H 0  0  0  1  0  1
  -25.9885   11.1552  -13.4351  H 0  0  0  1  0  1
  -26.3673   13.3710  -14.5108  H 0  0  0  1  0  1
  -26.3672   13.3710  -14.5108  H 0  0  0  1  0  1
  -21.1719   18.2268  -10.0909  H 0  0  0  1  0  1
  -21.7893   19.2310  -11.4464  H 0  0  0  1  0  1
  -19.4573   19.2020  -12.4159  H 0  0  0  1  0  1
  -18.9064   18.3994  -10.9063  H 0  0  0  1  0  1
  -19.1528   20.2615   -9.7596  H 0  0  0  1  0  1
  -21.5447   20.4326  -10.0331  H 0  0  0  1  0  1
  -21.2147   21.3473  -11.5435  H 0  0  0  1  0  1
  -20.2230   22.0945   -8.7411  H 0  0  0  1  0  1
  -21.5842   22.8762   -9.6145  H 0  0  0  1  0  1
  -19.4245   24.1516   -9.7874  H 0  0  0  1  0  1
  -20.0775   23.6376  -11.3799  H 0  0  0  1  0  1
  -17.8251   22.3304   -9.7810  H 0  0  0  1  0  1
  -17.6950   23.1862  -11.3550  H 0  0  0  1  0  1
  -19.0664   21.4636  -12.4409  H 0  0  0  1  0  1
  -17.6668   20.7026  -11.6109  H 0  0  0  1  0  1
  1  2  2  0  0  2
  2  3  2  0  0  2
  2  4  1  0  0  2
  4  5  1  0  0  2
  4  6  1  0  0  2
  4 14  1  0  0  2
  6  7  1  0  0  2
  7  8  1  0  0  2
  8  9  1  0  0  2
  9 10  1  0  0  2
 10 12  1  0  0  2
 10 13  1  0  0  2
 14 15  1  0  0  2
 15 16  1  0  0  2
 16 17  1  0  0  1
 16 21  1  0  0  1
 17 18  1  0  0  1
 18 19  1  0  0  1
 19 20  1  0  0  1
 20 21  1  0  0  1
 10 11  2  0  0  2
  5 22  1  0  0  2
  5 23  1  0  0  2
  5 24  1  0  0  2
  6 25  1  0  0  2
  6 26  1  0  0  2
  7 27  1  0  0  2
  7 28  1  0  0  2
  8 29  1  0  0  2
  8 30  1  0  0  2
  9 31  1  0  0  2
  9 32  1  0  0  2
  9 33  1  0  0  2
 11 34  1  0  0  2
 12 35  1  0  0  2
 12 36  1  0  0  2
 13 37  1  0  0  2
 13 38  1  0  0  2
 14 39  1  0  0  2
 14 40  1  0  0  2
 15 41  1  0  0  2
 15 42  1  0  0  2
 16 43  1  0  0  2
 17 44  1  0  0  2
 17 45  1  0  0  2
 18 46  1  0  0  2
 18 47  1  0  0  2
 19 48  1  0  0  2
 19 49  1  0  0  2
 20 50  1  0  0  2
 20 51  1  0  0  2
 21 52  1  0  0  2
 21 53  1  0  0  2
M  END
> <MOLECULAR_FORMULA>
C13H32N2O5B

> <MOLECULAR_WEIGHT>
307.0

> <NUM_HB_ATOMS>
6  

> <NUM_ROTOR>
8  

> <XLOGP2>
-2.32

$$$$
