2wkt_ligand
  -I-interpret- 

 84 86  0  0  0  0  0  0  0  0999 V2000
   36.6620  -28.1840   21.3630 N   0  0  0  0  0
   36.7010  -28.2060   22.7140 C   0  0  0  0  0
   36.0110  -27.2560   23.4400 N   0  0  0  0  0
   35.3060  -26.3080   22.7840 C   0  0  0  0  0
   35.2690  -26.2840   21.4620 C   0  0  0  0  0
   35.9580  -27.2440   20.7370 C   0  0  0  0  0
   35.8950  -27.1990   19.2950 N   0  0  0  0  0
   34.4800  -25.2160   21.0580 N   0  0  0  0  0
   34.0080  -24.5550   22.2130 C   0  0  0  0  0
   34.5020  -25.2000   23.2410 N   0  0  0  0  0
   34.2770  -24.8600   24.6250 C   0  0  0  0  0
   35.1480  -24.5020   25.7760 C   0  0  0  0  0
   36.2870  -23.6940   25.5830 O   0  0  0  0  0
   34.2100  -24.1680   26.8690 C   0  0  0  0  0
   34.4260  -24.7280   28.1170 O   0  0  0  0  0
   34.6890  -23.7270   29.3840 P   0  0  0  0  0
   36.1990  -24.0060   29.9930 O   0  0  0  0  0
   33.5390  -24.0290   30.5180 O   0  0  0  0  0
   34.6070  -22.3000   28.9060 O   0  0  0  0  0
   32.8050  -24.2060   26.2650 C   0  0  0  0  0
   32.9370  -25.1460   25.1240 O   0  0  0  0  0
   32.1900  -22.8630   25.8740 C   0  0  0  0  0
   33.0300  -22.1880   24.9590 O   0  0  0  0  0
   32.6060  -20.6470   24.5700 P   0  0  0  0  0
   32.9500  -19.6720   25.8480 O   0  0  0  0  0
   33.3310  -20.1970   23.3260 O   0  0  0  0  0
   30.9880  -20.7710   24.2960 O   0  0  0  0  0
   29.9660  -19.5000   24.5620 P   0  0  0  0  0
   30.6780  -18.2470   25.0270 O   0  0  0  0  0
   28.8420  -20.0380   25.6150 O   0  0  0  0  0
   29.2030  -19.2560   23.1180 O   0  0  0  0  0
   27.2650  -19.9530   21.7730 C   0  0  0  0  0
   28.3970  -20.3300   22.7260 C   0  0  0  0  0
   26.0680  -19.5250   22.6140 C   0  0  0  0  0
   26.9320  -21.1420   20.8730 C   0  0  0  0  0
   27.7580  -18.7570   20.9610 C   0  0  0  0  0
   29.0500  -18.8990   20.4170 O   0  0  0  0  0
   26.7170  -18.3970   19.9020 C   0  0  0  0  0
   25.6520  -17.9540   20.2150 O   0  0  0  0  0
   27.0350  -18.7960   18.5320 N   0  0  0  0  0
   26.0390  -18.6160   17.4920 C   0  0  0  0  0
   25.9330  -17.1850   16.9540 C   0  0  0  0  0
   25.0150  -16.9900   15.7530 C   0  0  0  0  0
   23.9030  -17.3820   15.8050 O   0  0  0  0  0
   25.4490  -16.0740   14.7160 N   0  0  0  0  0
   24.6880  -15.8740   13.4970 C   0  0  0  0  0
   23.8860  -17.0480   12.9250 C   0  0  0  0  0
   22.7490  -16.5490   11.5930 S   0  0  0  0  0
   37.2773  -28.9739   23.2302 H   0  0  0  0  0
   36.3947  -27.8944   18.7407 H   0  0  0  0  0
   35.3508  -26.4719   18.8307 H   0  0  0  0  0
   33.3595  -23.6794   22.2435 H   0  0  0  0  0
   34.9122  -24.1755   24.0628 H   0  0  0  0  0
   35.7764  -25.3533   26.0377 H   0  0  0  0  0
   36.7309  -23.5625   26.4240 H   0  0  0  0  0
   34.4074  -23.1579   27.2281 H   0  0  0  0  0
   36.2566  -24.9141   30.2991 H   0  0  0  0  0
   33.6090  -24.9414   30.8081 H   0  0  0  0  0
   32.0838  -24.5285   27.0160 H   0  0  0  0  0
   32.0726  -22.2510   26.7683 H   0  0  0  0  0
   31.2210  -23.0375   25.4063 H   0  0  0  0  0
   32.4756  -19.9825   26.6227 H   0  0  0  0  0
   28.4292  -20.8303   25.2636 H   0  0  0  0  0
   27.9356  -20.7303   23.6288 H   0  0  0  0  0
   29.0384  -21.0357   22.1980 H   0  0  0  0  0
   26.3673  -18.7219   23.2875 H   0  0  0  0  0
   25.2719  -19.1730   21.9579 H   0  0  0  0  0
   25.7118  -20.3751   23.1959 H   0  0  0  0  0
   26.1500  -20.8559   20.1697 H   0  0  0  0  0
   27.8246  -21.4415   20.3238 H   0  0  0  0  0
   26.5847  -21.9738   21.4858 H   0  0  0  0  0
   27.8693  -17.9286   21.6607 H   0  0  0  0  0
   29.6676  -19.1243   21.1166 H   0  0  0  0  0
   27.9464  -19.1963   18.3097 H   0  0  0  0  0
   25.0722  -18.8645   17.9299 H   0  0  0  0  0
   26.3331  -19.2502   16.6556 H   0  0  0  0  0
   26.9337  -16.9071   16.6231 H   0  0  0  0  0
   25.5134  -16.5845   17.7611 H   0  0  0  0  0
   26.3165  -15.5539   14.8477 H   0  0  0  0  0
   25.4320  -15.6427   12.7348 H   0  0  0  0  0
   23.9427  -15.1201   13.7503 H   0  0  0  0  0
   23.2873  -17.4671   13.7337 H   0  0  0  0  0
   24.5949  -17.7626   12.5068 H   0  0  0  0  0
   22.0919  -17.6170   11.1499 H   0  0  0  0  0
  2  1  4  0  0  0
  6  1  4  0  0  0
  3  2  4  0  0  0
  4  3  4  0  0  0
  4  5  4  0  0  0
 10  4  4  0  0  0
  5  6  4  0  0  0
  8  5  4  0  0  0
  6  7  1  0  0  0
  9  8  4  0  0  0
 10  9  4  0  0  0
 11 10  1  0  0  0
 11 12  1  0  0  0
 21 11  1  0  0  0
 12 13  1  0  0  0
 14 12  1  0  0  0
 14 15  1  0  0  0
 20 14  1  0  0  0
 15 16  1  0  0  0
 16 17  1  0  0  0
 16 18  1  0  0  0
 16 19  2  0  0  0
 20 21  1  0  0  0
 22 20  1  0  0  0
 23 22  1  0  0  0
 24 23  1  0  0  0
 24 25  1  0  0  0
 24 26  2  0  0  0
 27 24  1  0  0  0
 28 27  1  0  0  0
 28 29  2  0  0  0
 28 30  1  0  0  0
 31 28  1  0  0  0
 33 31  1  0  0  0
 36 37  1  0  0  0
 36 38  1  0  0  0
 38 39  2  0  0  0
 38 40  1  0  0  0
 40 41  1  0  0  0
 41 42  1  0  0  0
 42 43  1  0  0  0
 43 44  2  0  0  0
 43 45  1  0  0  0
 45 46  1  0  0  0
 46 47  1  0  0  0
 47 48  1  0  0  0
 32 36  1  0  0  0
 32 35  1  0  0  0
 32 34  1  0  0  0
 33 32  1  0  0  0
  2 49  1  0  0  0
  7 50  1  0  0  0
  7 51  1  0  0  0
  9 52  1  0  0  0
 11 53  1  0  0  0
 12 54  1  0  0  0
 13 55  1  0  0  0
 14 56  1  0  0  0
 17 57  1  0  0  0
 18 58  1  0  0  0
 20 59  1  0  0  0
 22 60  1  0  0  0
 22 61  1  0  0  0
 25 62  1  0  0  0
 30 63  1  0  0  0
 33 64  1  0  0  0
 33 65  1  0  0  0
 34 66  1  0  0  0
 34 67  1  0  0  0
 34 68  1  0  0  0
 35 69  1  0  0  0
 35 70  1  0  0  0
 35 71  1  0  0  0
 36 72  1  0  0  0
 37 73  1  0  0  0
 40 74  1  0  0  0
 41 75  1  0  0  0
 41 76  1  0  0  0
 42 77  1  0  0  0
 42 78  1  0  0  0
 45 79  1  0  0  0
 46 80  1  0  0  0
 46 81  1  0  0  0
 47 82  1  0  0  0
 47 83  1  0  0  0
 48 84  1  0  0  0
M  END
$$$$
