### 
### Created by X-TOOL on Sun Sep  9 21:51:01 2018
### 

@<TRIPOS>MOLECULE
2wkt_ligand
   80    82     1     0     0
SMALL
GAST_HUCK


@<TRIPOS>ATOM
      1 N1A        36.6620  -28.1840   21.3630 N.ar      1 NON        -0.2698
      2 C2A        36.7010  -28.2060   22.7140 C.ar      1 NON         0.0533
      3 N3A        36.0110  -27.2560   23.4400 N.ar      1 NON        -0.2714
      4 C4A        35.3060  -26.3080   22.7840 C.ar      1 NON         0.1613
      5 C5A        35.2690  -26.2840   21.4620 C.ar      1 NON         0.1045
      6 C6A        35.9580  -27.2440   20.7370 C.ar      1 NON         0.1298
      7 N6A        35.8950  -27.1990   19.2950 N.pl3     1 NON        -0.3152
      8 N7A        34.4800  -25.2160   21.0580 N.2       1 NON        -0.2958
      9 C8A        34.0080  -24.5550   22.2130 C.2       1 NON         0.1123
     10 N9A        34.5020  -25.2000   23.2410 N.pl3     1 NON        -0.1919
     11 C1B        34.2770  -24.8600   24.6250 C.3       1 NON         0.2013
     12 C2B        35.1480  -24.5020   25.7760 C.3       1 NON         0.1432
     13 O2B        36.2870  -23.6940   25.5830 O.3       1 NON        -0.3832
     14 C3B        34.2100  -24.1680   26.8690 C.3       1 NON         0.1487
     15 O3B        34.4260  -24.7280   28.1170 O.3       1 NON        -0.2674
     16 P3B        34.6890  -23.7270   29.3840 P.3       1 NON         0.2013
     17 O7A        36.1990  -24.0060   29.9930 O.co2     1 NON        -0.5537
     18 O8A        33.5390  -24.0290   30.5180 O.co2     1 NON        -0.5537
     19 O9A        34.6070  -22.3000   28.9060 O.co2     1 NON        -0.5537
     20 C4B        32.8050  -24.2060   26.2650 C.3       1 NON         0.1235
     21 O4B        32.9370  -25.1460   25.1240 O.3       1 NON        -0.3360
     22 C5B        32.1900  -22.8630   25.8740 C.3       1 NON         0.1131
     23 O5B        33.0300  -22.1880   24.9590 O.3       1 NON        -0.2476
     24 P1A        32.6060  -20.6470   24.5700 P.3       1 NON         0.2972
     25 O1A        32.9500  -19.6720   25.8480 O.co2     1 NON        -0.6127
     26 O2A        33.3310  -20.1970   23.3260 O.co2     1 NON        -0.6127
     27 O3A        30.9880  -20.7710   24.2960 O.3       1 NON        -0.1319
     28 P2A        29.9660  -19.5000   24.5620 P.3       1 NON         0.2971
     29 O4A        30.6780  -18.2470   25.0270 O.co2     1 NON        -0.6127
     30 O5A        28.8420  -20.0380   25.6150 O.co2     1 NON        -0.6127
     31 O6A        29.2030  -19.2560   23.1180 O.3       1 NON        -0.2496
     32 CBP        27.2650  -19.9530   21.7730 C.3       1 NON         0.0367
     33 CCP        28.3970  -20.3300   22.7260 C.3       1 NON         0.0936
     34 CDP        26.0680  -19.5250   22.6140 C.3       1 NON        -0.0528
     35 CEP        26.9320  -21.1420   20.8730 C.3       1 NON        -0.0528
     36 CAP        27.7580  -18.7570   20.9610 C.3       1 NON         0.1510
     37 OAP        29.0500  -18.8990   20.4170 O.3       1 NON        -0.3708
     38 C9P        26.7170  -18.3970   19.9020 C.2       1 NON         0.2057
     39 O9P        25.6520  -17.9540   20.2150 O.2       1 NON        -0.3942
     40 N8P        27.0350  -18.7960   18.5320 N.am      1 NON        -0.2826
     41 C7P        26.0390  -18.6160   17.4920 C.3       1 NON         0.0477
     42 C6P        25.9330  -17.1850   16.9540 C.3       1 NON         0.0574
     43 C5P        25.0150  -16.9900   15.7530 C.2       1 NON         0.1779
     44 O5P        23.9030  -17.3820   15.8050 O.2       1 NON        -0.3970
     45 N4P        25.4490  -16.0740   14.7160 N.am      1 NON        -0.2861
     46 C3P        24.6880  -15.8740   13.4970 C.3       1 NON         0.0396
     47 C2P        23.8860  -17.0480   12.9250 C.3       1 NON         0.0109
     48 S1P        22.7490  -16.5490   11.5930 S.3       1 NON        -0.1763
     49 H          37.2741  -28.9696   23.2273 H         1 NON         0.0996
     50 H          35.3455  -26.4647   18.8262 H         1 NON         0.1820
     51 H          36.3996  -27.9012   18.7353 H         1 NON         0.1820
     52 H          33.3601  -23.6802   22.2434 H         1 NON         0.1349
     53 H          34.0973  -23.8059   24.3668 H         1 NON         0.0996
     54 H          35.6014  -25.4565   26.0815 H         1 NON         0.0680
     55 H          36.0213  -22.8534   25.2291 H         1 NON         0.2101
     56 H          34.3895  -23.1006   27.0649 H         1 NON         0.0704
     57 H          32.1268  -24.6484   27.0096 H         1 NON         0.0654
     58 H          32.0642  -22.2451   26.7753 H         1 NON         0.0648
     59 H          31.2088  -23.0350   25.4074 H         1 NON         0.0648
     60 H          27.9531  -20.7747   23.6288 H         1 NON         0.0628
     61 H          29.0344  -21.0742   22.2261 H         1 NON         0.0628
     62 H          25.2351  -19.2470   21.9515 H         1 NON         0.0238
     63 H          26.3465  -18.6610   23.2352 H         1 NON         0.0238
     64 H          25.7586  -20.3581   23.2622 H         1 NON         0.0238
     65 H          26.1164  -20.8664   20.1883 H         1 NON         0.0238
     66 H          26.6179  -21.9946   21.4930 H         1 NON         0.0238
     67 H          27.8219  -21.4210   20.2898 H         1 NON         0.0238
     68 H          27.8152  -17.9081   21.6582 H         1 NON         0.0844
     69 H          29.6612  -19.1219   21.1093 H         1 NON         0.2133
     70 H          27.9286  -19.1885   18.3140 H         1 NON         0.1853
     71 H          25.0591  -18.9024   17.9015 H         1 NON         0.0545
     72 H          26.2942  -19.2803   16.6532 H         1 NON         0.0545
     73 H          26.9424  -16.8591   16.6626 H         1 NON         0.0522
     74 H          25.5622  -16.5456   17.7686 H         1 NON         0.0522
     75 H          26.2995  -15.5641   14.8451 H         1 NON         0.1851
     76 H          25.3999  -15.5599   12.7195 H         1 NON         0.0528
     77 H          23.9746  -15.0596   13.6914 H         1 NON         0.0528
     78 H          23.2978  -17.4999   13.7373 H         1 NON         0.0393
     79 H          24.5903  -17.7920   12.5246 H         1 NON         0.0393
     80 H          22.0920  -15.8728   11.9494 H         1 NON         0.1017
@<TRIPOS>BOND
     1    2    1 ar 
     2    6    1 ar 
     3    3    2 ar 
     4    4    3 ar 
     5    4    5 ar 
     6   10    4 1  
     7    5    6 ar 
     8    8    5 1  
     9    6    7 1  
    10    9    8 2  
    11   10    9 1  
    12   11   10 1  
    13   11   12 1  
    14   21   11 1  
    15   12   13 1  
    16   14   12 1  
    17   14   15 1  
    18   20   14 1  
    19   15   16 1  
    20   16   17 ar 
    21   16   18 ar 
    22   16   19 ar 
    23   20   21 1  
    24   22   20 1  
    25   23   22 1  
    26   24   23 1  
    27   24   25 ar 
    28   24   26 ar 
    29   27   24 1  
    30   28   27 1  
    31   28   29 ar 
    32   28   30 ar 
    33   31   28 1  
    34   33   31 1  
    35   36   37 1  
    36   36   38 1  
    37   38   39 2  
    38   38   40 am 
    39   40   41 1  
    40   41   42 1  
    41   42   43 1  
    42   43   44 2  
    43   43   45 am 
    44   45   46 1  
    45   46   47 1  
    46   47   48 1  
    47   32   36 1  
    48   32   35 1  
    49   32   34 1  
    50   33   32 1  
    51    2   49 1  
    52    7   50 1  
    53    7   51 1  
    54    9   52 1  
    55   11   53 1  
    56   12   54 1  
    57   13   55 1  
    58   14   56 1  
    59   20   57 1  
    60   22   58 1  
    61   22   59 1  
    62   33   60 1  
    63   33   61 1  
    64   34   62 1  
    65   34   63 1  
    66   34   64 1  
    67   35   65 1  
    68   35   66 1  
    69   35   67 1  
    70   36   68 1  
    71   37   69 1  
    72   40   70 1  
    73   41   71 1  
    74   41   72 1  
    75   42   73 1  
    76   42   74 1  
    77   45   75 1  
    78   46   76 1  
    79   46   77 1  
    80   47   78 1  
    81   47   79 1  
    82   48   80 1  
@<TRIPOS>SUBSTRUCTURE
     1 NON         1

