5l2z_ligand
  -I-interpret- 

 88 93  0  0  0  0  0  0  0  0999 V2000
    7.8880   36.3470   24.3690 C   0  0  0  0  0
   10.2560   31.5940   27.1760 C   0  0  0  0  0
   10.1730   31.9600   28.5420 C   0  0  0  0  0
    9.5780   33.2210   28.8670 C   0  0  0  0  0
    9.1070   34.0510   27.8210 C   0  0  0  0  0
    9.8000   32.4250   26.2000 C   0  0  0  0  0
    9.4980   33.5900   30.2380 C   0  0  0  0  0
   10.0260   32.7260   31.2070 C   0  0  0  0  0
   10.6920   31.1520   29.6270 C   0  0  0  0  0
    1.5560   34.0040   27.5080 C   0  0  0  0  0
    6.3960   37.9980   22.1870 C   0  0  0  0  0
    2.0520   34.2460   26.0710 C   0  0  0  0  0
    1.2230   35.4290   25.4380 C   0  0  0  0  0
    3.5720   34.4410   26.0010 C   0  0  0  0  0
    4.2200   35.1650   27.0020 C   0  0  0  0  0
    5.5730   35.4470   26.9150 C   0  0  0  0  0
    6.3140   35.0380   25.8170 C   0  0  0  0  0
    5.6770   34.2860   24.8370 C   0  0  0  0  0
    4.3220   33.9740   24.9080 C   0  0  0  0  0
    3.7180   33.1620   23.7860 C   0  0  0  0  0
    7.7550   35.4900   25.6170 C   0  0  0  0  0
    8.6820   34.3870   25.4530 N   0  0  0  0  0
    9.2030   33.6440   26.5050 C   0  0  0  0  0
   10.6060   31.5560   30.9200 N   0  0  0  0  0
    8.3280   35.8280   23.3490 O   0  0  0  0  0
    7.5100   37.6470   24.3820 N   0  0  0  0  0
    7.5310   38.3760   23.1150 C   0  0  0  0  0
    6.4360   38.2130   20.7950 C   0  0  0  0  0
    5.3310   37.8200   20.0430 C   0  0  0  0  0
    4.2260   37.2220   20.6130 C   0  0  0  0  0
    4.1550   37.0670   21.9850 C   0  0  0  0  0
    5.2570   37.4250   22.7570 C   0  0  0  0  0
    2.9520   36.5680   22.5420 N   0  0  0  0  0
    1.6160   35.6500   24.0570 O   0  0  0  0  0
    2.6040   36.5520   23.8530 C   0  0  0  0  0
    3.0630   37.2690   24.7130 O   0  0  0  0  0
    6.9890   38.3730   25.5400 C   0  0  0  0  0
   11.3020   29.9650   29.4120 N   0  0  0  0  0
    7.6620   38.7930   20.0620 C   0  0  0  0  0
    8.8390   34.7070   30.6170 F   0  0  0  0  0
    8.0840   40.1090   20.8580 C   0  0  0  0  0
    7.3840   39.2580   18.6120 C   0  0  0  0  0
    8.6360   39.7520   17.9070 C   0  0  0  0  0
    9.6820   38.6500   17.8270 C   0  0  0  0  0
   10.0080   38.0960   19.2070 C   0  0  0  0  0
    8.7540   37.6920   19.9760 C   0  0  0  0  0
    9.3220   40.1730   21.2370 O   0  0  0  0  0
    7.2810   40.9800   21.1530 O   0  0  0  0  0
   10.6915   30.6328   26.9029 H   0  0  0  0  0
    8.6650   35.0191   28.0565 H   0  0  0  0  0
    9.9047   32.1292   25.1562 H   0  0  0  0  0
    9.9601   33.0246   32.2532 H   0  0  0  0  0
    1.6967   34.9103   28.0970 H   0  0  0  0  0
    0.4978   33.7436   27.4867 H   0  0  0  0  0
    2.1236   33.1874   27.9542 H   0  0  0  0  0
    1.8750   33.3549   25.4688 H   0  0  0  0  0
    1.4141   36.3379   26.0085 H   0  0  0  0  0
    0.1641   35.1719   25.4662 H   0  0  0  0  0
    3.6531   35.5138   27.8652 H   0  0  0  0  0
    6.0612   35.9971   27.7194 H   0  0  0  0  0
    6.2567   33.9291   23.9857 H   0  0  0  0  0
    3.2954   32.2426   24.1913 H   0  0  0  0  0
    2.9324   33.7419   23.3016 H   0  0  0  0  0
    4.4921   32.9177   23.0585 H   0  0  0  0  0
    8.0018   36.0458   26.5216 H   0  0  0  0  0
    8.9696   34.1412   24.5058 H   0  0  0  0  0
    7.4297   39.4369   23.3439 H   0  0  0  0  0
    8.4651   38.1308   22.6095 H   0  0  0  0  0
    5.3398   37.9910   18.9665 H   0  0  0  0  0
    3.4092   36.8719   19.9818 H   0  0  0  0  0
    5.2301   37.2538   23.8331 H   0  0  0  0  0
    2.2743   36.1787   21.8866 H   0  0  0  0  0
    7.5972   39.2605   25.7146 H   0  0  0  0  0
    5.9580   38.6697   25.3474 H   0  0  0  0  0
    7.0249   37.7279   26.4179 H   0  0  0  0  0
   11.4090   29.6114   28.4613 H   0  0  0  0  0
   11.6553   29.4229   30.2005 H   0  0  0  0  0
    6.6748   40.0846   18.6549 H   0  0  0  0  0
    6.9993   38.4044   18.0538 H   0  0  0  0  0
    9.0494   40.5886   18.4703 H   0  0  0  0  0
    8.3714   40.0593   16.8952 H   0  0  0  0  0
   10.5926   39.0663   17.3961 H   0  0  0  0  0
    9.2874   37.8408   17.2125 H   0  0  0  0  0
   10.5174   38.8753   19.7739 H   0  0  0  0  0
   10.6280   37.2087   19.0787 H   0  0  0  0  0
    8.3133   36.8492   19.4436 H   0  0  0  0  0
    9.0651   37.4735   20.9975 H   0  0  0  0  0
    9.7953   39.4038   20.9115 H   0  0  0  0  0
  1 21  1  0  0  0
  1 25  2  0  0  0
 26  1  1  0  0  0
  2  3  4  0  0  0
  6  2  4  0  0  0
  4  3  4  0  0  0
  3  9  4  0  0  0
  5  4  4  0  0  0
  4  7  4  0  0  0
 23  5  4  0  0  0
 23  6  4  0  0  0
  7  8  4  0  0  0
  7 40  1  0  0  0
  8 24  4  0  0  0
  9 24  4  0  0  0
  9 38  1  0  0  0
 12 10  1  0  0  0
 27 11  1  0  0  0
 11 28  4  0  0  0
 11 32  4  0  0  0
 12 13  1  0  0  0
 14 12  1  0  0  0
 13 34  1  0  0  0
 15 14  4  0  0  0
 19 14  4  0  0  0
 16 15  4  0  0  0
 17 16  4  0  0  0
 17 18  4  0  0  0
 21 17  1  0  0  0
 18 19  4  0  0  0
 19 20  1  0  0  0
 21 22  1  0  0  0
 22 23  1  0  0  0
 26 27  1  0  0  0
 26 37  1  0  0  0
 28 29  4  0  0  0
 28 39  1  0  0  0
 29 30  4  0  0  0
 30 31  4  0  0  0
 31 32  4  0  0  0
 31 33  1  0  0  0
 33 35  1  0  0  0
 34 35  1  0  0  0
 35 36  2  0  0  0
 39 41  1  0  0  0
 39 42  1  0  0  0
 39 46  1  0  0  0
 41 47  1  0  0  0
 41 48  2  0  0  0
 42 43  1  0  0  0
 43 44  1  0  0  0
 44 45  1  0  0  0
 45 46  1  0  0  0
  2 49  1  0  0  0
  5 50  1  0  0  0
  6 51  1  0  0  0
  8 52  1  0  0  0
 10 53  1  0  0  0
 10 54  1  0  0  0
 10 55  1  0  0  0
 12 56  1  0  0  0
 13 57  1  0  0  0
 13 58  1  0  0  0
 15 59  1  0  0  0
 16 60  1  0  0  0
 18 61  1  0  0  0
 20 62  1  0  0  0
 20 63  1  0  0  0
 20 64  1  0  0  0
 21 65  1  0  0  0
 22 66  1  0  0  0
 27 67  1  0  0  0
 27 68  1  0  0  0
 29 69  1  0  0  0
 30 70  1  0  0  0
 32 71  1  0  0  0
 33 72  1  0  0  0
 37 73  1  0  0  0
 37 74  1  0  0  0
 37 75  1  0  0  0
 38 76  1  0  0  0
 38 77  1  0  0  0
 42 78  1  0  0  0
 42 79  1  0  0  0
 43 80  1  0  0  0
 43 81  1  0  0  0
 44 82  1  0  0  0
 44 83  1  0  0  0
 45 84  1  0  0  0
 45 85  1  0  0  0
 46 86  1  0  0  0
 46 87  1  0  0  0
 47 88  1  0  0  0
M  END
$$$$
