1oxr_ligand
  -I-interpret- 

 21 21  0  0  0  0  0  0  0  0999 V2000
   13.9070   16.1300    0.6240 O   0  0  0  0  0
   13.2540   15.7780    1.7230 C   0  0  0  0  0
   13.9110   15.7590    2.7490 O   0  0  0  0  0
   11.8300   15.3160    1.6640 C   0  0  0  0  0
   11.1140   15.3810    0.4560 C   0  0  0  0  0
    9.7740   15.0010    0.4290 C   0  0  0  0  0
    9.1200   14.6010    1.5800 C   0  0  0  0  0
    9.7520   14.5680    2.8020 C   0  0  0  0  0
   11.0880   14.9220    2.9230 C   0  0  0  0  0
   11.8230   14.9060    4.0900 O   0  0  0  0  0
   12.4770   13.7700    4.7690 C   0  0  0  0  0
   12.6860   13.8700    5.9710 O   0  0  0  0  0
   12.8900   12.5090    4.0560 C   0  0  0  0  0
   13.3050   16.1137   -0.1236 H   0  0  0  0  0
   11.6043   15.7266   -0.4541 H   0  0  0  0  0
    9.2314   15.0193   -0.5161 H   0  0  0  0  0
    8.0733   14.3032    1.5175 H   0  0  0  0  0
    9.1954   14.2595    3.6869 H   0  0  0  0  0
   13.9664   12.3711    4.1584 H   0  0  0  0  0
   12.3699   11.6578    4.4953 H   0  0  0  0  0
   12.6315   12.5889    3.0001 H   0  0  0  0  0
  1  2  1  0  0  0
  2  3  2  0  0  0
  2  4  1  0  0  0
  4  5  4  0  0  0
  4  9  4  0  0  0
  5  6  4  0  0  0
  6  7  4  0  0  0
  7  8  4  0  0  0
  8  9  4  0  0  0
  9 10  1  0  0  0
 10 11  1  0  0  0
 11 12  2  0  0  0
 11 13  1  0  0  0
  1 14  1  0  0  0
  5 15  1  0  0  0
  6 16  1  0  0  0
  7 17  1  0  0  0
  8 18  1  0  0  0
 13 19  1  0  0  0
 13 20  1  0  0  0
 13 21  1  0  0  0
M  END
$$$$
