3kpv_ligand
  -I-interpret- 

 14 15  0  0  0  0  0  0  0  0999 V2000
   28.2590   45.3430   16.1790 N   0  0  0  0  0
   28.5660   46.5490   16.7330 C   0  0  0  0  0
   28.9370   46.3470   18.0350 N   0  0  0  0  0
   28.8680   45.0270   18.2850 C   0  0  0  0  0
   29.1290   44.2840   19.4420 C   0  0  0  0  0
   29.5440   44.9430   20.6830 N   0  0  0  0  0
   28.9710   42.9390   19.4110 N   0  0  0  0  0
   28.5460   42.3150   18.2520 C   0  0  0  0  0
   28.2850   43.0520   17.1080 N   0  0  0  0  0
   28.4480   44.4030   17.1310 C   0  0  0  0  0
   28.5234   47.5125   16.2251 H   0  0  0  0  0
   29.6464   45.9574   20.7122 H   0  0  0  0  0
   29.7305   44.3874   21.5178 H   0  0  0  0  0
   28.4151   41.2330   18.2385 H   0  0  0  0  0
  1  2  4  0  0  0
  1 10  4  0  0  0
  2  3  4  0  0  0
  3  4  4  0  0  0
  4  5  4  0  0  0
  4 10  4  0  0  0
  5  6  1  0  0  0
  5  7  4  0  0  0
  7  8  4  0  0  0
  8  9  4  0  0  0
  9 10  4  0  0  0
  2 11  1  0  0  0
  6 12  1  0  0  0
  6 13  1  0  0  0
  8 14  1  0  0  0
M  END
$$$$
