4gfn_ligand
  -I-interpret- 

 44 48  0  0  0  0  0  0  0  0999 V2000
  -10.3160   -1.9630  -11.5540 Cl  0  0  0  0  0
  -11.4590   -3.1370  -12.3800 C   0  0  0  0  0
  -12.8740   -3.2510  -12.0190 C   0  0  0  0  0
  -13.6390   -2.4160  -11.0160 C   0  0  0  0  0
  -14.4880   -3.3330  -10.1430 C   0  0  0  0  0
  -13.3590   -4.2660  -12.7830 N   0  0  0  0  0
  -12.4000   -4.8090  -13.5740 C   0  0  0  0  0
  -12.4710   -5.8220  -14.4570 N   0  0  0  0  0
  -11.0880   -4.1340  -13.3990 C   0  0  0  0  0
   -9.9160   -4.6360  -14.1920 C   0  0  0  0  0
   -8.6090   -4.1130  -14.2400 N   0  0  0  0  0
   -7.5540   -4.7770  -15.0060 C   0  0  0  0  0
   -6.6460   -3.6090  -15.4250 C   0  0  0  0  0
   -7.3930   -2.4700  -16.1140 C   0  0  0  0  0
   -6.4450   -1.5820  -16.7750 N   0  3  0  0  0
   -7.0930   -2.3880  -14.6220 C   0  0  0  0  0
   -8.2810   -2.7830  -13.7440 C   0  0  0  0  0
  -10.1750   -5.6650  -15.0250 N   0  0  0  0  0
  -11.3970   -6.2410  -15.1360 C   0  0  0  0  0
  -11.6320   -7.5660  -16.1430 S   0  0  0  0  0
  -10.3060   -7.8690  -17.1640 C   0  0  0  0  0
   -9.8750   -9.1760  -17.3620 C   0  0  0  0  0
   -8.8240   -9.4080  -18.1730 N   0  0  0  0  0
   -8.1990   -8.3900  -18.8010 C   0  0  0  0  0
   -8.6020   -7.1190  -18.6330 N   0  0  0  0  0
   -9.6420   -6.8330  -17.8300 C   0  0  0  0  0
  -14.2839   -1.7124  -11.5424 H   0  0  0  0  0
  -12.9382   -1.8623  -10.3912 H   0  0  0  0  0
  -15.1883   -3.8840  -10.7707 H   0  0  0  0  0
  -13.8400   -4.0343   -9.6172 H   0  0  0  0  0
  -15.0406   -2.7341   -9.4191 H   0  0  0  0  0
   -7.9389   -5.3398  -15.8564 H   0  0  0  0  0
   -7.0268   -5.5369  -14.4292 H   0  0  0  0  0
   -5.7219   -4.1379  -15.6584 H   0  0  0  0  0
   -8.2719   -2.4154  -16.7563 H   0  0  0  0  0
   -6.9525   -0.8246  -17.2323 H   0  0  0  0  0
   -5.8045   -1.1941  -16.0824 H   0  0  0  0  0
   -5.9169   -2.1080  -17.4713 H   0  0  0  0  0
   -6.6293   -1.6317  -13.9888 H   0  0  0  0  0
   -8.0491   -2.7688  -12.6790 H   0  0  0  0  0
   -9.1143   -2.0836  -13.8120 H   0  0  0  0  0
  -10.3818  -10.0041  -16.8666 H   0  0  0  0  0
   -7.3534   -8.6022  -19.4553 H   0  0  0  0  0
   -9.9657   -5.8005  -17.6987 H   0  0  0  0  0
  1  2  1  0  0  0
  2  3  4  0  0  0
  2  9  4  0  0  0
  3  4  1  0  0  0
  3  6  4  0  0  0
  4  5  1  0  0  0
  6  7  4  0  0  0
  7  8  4  0  0  0
  7  9  4  0  0  0
  8 19  4  0  0  0
  9 10  4  0  0  0
 10 11  1  0  0  0
 10 18  4  0  0  0
 11 12  1  0  0  0
 11 17  1  0  0  0
 12 13  1  0  0  0
 13 14  1  0  0  0
 13 16  1  0  0  0
 14 15  1  0  0  0
 14 16  1  0  0  0
 16 17  1  0  0  0
 18 19  4  0  0  0
 19 20  1  0  0  0
 20 21  1  0  0  0
 21 22  4  0  0  0
 21 26  4  0  0  0
 22 23  4  0  0  0
 23 24  4  0  0  0
 24 25  4  0  0  0
 25 26  4  0  0  0
  4 27  1  0  0  0
  4 28  1  0  0  0
  5 29  1  0  0  0
  5 30  1  0  0  0
  5 31  1  0  0  0
 12 32  1  0  0  0
 12 33  1  0  0  0
 13 34  1  0  0  0
 14 35  1  0  0  0
 15 36  1  0  0  0
 15 37  1  0  0  0
 15 38  1  0  0  0
 16 39  1  0  0  0
 17 40  1  0  0  0
 17 41  1  0  0  0
 22 42  1  0  0  0
 24 43  1  0  0  0
 26 44  1  0  0  0
M  END
$$$$
