5ttw_ligand
  -I-interpret- 

100101  0  0  0  0  0  0  0  0999 V2000
   18.8740  -13.9800   12.8920 N   0  3  0  0  0
   18.8340  -13.2120   11.6560 C   0  0  0  0  0
   20.2050  -13.2380   11.0980 C   0  0  0  0  0
   21.0360  -13.9830   11.6190 O   0  0  0  0  0
   18.5000  -11.7860   12.1280 C   0  0  0  0  0
   17.8150  -11.9990   13.4360 C   0  0  0  0  0
   18.5490  -13.1570   14.0480 C   0  0  0  0  0
   20.5210  -12.3450   10.1820 N   0  0  0  0  0
   21.7740  -12.4120    9.4940 C   0  0  0  0  0
   22.6590  -11.2040    9.8510 C   0  0  0  0  0
   22.1030  -10.1610   10.0720 O   0  0  0  0  0
   21.4430  -12.3750    8.0070 C   0  0  0  0  0
   22.6550  -12.3590    7.3170 O   0  0  0  0  0
   23.9550  -11.3850    9.9320 N   0  0  0  0  0
   24.9200  -10.2700   10.1710 C   0  0  0  0  0
   26.2550  -10.8020   10.7130 C   0  0  0  0  0
   27.2060   -9.7150   11.1660 C   0  0  0  0  0
   28.3330  -10.2980   12.0480 C   0  0  0  0  0
   29.3210   -9.1840   12.4210 C   0  0  0  0  0
   30.5380   -9.6280   13.1430 N   0  3  0  0  0
   25.2280   -9.5950    8.8540 C   0  0  0  0  0
   25.6230   -8.4360    8.8260 O   0  0  0  0  0
   30.1940  -10.3870   14.3650 C   0  0  0  0  0
   31.3190   -8.4250   13.4890 C   0  0  0  0  0
   31.4380  -10.4810   12.3290 C   0  0  0  0  0
   25.0570  -10.3280    7.7540 N   0  0  0  0  0
   25.5210   -9.8640    6.4250 C   0  0  0  0  0
   24.3810   -9.6430    5.4350 C   0  0  0  0  0
   23.3360  -10.2810    5.5050 O   0  0  0  0  0
   26.5800  -10.8090    5.8670 C   0  0  0  0  0
   27.7890  -10.9270    6.7270 C   0  0  0  0  0
   28.6690   -9.8480    6.8550 C   0  0  0  0  0
   28.0000  -12.0930    7.4890 C   0  0  0  0  0
   29.7940   -9.9590    7.6880 C   0  0  0  0  0
   29.1070  -12.1970    8.3450 C   0  0  0  0  0
   29.9940  -11.1380    8.4310 C   0  0  0  0  0
   22.6520   -4.8410    2.4250 C   0  0  0  0  0
   22.3830   -6.2990    2.8030 C   0  0  0  0  0
   21.2130   -6.4660    3.7630 C   0  0  0  0  0
   23.6280   -6.8770    3.4070 C   0  0  0  0  0
   23.5370   -8.3980    3.5240 C   0  0  0  0  0
   24.5780   -8.7490    4.4950 N   0  0  0  0  0
   23.7690   -9.0380    2.1780 C   0  0  0  0  0
   24.8370   -8.8570    1.5960 O   0  0  0  0  0
   22.8450   -9.8150    1.6120 N   0  0  0  0  0
   19.8186  -14.3453   13.0129 H   0  0  0  0  0
   18.1851  -14.7294   12.8271 H   0  0  0  0  0
   18.1285  -13.5775   10.9099 H   0  0  0  0  0
   17.8767  -11.2468   11.4147 H   0  0  0  0  0
   19.3872  -11.1595   12.2199 H   0  0  0  0  0
   16.7508  -12.2020   13.3161 H   0  0  0  0  0
   17.8458  -11.1109   14.0673 H   0  0  0  0  0
   19.4301  -12.8506   14.6119 H   0  0  0  0  0
   17.9575  -13.6878   14.7939 H   0  0  0  0  0
   19.8643  -11.5966    9.9606 H   0  0  0  0  0
   22.3198  -13.3138    9.7713 H   0  0  0  0  0
   20.8518  -11.4914    7.7664 H   0  0  0  0  0
   20.8503  -13.2446    7.7232 H   0  0  0  0  0
   22.4840  -12.3355    6.3726 H   0  0  0  0  0
   24.3214  -12.3311    9.8269 H   0  0  0  0  0
   24.4680   -9.5859   10.8892 H   0  0  0  0  0
   26.7425  -11.3438    9.9025 H   0  0  0  0  0
   26.0301  -11.4205   11.5819 H   0  0  0  0  0
   26.6480   -8.9830   11.7499 H   0  0  0  0  0
   27.6539   -9.2530   10.2862 H   0  0  0  0  0
   28.8576  -11.0788   11.4973 H   0  0  0  0  0
   27.9018  -10.7195   12.9560 H   0  0  0  0  0
   28.7899   -8.5091   13.0922 H   0  0  0  0  0
   29.6592   -8.7416   11.4840 H   0  0  0  0  0
   29.6075   -9.7543   15.0311 H   0  0  0  0  0
   29.6122  -11.2676   14.0925 H   0  0  0  0  0
   31.1097  -10.6966   14.8687 H   0  0  0  0  0
   31.5914   -7.8953   12.5762 H   0  0  0  0  0
   30.7181   -7.7733   14.1233 H   0  0  0  0  0
   32.2224   -8.7208   14.0223 H   0  0  0  0  0
   30.9019  -11.3766   12.0151 H   0  0  0  0  0
   31.7663   -9.9258   11.4503 H   0  0  0  0  0
   32.3049  -10.7652   12.9255 H   0  0  0  0  0
   24.5938  -11.2337    7.8289 H   0  0  0  0  0
   25.9758   -8.8843    6.5717 H   0  0  0  0  0
   26.9014  -10.4075    4.9060 H   0  0  0  0  0
   26.1300  -11.7995    5.7994 H   0  0  0  0  0
   28.4822   -8.9230    6.3095 H   0  0  0  0  0
   27.2967  -12.9222    7.4129 H   0  0  0  0  0
   30.5075   -9.1380    7.7589 H   0  0  0  0  0
   29.2663  -13.0999    8.9345 H   0  0  0  0  0
   30.8622  -11.2182    9.0851 H   0  0  0  0  0
   21.7684   -4.4231    1.9426 H   0  0  0  0  0
   22.8806   -4.2699    3.3248 H   0  0  0  0  0
   23.4979   -4.7949    1.7392 H   0  0  0  0  0
   22.1076   -6.8297    1.8916 H   0  0  0  0  0
   21.4193   -5.9201    4.6836 H   0  0  0  0  0
   20.3070   -6.0732    3.3014 H   0  0  0  0  0
   21.0781   -7.5238    3.9888 H   0  0  0  0  0
   23.7537   -6.4600    4.4062 H   0  0  0  0  0
   24.4721   -6.6293    2.7634 H   0  0  0  0  0
   22.5579   -8.7496    3.8492 H   0  0  0  0  0
   25.4838   -8.2836    4.4380 H   0  0  0  0  0
   23.0288  -10.2502    0.7080 H   0  0  0  0  0
   21.9544   -9.9742    2.0830 H   0  0  0  0  0
  2  1  1  0  0  0
  1  7  1  0  0  0
  3  2  1  0  0  0
  2  5  1  0  0  0
  3  4  2  0  0  0
  8  3  1  0  0  0
  5  6  1  0  0  0
  6  7  1  0  0  0
  9  8  1  0  0  0
 10  9  1  0  0  0
  9 12  1  0  0  0
 10 11  2  0  0  0
 14 10  1  0  0  0
 12 13  1  0  0  0
 15 14  1  0  0  0
 15 16  1  0  0  0
 21 15  1  0  0  0
 16 17  1  0  0  0
 17 18  1  0  0  0
 18 19  1  0  0  0
 19 20  1  0  0  0
 20 23  1  0  0  0
 20 24  1  0  0  0
 20 25  1  0  0  0
 21 22  2  0  0  0
 26 21  1  0  0  0
 27 26  1  0  0  0
 28 27  1  0  0  0
 27 30  1  0  0  0
 28 29  2  0  0  0
 42 28  1  0  0  0
 30 31  1  0  0  0
 31 32  4  0  0  0
 31 33  4  0  0  0
 32 34  4  0  0  0
 33 35  4  0  0  0
 34 36  4  0  0  0
 35 36  4  0  0  0
 38 37  1  0  0  0
 38 39  1  0  0  0
 40 38  1  0  0  0
 41 40  1  0  0  0
 41 42  1  0  0  0
 41 43  1  0  0  0
 43 44  2  0  0  0
 43 45  1  0  0  0
  1 46  1  0  0  0
  1 47  1  0  0  0
  2 48  1  0  0  0
  5 49  1  0  0  0
  5 50  1  0  0  0
  6 51  1  0  0  0
  6 52  1  0  0  0
  7 53  1  0  0  0
  7 54  1  0  0  0
  8 55  1  0  0  0
  9 56  1  0  0  0
 12 57  1  0  0  0
 12 58  1  0  0  0
 13 59  1  0  0  0
 14 60  1  0  0  0
 15 61  1  0  0  0
 16 62  1  0  0  0
 16 63  1  0  0  0
 17 64  1  0  0  0
 17 65  1  0  0  0
 18 66  1  0  0  0
 18 67  1  0  0  0
 19 68  1  0  0  0
 19 69  1  0  0  0
 23 70  1  0  0  0
 23 71  1  0  0  0
 23 72  1  0  0  0
 24 73  1  0  0  0
 24 74  1  0  0  0
 24 75  1  0  0  0
 25 76  1  0  0  0
 25 77  1  0  0  0
 25 78  1  0  0  0
 26 79  1  0  0  0
 27 80  1  0  0  0
 30 81  1  0  0  0
 30 82  1  0  0  0
 32 83  1  0  0  0
 33 84  1  0  0  0
 34 85  1  0  0  0
 35 86  1  0  0  0
 36 87  1  0  0  0
 37 88  1  0  0  0
 37 89  1  0  0  0
 37 90  1  0  0  0
 38 91  1  0  0  0
 39 92  1  0  0  0
 39 93  1  0  0  0
 39 94  1  0  0  0
 40 95  1  0  0  0
 40 96  1  0  0  0
 41 97  1  0  0  0
 42 98  1  0  0  0
 45 99  1  0  0  0
 45100  1  0  0  0
M  END
$$$$
