4z0d_ligand
  -I-interpret- 

199203  0  0  0  0  0  0  0  0999 V2000
   -9.7950   19.3420  -29.1420 N   0  3  0  0  0
  -10.6180   20.2210  -28.3210 C   0  0  0  0  0
  -11.6480   19.4410  -27.5120 C   0  0  0  0  0
  -12.1710   18.4240  -27.9680 O   0  0  0  0  0
  -11.3260   21.2620  -29.1930 C   0  0  0  0  0
  -10.2240   22.4450  -30.0020 S   0  0  0  0  0
  -11.9290   19.9240  -26.3070 N   0  0  0  0  0
  -12.9750   19.3490  -25.4720 C   0  0  0  0  0
  -13.9930   20.4130  -25.0890 C   0  0  0  0  0
  -13.7040   21.6090  -25.1320 O   0  0  0  0  0
  -12.3870   18.7140  -24.2100 C   0  0  0  0  0
  -11.5750   17.4830  -24.4680 C   0  0  0  0  0
  -12.0090   16.1900  -24.4160 C   0  0  0  0  0
  -10.1850   17.4260  -24.8100 C   0  0  0  0  0
  -10.9770   15.3320  -24.7080 N   0  0  0  0  0
   -9.8460   16.0660  -24.9540 C   0  0  0  0  0
   -9.1950   18.3930  -25.0100 C   0  0  0  0  0
   -8.5600   15.6480  -25.2890 C   0  0  0  0  0
   -7.9180   17.9760  -25.3430 C   0  0  0  0  0
   -7.6120   16.6160  -25.4790 C   0  0  0  0  0
  -15.1860   19.9690  -24.7140 N   0  0  0  0  0
  -16.2160   20.8720  -24.2280 C   0  0  0  0  0
  -16.6060   20.4860  -22.8090 C   0  0  0  0  0
  -16.9250   19.3280  -22.5410 O   0  0  0  0  0
  -17.4620   20.8520  -25.1310 C   0  0  0  0  0
  -17.1130   21.3170  -26.4400 O   0  0  0  0  0
  -18.5490   21.7470  -24.5580 C   0  0  0  0  0
  -16.5650   21.4510  -21.8970 N   0  0  0  0  0
  -16.9440   21.1880  -20.5170 C   0  0  0  0  0
  -18.4190   20.8210  -20.4350 C   0  0  0  0  0
  -19.2300   21.2860  -21.2370 O   0  0  0  0  0
  -16.6590   22.3910  -19.6020 C   0  0  0  0  0
  -17.2430   23.5690  -20.1620 O   0  0  0  0  0
  -15.1690   22.6050  -19.4650 C   0  0  0  0  0
  -18.7860   19.9650  -19.5120 N   0  0  0  0  0
  -20.1540   19.5580  -19.3670 C   0  0  0  0  0
  -20.8840   20.3980  -18.3500 C   0  0  0  0  0
  -22.0170   20.6320  -18.4950 O   0  0  0  0  0
  -20.2670   18.0870  -18.9740 C   0  0  0  0  0
  -19.8500   17.0840  -19.9970 C   0  0  0  0  0
  -19.8020   15.6780  -19.4780 C   0  0  0  0  0
  -19.5600   14.7630  -20.5760 N   0  0  0  0  0
  -18.4520   14.0990  -20.7800 C   0  0  0  0  0
  -17.4830   14.1870  -19.9310 N   0  0  0  0  0
  -18.3390   13.3310  -21.8280 N   0  0  0  0  0
  -20.1980   20.8090  -17.3060 N   0  0  0  0  0
  -20.7750   21.6160  -16.2430 C   0  0  0  0  0
  -20.8710   23.0700  -16.6770 C   0  0  0  0  0
  -20.1920   23.4740  -17.5990 O   0  0  0  0  0
  -19.9920   21.4770  -14.9490 C   0  0  0  0  0
  -20.4200   20.3090  -14.0890 C   0  0  0  0  0
  -19.3410   19.9880  -12.7260 S   0  0  0  0  0
  -17.8300   19.6030  -13.5340 C   0  0  0  0  0
  -21.7790   23.8160  -16.0730 N   0  0  0  0  0
  -21.9810   25.1720  -16.4980 C   0  0  0  0  0
  -21.0900   26.0850  -15.7270 C   0  0  0  0  0
  -20.8620   25.9070  -14.5600 O   0  0  0  0  0
  -23.4400   25.5940  -16.3900 C   0  0  0  0  0
  -20.5800   27.0760  -16.4170 N   0  0  0  0  0
  -20.8980   27.3020  -17.8320 C   0  0  0  0  0
  -19.8970   26.6420  -18.7790 C   0  0  0  0  0
  -18.6890   26.6800  -18.5320 O   0  0  0  0  0
  -20.8430   28.8250  -17.9680 C   0  0  0  0  0
  -19.8750   29.2660  -16.9040 C   0  0  0  0  0
  -19.8280   28.2020  -15.8330 C   0  0  0  0  0
  -20.4090   26.0330  -19.8590 N   0  0  0  0  0
  -19.6670   25.3120  -20.9040 C   0  0  0  0  0
  -18.6970   26.1570  -21.7290 C   0  0  0  0  0
  -19.0130   27.3010  -22.0440 O   0  0  0  0  0
  -20.7760   24.7910  -21.8160 C   0  0  0  0  0
  -21.9680   24.7120  -20.9600 C   0  0  0  0  0
  -21.8630   25.8740  -20.0250 C   0  0  0  0  0
  -17.5620   25.5730  -22.1160 N   0  0  0  0  0
  -16.5350   26.2660  -22.8960 C   0  0  0  0  0
  -15.7310   25.2610  -23.7070 C   0  0  0  0  0
  -15.7190   24.0760  -23.3920 O   0  0  0  0  0
  -15.6070   27.0680  -21.9760 C   0  0  0  0  0
  -14.9170   26.2170  -20.9170 C   0  0  0  0  0
  -14.3780   27.0380  -19.7590 C   0  0  0  0  0
  -13.4650   27.8480  -19.9270 O   0  0  0  0  0
  -14.9440   26.8330  -18.5750 N   0  0  0  0  0
  -15.0540   25.7360  -24.7460 N   0  0  0  0  0
  -14.2000   24.8670  -25.5420 C   0  0  0  0  0
  -12.7620   24.9450  -25.0450 C   0  0  0  0  0
  -12.2030   26.0330  -24.9060 O   0  0  0  0  0
  -14.2730   25.2380  -27.0240 C   0  0  0  0  0
  -12.1740   23.7880  -24.7620 N   0  0  0  0  0
  -10.7910   23.7250  -24.3090 C   0  0  0  0  0
   -9.9670   22.8460  -25.2450 C   0  0  0  0  0
  -10.1300   21.6260  -25.2710 O   0  0  0  0  0
  -10.6900   23.1900  -22.8690 C   0  0  0  0  0
  -11.3830   24.1460  -21.8980 C   0  0  0  0  0
   -9.2380   23.0190  -22.4670 C   0  0  0  0  0
  -11.5880   23.5720  -20.5140 C   0  0  0  0  0
   -9.0860   23.4760  -26.0150 N   0  0  0  0  0
   -8.2930   22.7670  -27.0130 C   0  0  0  0  0
   -6.9050   22.4110  -26.4870 C   0  0  0  0  0
   -6.2360   23.2330  -25.8620 O   0  0  0  0  0
   -8.1710   23.6080  -28.2850 C   0  0  0  0  0
   -9.7560   24.1370  -28.9790 S   0  0  0  0  0
   -6.4250   21.2940  -26.6760 O   0  0  0  0  0
   -9.3320   18.6564  -28.5453 H   0  0  0  0  0
  -10.3856   18.8606  -29.8201 H   0  0  0  0  0
   -9.0934   19.8960  -29.6332 H   0  0  0  0  0
   -9.9520   20.7264  -27.6216 H   0  0  0  0  0
  -11.9793   21.8354  -28.5353 H   0  0  0  0  0
  -11.8411   20.7163  -29.9836 H   0  0  0  0  0
  -11.3970   20.7205  -25.9562 H   0  0  0  0  0
  -13.4722   18.5697  -26.0495 H   0  0  0  0  0
  -13.2238   18.4218  -23.5756 H   0  0  0  0  0
  -11.7226   19.4502  -23.7576 H   0  0  0  0  0
  -13.0272   15.8828  -24.1773 H   0  0  0  0  0
   -9.4243   19.4535  -24.9058 H   0  0  0  0  0
   -8.3184   14.5905  -25.3956 H   0  0  0  0  0
   -7.1366   18.7191  -25.5022 H   0  0  0  0  0
   -6.5958   16.3222  -25.7421 H   0  0  0  0  0
  -15.3849   18.9700  -24.7681 H   0  0  0  0  0
  -15.8091   21.8831  -24.2411 H   0  0  0  0  0
  -17.8354   19.8294  -25.1860 H   0  0  0  0  0
  -17.8917   21.3036  -27.0013 H   0  0  0  0  0
  -18.8247   21.3915  -23.5652 H   0  0  0  0  0
  -18.1772   22.7693  -24.4890 H   0  0  0  0  0
  -19.4218   21.7196  -25.2104 H   0  0  0  0  0
  -16.2643   22.3874  -22.1673 H   0  0  0  0  0
  -16.3376   20.3515  -20.1697 H   0  0  0  0  0
  -17.0882   22.1898  -18.6205 H   0  0  0  0  0
  -17.0632   24.3176  -19.5885 H   0  0  0  0  0
  -14.7133   21.7136  -19.0339 H   0  0  0  0  0
  -14.7387   22.7953  -20.4482 H   0  0  0  0  0
  -14.9843   23.4599  -18.8145 H   0  0  0  0  0
  -18.0823   19.5794  -18.8823 H   0  0  0  0  0
  -20.6182   19.7019  -20.3427 H   0  0  0  0  0
  -21.3263   17.9062  -18.7917 H   0  0  0  0  0
  -19.5930   17.9503  -18.1284 H   0  0  0  0  0
  -18.8426   17.3469  -20.3196 H   0  0  0  0  0
  -20.5877   17.1104  -20.7990 H   0  0  0  0  0
  -20.7533   15.4335  -19.0054 H   0  0  0  0  0
  -18.9978   15.5885  -18.7477 H   0  0  0  0  0
  -20.3172   14.6256  -21.2454 H   0  0  0  0  0
  -17.5824   14.7738  -19.1026 H   0  0  0  0  0
  -17.4831   12.7973  -21.9792 H   0  0  0  0  0
  -19.1066   13.2641  -22.4964 H   0  0  0  0  0
  -19.2139   20.5492  -17.2387 H   0  0  0  0  0
  -21.7824   21.2485  -16.0478 H   0  0  0  0  0
  -20.1645   22.3838  -14.3693 H   0  0  0  0  0
  -18.9491   21.3123  -15.2199 H   0  0  0  0  0
  -20.4147   19.4217  -14.7221 H   0  0  0  0  0
  -21.3991   20.5524  -13.6765 H   0  0  0  0  0
  -17.9743   18.7350  -14.1773 H   0  0  0  0  0
  -17.5143   20.4548  -14.1364 H   0  0  0  0  0
  -17.0668   19.3811  -12.7880 H   0  0  0  0  0
  -22.3335   23.4303  -15.3087 H   0  0  0  0  0
  -21.7186   25.2378  -17.5539 H   0  0  0  0  0
  -24.0518   24.9459  -17.0175 H   0  0  0  0  0
  -23.7653   25.5102  -15.3531 H   0  0  0  0  0
  -23.5437   26.6269  -16.7224 H   0  0  0  0  0
  -21.8605   26.8679  -18.1027 H   0  0  0  0  0
  -21.8246   29.2814  -17.8405 H   0  0  0  0  0
  -20.5235   29.1341  -18.9632 H   0  0  0  0  0
  -20.1988   30.2140  -16.4745 H   0  0  0  0  0
  -18.8838   29.4053  -17.3356 H   0  0  0  0  0
  -18.8072   27.9252  -15.5696 H   0  0  0  0  0
  -20.2590   28.5433  -14.8918 H   0  0  0  0  0
  -19.0269   24.5578  -20.4461 H   0  0  0  0  0
  -20.5230   23.8219  -22.2460 H   0  0  0  0  0
  -20.9363   25.4469  -22.6717 H   0  0  0  0  0
  -22.0110   23.7662  -20.4199 H   0  0  0  0  0
  -22.8856   24.7521  -21.5469 H   0  0  0  0  0
  -22.3455   26.7721  -20.4106 H   0  0  0  0  0
  -22.3806   25.7052  -19.0807 H   0  0  0  0  0
  -17.4023   24.5995  -21.8568 H   0  0  0  0  0
  -17.0263   26.9604  -23.5776 H   0  0  0  0  0
  -16.2185   27.8055  -21.4562 H   0  0  0  0  0
  -14.8293   27.5094  -22.5993 H   0  0  0  0  0
  -14.0733   25.7152  -21.3907 H   0  0  0  0  0
  -15.6541   25.5207  -20.5170 H   0  0  0  0  0
  -14.6250   27.3565  -17.7598 H   0  0  0  0  0
  -15.6976   26.1521  -18.4810 H   0  0  0  0  0
  -15.1336   26.7233  -24.9895 H   0  0  0  0  0
  -14.5558   23.8426  -25.4319 H   0  0  0  0  0
  -15.3006   25.1352  -27.3728 H   0  0  0  0  0
  -13.9446   26.2690  -27.1557 H   0  0  0  0  0
  -13.6256   24.5732  -27.5960 H   0  0  0  0  0
  -12.7039   22.9225  -24.8644 H   0  0  0  0  0
  -10.3946   24.7403  -24.3216 H   0  0  0  0  0
  -11.1849   22.2196  -22.8294 H   0  0  0  0  0
  -12.3692   24.3651  -22.3073 H   0  0  0  0  0
  -10.7432   25.0223  -21.7939 H   0  0  0  0  0
   -8.7561   22.3124  -23.1427 H   0  0  0  0  0
   -8.7307   23.9821  -22.5241 H   0  0  0  0  0
   -9.1871   22.6401  -21.4462 H   0  0  0  0  0
  -12.2053   22.6762  -20.5814 H   0  0  0  0  0
  -10.6208   23.3166  -20.0811 H   0  0  0  0  0
  -12.0851   24.3109  -19.8856 H   0  0  0  0  0
   -8.9610   24.4823  -25.9052 H   0  0  0  0  0
   -8.8101   21.8352  -27.2421 H   0  0  0  0  0
   -6.7273   24.0545  -25.7888 H   0  0  0  0  0
   -7.6825   22.9868  -29.0357 H   0  0  0  0  0
   -7.6178   24.5098  -28.0226 H   0  0  0  0  0
  1  2  1  0  0  0
  2  3  1  0  0  0
  2  5  1  0  0  0
  3  4  2  0  0  0
  3  7  1  0  0  0
  5  6  1  0  0  0
  6100  1  0  0  0
  7  8  1  0  0  0
  8  9  1  0  0  0
  8 11  1  0  0  0
  9 10  2  0  0  0
  9 21  1  0  0  0
 11 12  1  0  0  0
 12 13  4  0  0  0
 12 14  4  0  0  0
 13 15  4  0  0  0
 14 16  4  0  0  0
 14 17  4  0  0  0
 15 16  4  0  0  0
 16 18  4  0  0  0
 17 19  4  0  0  0
 18 20  4  0  0  0
 19 20  4  0  0  0
 21 22  1  0  0  0
 22 23  1  0  0  0
 22 25  1  0  0  0
 23 24  2  0  0  0
 23 28  1  0  0  0
 25 26  1  0  0  0
 25 27  1  0  0  0
 28 29  1  0  0  0
 29 30  1  0  0  0
 29 32  1  0  0  0
 30 31  2  0  0  0
 30 35  1  0  0  0
 32 33  1  0  0  0
 32 34  1  0  0  0
 35 36  1  0  0  0
 36 37  1  0  0  0
 36 39  1  0  0  0
 37 38  2  0  0  0
 37 46  1  0  0  0
 39 40  1  0  0  0
 40 41  1  0  0  0
 41 42  1  0  0  0
 42 43  1  0  0  0
 43 44  2  0  0  0
 43 45  1  0  0  0
 46 47  1  0  0  0
 47 48  1  0  0  0
 47 50  1  0  0  0
 48 49  2  0  0  0
 48 54  1  0  0  0
 50 51  1  0  0  0
 51 52  1  0  0  0
 52 53  1  0  0  0
 54 55  1  0  0  0
 55 56  1  0  0  0
 55 58  1  0  0  0
 56 57  2  0  0  0
 56 59  1  0  0  0
 59 60  1  0  0  0
 59 65  1  0  0  0
 60 61  1  0  0  0
 60 63  1  0  0  0
 61 62  2  0  0  0
 61 66  1  0  0  0
 63 64  1  0  0  0
 64 65  1  0  0  0
 66 67  1  0  0  0
 66 72  1  0  0  0
 67 68  1  0  0  0
 67 70  1  0  0  0
 68 69  2  0  0  0
 68 73  1  0  0  0
 70 71  1  0  0  0
 71 72  1  0  0  0
 73 74  1  0  0  0
 74 75  1  0  0  0
 74 77  1  0  0  0
 75 76  2  0  0  0
 75 82  1  0  0  0
 77 78  1  0  0  0
 78 79  1  0  0  0
 79 80  2  0  0  0
 79 81  1  0  0  0
 82 83  1  0  0  0
 83 84  1  0  0  0
 83 86  1  0  0  0
 84 85  2  0  0  0
 84 87  1  0  0  0
 87 88  1  0  0  0
 88 89  1  0  0  0
 88 91  1  0  0  0
 89 90  2  0  0  0
 89 95  1  0  0  0
 91 92  1  0  0  0
 91 93  1  0  0  0
 92 94  1  0  0  0
 95 96  1  0  0  0
 96 97  1  0  0  0
 96 99  1  0  0  0
 97 98  1  0  0  0
 97101  2  0  0  0
 99100  1  0  0  0
  1102  1  0  0  0
  1103  1  0  0  0
  1104  1  0  0  0
  2105  1  0  0  0
  5106  1  0  0  0
  5107  1  0  0  0
  7108  1  0  0  0
  8109  1  0  0  0
 11110  1  0  0  0
 11111  1  0  0  0
 13112  1  0  0  0
 17113  1  0  0  0
 18114  1  0  0  0
 19115  1  0  0  0
 20116  1  0  0  0
 21117  1  0  0  0
 22118  1  0  0  0
 25119  1  0  0  0
 26120  1  0  0  0
 27121  1  0  0  0
 27122  1  0  0  0
 27123  1  0  0  0
 28124  1  0  0  0
 29125  1  0  0  0
 32126  1  0  0  0
 33127  1  0  0  0
 34128  1  0  0  0
 34129  1  0  0  0
 34130  1  0  0  0
 35131  1  0  0  0
 36132  1  0  0  0
 39133  1  0  0  0
 39134  1  0  0  0
 40135  1  0  0  0
 40136  1  0  0  0
 41137  1  0  0  0
 41138  1  0  0  0
 42139  1  0  0  0
 44140  1  0  0  0
 45141  1  0  0  0
 45142  1  0  0  0
 46143  1  0  0  0
 47144  1  0  0  0
 50145  1  0  0  0
 50146  1  0  0  0
 51147  1  0  0  0
 51148  1  0  0  0
 53149  1  0  0  0
 53150  1  0  0  0
 53151  1  0  0  0
 54152  1  0  0  0
 55153  1  0  0  0
 58154  1  0  0  0
 58155  1  0  0  0
 58156  1  0  0  0
 60157  1  0  0  0
 63158  1  0  0  0
 63159  1  0  0  0
 64160  1  0  0  0
 64161  1  0  0  0
 65162  1  0  0  0
 65163  1  0  0  0
 67164  1  0  0  0
 70165  1  0  0  0
 70166  1  0  0  0
 71167  1  0  0  0
 71168  1  0  0  0
 72169  1  0  0  0
 72170  1  0  0  0
 73171  1  0  0  0
 74172  1  0  0  0
 77173  1  0  0  0
 77174  1  0  0  0
 78175  1  0  0  0
 78176  1  0  0  0
 81177  1  0  0  0
 81178  1  0  0  0
 82179  1  0  0  0
 83180  1  0  0  0
 86181  1  0  0  0
 86182  1  0  0  0
 86183  1  0  0  0
 87184  1  0  0  0
 88185  1  0  0  0
 91186  1  0  0  0
 92187  1  0  0  0
 92188  1  0  0  0
 93189  1  0  0  0
 93190  1  0  0  0
 93191  1  0  0  0
 94192  1  0  0  0
 94193  1  0  0  0
 94194  1  0  0  0
 95195  1  0  0  0
 96196  1  0  0  0
 98197  1  0  0  0
 99198  1  0  0  0
 99199  1  0  0  0
M  END
$$$$
