### 
### Created by X-TOOL on Mon Sep 10 21:13:29 2018
### 

@<TRIPOS>MOLECULE
4z0d_ligand
  200   204     1     0     0
SMALL
GAST_HUCK


@<TRIPOS>ATOM
      1 N          -9.7950   19.3420  -29.1420 N.4       1 CYS         0.2385
      2 CA        -10.6180   20.2210  -28.3210 C.3       1 CYS         0.0749
      3 C         -11.6480   19.4410  -27.5120 C.2       1 CYS         0.2276
      4 O         -12.1710   18.4240  -27.9680 O.2       1 CYS        -0.3907
      5 CB        -11.3260   21.2620  -29.1930 C.3       1 CYS         0.0643
      6 SG        -10.2240   22.4450  -30.0020 S.3       1 CYS        -0.0848
      7 N         -11.9290   19.9240  -26.3070 N.am      1 TRP        -0.2599
      8 CA        -12.9750   19.3490  -25.4720 C.3       1 TRP         0.1353
      9 C         -13.9930   20.4130  -25.0890 C.2       1 TRP         0.2052
     10 O         -13.7040   21.6090  -25.1320 O.2       1 TRP        -0.3942
     11 CB        -12.3870   18.7140  -24.2100 C.3       1 TRP         0.0042
     12 CG        -11.5750   17.4830  -24.4680 C.2       1 TRP        -0.0418
     13 CD1       -12.0090   16.1900  -24.4160 C.2       1 TRP         0.0167
     14 CD2       -10.1850   17.4260  -24.8100 C.ar      1 TRP        -0.0214
     15 NE1       -10.9770   15.3320  -24.7080 N.pl3     1 TRP        -0.2890
     16 CE2        -9.8460   16.0660  -24.9540 C.ar      1 TRP         0.0603
     17 CE3        -9.1950   18.3930  -25.0100 C.ar      1 TRP        -0.0747
     18 CZ2        -8.5600   15.6480  -25.2890 C.ar      1 TRP        -0.0443
     19 CZ3        -7.9180   17.9760  -25.3430 C.ar      1 TRP        -0.0792
     20 CH2        -7.6120   16.6160  -25.4790 C.ar      1 TRP        -0.0768
     21 N         -15.1860   19.9690  -24.7140 N.am      1 THR        -0.2612
     22 CA        -16.2160   20.8720  -24.2280 C.3       1 THR         0.1565
     23 C         -16.6060   20.4860  -22.8090 C.2       1 THR         0.2065
     24 O         -16.9250   19.3280  -22.5410 O.2       1 THR        -0.3943
     25 CB        -17.4620   20.8520  -25.1310 C.3       1 THR         0.0924
     26 OG1       -17.1130   21.3170  -26.4400 O.3       1 THR        -0.3874
     27 CG2       -18.5490   21.7470  -24.5580 C.3       1 THR        -0.0346
     28 N         -16.5650   21.4510  -21.8970 N.am      1 THR        -0.2613
     29 CA        -16.9440   21.1880  -20.5170 C.3       1 THR         0.1565
     30 C         -18.4190   20.8210  -20.4350 C.2       1 THR         0.2065
     31 O         -19.2300   21.2860  -21.2370 O.2       1 THR        -0.3943
     32 CB        -16.6590   22.3910  -19.6020 C.3       1 THR         0.0924
     33 OG1       -17.2430   23.5690  -20.1620 O.3       1 THR        -0.3874
     34 CG2       -15.1690   22.6050  -19.4650 C.3       1 THR        -0.0346
     35 N         -18.7860   19.9650  -19.5120 N.am      1 ARG        -0.2636
     36 CA        -20.1540   19.5580  -19.3670 C.3       1 ARG         0.1311
     37 C         -20.8840   20.3980  -18.3500 C.2       1 ARG         0.2039
     38 O         -22.0170   20.6320  -18.4950 O.2       1 ARG        -0.3944
     39 CB        -20.2670   18.0870  -18.9740 C.3       1 ARG        -0.0092
     40 CG        -19.8500   17.0840  -19.9970 C.3       1 ARG        -0.0156
     41 CD        -19.8020   15.6780  -19.4780 C.3       1 ARG         0.0627
     42 NE        -19.5600   14.7630  -20.5760 N.pl3     1 ARG        -0.2723
     43 CZ        -18.4520   14.0990  -20.7800 C.cat     1 ARG         0.2882
     44 NH1       -17.4830   14.1870  -19.9310 N.pl3     1 ARG        -0.2849
     45 NH2       -18.3390   13.3310  -21.8280 N.pl3     1 ARG        -0.2849
     46 N         -20.1980   20.8090  -17.3060 N.am      1 MET        -0.2637
     47 CA        -20.7750   21.6160  -16.2430 C.3       1 MET         0.1317
     48 C         -20.8710   23.0700  -16.6770 C.2       1 MET         0.2039
     49 O         -20.1920   23.4740  -17.5990 O.2       1 MET        -0.3944
     50 CB        -19.9920   21.4770  -14.9490 C.3       1 MET        -0.0034
     51 CG        -20.4200   20.3090  -14.0890 C.3       1 MET        -0.0024
     52 SD        -19.3410   19.9880  -12.7260 S.3       1 MET        -0.1639
     53 CE        -17.8300   19.6030  -13.5340 C.3       1 MET        -0.0181
     54 N         -21.7790   23.8160  -16.0730 N.am      1 SER        -0.2640
     55 CA        -21.9810   25.1720  -16.4980 C.3       1 SER         0.1284
     56 C         -21.0900   26.0850  -15.7270 C.2       1 SER         0.2061
     57 O         -20.8620   25.9070  -14.5600 O.2       1 SER        -0.3942
     58 CB        -23.4400   25.5940  -16.3900 C.3       1 SER        -0.0244
     59 N         -20.5800   27.0760  -16.4170 N.am      1 PRO        -0.2498
     60 CA        -20.8980   27.3020  -17.8320 C.3       1 PRO         0.1340
     61 C         -19.8970   26.6420  -18.7790 C.2       1 PRO         0.2066
     62 O         -18.6890   26.6800  -18.5320 O.2       1 PRO        -0.3942
     63 CB        -20.8430   28.8250  -17.9680 C.3       1 PRO        -0.0104
     64 CG        -19.8750   29.2660  -16.9040 C.3       1 PRO        -0.0281
     65 CD        -19.8280   28.2020  -15.8330 C.3       1 PRO         0.0369
     66 N         -20.4090   26.0330  -19.8590 N.am      1 PRO        -0.2498
     67 CA        -19.6670   25.3120  -20.9040 C.3       1 PRO         0.1338
     68 C         -18.6970   26.1570  -21.7290 C.2       1 PRO         0.2041
     69 O         -19.0130   27.3010  -22.0440 O.2       1 PRO        -0.3944
     70 CB        -20.7760   24.7910  -21.8160 C.3       1 PRO        -0.0104
     71 CG        -21.9680   24.7120  -20.9600 C.3       1 PRO        -0.0281
     72 CD        -21.8630   25.8740  -20.0250 C.3       1 PRO         0.0369
     73 N         -17.5620   25.5730  -22.1160 N.am      1 GLN        -0.2636
     74 CA        -16.5350   26.2660  -22.8960 C.3       1 GLN         0.1330
     75 C         -15.7310   25.2610  -23.7070 C.2       1 GLN         0.2040
     76 O         -15.7190   24.0760  -23.3920 O.2       1 GLN        -0.3944
     77 CB        -15.6070   27.0680  -21.9760 C.3       1 GLN         0.0045
     78 CG        -14.9170   26.2170  -20.9170 C.3       1 GLN         0.0412
     79 CD        -14.3780   27.0380  -19.7590 C.2       1 GLN         0.1737
     80 OE1       -13.4650   27.8480  -19.9270 O.2       1 GLN        -0.3973
     81 NE2       -14.9440   26.8330  -18.5750 N.am      1 GLN        -0.3009
     82 N         -15.0540   25.7360  -24.7460 N.am      1 GLN        -0.2640
     83 CA        -14.2000   24.8670  -25.5420 C.3       1 GLN         0.1282
     84 C         -12.7620   24.9450  -25.0450 C.2       1 GLN         0.2036
     85 O         -12.2030   26.0330  -24.9060 O.2       1 GLN        -0.3944
     86 CB        -14.2730   25.2380  -27.0240 C.3       1 GLN        -0.0244
     87 N         -12.1740   23.7880  -24.7620 N.am      1 ILE        -0.2635
     88 CA        -10.7910   23.7250  -24.3090 C.3       1 ILE         0.1335
     89 C          -9.9670   22.8460  -25.2450 C.2       1 ILE         0.2036
     90 O         -10.1300   21.6260  -25.2710 O.2       1 ILE        -0.3944
     91 CB        -10.6900   23.1900  -22.8690 C.3       1 ILE        -0.0037
     92 CG1       -11.3830   24.1460  -21.8980 C.3       1 ILE        -0.0491
     93 CG2        -9.2380   23.0190  -22.4670 C.3       1 ILE        -0.0582
     94 CD1       -11.5880   23.5720  -20.5140 C.3       1 ILE        -0.0648
     95 N          -9.0860   23.4760  -26.0150 N.am      1 CYS        -0.2686
     96 CA         -8.2930   22.7670  -27.0130 C.3       1 CYS         0.1041
     97 C          -6.9050   22.4110  -26.4870 C.2       1 CYS         0.0609
     98 O          -6.2360   23.2330  -25.8620 O.co2     1 CYS        -0.5666
     99 CB         -8.1710   23.6080  -28.2850 C.3       1 CYS         0.0388
    100 SG         -9.7560   24.1370  -28.9790 S.3       1 CYS        -0.0887
    101 OXT        -6.4250   21.2940  -26.6760 O.co2     1 CYS        -0.5666
    102 H1         -9.1285   19.8929  -29.6601 H         1 CYS         0.2015
    103 H2        -10.3829   18.8344  -29.7844 H         1 CYS         0.2015
    104 H3         -9.3042   18.6909  -28.5494 H         1 CYS         0.2015
    105 H4         -9.9565   20.7480  -27.6176 H         1 CYS         0.1107
    106 H5        -12.0244   21.8246  -28.5561 H         1 CYS         0.0466
    107 H6        -11.8892   20.7294  -29.9734 H         1 CYS         0.0466
    108 H7        -11.4075   20.7049  -25.9631 H         1 TRP         0.1886
    109 H8        -13.4872   18.5654  -26.0495 H         1 TRP         0.0815
    110 H9        -13.2165   18.4465  -23.5389 H         1 TRP         0.0397
    111 H10       -11.7419   19.4566  -23.7177 H         1 TRP         0.0397
    112 H11       -13.0263   15.8831  -24.1775 H         1 TRP         0.0795
    113 H12       -11.0424   14.3045  -24.7373 H         1 TRP         0.2216
    114 H13        -9.4230   19.4477  -24.9064 H         1 TRP         0.0540
    115 H14        -8.3197   14.5963  -25.3950 H         1 TRP         0.0541
    116 H15        -7.1409   18.7150  -25.5014 H         1 TRP         0.0510
    117 H16        -6.6014   16.3239  -25.7407 H         1 TRP         0.0530
    118 H17       -15.3810   18.9896  -24.7671 H         1 THR         0.1884
    119 H18       -15.8082   21.8936  -24.2196 H         1 THR         0.0826
    120 H19       -17.8408   19.8215  -25.1988 H         1 THR         0.0639
    121 H20       -17.8836   21.3037  -26.9955 H         1 THR         0.2101
    122 H21       -19.4304   21.7202  -25.2156 H         1 THR         0.0257
    123 H22       -18.1751   22.7791  -24.4879 H         1 THR         0.0257
    124 H23       -18.8282   21.3893  -23.5560 H         1 THR         0.0257
    125 H24       -16.2702   22.3691  -22.1620 H         1 THR         0.1884
    126 H25       -16.3508   20.3345  -20.1570 H         1 THR         0.0826
    127 H26       -17.0933   22.2016  -18.6093 H         1 THR         0.0639
    128 H27       -17.0651   24.3098  -19.5945 H         1 THR         0.2101
    129 H28       -14.9813   23.4675  -18.8087 H         1 THR         0.0257
    130 H29       -14.7334   22.7972  -20.4566 H         1 THR         0.0257
    131 H30       -14.7079   21.7061  -19.0300 H         1 THR         0.0257
    132 H31       -18.0961   19.5870  -18.8946 H         1 ARG         0.1883
    133 H32       -20.6474   19.6923  -20.3409 H         1 ARG         0.0800
    134 H33       -21.3197   17.8892  -18.7237 H         1 ARG         0.0313
    135 H34       -19.6425   17.9318  -18.0818 H         1 ARG         0.0313
    136 H35       -18.8475   17.3545  -20.3602 H         1 ARG         0.0301
    137 H36       -20.5651   17.1217  -20.8320 H         1 ARG         0.0301
    138 H37       -20.7615   15.4310  -19.0003 H         1 ARG         0.0689
    139 H38       -18.9910   15.5874  -18.7404 H         1 ARG         0.0689
    140 H39       -20.3246   14.6242  -21.2520 H         1 ARG         0.2642
    141 H40       -16.6097   13.6646  -20.0903 H         1 ARG         0.2615
    142 H41       -17.5834   14.7796  -19.0945 H         1 ARG         0.2615
    143 H42       -19.1141   13.2634  -22.5029 H         1 ARG         0.2615
    144 H43       -17.4747   12.7920  -21.9807 H         1 ARG         0.2615
    145 H44       -19.2332   20.5543  -17.2401 H         1 MET         0.1883
    146 H45       -21.7955   21.2500  -16.0570 H         1 MET         0.0800
    147 H46       -20.1219   22.4007  -14.3660 H         1 MET         0.0320
    148 H47       -18.9289   21.3488  -15.2009 H         1 MET         0.0320
    149 H48       -20.4568   19.4092  -14.7207 H         1 MET         0.0378
    150 H49       -21.4243   20.5204  -13.6931 H         1 MET         0.0378
    151 H50       -17.0589   19.3789  -12.7822 H         1 MET         0.0340
    152 H51       -17.5102   20.4619  -14.1423 H         1 MET         0.0340
    153 H52       -17.9743   18.7271  -14.1835 H         1 MET         0.0340
    154 H53       -22.3226   23.4378  -15.3237 H         1 SER         0.1883
    155 H54       -21.6959   25.2376  -17.5584 H         1 SER         0.0797
    156 H55       -23.5460   26.6363  -16.7252 H         1 SER         0.0277
    157 H56       -23.7696   25.5100  -15.3439 H         1 SER         0.0277
    158 H57       -24.0585   24.9407  -17.0229 H         1 SER         0.0277
    159 H58       -21.9060   26.9261  -18.0611 H         1 PRO         0.0802
    160 H59       -21.8359   29.2664  -17.7967 H         1 PRO         0.0313
    161 H60       -20.4809   29.1130  -18.9659 H         1 PRO         0.0313
    162 H61       -20.2109   30.2181  -16.4674 H         1 PRO         0.0287
    163 H62       -18.8747   29.3963  -17.3425 H         1 PRO         0.0287
    164 H63       -18.7897   27.9093  -15.6178 H         1 PRO         0.0524
    165 H64       -20.3083   28.5558  -14.9088 H         1 PRO         0.0524
    166 H65       -19.1063   24.4808  -20.4516 H         1 PRO         0.0802
    167 H66       -20.5171   23.7974  -22.2105 H         1 PRO         0.0313
    168 H67       -20.9463   25.4847  -22.6525 H         1 PRO         0.0313
    169 H68       -21.9768   23.7660  -20.3987 H         1 PRO         0.0287
    170 H69       -22.8828   24.7873  -21.5662 H         1 PRO         0.0287
    171 H70       -22.3122   26.7770  -20.4642 H         1 PRO         0.0524
    172 H71       -22.3492   25.6531  -19.0633 H         1 PRO         0.0524
    173 H72       -17.4055   24.6186  -21.8619 H         1 GLN         0.1883
    174 H73       -17.0301   26.9628  -23.5883 H         1 GLN         0.0801
    175 H74       -16.2030   27.8404  -21.4679 H         1 GLN         0.0337
    176 H75       -14.8344   27.5486  -22.5941 H         1 GLN         0.0337
    177 H76       -14.0792   25.6818  -21.3878 H         1 GLN         0.0504
    178 H77       -15.6423   25.4895  -20.5239 H         1 GLN         0.0504
    179 H78       -14.6303   27.3452  -17.7755 H         1 GLN         0.1814
    180 H79       -15.6838   26.1665  -18.4831 H         1 GLN         0.1814
    181 H80       -15.1320   26.7040  -24.9847 H         1 GLN         0.1883
    182 H81       -14.5537   23.8319  -25.4263 H         1 GLN         0.0797
    183 H82       -13.6200   24.5678  -27.6023 H         1 GLN         0.0277
    184 H83       -13.9418   26.2783  -27.1583 H         1 GLN         0.0277
    185 H84       -15.3096   25.1347  -27.3773 H         1 GLN         0.0277
    186 H85       -12.6935   22.9394  -24.8624 H         1 ILE         0.1883
    187 H86       -10.3760   24.7435  -24.3291 H         1 ILE         0.0803
    188 H87       -11.1891   22.2109  -22.8209 H         1 ILE         0.0345
    189 H88       -12.3672   24.4082  -22.3134 H         1 ILE         0.0267
    190 H89       -10.7689   25.0542  -21.8087 H         1 ILE         0.0267
    191 H90        -8.7423   22.3308  -23.1674 H         1 ILE         0.0235
    192 H91        -9.1856   22.6064  -21.4487 H         1 ILE         0.0235
    193 H92        -8.7327   23.9957  -22.4934 H         1 ILE         0.0235
    194 H93       -12.0896   24.3169  -19.8788 H         1 ILE         0.0230
    195 H94       -10.6126   23.3139  -20.0759 H         1 ILE         0.0230
    196 H95       -12.2109   22.6678  -20.5806 H         1 ILE         0.0230
    197 H96        -8.9634   24.4626  -25.9073 H         1 CYS         0.1876
    198 H97        -8.8149   21.8315  -27.2627 H         1 CYS         0.0734
    199 H98        -7.6441   23.0111  -29.0440 H         1 CYS         0.0425
    200 H99        -7.5806   24.5058  -28.0497 H         1 CYS         0.0425
@<TRIPOS>BOND
     1    1    2 1  
     2    2    3 1  
     3    2    5 1  
     4    3    4 2  
     5    3    7 am 
     6    5    6 1  
     7    6  100 1  
     8    7    8 1  
     9    8    9 1  
    10    8   11 1  
    11    9   10 2  
    12    9   21 am 
    13   11   12 1  
    14   12   13 2  
    15   12   14 1  
    16   13   15 1  
    17   14   16 ar 
    18   14   17 ar 
    19   15   16 1  
    20   16   18 ar 
    21   17   19 ar 
    22   18   20 ar 
    23   19   20 ar 
    24   21   22 1  
    25   22   23 1  
    26   22   25 1  
    27   23   24 2  
    28   23   28 am 
    29   25   26 1  
    30   25   27 1  
    31   28   29 1  
    32   29   30 1  
    33   29   32 1  
    34   30   31 2  
    35   30   35 am 
    36   32   33 1  
    37   32   34 1  
    38   35   36 1  
    39   36   37 1  
    40   36   39 1  
    41   37   38 2  
    42   37   46 am 
    43   39   40 1  
    44   40   41 1  
    45   41   42 1  
    46   42   43 ar 
    47   43   44 ar 
    48   43   45 ar 
    49   46   47 1  
    50   47   48 1  
    51   47   50 1  
    52   48   49 2  
    53   48   54 am 
    54   50   51 1  
    55   51   52 1  
    56   52   53 1  
    57   54   55 1  
    58   55   56 1  
    59   55   58 1  
    60   56   57 2  
    61   56   59 am 
    62   59   60 1  
    63   59   65 1  
    64   60   61 1  
    65   60   63 1  
    66   61   62 2  
    67   61   66 am 
    68   63   64 1  
    69   64   65 1  
    70   66   67 1  
    71   66   72 1  
    72   67   68 1  
    73   67   70 1  
    74   68   69 2  
    75   68   73 am 
    76   70   71 1  
    77   71   72 1  
    78   73   74 1  
    79   74   75 1  
    80   74   77 1  
    81   75   76 2  
    82   75   82 am 
    83   77   78 1  
    84   78   79 1  
    85   79   80 2  
    86   79   81 am 
    87   82   83 1  
    88   83   84 1  
    89   83   86 1  
    90   84   85 2  
    91   84   87 am 
    92   87   88 1  
    93   88   89 1  
    94   88   91 1  
    95   89   90 2  
    96   89   95 am 
    97   91   92 1  
    98   91   93 1  
    99   92   94 1  
   100   95   96 1  
   101   96   97 1  
   102   96   99 1  
   103   97   98 ar 
   104   97  101 ar 
   105   99  100 1  
   106    1  102 1  
   107    1  103 1  
   108    1  104 1  
   109    2  105 1  
   110    5  106 1  
   111    5  107 1  
   112    7  108 1  
   113    8  109 1  
   114   11  110 1  
   115   11  111 1  
   116   13  112 1  
   117   15  113 1  
   118   17  114 1  
   119   18  115 1  
   120   19  116 1  
   121   20  117 1  
   122   21  118 1  
   123   22  119 1  
   124   25  120 1  
   125   26  121 1  
   126   27  122 1  
   127   27  123 1  
   128   27  124 1  
   129   28  125 1  
   130   29  126 1  
   131   32  127 1  
   132   33  128 1  
   133   34  129 1  
   134   34  130 1  
   135   34  131 1  
   136   35  132 1  
   137   36  133 1  
   138   39  134 1  
   139   39  135 1  
   140   40  136 1  
   141   40  137 1  
   142   41  138 1  
   143   41  139 1  
   144   42  140 1  
   145   44  141 1  
   146   44  142 1  
   147   45  143 1  
   148   45  144 1  
   149   46  145 1  
   150   47  146 1  
   151   50  147 1  
   152   50  148 1  
   153   51  149 1  
   154   51  150 1  
   155   53  151 1  
   156   53  152 1  
   157   53  153 1  
   158   54  154 1  
   159   55  155 1  
   160   58  156 1  
   161   58  157 1  
   162   58  158 1  
   163   60  159 1  
   164   63  160 1  
   165   63  161 1  
   166   64  162 1  
   167   64  163 1  
   168   65  164 1  
   169   65  165 1  
   170   67  166 1  
   171   70  167 1  
   172   70  168 1  
   173   71  169 1  
   174   71  170 1  
   175   72  171 1  
   176   72  172 1  
   177   73  173 1  
   178   74  174 1  
   179   77  175 1  
   180   77  176 1  
   181   78  177 1  
   182   78  178 1  
   183   81  179 1  
   184   81  180 1  
   185   82  181 1  
   186   83  182 1  
   187   86  183 1  
   188   86  184 1  
   189   86  185 1  
   190   87  186 1  
   191   88  187 1  
   192   91  188 1  
   193   92  189 1  
   194   92  190 1  
   195   93  191 1  
   196   93  192 1  
   197   93  193 1  
   198   94  194 1  
   199   94  195 1  
   200   94  196 1  
   201   95  197 1  
   202   96  198 1  
   203   99  199 1  
   204   99  200 1  
@<TRIPOS>SUBSTRUCTURE
     1 CYS         1

