5nih_ligand
  -I-interpret- 

 27 28  0  0  0  0  0  0  0  0999 V2000
  -31.2430   84.1310   33.6350 N   0  0  0  0  0
  -33.3350   85.1230   31.6320 N   0  3  0  0  0
  -31.2270   86.0560   32.2120 C   0  0  0  0  0
  -32.5640   86.3810   31.5100 C   0  0  0  0  0
  -30.3410   83.0360   34.0540 C   0  0  0  0  0
  -31.1010   87.6800   34.3060 C   0  0  0  0  0
  -32.4010   86.7180   30.0130 C   0  0  0  0  0
  -31.1760   86.3120   33.7020 C   0  0  0  0  0
  -31.1520   85.2780   34.4390 N   0  0  0  0  0
  -32.3700   84.0320   31.4330 C   0  0  0  0  0
  -31.1490   84.5370   32.2110 C   0  0  0  0  0
  -31.2980   87.7540   35.5540 O   0  0  0  0  0
  -33.0950   86.0880   29.1800 O   0  0  0  0  0
  -30.8270   88.6380   33.5500 O   0  0  0  0  0
  -31.5910   87.6220   29.7210 O   0  0  0  0  0
  -34.0849   85.0821   30.9418 H   0  0  0  0  0
  -33.7859   85.0542   32.5444 H   0  0  0  0  0
  -30.4730   86.6540   31.7002 H   0  0  0  0  0
  -33.0323   87.2561   31.9605 H   0  0  0  0  0
  -29.3080   83.3813   34.0110 H   0  0  0  0  0
  -30.5834   82.7374   35.0739 H   0  0  0  0  0
  -30.4692   82.1852   33.3848 H   0  0  0  0  0
  -32.1584   83.8302   30.3829 H   0  0  0  0  0
  -32.7340   83.0658   31.7825 H   0  0  0  0  0
  -30.2394   84.1419   31.7587 H   0  0  0  0  0
  -31.4905   86.8790   35.8989 H   0  0  0  0  0
  -33.6396   85.4450   29.6400 H   0  0  0  0  0
  1  5  1  0  0  0
  1  9  1  0  0  0
 11  1  1  0  0  0
  4  2  1  0  0  0
  2 10  1  0  0  0
  3  4  1  0  0  0
  3  8  1  0  0  0
  3 11  1  0  0  0
  4  7  1  0  0  0
  8  6  1  0  0  0
  6 12  1  0  0  0
  6 14  2  0  0  0
  7 13  1  0  0  0
  7 15  2  0  0  0
  8  9  2  0  0  0
 10 11  1  0  0  0
  2 16  1  0  0  0
  2 17  1  0  0  0
  3 18  1  0  0  0
  4 19  1  0  0  0
  5 20  1  0  0  0
  5 21  1  0  0  0
  5 22  1  0  0  0
 10 23  1  0  0  0
 10 24  1  0  0  0
 11 25  1  0  0  0
 12 26  1  0  0  0
 13 27  1  0  0  0
M  END
$$$$
