6etg_ligand
  -I-interpret- 

 23 24  0  0  0  0  0  0  0  0999 V2000
   -3.4040  -15.0860  -18.0140 N   0  0  0  0  0
   -2.7030  -16.2180  -18.1890 N   0  0  0  0  0
   -1.4100  -15.8800  -18.2190 N   0  0  0  0  0
   -1.2940  -14.5110  -18.0870 N   0  0  0  0  0
   -2.5350  -14.0650  -17.8790 C   0  0  0  0  0
   -2.9880  -12.8140  -17.7770 C   0  0  0  0  0
   -4.2080  -12.5340  -17.1870 C   0  0  0  0  0
   -4.6910  -11.1940  -17.1990 C   0  0  0  0  0
   -2.3010  -11.7300  -18.3170 C   0  0  0  0  0
   -2.8120  -10.4290  -18.3120 C   0  0  0  0  0
   -4.0250  -10.1180  -17.7520 C   0  0  0  0  0
   -4.5500   -8.7880  -17.8130 C   0  0  0  0  0
   -4.4440   -8.0610  -18.8210 O   0  0  0  0  0
   -5.2370   -8.3930  -16.7270 N   0  0  0  0  0
   -5.8400   -7.1600  -16.7300 N   0  3  0  0  0
   -4.7911  -13.3276  -16.7197 H   0  0  0  0  0
   -5.6596  -11.0035  -16.7367 H   0  0  0  0  0
   -1.3218  -11.9035  -18.7632 H   0  0  0  0  0
   -2.2253   -9.6326  -18.7698 H   0  0  0  0  0
   -5.3092   -9.0015  -15.9116 H   0  0  0  0  0
   -6.3162   -7.0135  -15.8399 H   0  0  0  0  0
   -5.1325   -6.4371  -16.8614 H   0  0  0  0  0
   -6.5179   -7.1162  -17.4909 H   0  0  0  0  0
  1  2  4  0  0  0
  1  5  4  0  0  0
  2  3  4  0  0  0
  3  4  4  0  0  0
  4  5  4  0  0  0
  5  6  1  0  0  0
  6  7  4  0  0  0
  6  9  4  0  0  0
  7  8  4  0  0  0
  8 11  4  0  0  0
  9 10  4  0  0  0
 10 11  4  0  0  0
 11 12  1  0  0  0
 12 13  2  0  0  0
 12 14  1  0  0  0
 14 15  1  0  0  0
  7 16  1  0  0  0
  8 17  1  0  0  0
  9 18  1  0  0  0
 10 19  1  0  0  0
 14 20  1  0  0  0
 15 21  1  0  0  0
 15 22  1  0  0  0
 15 23  1  0  0  0
M  END
$$$$
