4hkp_ligand
  -I-interpret- 

 36 37  0  0  0  0  0  0  0  0999 V2000
   26.3290  -12.5370   13.2380 O   0  0  0  0  0
   25.4190  -13.2630   14.1680 P   0  0  0  0  0
   24.2450  -14.0840   13.5240 O   0  0  0  0  0
   26.2040  -14.1830   15.1910 O   0  0  0  0  0
   24.7750  -12.1150   15.1250 O   0  0  0  0  0
   25.2230  -10.7830   14.7930 C   0  0  0  0  0
   24.7940   -9.6930   15.7510 C   0  0  0  0  0
   24.1000   -8.7440   14.9560 O   0  0  0  0  0
   23.8850  -10.0540   16.9320 C   0  0  0  0  0
   24.3900   -9.3020   18.0320 O   0  0  0  0  0
   22.4890   -9.5750   16.5340 C   0  0  0  0  0
   21.7570   -9.0790   17.6610 O   0  0  0  0  0
   22.7880   -8.4550   15.5570 C   0  0  0  0  0
   21.8070   -8.3710   14.4400 N   0  0  0  0  0
   21.6790   -9.3150   13.3610 C   0  0  0  0  0
   22.3790  -10.3280   13.2630 O   0  0  0  0  0
   20.7600   -9.0980   12.4040 N   0  0  0  0  0
   20.9810   -7.2420   14.4580 C   0  0  0  0  0
   20.0560   -7.0580   13.4760 C   0  0  0  0  0
   19.9520   -8.0070   12.4530 C   0  0  0  0  0
   19.0490   -7.7850   11.4980 N   0  0  0  0  0
   19.1540   -6.6300   10.7960 O   0  0  0  0  0
   23.7316  -14.5042   14.2179 H   0  0  0  0  0
   25.5769  -14.6276   15.7661 H   0  0  0  0  0
   24.7807  -10.5388   13.8272 H   0  0  0  0  0
   26.3124  -10.8069   14.8182 H   0  0  0  0  0
   25.7119   -9.3629   16.2374 H   0  0  0  0  0
   23.8516  -11.1134   17.1865 H   0  0  0  0  0
   23.8606   -9.4833   18.8120 H   0  0  0  0  0
   21.8707  -10.3709   16.1187 H   0  0  0  0  0
   20.8883   -8.7881   17.3741 H   0  0  0  0  0
   22.7501   -7.5147   16.1071 H   0  0  0  0  0
   20.6685   -9.7595   11.6330 H   0  0  0  0  0
   21.0781   -6.5090   15.2589 H   0  0  0  0  0
   19.4055   -6.1835   13.4866 H   0  0  0  0  0
   18.4513   -6.5886   10.1433 H   0  0  0  0  0
  1  2  2  0  0  0
  2  3  1  0  0  0
  2  4  1  0  0  0
  2  5  1  0  0  0
  5  6  1  0  0  0
  6  7  1  0  0  0
  7  8  1  0  0  0
  7  9  1  0  0  0
  8 13  1  0  0  0
  9 10  1  0  0  0
  9 11  1  0  0  0
 11 12  1  0  0  0
 11 13  1  0  0  0
 13 14  1  0  0  0
 14 15  1  0  0  0
 14 18  1  0  0  0
 15 16  2  0  0  0
 15 17  1  0  0  0
 17 20  1  0  0  0
 18 19  2  0  0  0
 19 20  1  0  0  0
 20 21  2  0  0  0
 21 22  1  0  0  0
  3 23  1  0  0  0
  4 24  1  0  0  0
  6 25  1  0  0  0
  6 26  1  0  0  0
  7 27  1  0  0  0
  9 28  1  0  0  0
 10 29  1  0  0  0
 11 30  1  0  0  0
 12 31  1  0  0  0
 13 32  1  0  0  0
 17 33  1  0  0  0
 18 34  1  0  0  0
 19 35  1  0  0  0
 22 36  1  0  0  0
M  END
$$$$
