### 
### Created by X-TOOL on Tue Oct 16 15:17:28 2018
### 

@<TRIPOS>MOLECULE
4hkp_ligand
   34    35     1     0     0
SMALL
GAST_HUCK


@<TRIPOS>ATOM
      1 OAA        26.3290  -12.5370   13.2380 O.co2     1 MOL        -0.5537
      2 PAE        25.4190  -13.2630   14.1680 P.3       1 MOL         0.2008
      3 OAD        24.2450  -14.0840   13.5240 O.co2     1 MOL        -0.5537
      4 OAF        26.2040  -14.1830   15.1910 O.co2     1 MOL        -0.5537
      5 O5'        24.7750  -12.1150   15.1250 O.3       1 MOL        -0.2734
      6 C5'        25.2230  -10.7830   14.7930 C.3       1 MOL         0.1072
      7 C4'        24.7940   -9.6930   15.7510 C.3       1 MOL         0.1182
      8 O4'        24.1000   -8.7440   14.9560 O.3       1 MOL        -0.3362
      9 C3'        23.8850  -10.0540   16.9320 C.3       1 MOL         0.1149
     10 O3'        24.3900   -9.3020   18.0320 O.3       1 MOL        -0.3864
     11 C2'        22.4890   -9.5750   16.5340 C.3       1 MOL         0.1388
     12 O2'        21.7570   -9.0790   17.6610 O.3       1 MOL        -0.3836
     13 C1'        22.7880   -8.4550   15.5570 C.3       1 MOL         0.2059
     14 NAM        21.8070   -8.3710   14.4400 N.am      1 MOL        -0.1600
     15 CAL        21.6790   -9.3150   13.3610 C.2       1 MOL         0.3345
     16 OAK        22.3790  -10.3280   13.2630 O.2       1 MOL        -0.3801
     17 NAG        20.7600   -9.0980   12.4040 N.am      1 MOL        -0.2075
     18 CAN        20.9810   -7.2420   14.4580 C.2       1 MOL         0.0560
     19 CAI        20.0560   -7.0580   13.4760 C.2       1 MOL        -0.0171
     20 CAH        19.9520   -8.0070   12.4530 C.2       1 MOL         0.1069
     21 NAB        19.0490   -7.7850   11.4980 N.2       1 MOL        -0.2313
     22 OAC        19.1540   -6.6300   10.7960 O.3       1 MOL        -0.3133
     23 H1         24.8304  -10.5320   13.7966 H         1 MOL         0.0639
     24 H2         26.3225  -10.7933   14.7620 H         1 MOL         0.0639
     25 H3         25.7052   -9.2396   16.1683 H         1 MOL         0.0650
     26 H4         23.8884  -11.1321   17.1502 H         1 MOL         0.0648
     27 H5         25.2924   -9.5496   18.1958 H         1 MOL         0.2100
     28 H6         21.9175  -10.3821   16.0524 H         1 MOL         0.0676
     29 H7         21.6637   -9.7704   18.3058 H         1 MOL         0.2101
     30 H8         22.8107   -7.4965   16.0962 H         1 MOL         0.0999
     31 H9         20.6703   -9.7465   11.6481 H         1 MOL         0.2286
     32 H10        21.0780   -6.5097   15.2582 H         1 MOL         0.1136
     33 H11        19.4060   -6.1843   13.4866 H         1 MOL         0.0286
     34 H12        19.9966   -6.6024   10.3580 H         1 MOL         0.2507
@<TRIPOS>BOND
     1    1    2 ar 
     2    2    3 ar 
     3    2    4 ar 
     4    2    5 1  
     5    5    6 1  
     6    6    7 1  
     7    7    8 1  
     8    7    9 1  
     9    8   13 1  
    10    9   10 1  
    11    9   11 1  
    12   11   12 1  
    13   11   13 1  
    14   13   14 1  
    15   14   15 am 
    16   14   18 1  
    17   15   16 2  
    18   15   17 am 
    19   17   20 1  
    20   18   19 2  
    21   19   20 1  
    22   20   21 2  
    23   21   22 1  
    24    6   23 1  
    25    6   24 1  
    26    7   25 1  
    27    9   26 1  
    28   10   27 1  
    29   11   28 1  
    30   12   29 1  
    31   13   30 1  
    32   17   31 1  
    33   18   32 1  
    34   19   33 1  
    35   22   34 1  
@<TRIPOS>SUBSTRUCTURE
     1 MOL         1

