4fvr_ligand
  -I-interpret- 

 47 49  0  0  0  0  0  0  0  0999 V2000
    2.4830   -7.8720   21.7460 P   0  0  0  0  0
    2.6340   -6.4930   22.3620 O   0  0  0  0  0
    1.0620   -8.3430   21.6470 O   0  0  0  0  0
    3.3250   -8.0710   20.4950 O   0  0  0  0  0
    3.7590  -10.2840   22.7460 P   0  0  0  0  0
    3.5980  -10.7730   21.3310 O   0  0  0  0  0
    3.0600  -11.1280   23.7980 O   0  0  0  0  0
    3.2590   -8.7620   22.8510 O   0  0  0  0  0
    6.3510   -9.4040   22.2530 P   0  0  0  0  0
    6.7150   -8.1350   22.9730 O   0  0  0  0  0
    5.8230   -9.3320   20.8420 O   0  0  0  0  0
    5.3120  -10.2140   23.1580 O   0  0  0  0  0
    7.6930  -10.3000   22.2940 O   0  0  0  0  0
    8.5100  -10.3160   23.4580 C   0  0  0  0  0
    9.8690  -10.9520   23.1830 C   0  0  0  0  0
    9.6920  -12.2740   22.6780 O   0  0  0  0  0
   10.7000  -10.2070   22.1390 C   0  0  0  0  0
   12.0940  -10.3050   22.5130 O   0  0  0  0  0
   10.5000  -10.9870   20.8680 C   0  0  0  0  0
   11.6560  -10.9210   20.0310 O   0  0  0  0  0
   10.3550  -12.3950   21.4140 C   0  0  0  0  0
    9.5330  -13.2810   20.5700 N   0  0  0  0  0
    8.2000  -13.1650   20.4100 C   0  0  0  0  0
    7.7540  -14.1640   19.6230 N   0  0  0  0  0
    8.8310  -14.9170   19.2760 C   0  0  0  0  0
    9.0420  -16.1310   18.4600 C   0  0  0  0  0
    7.9480  -16.6980   17.8930 N   0  0  0  0  0
   10.3080  -16.6160   18.3460 N   0  0  0  0  0
   11.3670  -16.0200   18.9580 C   0  0  0  0  0
   11.2440  -14.9050   19.7040 N   0  0  0  0  0
   10.0090  -14.3460   19.9140 C   0  0  0  0  0
    3.5642   -6.2579   22.3934 H   0  0  0  0  0
    4.2129   -7.7418   20.6525 H   0  0  0  0  0
    3.2135  -10.7473   24.6658 H   0  0  0  0  0
    5.6389  -10.2192   20.5248 H   0  0  0  0  0
    8.0045  -10.9028   24.2250 H   0  0  0  0  0
    8.6706   -9.2870   23.7797 H   0  0  0  0  0
   10.3941  -10.9269   24.1379 H   0  0  0  0  0
   10.4196   -9.1579   22.0443 H   0  0  0  0  0
   12.6310   -9.8413   21.8663 H   0  0  0  0  0
    9.6686  -10.6300   20.2602 H   0  0  0  0  0
   11.4990  -11.4264   19.2301 H   0  0  0  0  0
   11.3497  -12.8376   21.4678 H   0  0  0  0  0
    7.5788  -12.3843   20.8490 H   0  0  0  0  0
    7.0266  -16.2852   18.0380 H   0  0  0  0  0
    8.0467  -17.5371   17.3216 H   0  0  0  0  0
   12.3559  -16.4630   18.8398 H   0  0  0  0  0
  1  2  1  0  0  0
  1  3  2  0  0  0
  1  4  1  0  0  0
  8  1  1  0  0  0
  5  6  2  0  0  0
  5  7  1  0  0  0
  5  8  1  0  0  0
 12  5  1  0  0  0
  9 10  2  0  0  0
  9 11  1  0  0  0
  9 12  1  0  0  0
  9 13  1  0  0  0
 13 14  1  0  0  0
 14 15  1  0  0  0
 15 16  1  0  0  0
 15 17  1  0  0  0
 16 21  1  0  0  0
 17 18  1  0  0  0
 17 19  1  0  0  0
 19 20  1  0  0  0
 19 21  1  0  0  0
 21 22  1  0  0  0
 22 23  4  0  0  0
 22 31  4  0  0  0
 23 24  4  0  0  0
 24 25  4  0  0  0
 25 26  4  0  0  0
 25 31  4  0  0  0
 26 27  1  0  0  0
 26 28  4  0  0  0
 28 29  4  0  0  0
 29 30  4  0  0  0
 30 31  4  0  0  0
  2 32  1  0  0  0
  4 33  1  0  0  0
  7 34  1  0  0  0
 11 35  1  0  0  0
 14 36  1  0  0  0
 14 37  1  0  0  0
 15 38  1  0  0  0
 17 39  1  0  0  0
 18 40  1  0  0  0
 19 41  1  0  0  0
 20 42  1  0  0  0
 21 43  1  0  0  0
 23 44  1  0  0  0
 27 45  1  0  0  0
 27 46  1  0  0  0
 29 47  1  0  0  0
M  END
$$$$
