### 
### Created by X-TOOL on Mon Sep 10 21:13:09 2018
### 

@<TRIPOS>MOLECULE
4fvr_ligand
   43    45     1     0     0
SMALL
GAST_HUCK


@<TRIPOS>ATOM
      1 PG          2.4830   -7.8720   21.7460 P.3       1 ATP         0.1879
      2 O1G         2.6340   -6.4930   22.3620 O.co2     1 ATP        -0.6091
      3 O2G         1.0620   -8.3430   21.6470 O.co2     1 ATP        -0.6091
      4 O3G         3.3250   -8.0710   20.4950 O.co2     1 ATP        -0.6091
      5 PB          3.7590  -10.2840   22.7460 P.3       1 ATP         0.3553
      6 O1B         3.5980  -10.7730   21.3310 O.co2     1 ATP        -0.5652
      7 O2B         3.0600  -11.1280   23.7980 O.co2     1 ATP        -0.5652
      8 O3B         3.2590   -8.7620   22.8510 O.3       1 ATP        -0.1546
      9 PA          6.3510   -9.4040   22.2530 P.3       1 ATP         0.3266
     10 O1A         6.7150   -8.1350   22.9730 O.co2     1 ATP        -0.5692
     11 O2A         5.8230   -9.3320   20.8420 O.co2     1 ATP        -0.5692
     12 O3A         5.3120  -10.2140   23.1580 O.3       1 ATP        -0.1171
     13 O5'         7.6930  -10.3000   22.2940 O.3       1 ATP        -0.2441
     14 C5'         8.5100  -10.3160   23.4580 C.3       1 ATP         0.1131
     15 C4'         9.8690  -10.9520   23.1830 C.3       1 ATP         0.1189
     16 O4'         9.6920  -12.2740   22.6780 O.3       1 ATP        -0.3364
     17 C3'        10.7000  -10.2070   22.1390 C.3       1 ATP         0.1149
     18 O3'        12.0940  -10.3050   22.5130 O.3       1 ATP        -0.3864
     19 C2'        10.5000  -10.9870   20.8680 C.3       1 ATP         0.1385
     20 O2'        11.6560  -10.9210   20.0310 O.3       1 ATP        -0.3836
     21 C1'        10.3550  -12.3950   21.4140 C.3       1 ATP         0.2010
     22 N9          9.5330  -13.2810   20.5700 N.pl3     1 ATP        -0.1919
     23 C8          8.2000  -13.1650   20.4100 C.2       1 ATP         0.1123
     24 N7          7.7540  -14.1640   19.6230 N.2       1 ATP        -0.2958
     25 C5          8.8310  -14.9170   19.2760 C.ar      1 ATP         0.1045
     26 C6          9.0420  -16.1310   18.4600 C.ar      1 ATP         0.1298
     27 N6          7.9480  -16.6980   17.8930 N.pl3     1 ATP        -0.3152
     28 N1         10.3080  -16.6160   18.3460 N.ar      1 ATP        -0.2698
     29 C2         11.3670  -16.0200   18.9580 C.ar      1 ATP         0.0533
     30 N3         11.2440  -14.9050   19.7040 N.ar      1 ATP        -0.2714
     31 C4         10.0090  -14.3460   19.9140 C.ar      1 ATP         0.1613
     32 H           8.0045  -10.9028   24.2250 H         1 ATP         0.0648
     33 H           8.6706   -9.2870   23.7797 H         1 ATP         0.0648
     34 H          10.3941  -10.9269   24.1379 H         1 ATP         0.0651
     35 H          10.4196   -9.1579   22.0443 H         1 ATP         0.0648
     36 H          12.6310   -9.8413   21.8663 H         1 ATP         0.2100
     37 H           9.6686  -10.6300   20.2602 H         1 ATP         0.0676
     38 H          12.4099  -11.2870   20.4991 H         1 ATP         0.2101
     39 H          11.3497  -12.8376   21.4678 H         1 ATP         0.0996
     40 H           7.5788  -12.3843   20.8490 H         1 ATP         0.1349
     41 H           7.0266  -16.2852   18.0380 H         1 ATP         0.1820
     42 H           8.0467  -17.5371   17.3216 H         1 ATP         0.1820
     43 H          12.3559  -16.4630   18.8398 H         1 ATP         0.0996
@<TRIPOS>BOND
     1    1    2 ar 
     2    1    3 ar 
     3    1    4 ar 
     4    8    1 1  
     5    5    6 ar 
     6    5    7 ar 
     7    5    8 1  
     8   12    5 1  
     9    9   10 ar 
    10    9   11 ar 
    11    9   12 1  
    12    9   13 1  
    13   13   14 1  
    14   14   15 1  
    15   15   16 1  
    16   15   17 1  
    17   16   21 1  
    18   17   18 1  
    19   17   19 1  
    20   19   20 1  
    21   19   21 1  
    22   21   22 1  
    23   22   23 1  
    24   22   31 1  
    25   23   24 2  
    26   24   25 1  
    27   25   26 ar 
    28   25   31 ar 
    29   26   27 1  
    30   26   28 ar 
    31   28   29 ar 
    32   29   30 ar 
    33   30   31 ar 
    34   14   32 1  
    35   14   33 1  
    36   15   34 1  
    37   17   35 1  
    38   18   36 1  
    39   19   37 1  
    40   20   38 1  
    41   21   39 1  
    42   23   40 1  
    43   27   41 1  
    44   27   42 1  
    45   29   43 1  
@<TRIPOS>SUBSTRUCTURE
     1 ATP         1

