### 
### Created by X-TOOL on Mon Sep 10 21:13:00 2018
### 

@<TRIPOS>MOLECULE
3ft4_ligand
  149   148     1     0     0
SMALL
GAST_HUCK


@<TRIPOS>ATOM
      1 N         -15.2190    1.5480    8.6430 N.4       1 VAL         0.2381
      2 CA        -15.8530    2.8560    8.2910 C.3       1 VAL         0.0673
      3 C         -15.3370    3.9740    9.2140 C.2       1 VAL         0.2270
      4 O         -15.1410    3.7550   10.4150 O.2       1 VAL        -0.3907
      5 CB        -17.4040    2.7110    8.3230 C.3       1 VAL         0.0139
      6 CG1       -18.0770    3.9040    8.9050 C.3       1 VAL        -0.0553
      7 CG2       -17.9470    2.3680    6.9370 C.3       1 VAL        -0.0553
      8 N         -15.0700    5.1480    8.6420 N.am      1 LEU        -0.2610
      9 CA        -14.6180    6.3130    9.4030 C.3       1 LEU         0.1313
     10 C         -15.6980    6.8470   10.3300 C.2       1 LEU         0.2039
     11 O         -16.8870    6.6310   10.0950 O.2       1 LEU        -0.3944
     12 CB        -14.2230    7.4440    8.4520 C.3       1 LEU        -0.0101
     13 CG        -12.9670    7.2630    7.6020 C.3       1 LEU        -0.0425
     14 CD1       -12.8280    8.4450    6.6640 C.3       1 LEU        -0.0625
     15 CD2       -11.7470    7.1730    8.4830 C.3       1 LEU        -0.0625
     16 N         -15.2760    7.5480   11.3790 N.am      1 ARG        -0.2637
     17 CA        -16.2070    8.2950   12.2190 C.3       1 ARG         0.1311
     18 C         -16.8080    9.4230   11.3930 C.2       1 ARG         0.2040
     19 O         -16.1440    9.9700   10.5130 O.2       1 ARG        -0.3944
     20 CB        -15.4970    8.8560   13.4610 C.3       1 ARG        -0.0092
     21 CG        -16.3710    9.7640   14.3070 C.3       1 ARG        -0.0156
     22 CD        -16.0580    9.6450   15.7910 C.3       1 ARG         0.0627
     23 NE        -17.0600   10.3030   16.6290 N.pl3     1 ARG        -0.2723
     24 CZ        -18.3230   10.5310   16.2730 C.cat     1 ARG         0.2882
     25 NH1       -18.7740   10.1470   15.0900 N.pl3     1 ARG        -0.2849
     26 NH2       -19.1480   11.1430   17.1120 N.pl3     1 ARG        -0.2849
     27 N         -18.0650    9.7580   11.6790 N.am      1 ASP        -0.2622
     28 CA        -18.8390   10.6920   10.8590 C.3       1 ASP         0.1423
     29 C         -18.4100   12.1560   11.0100 C.2       1 ASP         0.2057
     30 O         -18.6290   12.9660   10.0960 O.2       1 ASP        -0.3943
     31 CB        -20.3360   10.5490   11.1700 C.3       1 ASP         0.0406
     32 CG        -21.2260   10.9340    9.9930 C.2       1 ASP         0.0393
     33 OD1       -20.7290   11.5360    9.0180 O.co2     1 ASP        -0.5688
     34 OD2       -22.4380   10.6290   10.0470 O.co2     1 ASP        -0.5688
     35 N         -17.8110   12.5030   12.1470 N.am      1 ASP        -0.2621
     36 CA        -17.3880   13.8860   12.3800 C.3       1 ASP         0.1423
     37 C         -16.3220   13.9860   13.4740 C.2       1 ASP         0.2056
     38 O         -16.3900   13.2910   14.4860 O.2       1 ASP        -0.3943
     39 CB        -18.5990   14.7640   12.7370 C.3       1 ASP         0.0406
     40 CG        -18.3060   16.2610   12.6080 C.2       1 ASP         0.0393
     41 OD1       -17.2020   16.6260   12.1490 O.co2     1 ASP        -0.5688
     42 OD2       -19.1880   17.0740   12.9580 O.co2     1 ASP        -0.5688
     43 N         -15.3310   14.8400   13.2500 N.am      1 LEU        -0.2636
     44 CA        -14.2930   15.0920   14.2370 C.3       1 LEU         0.1312
     45 C         -14.3420   16.5380   14.7010 C.2       1 LEU         0.2039
     46 O         -14.2860   17.4630   13.8830 O.2       1 LEU        -0.3944
     47 CB        -12.9140   14.8120   13.6440 C.3       1 LEU        -0.0101
     48 CG        -12.4670   13.3780   13.4030 C.3       1 LEU        -0.0425
     49 CD1       -11.0620   13.4120   12.8230 C.3       1 LEU        -0.0625
     50 CD2       -12.4970   12.5620   14.6850 C.3       1 LEU        -0.0625
     51 N         -14.4370   16.7410   16.0090 N.am      1 LEU        -0.2637
     52 CA        -14.3920   18.0930   16.5550 C.3       1 LEU         0.1312
     53 C         -12.9650   18.6500   16.5190 C.2       1 LEU         0.2039
     54 O         -12.0080   17.9140   16.7340 O.2       1 LEU        -0.3944
     55 CB        -14.9050   18.0970   17.9920 C.3       1 LEU        -0.0101
     56 CG        -15.0770   19.4970   18.5820 C.3       1 LEU        -0.0425
     57 CD1       -16.0880   20.2880   17.7570 C.3       1 LEU        -0.0625
     58 CD2       -15.5250   19.3890   20.0310 C.3       1 LEU        -0.0625
     59 N         -12.8340   19.9510   16.2630 N.am      1 GLU        -0.2636
     60 CA        -11.5250   20.6110   16.2150 C.3       1 GLU         0.1324
     61 C         -10.8960   20.6170   17.6140 C.2       1 GLU         0.2034
     62 O         -11.6100   20.5790   18.6130 O.2       1 GLU        -0.3944
     63 CB        -11.6650   22.0400   15.6450 C.3       1 GLU        -0.0008
     64 CG        -12.0490   22.0540   14.1510 C.3       1 GLU         0.0044
     65 CD        -12.5610   23.4030   13.6090 C.2       1 GLU         0.0350
     66 OE1       -12.4770   24.4460   14.2980 O.co2     1 GLU        -0.5690
     67 OE2       -13.0540   23.4170   12.4550 O.co2     1 GLU        -0.5690
     68 N          -9.5690   20.6370   17.6730 N.am      1 ALA        -0.2698
     69 CA         -8.8260   20.7130   18.9360 C.3       1 ALA         0.0916
     70 C          -8.7760   22.1340   19.5090 C.2       1 ALA         0.0598
     71 O          -9.1370   23.0990   18.8260 O.co2     1 ALA        -0.5666
     72 CB         -7.4070   20.1850   18.7430 C.3       1 ALA        -0.0300
     73 OXT        -8.3500   22.3560   20.6590 O.co2     1 ALA        -0.5666
     74 H1        -14.2158    1.6443    8.6216 H         1 VAL         0.2015
     75 H2        -15.5034    0.8467    7.9771 H         1 VAL         0.2015
     76 H3        -15.5103    1.2714    9.5675 H         1 VAL         0.2015
     77 H4        -15.5613    3.1137    7.2622 H         1 VAL         0.1101
     78 H5        -17.6353    1.8612    8.9820 H         1 VAL         0.0376
     79 H6        -19.1659    3.7481    8.9030 H         1 VAL         0.0236
     80 H7        -17.8327    4.7924    8.3041 H         1 VAL         0.0236
     81 H8        -17.7299    4.0533    9.9381 H         1 VAL         0.0236
     82 H9        -17.4229    1.4832    6.5466 H         1 VAL         0.0236
     83 H10       -17.7852    3.2188    6.2589 H         1 VAL         0.0236
     84 H11       -19.0238    2.1549    7.0075 H         1 VAL         0.0236
     85 H12       -15.1832    5.2361    7.6523 H         1 LEU         0.1884
     86 H13       -13.7444    6.0194   10.0035 H         1 LEU         0.0800
     87 H14       -14.0772    8.3478    9.0619 H         1 LEU         0.0315
     88 H15       -15.0651    7.5994    7.7616 H         1 LEU         0.0315
     89 H16       -13.0571    6.3378    7.0138 H         1 LEU         0.0298
     90 H17       -11.9247    8.3205    6.0487 H         1 LEU         0.0232
     91 H18       -12.7468    9.3716    7.2512 H         1 LEU         0.0232
     92 H19       -13.7115    8.5009    6.0111 H         1 LEU         0.0232
     93 H20       -11.8487    6.3148    9.1635 H         1 LEU         0.0232
     94 H21       -11.6502    8.0976    9.0709 H         1 LEU         0.0232
     95 H22       -10.8519    7.0408    7.8575 H         1 LEU         0.0232
     96 H23       -14.3001    7.5635   11.5966 H         1 ARG         0.1883
     97 H24       -17.0120    7.6217   12.5485 H         1 ARG         0.0800
     98 H25       -14.6192    9.4299   13.1293 H         1 ARG         0.0313
     99 H26       -15.1687    8.0112   14.0843 H         1 ARG         0.0313
    100 H27       -17.4246    9.4930   14.1446 H         1 ARG         0.0301
    101 H28       -16.2077   10.8055   13.9932 H         1 ARG         0.0301
    102 H29       -15.0786   10.1074   15.9832 H         1 ARG         0.0689
    103 H30       -16.0191    8.5789   16.0590 H         1 ARG         0.0689
    104 H31       -16.7665   10.6138   17.5661 H         1 ARG         0.2642
    105 H32       -19.7532   10.3299   14.8280 H         1 ARG         0.2615
    106 H33       -18.1459    9.6651   14.4310 H         1 ARG         0.2615
    107 H34       -18.8103   11.4473   18.0362 H         1 ARG         0.2615
    108 H35       -20.1264   11.3139   16.8393 H         1 ARG         0.2615
    109 H36       -18.4973    9.3556   12.4859 H         1 ASP         0.1884
    110 H37       -18.6808   10.4118    9.8071 H         1 ASP         0.0819
    111 H38       -20.5810   11.1993   12.0227 H         1 ASP         0.0478
    112 H39       -20.5406    9.5017   11.4368 H         1 ASP         0.0478
    113 H40       -17.6478   11.8113   12.8505 H         1 ASP         0.1884
    114 H41       -16.9502   14.2669   11.4455 H         1 ASP         0.0819
    115 H42       -18.8928   14.5518   13.7756 H         1 ASP         0.0478
    116 H43       -19.4290   14.5091   12.0617 H         1 ASP         0.0478
    117 H44       -15.2970   15.3249   12.3761 H         1 LEU         0.1883
    118 H45       -14.4558   14.4301   15.1004 H         1 LEU         0.0800
    119 H46       -12.1777   15.2640   14.3248 H         1 LEU         0.0315
    120 H47       -12.8766   15.3240   12.6712 H         1 LEU         0.0315
    121 H48       -13.1462   12.9093   12.6757 H         1 LEU         0.0298
    122 H49       -10.7161   12.3840   12.6397 H         1 LEU         0.0232
    123 H50       -10.3835   13.9058   13.5342 H         1 LEU         0.0232
    124 H51       -11.0699   13.9706   11.8755 H         1 LEU         0.0232
    125 H52       -13.5205   12.5498   15.0880 H         1 LEU         0.0232
    126 H53       -11.8178   13.0135   15.4231 H         1 LEU         0.0232
    127 H54       -12.1746   11.5322   14.4718 H         1 LEU         0.0232
    128 H55       -14.5403   15.9605   16.6256 H         1 LEU         0.1883
    129 H56       -15.0391   18.7398   15.9444 H         1 LEU         0.0800
    130 H57       -14.1895   17.5427   18.6172 H         1 LEU         0.0315
    131 H58       -15.8807   17.5895   18.0134 H         1 LEU         0.0315
    132 H59       -14.1096   20.0196   18.5493 H         1 LEU         0.0298
    133 H60       -16.2061   21.2933   18.1875 H         1 LEU         0.0232
    134 H61       -17.0573   19.7682   17.7682 H         1 LEU         0.0232
    135 H62       -15.7294   20.3728   16.7206 H         1 LEU         0.0232
    136 H63       -14.7807   18.8156   20.6031 H         1 LEU         0.0232
    137 H64       -16.4972   18.8764   20.0770 H         1 LEU         0.0232
    138 H65       -15.6211   20.3968   20.4612 H         1 LEU         0.0232
    139 H66       -13.6561   20.4960   16.0980 H         1 GLU         0.1883
    140 H67       -10.8684   20.0374   15.5443 H         1 GLU         0.0801
    141 H68       -10.7043   22.5619   15.7656 H         1 GLU         0.0330
    142 H69       -12.4440   22.5699   16.2128 H         1 GLU         0.0330
    143 H70       -12.8400   21.3052   13.9976 H         1 GLU         0.0433
    144 H71       -11.1589   21.7714   13.5698 H         1 GLU         0.0433
    145 H72        -9.0528   20.5985   16.8174 H         1 ALA         0.1875
    146 H73        -9.3390   20.0714   19.6675 H         1 ALA         0.0723
    147 H74        -6.8601   20.2468   19.6954 H         1 ALA         0.0270
    148 H75        -6.8905   20.7905   17.9837 H         1 ALA         0.0270
    149 H76        -7.4476   19.1371   18.4109 H         1 ALA         0.0270
@<TRIPOS>BOND
     1    1    2 1  
     2    2    3 1  
     3    2    5 1  
     4    3    4 2  
     5    3    8 am 
     6    5    6 1  
     7    5    7 1  
     8    8    9 1  
     9    9   10 1  
    10    9   12 1  
    11   10   11 2  
    12   10   16 am 
    13   12   13 1  
    14   13   14 1  
    15   13   15 1  
    16   16   17 1  
    17   17   18 1  
    18   17   20 1  
    19   18   19 2  
    20   18   27 am 
    21   20   21 1  
    22   21   22 1  
    23   22   23 1  
    24   23   24 ar 
    25   24   25 ar 
    26   24   26 ar 
    27   27   28 1  
    28   28   29 1  
    29   28   31 1  
    30   29   30 2  
    31   29   35 am 
    32   31   32 1  
    33   32   33 ar 
    34   32   34 ar 
    35   35   36 1  
    36   36   37 1  
    37   36   39 1  
    38   37   38 2  
    39   37   43 am 
    40   39   40 1  
    41   40   41 ar 
    42   40   42 ar 
    43   43   44 1  
    44   44   45 1  
    45   44   47 1  
    46   45   46 2  
    47   45   51 am 
    48   47   48 1  
    49   48   49 1  
    50   48   50 1  
    51   51   52 1  
    52   52   53 1  
    53   52   55 1  
    54   53   54 2  
    55   53   59 am 
    56   55   56 1  
    57   56   57 1  
    58   56   58 1  
    59   59   60 1  
    60   60   61 1  
    61   60   63 1  
    62   61   62 2  
    63   61   68 am 
    64   63   64 1  
    65   64   65 1  
    66   65   66 ar 
    67   65   67 ar 
    68   68   69 1  
    69   69   70 1  
    70   69   72 1  
    71   70   71 ar 
    72   70   73 ar 
    73    1   74 1  
    74    1   75 1  
    75    1   76 1  
    76    2   77 1  
    77    5   78 1  
    78    6   79 1  
    79    6   80 1  
    80    6   81 1  
    81    7   82 1  
    82    7   83 1  
    83    7   84 1  
    84    8   85 1  
    85    9   86 1  
    86   12   87 1  
    87   12   88 1  
    88   13   89 1  
    89   14   90 1  
    90   14   91 1  
    91   14   92 1  
    92   15   93 1  
    93   15   94 1  
    94   15   95 1  
    95   16   96 1  
    96   17   97 1  
    97   20   98 1  
    98   20   99 1  
    99   21  100 1  
   100   21  101 1  
   101   22  102 1  
   102   22  103 1  
   103   23  104 1  
   104   25  105 1  
   105   25  106 1  
   106   26  107 1  
   107   26  108 1  
   108   27  109 1  
   109   28  110 1  
   110   31  111 1  
   111   31  112 1  
   112   35  113 1  
   113   36  114 1  
   114   39  115 1  
   115   39  116 1  
   116   43  117 1  
   117   44  118 1  
   118   47  119 1  
   119   47  120 1  
   120   48  121 1  
   121   49  122 1  
   122   49  123 1  
   123   49  124 1  
   124   50  125 1  
   125   50  126 1  
   126   50  127 1  
   127   51  128 1  
   128   52  129 1  
   129   55  130 1  
   130   55  131 1  
   131   56  132 1  
   132   57  133 1  
   133   57  134 1  
   134   57  135 1  
   135   58  136 1  
   136   58  137 1  
   137   58  138 1  
   138   59  139 1  
   139   60  140 1  
   140   63  141 1  
   141   63  142 1  
   142   64  143 1  
   143   64  144 1  
   144   68  145 1  
   145   69  146 1  
   146   72  147 1  
   147   72  148 1  
   148   72  149 1  
@<TRIPOS>SUBSTRUCTURE
     1 VAL         1

