3ft4_ligand
  -I-interpret- 

152151  0  0  0  0  0  0  0  0999 V2000
  -15.2190    1.5480    8.6430 N   0  3  0  0  0
  -15.8530    2.8560    8.2910 C   0  0  0  0  0
  -15.3370    3.9740    9.2140 C   0  0  0  0  0
  -15.1410    3.7550   10.4150 O   0  0  0  0  0
  -17.4040    2.7110    8.3230 C   0  0  0  0  0
  -18.0770    3.9040    8.9050 C   0  0  0  0  0
  -17.9470    2.3680    6.9370 C   0  0  0  0  0
  -15.0700    5.1480    8.6420 N   0  0  0  0  0
  -14.6180    6.3130    9.4030 C   0  0  0  0  0
  -15.6980    6.8470   10.3300 C   0  0  0  0  0
  -16.8870    6.6310   10.0950 O   0  0  0  0  0
  -14.2230    7.4440    8.4520 C   0  0  0  0  0
  -12.9670    7.2630    7.6020 C   0  0  0  0  0
  -12.8280    8.4450    6.6640 C   0  0  0  0  0
  -11.7470    7.1730    8.4830 C   0  0  0  0  0
  -15.2760    7.5480   11.3790 N   0  0  0  0  0
  -16.2070    8.2950   12.2190 C   0  0  0  0  0
  -16.8080    9.4230   11.3930 C   0  0  0  0  0
  -16.1440    9.9700   10.5130 O   0  0  0  0  0
  -15.4970    8.8560   13.4610 C   0  0  0  0  0
  -16.3710    9.7640   14.3070 C   0  0  0  0  0
  -16.0580    9.6450   15.7910 C   0  0  0  0  0
  -17.0600   10.3030   16.6290 N   0  0  0  0  0
  -18.3230   10.5310   16.2730 C   0  0  0  0  0
  -18.7740   10.1470   15.0900 N   0  0  0  0  0
  -19.1480   11.1430   17.1120 N   0  0  0  0  0
  -18.0650    9.7580   11.6790 N   0  0  0  0  0
  -18.8390   10.6920   10.8590 C   0  0  0  0  0
  -18.4100   12.1560   11.0100 C   0  0  0  0  0
  -18.6290   12.9660   10.0960 O   0  0  0  0  0
  -20.3360   10.5490   11.1700 C   0  0  0  0  0
  -21.2260   10.9340    9.9930 C   0  0  0  0  0
  -20.7290   11.5360    9.0180 O   0  0  0  0  0
  -22.4380   10.6290   10.0470 O   0  0  0  0  0
  -17.8110   12.5030   12.1470 N   0  0  0  0  0
  -17.3880   13.8860   12.3800 C   0  0  0  0  0
  -16.3220   13.9860   13.4740 C   0  0  0  0  0
  -16.3900   13.2910   14.4860 O   0  0  0  0  0
  -18.5990   14.7640   12.7370 C   0  0  0  0  0
  -18.3060   16.2610   12.6080 C   0  0  0  0  0
  -17.2020   16.6260   12.1490 O   0  0  0  0  0
  -19.1880   17.0740   12.9580 O   0  0  0  0  0
  -15.3310   14.8400   13.2500 N   0  0  0  0  0
  -14.2930   15.0920   14.2370 C   0  0  0  0  0
  -14.3420   16.5380   14.7010 C   0  0  0  0  0
  -14.2860   17.4630   13.8830 O   0  0  0  0  0
  -12.9140   14.8120   13.6440 C   0  0  0  0  0
  -12.4670   13.3780   13.4030 C   0  0  0  0  0
  -11.0620   13.4120   12.8230 C   0  0  0  0  0
  -12.4970   12.5620   14.6850 C   0  0  0  0  0
  -14.4370   16.7410   16.0090 N   0  0  0  0  0
  -14.3920   18.0930   16.5550 C   0  0  0  0  0
  -12.9650   18.6500   16.5190 C   0  0  0  0  0
  -12.0080   17.9140   16.7340 O   0  0  0  0  0
  -14.9050   18.0970   17.9920 C   0  0  0  0  0
  -15.0770   19.4970   18.5820 C   0  0  0  0  0
  -16.0880   20.2880   17.7570 C   0  0  0  0  0
  -15.5250   19.3890   20.0310 C   0  0  0  0  0
  -12.8340   19.9510   16.2630 N   0  0  0  0  0
  -11.5250   20.6110   16.2150 C   0  0  0  0  0
  -10.8960   20.6170   17.6140 C   0  0  0  0  0
  -11.6100   20.5790   18.6130 O   0  0  0  0  0
  -11.6650   22.0400   15.6450 C   0  0  0  0  0
  -12.0490   22.0540   14.1510 C   0  0  0  0  0
  -12.5610   23.4030   13.6090 C   0  0  0  0  0
  -12.4770   24.4460   14.2980 O   0  0  0  0  0
  -13.0540   23.4170   12.4550 O   0  0  0  0  0
   -9.5690   20.6370   17.6730 N   0  0  0  0  0
   -8.8260   20.7130   18.9360 C   0  0  0  0  0
   -8.7760   22.1340   19.5090 C   0  0  0  0  0
   -9.1370   23.0990   18.8260 O   0  0  0  0  0
   -7.4070   20.1850   18.7430 C   0  0  0  0  0
   -8.3500   22.3560   20.6590 O   0  0  0  0  0
  -14.2040    1.6467    8.6210 H   0  0  0  0  0
  -15.5145    1.2691    9.5786 H   0  0  0  0  0
  -15.5076    0.8393    7.9686 H   0  0  0  0  0
  -15.5731    3.1417    7.2770 H   0  0  0  0  0
  -17.6369    1.8799    8.9887 H   0  0  0  0  0
  -17.9175    4.7633    8.2537 H   0  0  0  0  0
  -19.1455    3.7086    8.9958 H   0  0  0  0  0
  -17.6591    4.1107    9.8903 H   0  0  0  0  0
  -19.0140    2.1571    7.0082 H   0  0  0  0  0
  -17.7861    3.2119    6.2661 H   0  0  0  0  0
  -17.4270    1.4912    6.5512 H   0  0  0  0  0
  -15.1855    5.2379    7.6326 H   0  0  0  0  0
  -13.7664    5.9836    9.9983 H   0  0  0  0  0
  -14.0164    8.3010    9.0931 H   0  0  0  0  0
  -15.0445    7.5222    7.7398 H   0  0  0  0  0
  -13.0535    6.3404    7.0280 H   0  0  0  0  0
  -13.7040    8.4993    6.0177 H   0  0  0  0  0
  -12.7477    9.3624    7.2471 H   0  0  0  0  0
  -11.9327    8.3205    6.0549 H   0  0  0  0  0
  -11.6534    8.0889    9.0665 H   0  0  0  0  0
  -11.8480    6.3211    9.1554 H   0  0  0  0  0
  -10.8606    7.0442    7.8619 H   0  0  0  0  0
  -14.2806    7.5638   11.6010 H   0  0  0  0  0
  -16.9968    7.6289   12.5664 H   0  0  0  0  0
  -14.6521    9.4499   13.1124 H   0  0  0  0  0
  -15.2107    8.0080   14.0830 H   0  0  0  0  0
  -17.4100    9.4715   14.1554 H   0  0  0  0  0
  -16.1839   10.7938   14.0028 H   0  0  0  0  0
  -15.0980   10.1284   15.9721 H   0  0  0  0  0
  -16.0470    8.5859   16.0486 H   0  0  0  0  0
  -16.7693   10.6108   17.5570 H   0  0  0  0  0
  -18.1520    9.6698   14.4374 H   0  0  0  0  0
  -20.1169   11.3123   16.8420 H   0  0  0  0  0
  -18.8135   11.4444   18.0273 H   0  0  0  0  0
  -18.5060    9.3475   12.5021 H   0  0  0  0  0
  -18.6386   10.4223    9.8221 H   0  0  0  0  0
  -20.5697   11.2191   11.9973 H   0  0  0  0  0
  -20.5288    9.5022   11.4047 H   0  0  0  0  0
  -22.6159   10.1744   10.8736 H   0  0  0  0  0
  -17.6446   11.7975   12.8646 H   0  0  0  0  0
  -16.9414   14.2479   11.4539 H   0  0  0  0  0
  -18.8614   14.5638   13.7758 H   0  0  0  0  0
  -19.4036   14.5206   12.0431 H   0  0  0  0  0
  -16.6712   15.8532   11.9427 H   0  0  0  0  0
  -15.2964   15.3346   12.3586 H   0  0  0  0  0
  -14.4679   14.4296   15.0848 H   0  0  0  0  0
  -12.2147   15.1942   14.3876 H   0  0  0  0  0
  -12.9492   15.2574   12.6498 H   0  0  0  0  0
  -13.1531   12.8969   12.7059 H   0  0  0  0  0
  -11.0711   13.9658   11.8842 H   0  0  0  0  0
  -10.3908   13.9016   13.5286 H   0  0  0  0  0
  -10.7203   12.3929   12.6418 H   0  0  0  0  0
  -11.8282   13.0139   15.4175 H   0  0  0  0  0
  -13.5128   12.5455   15.0800 H   0  0  0  0  0
  -12.1714   11.5435   14.4736 H   0  0  0  0  0
  -14.5424   15.9449   16.6379 H   0  0  0  0  0
  -15.0302   18.7272   15.9397 H   0  0  0  0  0
  -14.1672   17.5756   18.6019 H   0  0  0  0  0
  -15.8866   17.6231   17.9880 H   0  0  0  0  0
  -14.1241   20.0253   18.5522 H   0  0  0  0  0
  -15.7315   20.3713   16.7303 H   0  0  0  0  0
  -17.0480   19.7719   17.7689 H   0  0  0  0  0
  -16.2042   21.2839   18.1845 H   0  0  0  0  0
  -16.4750   18.8567   20.0775 H   0  0  0  0  0
  -14.7735   18.8444   20.6027 H   0  0  0  0  0
  -15.6465   20.3888   20.4479 H   0  0  0  0  0
  -13.6725   20.5069   16.0947 H   0  0  0  0  0
  -10.8627   20.0574   15.5494 H   0  0  0  0  0
  -10.6992   22.5352   15.7456 H   0  0  0  0  0
  -12.4583   22.5432   16.1978 H   0  0  0  0  0
  -12.8666   21.3426   14.0344 H   0  0  0  0  0
  -11.1407   21.8213   13.5953 H   0  0  0  0  0
  -13.0324   22.5301   12.0882 H   0  0  0  0  0
   -9.0425   20.5977   16.8003 H   0  0  0  0  0
   -9.3606   20.0925   19.6552 H   0  0  0  0  0
   -7.4487   19.1467   18.4139 H   0  0  0  0  0
   -6.8964   20.7858   17.9904 H   0  0  0  0  0
   -6.8661   20.2468   19.6873 H   0  0  0  0  0
   -8.1064   21.5256   21.0746 H   0  0  0  0  0
  1  2  1  0  0  0
  2  3  1  0  0  0
  2  5  1  0  0  0
  3  4  2  0  0  0
  3  8  1  0  0  0
  5  6  1  0  0  0
  5  7  1  0  0  0
  8  9  1  0  0  0
  9 10  1  0  0  0
  9 12  1  0  0  0
 10 11  2  0  0  0
 10 16  1  0  0  0
 12 13  1  0  0  0
 13 14  1  0  0  0
 13 15  1  0  0  0
 16 17  1  0  0  0
 17 18  1  0  0  0
 17 20  1  0  0  0
 18 19  2  0  0  0
 18 27  1  0  0  0
 20 21  1  0  0  0
 21 22  1  0  0  0
 22 23  1  0  0  0
 23 24  1  0  0  0
 24 25  2  0  0  0
 24 26  1  0  0  0
 27 28  1  0  0  0
 28 29  1  0  0  0
 28 31  1  0  0  0
 29 30  2  0  0  0
 29 35  1  0  0  0
 31 32  1  0  0  0
 32 33  2  0  0  0
 32 34  1  0  0  0
 35 36  1  0  0  0
 36 37  1  0  0  0
 36 39  1  0  0  0
 37 38  2  0  0  0
 37 43  1  0  0  0
 39 40  1  0  0  0
 40 41  1  0  0  0
 40 42  2  0  0  0
 43 44  1  0  0  0
 44 45  1  0  0  0
 44 47  1  0  0  0
 45 46  2  0  0  0
 45 51  1  0  0  0
 47 48  1  0  0  0
 48 49  1  0  0  0
 48 50  1  0  0  0
 51 52  1  0  0  0
 52 53  1  0  0  0
 52 55  1  0  0  0
 53 54  2  0  0  0
 53 59  1  0  0  0
 55 56  1  0  0  0
 56 57  1  0  0  0
 56 58  1  0  0  0
 59 60  1  0  0  0
 60 61  1  0  0  0
 60 63  1  0  0  0
 61 62  2  0  0  0
 61 68  1  0  0  0
 63 64  1  0  0  0
 64 65  1  0  0  0
 65 66  2  0  0  0
 65 67  1  0  0  0
 68 69  1  0  0  0
 69 70  1  0  0  0
 69 72  1  0  0  0
 70 71  2  0  0  0
 70 73  1  0  0  0
  1 74  1  0  0  0
  1 75  1  0  0  0
  1 76  1  0  0  0
  2 77  1  0  0  0
  5 78  1  0  0  0
  6 79  1  0  0  0
  6 80  1  0  0  0
  6 81  1  0  0  0
  7 82  1  0  0  0
  7 83  1  0  0  0
  7 84  1  0  0  0
  8 85  1  0  0  0
  9 86  1  0  0  0
 12 87  1  0  0  0
 12 88  1  0  0  0
 13 89  1  0  0  0
 14 90  1  0  0  0
 14 91  1  0  0  0
 14 92  1  0  0  0
 15 93  1  0  0  0
 15 94  1  0  0  0
 15 95  1  0  0  0
 16 96  1  0  0  0
 17 97  1  0  0  0
 20 98  1  0  0  0
 20 99  1  0  0  0
 21100  1  0  0  0
 21101  1  0  0  0
 22102  1  0  0  0
 22103  1  0  0  0
 23104  1  0  0  0
 25105  1  0  0  0
 26106  1  0  0  0
 26107  1  0  0  0
 27108  1  0  0  0
 28109  1  0  0  0
 31110  1  0  0  0
 31111  1  0  0  0
 34112  1  0  0  0
 35113  1  0  0  0
 36114  1  0  0  0
 39115  1  0  0  0
 39116  1  0  0  0
 41117  1  0  0  0
 43118  1  0  0  0
 44119  1  0  0  0
 47120  1  0  0  0
 47121  1  0  0  0
 48122  1  0  0  0
 49123  1  0  0  0
 49124  1  0  0  0
 49125  1  0  0  0
 50126  1  0  0  0
 50127  1  0  0  0
 50128  1  0  0  0
 51129  1  0  0  0
 52130  1  0  0  0
 55131  1  0  0  0
 55132  1  0  0  0
 56133  1  0  0  0
 57134  1  0  0  0
 57135  1  0  0  0
 57136  1  0  0  0
 58137  1  0  0  0
 58138  1  0  0  0
 58139  1  0  0  0
 59140  1  0  0  0
 60141  1  0  0  0
 63142  1  0  0  0
 63143  1  0  0  0
 64144  1  0  0  0
 64145  1  0  0  0
 67146  1  0  0  0
 68147  1  0  0  0
 69148  1  0  0  0
 72149  1  0  0  0
 72150  1  0  0  0
 72151  1  0  0  0
 73152  1  0  0  0
M  END
$$$$
