6o9c_ligand
  -I-interpret- 

135136  0  0  0  0  0  0  0  0999 V2000
   68.3780   10.0350   36.0470 N   0  3  0  0  0
   69.5270    9.4800   35.2520 C   0  0  0  0  0
   69.0120    8.6200   34.1040 C   0  0  0  0  0
   67.9200    8.0130   34.2000 O   0  0  0  0  0
   70.4930    8.6230   36.0850 C   0  0  0  0  0
   69.7060    7.7990   36.9370 O   0  0  0  0  0
   71.4160    9.4420   36.9570 C   0  0  0  0  0
   69.8100    8.5920   33.0610 N   0  0  0  0  0
   69.5700    7.7640   31.8730 C   0  0  0  0  0
   69.6070    6.2870   32.2550 C   0  0  0  0  0
   70.1180    5.8960   33.3460 O   0  0  0  0  0
   70.5580    8.1020   30.7610 C   0  0  0  0  0
   71.8740    8.2060   31.3030 O   0  0  0  0  0
   70.1870    9.4070   30.1030 C   0  0  0  0  0
   68.9860    5.5150   31.3880 N   0  0  0  0  0
   68.8180    4.0700   31.5680 C   0  0  0  0  0
   70.0410    3.4260   30.9520 C   0  0  0  0  0
   70.7060    4.0020   30.0880 O   0  0  0  0  0
   67.5490    3.5870   30.9140 C   0  0  0  0  0
   70.3810    2.2180   31.4230 N   0  0  0  0  0
   71.4230    1.4370   30.7720 C   0  0  0  0  0
   70.9900    0.9970   29.3680 C   0  0  0  0  0
   69.8590    0.6510   29.2240 O   0  0  0  0  0
   71.5890    0.2160   31.6830 C   0  0  0  0  0
   70.3030    0.1300   32.4900 C   0  0  0  0  0
   69.7530    1.5350   32.5650 C   0  0  0  0  0
   71.8980    1.1380   28.4030 N   0  0  0  0  0
   71.7930    0.5980   27.0180 C   0  0  0  0  0
   70.9830   -0.7100   26.9460 C   0  0  0  0  0
   71.0940   -1.6160   27.8360 O   0  0  0  0  0
   73.1890    0.3420   26.4380 C   0  0  0  0  0
   73.9460   -0.8150   27.0640 C   0  0  0  0  0
   74.7670   -0.6200   28.1690 C   0  0  0  0  0
   73.8600   -2.0980   26.5330 C   0  0  0  0  0
   75.4650   -1.6780   28.7340 C   0  0  0  0  0
   74.5600   -3.1530   27.1020 C   0  0  0  0  0
   75.3580   -2.9440   28.2030 C   0  0  0  0  0
   70.2090   -0.7940   25.8620 N   0  0  0  0  0
   69.7170   -2.0940   25.3550 C   0  0  0  0  0
   70.6960   -2.5310   24.2580 C   0  0  0  0  0
   71.3100   -1.6710   23.5960 O   0  0  0  0  0
   68.2880   -2.0140   24.8090 C   0  0  0  0  0
   67.1800   -1.5290   25.7480 C   0  0  0  0  0
   65.8900   -2.2760   25.4510 C   0  0  0  0  0
   67.5330   -1.6650   27.2210 C   0  0  0  0  0
   70.8450   -3.8340   24.0670 N   0  0  0  0  0
   71.6070   -4.3780   22.9160 C   0  0  0  0  0
   70.9290   -3.9830   21.6050 C   0  0  0  0  0
   69.7400   -3.5380   21.5970 O   0  0  0  0  0
   71.7680   -5.8690   22.9990 C   0  0  0  0  0
   70.5000   -6.4970   23.0280 O   0  0  0  0  0
   71.6770   -4.1830   20.5310 N   0  0  0  0  0
   71.2930   -3.7540   19.1820 C   0  0  0  0  0
   69.9560   -4.3230   18.7820 C   0  0  0  0  0
   69.5200   -5.3390   19.3440 O   0  0  0  0  0
   69.2930   -3.6240   17.8760 N   0  0  0  0  0
   67.9460   -4.0240   17.3950 C   0  0  0  0  0
   68.1200   -5.0780   16.2950 C   0  0  0  0  0
   67.1510   -5.7920   15.9400 O   0  0  0  0  0
   67.1970   -2.7980   16.8760 C   0  0  0  0  0
   66.7910   -1.8260   17.9610 C   0  0  0  0  0
   66.1630   -0.5840   17.4160 C   0  0  0  0  0
   65.3740    0.1270   18.4910 C   0  0  0  0  0
   65.6520    1.5780   18.5020 N   0  3  0  0  0
   69.2610   -5.1610   15.7800 O   0  0  0  0  0
   67.7799   10.5905   35.4354 H   0  0  0  0  0
   67.8387    9.2661   36.4450 H   0  0  0  0  0
   68.7386   10.6235   36.7980 H   0  0  0  0  0
   70.0736   10.3489   34.8854 H   0  0  0  0  0
   71.1157    8.0552   35.3936 H   0  0  0  0  0
   69.1097    7.2674   36.4046 H   0  0  0  0  0
   70.8233   10.0558   37.6352 H   0  0  0  0  0
   72.0557    8.7744   37.5343 H   0  0  0  0  0
   72.0325   10.0845   36.3283 H   0  0  0  0  0
   70.6439    9.1791   33.0776 H   0  0  0  0  0
   68.5767    7.9806   31.4798 H   0  0  0  0  0
   70.5265    7.3074   30.0156 H   0  0  0  0  0
   72.4924    8.4187   30.6002 H   0  0  0  0  0
   69.1872    9.3260   29.6764 H   0  0  0  0  0
   70.2029   10.2045   30.8459 H   0  0  0  0  0
   70.9036    9.6306   29.3127 H   0  0  0  0  0
   68.6016    5.9450   30.5468 H   0  0  0  0  0
   68.7296    3.8078   32.6223 H   0  0  0  0  0
   66.6951    4.0966   31.3603 H   0  0  0  0  0
   67.5864    3.8045   29.8466 H   0  0  0  0  0
   67.4510    2.5118   31.0638 H   0  0  0  0  0
   72.3447    2.0039   30.6412 H   0  0  0  0  0
   72.4598    0.3176   32.3307 H   0  0  0  0  0
   71.7581   -0.6924   31.1048 H   0  0  0  0  0
   70.4919   -0.2702   33.4861 H   0  0  0  0  0
   69.5891   -0.5452   32.0182 H   0  0  0  0  0
   68.6644    1.5581   32.5154 H   0  0  0  0  0
   69.9796    2.0196   33.5147 H   0  0  0  0  0
   72.7415    1.6632   28.6332 H   0  0  0  0  0
   71.2669    1.3539   26.4350 H   0  0  0  0  0
   73.7766    1.2401   26.6281 H   0  0  0  0  0
   73.0502    0.0928   25.3860 H   0  0  0  0  0
   74.8637    0.3776   28.5974 H   0  0  0  0  0
   73.2346   -2.2772   25.6585 H   0  0  0  0  0
   76.1010   -1.5061   29.6023 H   0  0  0  0  0
   74.4770   -4.1521   26.6743 H   0  0  0  0  0
   75.9019   -3.7750   28.6520 H   0  0  0  0  0
   69.9497    0.0610   25.3699 H   0  0  0  0  0
   69.6746   -2.8164   26.1702 H   0  0  0  0  0
   68.0201   -3.0394   24.5541 H   0  0  0  0  0
   68.3278   -1.2770   24.0069 H   0  0  0  0  0
   67.0529   -0.4632   25.5581 H   0  0  0  0  0
   65.5944   -2.0916   24.4182 H   0  0  0  0  0
   66.0477   -3.3442   25.6000 H   0  0  0  0  0
   65.1061   -1.9260   26.1226 H   0  0  0  0  0
   67.7232   -2.7130   27.4525 H   0  0  0  0  0
   68.4251   -1.0765   27.4354 H   0  0  0  0  0
   66.7028   -1.3026   27.8272 H   0  0  0  0  0
   70.4230   -4.4826   24.7315 H   0  0  0  0  0
   72.6071   -3.9457   22.9478 H   0  0  0  0  0
   72.3107   -6.1189   23.9106 H   0  0  0  0  0
   72.3187   -6.2175   22.1253 H   0  0  0  0  0
   70.6165   -7.4484   23.0810 H   0  0  0  0  0
   72.5699   -4.6620   20.6482 H   0  0  0  0  0
   72.0451   -4.1113   18.4786 H   0  0  0  0  0
   71.2226   -2.6663   19.1722 H   0  0  0  0  0
   69.7217   -2.7808   17.4943 H   0  0  0  0  0
   67.3583   -4.4503   18.2080 H   0  0  0  0  0
   66.3785   -5.5638   16.4624 H   0  0  0  0  0
   66.2833   -3.1531   16.3993 H   0  0  0  0  0
   67.8688   -2.2687   16.2003 H   0  0  0  0  0
   67.6902   -1.5360   18.5046 H   0  0  0  0  0
   66.0572   -2.3212   18.5969 H   0  0  0  0  0
   65.4889   -0.8556   16.6036 H   0  0  0  0  0
   66.9482    0.0805   17.0555 H   0  0  0  0  0
   65.6614   -0.2855   19.4581 H   0  0  0  0  0
   64.3124   -0.0182   18.2911 H   0  0  0  0  0
   65.1034    2.0225   19.2381 H   0  0  0  0  0
   66.6451    1.7314   18.6768 H   0  0  0  0  0
   65.3988    1.9783   17.5987 H   0  0  0  0  0
  1  2  1  0  0  0
  2  3  1  0  0  0
  2  5  1  0  0  0
  3  4  2  0  0  0
  3  8  1  0  0  0
  5  6  1  0  0  0
  5  7  1  0  0  0
  8  9  1  0  0  0
  9 10  1  0  0  0
  9 12  1  0  0  0
 10 11  2  0  0  0
 10 15  1  0  0  0
 12 13  1  0  0  0
 12 14  1  0  0  0
 15 16  1  0  0  0
 16 17  1  0  0  0
 16 19  1  0  0  0
 17 18  2  0  0  0
 17 20  1  0  0  0
 20 21  1  0  0  0
 20 26  1  0  0  0
 21 22  1  0  0  0
 21 24  1  0  0  0
 22 23  2  0  0  0
 22 27  1  0  0  0
 24 25  1  0  0  0
 25 26  1  0  0  0
 27 28  1  0  0  0
 28 29  1  0  0  0
 28 31  1  0  0  0
 29 30  2  0  0  0
 29 38  1  0  0  0
 31 32  1  0  0  0
 32 33  4  0  0  0
 32 34  4  0  0  0
 33 35  4  0  0  0
 34 36  4  0  0  0
 35 37  4  0  0  0
 36 37  4  0  0  0
 38 39  1  0  0  0
 39 40  1  0  0  0
 39 42  1  0  0  0
 40 41  2  0  0  0
 40 46  1  0  0  0
 42 43  1  0  0  0
 43 44  1  0  0  0
 43 45  1  0  0  0
 46 47  1  0  0  0
 47 48  1  0  0  0
 47 50  1  0  0  0
 48 49  2  0  0  0
 48 52  1  0  0  0
 50 51  1  0  0  0
 52 53  1  0  0  0
 53 54  1  0  0  0
 54 55  2  0  0  0
 54 56  1  0  0  0
 56 57  1  0  0  0
 57 58  1  0  0  0
 57 60  1  0  0  0
 58 59  1  0  0  0
 58 65  2  0  0  0
 60 61  1  0  0  0
 61 62  1  0  0  0
 62 63  1  0  0  0
 63 64  1  0  0  0
  1 66  1  0  0  0
  1 67  1  0  0  0
  1 68  1  0  0  0
  2 69  1  0  0  0
  5 70  1  0  0  0
  6 71  1  0  0  0
  7 72  1  0  0  0
  7 73  1  0  0  0
  7 74  1  0  0  0
  8 75  1  0  0  0
  9 76  1  0  0  0
 12 77  1  0  0  0
 13 78  1  0  0  0
 14 79  1  0  0  0
 14 80  1  0  0  0
 14 81  1  0  0  0
 15 82  1  0  0  0
 16 83  1  0  0  0
 19 84  1  0  0  0
 19 85  1  0  0  0
 19 86  1  0  0  0
 21 87  1  0  0  0
 24 88  1  0  0  0
 24 89  1  0  0  0
 25 90  1  0  0  0
 25 91  1  0  0  0
 26 92  1  0  0  0
 26 93  1  0  0  0
 27 94  1  0  0  0
 28 95  1  0  0  0
 31 96  1  0  0  0
 31 97  1  0  0  0
 33 98  1  0  0  0
 34 99  1  0  0  0
 35100  1  0  0  0
 36101  1  0  0  0
 37102  1  0  0  0
 38103  1  0  0  0
 39104  1  0  0  0
 42105  1  0  0  0
 42106  1  0  0  0
 43107  1  0  0  0
 44108  1  0  0  0
 44109  1  0  0  0
 44110  1  0  0  0
 45111  1  0  0  0
 45112  1  0  0  0
 45113  1  0  0  0
 46114  1  0  0  0
 47115  1  0  0  0
 50116  1  0  0  0
 50117  1  0  0  0
 51118  1  0  0  0
 52119  1  0  0  0
 53120  1  0  0  0
 53121  1  0  0  0
 56122  1  0  0  0
 57123  1  0  0  0
 59124  1  0  0  0
 60125  1  0  0  0
 60126  1  0  0  0
 61127  1  0  0  0
 61128  1  0  0  0
 62129  1  0  0  0
 62130  1  0  0  0
 63131  1  0  0  0
 63132  1  0  0  0
 64133  1  0  0  0
 64134  1  0  0  0
 64135  1  0  0  0
M  END
$$$$
