4jc1_ligand
  -I-interpret- 

 45 46  0  0  0  0  0  0  0  0999 V2000
   20.3840   -9.1480   -1.2640 C   0  0  0  0  0
   21.2480  -10.5150   -0.5590 S   0  0  0  0  0
   18.8880   -9.4560   -1.3300 C   0  0  0  0  0
   18.6590  -10.4670   -2.3230 O   0  0  0  0  0
   18.0830   -8.2120   -1.6950 C   0  0  0  0  0
   16.6850   -8.4720   -1.5530 O   0  0  0  0  0
   18.4710   -7.0330   -0.8120 C   0  0  0  0  0
   18.0680   -7.2750    0.5410 O   0  0  0  0  0
   19.9750   -6.8130   -0.8540 C   0  0  0  0  0
   20.6450   -8.0100   -0.4450 O   0  0  0  0  0
   20.3900   -5.6800    0.0840 C   0  0  0  0  0
   21.7910   -5.4540   -0.0780 O   0  0  0  0  0
   22.9230  -10.0070   -0.7810 C   0  0  0  0  0
   23.7190  -10.3150    0.4840 C   0  0  0  0  0
   23.2370   -9.5930    1.6260 O   0  0  0  0  0
   25.1880   -9.9630    0.2870 C   0  0  0  0  0
   25.9330  -10.3870    1.4350 O   0  0  0  0  0
   25.7240  -10.6420   -0.9660 C   0  0  0  0  0
   25.7740  -12.0620   -0.7610 O   0  0  0  0  0
   24.8360  -10.3230   -2.1640 C   0  0  0  0  0
   23.4970  -10.7220   -1.8840 O   0  0  0  0  0
   25.3180  -11.0470   -3.4220 C   0  0  0  0  0
   24.7140  -10.4810   -4.5920 O   0  0  0  0  0
   20.7187   -8.9527   -2.2828 H   0  0  0  0  0
   18.5655   -9.8016   -0.3478 H   0  0  0  0  0
   19.1627  -11.2532   -2.0997 H   0  0  0  0  0
   18.3044   -7.9600   -2.7321 H   0  0  0  0  0
   16.4407   -9.2151   -2.1096 H   0  0  0  0  0
   17.9660   -6.1432   -1.1880 H   0  0  0  0  0
   17.1186   -7.4143    0.5709 H   0  0  0  0  0
   20.2498   -6.5491   -1.8752 H   0  0  0  0  0
   20.1720   -5.9511    1.1170 H   0  0  0  0  0
   19.8348   -4.7733   -0.1564 H   0  0  0  0  0
   22.0690   -4.7439    0.5052 H   0  0  0  0  0
   22.9528   -8.9362   -0.9823 H   0  0  0  0  0
   23.5974  -11.3823    0.6689 H   0  0  0  0  0
   23.7674   -9.8194    2.3935 H   0  0  0  0  0
   25.2903   -8.8844    0.1676 H   0  0  0  0  0
   26.8593  -10.1663    1.3133 H   0  0  0  0  0
   26.7283  -10.2691   -1.1671 H   0  0  0  0  0
   26.1123  -12.4868   -1.5527 H   0  0  0  0  0
   24.8831   -9.2487   -2.3421 H   0  0  0  0  0
   25.0386  -12.0983   -3.3535 H   0  0  0  0  0
   26.4003  -10.9421   -3.4972 H   0  0  0  0  0
   25.0278  -10.9473   -5.3702 H   0  0  0  0  0
  1  2  1  0  0  0
  1  3  1  0  0  0
  1 10  1  0  0  0
  2 13  1  0  0  0
  3  4  1  0  0  0
  3  5  1  0  0  0
  5  6  1  0  0  0
  5  7  1  0  0  0
  7  8  1  0  0  0
  7  9  1  0  0  0
  9 10  1  0  0  0
  9 11  1  0  0  0
 11 12  1  0  0  0
 13 14  1  0  0  0
 13 21  1  0  0  0
 14 15  1  0  0  0
 14 16  1  0  0  0
 16 17  1  0  0  0
 16 18  1  0  0  0
 18 19  1  0  0  0
 18 20  1  0  0  0
 20 21  1  0  0  0
 20 22  1  0  0  0
 22 23  1  0  0  0
  1 24  1  0  0  0
  3 25  1  0  0  0
  4 26  1  0  0  0
  5 27  1  0  0  0
  6 28  1  0  0  0
  7 29  1  0  0  0
  8 30  1  0  0  0
  9 31  1  0  0  0
 11 32  1  0  0  0
 11 33  1  0  0  0
 12 34  1  0  0  0
 13 35  1  0  0  0
 14 36  1  0  0  0
 15 37  1  0  0  0
 16 38  1  0  0  0
 17 39  1  0  0  0
 18 40  1  0  0  0
 19 41  1  0  0  0
 20 42  1  0  0  0
 22 43  1  0  0  0
 22 44  1  0  0  0
 23 45  1  0  0  0
M  END
$$$$
