2xh5_ligand
  -I-interpret- 

 56 59  0  0  0  0  0  0  0  0999 V2000
   44.6020   33.7270  113.9390 N   0  0  0  0  0
   43.2550   33.1680  113.8920 C   0  0  0  0  0
   42.9340   32.4900  115.1990 C   0  0  0  0  0
   44.0160   31.4900  115.6390 C   0  0  0  0  0
   43.9250   31.4360  117.1440 N   0  3  0  0  0
   43.7360   30.0260  115.2580 C   0  0  0  0  0
   43.2930   29.6800  113.8560 C   0  0  0  0  0
   41.9420   29.6470  113.5340 C   0  0  0  0  0
   41.5270   29.3110  112.2620 C   0  0  0  0  0
   42.4540   28.9820  111.2720 C   0  0  0  0  0
   43.8140   29.0030  111.6030 C   0  0  0  0  0
   44.2250   29.3420  112.8760 C   0  0  0  0  0
   41.9850   28.5950  109.8460 C   0  0  0  0  0
   40.6980   27.7840  109.9020 C   0  0  0  0  0
   41.7190   29.8380  108.9930 C   0  0  0  0  0
   43.0440   27.7330  109.1460 C   0  0  0  0  0
   45.4680   31.9180  115.3410 C   0  0  0  0  0
   45.6180   32.6710  114.0370 C   0  0  0  0  0
   44.8680   35.0330  114.3920 C   0  0  0  0  0
   46.1550   35.3000  114.6730 N   0  0  0  0  0
   46.4360   36.5330  115.0980 C   0  0  0  0  0
   45.5950   37.5470  115.2750 N   0  0  0  0  0
   44.3410   37.2610  114.9880 C   0  0  0  0  0
   43.2650   38.0880  115.0680 N   0  0  0  0  0
   42.1610   37.4190  114.6800 C   0  0  0  0  0
   42.5290   36.1610  114.3530 C   0  0  0  0  0
   43.8820   36.0290  114.5370 C   0  0  0  0  0
   43.1972   32.4377  113.0849 H   0  0  0  0  0
   42.5387   33.9711  113.7186 H   0  0  0  0  0
   42.0045   31.9363  115.0663 H   0  0  0  0  0
   42.8643   33.2621  115.9652 H   0  0  0  0  0
   42.9826   31.1568  117.4166 H   0  0  0  0  0
   44.5983   30.7575  117.5000 H   0  0  0  0  0
   44.1328   32.3573  117.5293 H   0  0  0  0  0
   42.8946   29.7373  115.8880 H   0  0  0  0  0
   44.6987   29.5271  115.3698 H   0  0  0  0  0
   41.2009   29.8895  114.2956 H   0  0  0  0  0
   40.4626   29.3024  112.0274 H   0  0  0  0  0
   44.5567   28.7487  110.8468 H   0  0  0  0  0
   45.2879   29.3455  113.1174 H   0  0  0  0  0
   40.8687   26.8731  110.4758 H   0  0  0  0  0
   39.9178   28.3757  110.3808 H   0  0  0  0  0
   40.3892   27.5245  108.8894 H   0  0  0  0  0
   40.9418   30.4403  109.4633 H   0  0  0  0  0
   42.6347   30.4236  108.9111 H   0  0  0  0  0
   41.3918   29.5320  107.9993 H   0  0  0  0  0
   43.9761   28.2933  109.0725 H   0  0  0  0  0
   43.2099   26.8235  109.7234 H   0  0  0  0  0
   42.6956   27.4721  108.1467 H   0  0  0  0  0
   46.0689   31.0115  115.2676 H   0  0  0  0  0
   45.7849   32.5845  116.1432 H   0  0  0  0  0
   46.6082   33.1251  113.9999 H   0  0  0  0  0
   45.4899   31.9756  113.2075 H   0  0  0  0  0
   47.4825   36.7332  115.3281 H   0  0  0  0  0
   41.1492   37.8222  114.6376 H   0  0  0  0  0
   41.8589   35.3772  113.9999 H   0  0  0  0  0
  1  2  1  0  0  0
  1 18  1  0  0  0
  1 19  1  0  0  0
  2  3  1  0  0  0
  3  4  1  0  0  0
  4  5  1  0  0  0
  4  6  1  0  0  0
  4 17  1  0  0  0
  6  7  1  0  0  0
  7  8  4  0  0  0
  7 12  4  0  0  0
  8  9  4  0  0  0
  9 10  4  0  0  0
 10 11  4  0  0  0
 10 13  1  0  0  0
 11 12  4  0  0  0
 13 14  1  0  0  0
 13 15  1  0  0  0
 13 16  1  0  0  0
 17 18  1  0  0  0
 19 20  4  0  0  0
 19 27  4  0  0  0
 20 21  4  0  0  0
 21 22  4  0  0  0
 22 23  4  0  0  0
 23 24  4  0  0  0
 23 27  4  0  0  0
 24 25  4  0  0  0
 25 26  4  0  0  0
 26 27  4  0  0  0
  2 28  1  0  0  0
  2 29  1  0  0  0
  3 30  1  0  0  0
  3 31  1  0  0  0
  5 32  1  0  0  0
  5 33  1  0  0  0
  5 34  1  0  0  0
  6 35  1  0  0  0
  6 36  1  0  0  0
  8 37  1  0  0  0
  9 38  1  0  0  0
 11 39  1  0  0  0
 12 40  1  0  0  0
 14 41  1  0  0  0
 14 42  1  0  0  0
 14 43  1  0  0  0
 15 44  1  0  0  0
 15 45  1  0  0  0
 15 46  1  0  0  0
 16 47  1  0  0  0
 16 48  1  0  0  0
 16 49  1  0  0  0
 17 50  1  0  0  0
 17 51  1  0  0  0
 18 52  1  0  0  0
 18 53  1  0  0  0
 21 54  1  0  0  0
 25 55  1  0  0  0
 26 56  1  0  0  0
M  END
$$$$
