6hzc_ligand
  -I-interpret- 

161163  0  0  0  0  0  0  0  0999 V2000
   56.0590  -36.9760   -7.1240 N   0  3  0  0  0
   55.3020  -35.7300   -6.9260 C   0  0  0  0  0
   54.8170  -35.6750   -5.6200 C   0  0  0  0  0
   54.5530  -36.6960   -4.9870 O   0  0  0  0  0
   54.0800  -35.6630   -7.8270 C   0  0  0  0  0
   54.4360  -35.6280   -9.2820 C   0  0  0  0  0
   53.1340  -35.5280  -10.0650 C   0  0  0  0  0
   53.2840  -34.3750  -10.9940 C   0  0  0  0  0
   54.4840  -34.6390  -11.7930 N   0  0  0  0  0
   54.5500  -34.4330   -5.0460 N   0  0  0  0  0
   53.9860  -34.3710   -3.6850 C   0  0  0  0  0
   52.6030  -34.6340   -3.7910 C   0  0  0  0  0
   52.0100  -35.2800   -2.9250 O   0  0  0  0  0
   54.2630  -32.9830   -3.1010 C   0  0  0  0  0
   53.7160  -32.8230   -1.6600 C   0  0  0  0  0
   54.0930  -31.4190   -1.1710 C   0  0  0  0  0
   53.5140  -31.1240    0.1560 N   0  0  0  0  0
   52.3250  -30.5190    0.3360 C   0  0  0  0  0
   51.8770  -30.2590    1.5890 N   0  0  0  0  0
   51.5900  -30.1710   -0.7410 N   0  0  0  0  0
   51.8850  -34.2010   -4.9190 N   0  0  0  0  0
   50.4270  -34.4790   -5.0610 C   0  0  0  0  0
   50.1980  -34.9640   -6.3600 C   0  0  0  0  0
   50.8890  -34.5750   -7.3020 O   0  0  0  0  0
   49.5860  -33.2260   -4.7670 C   0  0  0  0  0
   49.8580  -32.7050   -3.3400 C   0  0  0  0  0
   49.2140  -33.6410   -2.3090 C   0  0  0  0  0
   49.4390  -33.1560   -0.9300 N   0  0  0  0  0
   50.2320  -33.7550   -0.0170 C   0  0  0  0  0
   50.3330  -33.2480    1.2260 N   0  0  0  0  0
   50.9040  -34.8740   -0.3220 N   0  0  0  0  0
   49.2000  -35.9270   -6.5990 N   0  0  0  0  0
   48.9590  -36.5280   -7.9380 C   0  0  0  0  0
   49.4520  -38.0050   -7.9020 C   0  0  0  0  0
   49.3500  -38.6470   -9.3000 C   0  0  0  0  0
   50.9170  -38.0650   -7.4650 C   0  0  0  0  0
   48.6180  -38.8410   -6.9170 C   0  0  0  0  0
   47.5950  -36.4670   -8.3210 C   0  0  0  0  0
   46.7010  -36.4690   -7.4760 O   0  0  0  0  0
   47.2470  -36.3850   -9.6860 N   0  0  0  0  0
   45.8620  -36.4270  -10.2140 C   0  0  0  0  0
   45.3330  -37.6760   -9.8580 C   0  0  0  0  0
   46.0330  -38.6730  -10.0020 O   0  0  0  0  0
   45.8320  -36.2590  -11.7410 C   0  0  0  0  0
   46.3520  -34.8950  -12.1090 C   0  0  0  0  0
   46.7590  -34.7940  -13.5960 C   0  0  0  0  0
   46.7090  -33.3020  -13.9320 C   0  0  0  0  0
   47.7020  -32.7960  -14.9210 N   0  0  0  0  0
   44.0770  -37.7160   -9.3610 N   0  0  0  0  0
   43.4580  -38.9810   -8.8940 C   0  0  0  0  0
   43.5790  -39.0360   -7.4740 C   0  0  0  0  0
   44.7220  -39.5480   -6.8700 C   0  0  0  0  0
   44.8500  -39.5870   -5.4780 C   0  0  0  0  0
   43.8340  -39.1160   -4.6400 C   0  0  0  0  0
   43.9580  -39.1510   -3.2320 C   0  0  0  0  0
   45.1580  -39.3700   -2.6780 N   0  0  0  0  0
   42.8920  -38.8820   -2.4770 N   0  0  0  0  0
   42.6850  -38.6020   -5.2510 C   0  0  0  0  0
   42.5630  -38.5670   -6.6440 C   0  0  0  0  0
   48.9220  -32.2630  -14.4270 C   0  0  0  0  0
   49.8890  -31.7380  -15.2830 C   0  0  0  0  0
   49.8770  -32.4930  -16.5670 C   0  0  0  0  0
   50.6360  -33.8060  -16.4390 C   0  0  0  0  0
   51.9420  -33.6310  -16.8890 C   0  0  0  0  0
   49.1260  -32.2620  -13.2130 O   0  0  0  0  0
   52.4810  -32.5270  -16.8090 O   0  0  0  0  0
   52.6360  -34.7230  -17.4510 N   0  0  0  0  0
   55.2570  -35.3470  -14.5520 C   0  0  0  0  0
   54.6480  -35.4940  -15.7840 C   0  0  0  0  0
   54.6890  -34.4430  -16.6880 C   0  0  0  0  0
   55.3020  -33.2400  -16.3550 C   0  0  0  0  0
   55.9060  -33.0910  -15.1140 C   0  0  0  0  0
   56.4610  -34.0190  -12.9720 C   0  0  0  0  0
   55.3850  -33.6450  -12.1720 C   0  0  0  0  0
   55.1780  -32.4710  -11.8670 O   0  0  0  0  0
   55.8900  -34.1540  -14.2220 C   0  0  0  0  0
   54.0480  -34.5980  -17.9000 C   0  0  0  0  0
   56.8685  -36.9828   -6.5035 H   0  0  0  0  0
   55.4598  -37.7738   -6.9119 H   0  0  0  0  0
   56.3716  -37.0322   -8.0933 H   0  0  0  0  0
   55.9857  -34.9113   -7.1505 H   0  0  0  0  0
   53.5408  -34.7453   -7.5921 H   0  0  0  0  0
   53.4838  -36.5581   -7.6496 H   0  0  0  0  0
   54.9839  -36.5272   -9.5637 H   0  0  0  0  0
   55.0791  -34.7749   -9.4982 H   0  0  0  0  0
   52.2871  -35.3804   -9.3949 H   0  0  0  0  0
   52.9390  -36.4485  -10.6153 H   0  0  0  0  0
   53.3796  -33.4393  -10.4431 H   0  0  0  0  0
   52.4058  -34.2699  -11.6311 H   0  0  0  0  0
   54.6692  -35.5981  -12.0865 H   0  0  0  0  0
   54.7430  -33.5750   -5.5627 H   0  0  0  0  0
   54.4367  -35.1053   -3.0173 H   0  0  0  0  0
   53.7645  -32.2477   -3.7326 H   0  0  0  0  0
   55.3434  -32.8427   -3.0672 H   0  0  0  0  0
   54.1458  -33.5808   -1.0049 H   0  0  0  0  0
   52.6335  -32.9504   -1.6490 H   0  0  0  0  0
   53.7024  -30.6925   -1.8836 H   0  0  0  0  0
   55.1787  -31.3653   -1.0899 H   0  0  0  0  0
   54.0458  -31.3943    0.9833 H   0  0  0  0  0
   50.9777  -29.7968    1.7234 H   0  0  0  0  0
   52.4392  -30.5256    2.3972 H   0  0  0  0  0
   51.9368  -30.3669   -1.6800 H   0  0  0  0  0
   52.3704  -33.6870   -5.6542 H   0  0  0  0  0
   50.1208  -35.2292   -4.3319 H   0  0  0  0  0
   48.5303  -33.4838   -4.8515 H   0  0  0  0  0
   49.8533  -32.4478   -5.4819 H   0  0  0  0  0
   49.4316  -31.7074   -3.2348 H   0  0  0  0  0
   50.9341  -32.6696   -3.1698 H   0  0  0  0  0
   49.6642  -34.6288   -2.4076 H   0  0  0  0  0
   48.1404  -33.6757   -2.4942 H   0  0  0  0  0
   48.9574  -32.3025   -0.6471 H   0  0  0  0  0
   50.9152  -33.7147    1.9214 H   0  0  0  0  0
   49.8273  -32.3971    1.4724 H   0  0  0  0  0
   50.8191  -35.2822   -1.2529 H   0  0  0  0  0
   48.6154  -36.2264   -5.8186 H   0  0  0  0  0
   49.5108  -35.9558   -8.6838 H   0  0  0  0  0
   48.3119  -38.6292   -9.6317 H   0  0  0  0  0
   49.9668  -38.0858  -10.0020 H   0  0  0  0  0
   49.6995  -39.6783   -9.2512 H   0  0  0  0  0
   51.5285  -37.5021   -8.1702 H   0  0  0  0  0
   51.0160  -37.6317   -6.4697 H   0  0  0  0  0
   51.2466  -39.1038   -7.4449 H   0  0  0  0  0
   48.7076  -38.4176   -5.9166 H   0  0  0  0  0
   47.5728  -38.8283   -7.2260 H   0  0  0  0  0
   48.9845  -39.8675   -6.9127 H   0  0  0  0  0
   48.0059  -36.2896  -10.3608 H   0  0  0  0  0
   45.2772  -35.6075   -9.7962 H   0  0  0  0  0
   44.8072  -36.3642  -12.0970 H   0  0  0  0  0
   46.4591  -37.0222  -12.2018 H   0  0  0  0  0
   47.2384  -34.7004  -11.5052 H   0  0  0  0  0
   45.5550  -34.1733  -11.9302 H   0  0  0  0  0
   46.0888  -35.3701  -14.2339 H   0  0  0  0  0
   47.7520  -35.2094  -13.7678 H   0  0  0  0  0
   46.9259  -32.7802  -12.9999 H   0  0  0  0  0
   45.7301  -33.1311  -14.3800 H   0  0  0  0  0
   47.5112  -32.8314  -15.9224 H   0  0  0  0  0
   43.5388  -36.8513   -9.3053 H   0  0  0  0  0
   43.9613  -39.8351   -9.3472 H   0  0  0  0  0
   42.4075  -39.0142   -9.1830 H   0  0  0  0  0
   45.5329  -39.9258   -7.4928 H   0  0  0  0  0
   45.7604  -39.9929   -5.0369 H   0  0  0  0  0
   45.2664  -39.3323   -1.6645 H   0  0  0  0  0
   45.9633  -39.5745   -3.2697 H   0  0  0  0  0
   42.0001  -38.6543   -2.9165 H   0  0  0  0  0
   41.8721  -38.2229   -4.6317 H   0  0  0  0  0
   41.6535  -38.1642   -7.0897 H   0  0  0  0  0
   50.8714  -31.8254  -14.8190 H   0  0  0  0  0
   49.6714  -30.6877  -15.4767 H   0  0  0  0  0
   50.3588  -31.8853  -17.3330 H   0  0  0  0  0
   48.8429  -32.7128  -16.8323 H   0  0  0  0  0
   50.1436  -34.5711  -17.0393 H   0  0  0  0  0
   50.6496  -34.1183  -15.3948 H   0  0  0  0  0
   52.1584  -35.6186  -17.5516 H   0  0  0  0  0
   55.2409  -36.1693  -13.8367 H   0  0  0  0  0
   54.1418  -36.4243  -16.0419 H   0  0  0  0  0
   55.3082  -32.4151  -17.0675 H   0  0  0  0  0
   56.3868  -32.1509  -14.8436 H   0  0  0  0  0
   56.9437  -34.9338  -12.6282 H   0  0  0  0  0
   57.2716  -33.2905  -12.9555 H   0  0  0  0  0
   54.2203  -33.7813  -18.6010 H   0  0  0  0  0
   54.4044  -35.4455  -18.4855 H   0  0  0  0  0
  2  1  1  0  0  0
  3  2  1  0  0  0
  2  5  1  0  0  0
  3  4  2  0  0  0
 10  3  1  0  0  0
  5  6  1  0  0  0
  6  7  1  0  0  0
  7  8  1  0  0  0
  8  9  1  0  0  0
  9 74  1  0  0  0
 11 10  1  0  0  0
 12 11  1  0  0  0
 11 14  1  0  0  0
 12 13  2  0  0  0
 21 12  1  0  0  0
 14 15  1  0  0  0
 15 16  1  0  0  0
 16 17  1  0  0  0
 17 18  1  0  0  0
 18 19  1  0  0  0
 18 20  2  0  0  0
 22 21  1  0  0  0
 23 22  1  0  0  0
 22 25  1  0  0  0
 23 24  2  0  0  0
 32 23  1  0  0  0
 25 26  1  0  0  0
 26 27  1  0  0  0
 27 28  1  0  0  0
 28 29  1  0  0  0
 29 30  1  0  0  0
 29 31  2  0  0  0
 33 32  1  0  0  0
 33 34  1  0  0  0
 38 33  1  0  0  0
 34 35  1  0  0  0
 34 36  1  0  0  0
 34 37  1  0  0  0
 38 39  2  0  0  0
 40 38  1  0  0  0
 41 40  1  0  0  0
 41 42  1  0  0  0
 44 41  1  0  0  0
 42 43  2  0  0  0
 42 49  1  0  0  0
 45 44  1  0  0  0
 46 45  1  0  0  0
 47 46  1  0  0  0
 48 47  1  0  0  0
 60 48  1  0  0  0
 49 50  1  0  0  0
 50 51  1  0  0  0
 51 52  4  0  0  0
 51 59  4  0  0  0
 52 53  4  0  0  0
 53 54  4  0  0  0
 54 55  1  0  0  0
 58 54  4  0  0  0
 55 56  1  0  0  0
 55 57  2  0  0  0
 59 58  4  0  0  0
 61 60  1  0  0  0
 60 65  2  0  0  0
 62 61  1  0  0  0
 63 62  1  0  0  0
 64 63  1  0  0  0
 64 66  2  0  0  0
 67 64  1  0  0  0
 77 67  1  0  0  0
 69 68  4  0  0  0
 68 76  4  0  0  0
 70 69  4  0  0  0
 70 71  4  0  0  0
 70 77  1  0  0  0
 71 72  4  0  0  0
 72 76  4  0  0  0
 74 73  1  0  0  0
 73 76  1  0  0  0
 74 75  2  0  0  0
  1 78  1  0  0  0
  1 79  1  0  0  0
  1 80  1  0  0  0
  2 81  1  0  0  0
  5 82  1  0  0  0
  5 83  1  0  0  0
  6 84  1  0  0  0
  6 85  1  0  0  0
  7 86  1  0  0  0
  7 87  1  0  0  0
  8 88  1  0  0  0
  8 89  1  0  0  0
  9 90  1  0  0  0
 10 91  1  0  0  0
 11 92  1  0  0  0
 14 93  1  0  0  0
 14 94  1  0  0  0
 15 95  1  0  0  0
 15 96  1  0  0  0
 16 97  1  0  0  0
 16 98  1  0  0  0
 17 99  1  0  0  0
 19100  1  0  0  0
 19101  1  0  0  0
 20102  1  0  0  0
 21103  1  0  0  0
 22104  1  0  0  0
 25105  1  0  0  0
 25106  1  0  0  0
 26107  1  0  0  0
 26108  1  0  0  0
 27109  1  0  0  0
 27110  1  0  0  0
 28111  1  0  0  0
 30112  1  0  0  0
 30113  1  0  0  0
 31114  1  0  0  0
 32115  1  0  0  0
 33116  1  0  0  0
 35117  1  0  0  0
 35118  1  0  0  0
 35119  1  0  0  0
 36120  1  0  0  0
 36121  1  0  0  0
 36122  1  0  0  0
 37123  1  0  0  0
 37124  1  0  0  0
 37125  1  0  0  0
 40126  1  0  0  0
 41127  1  0  0  0
 44128  1  0  0  0
 44129  1  0  0  0
 45130  1  0  0  0
 45131  1  0  0  0
 46132  1  0  0  0
 46133  1  0  0  0
 47134  1  0  0  0
 47135  1  0  0  0
 48136  1  0  0  0
 49137  1  0  0  0
 50138  1  0  0  0
 50139  1  0  0  0
 52140  1  0  0  0
 53141  1  0  0  0
 56142  1  0  0  0
 56143  1  0  0  0
 57144  1  0  0  0
 58145  1  0  0  0
 59146  1  0  0  0
 61147  1  0  0  0
 61148  1  0  0  0
 62149  1  0  0  0
 62150  1  0  0  0
 63151  1  0  0  0
 63152  1  0  0  0
 67153  1  0  0  0
 68154  1  0  0  0
 69155  1  0  0  0
 71156  1  0  0  0
 72157  1  0  0  0
 73158  1  0  0  0
 73159  1  0  0  0
 77160  1  0  0  0
 77161  1  0  0  0
M  END
$$$$
