### 
### Created by X-TOOL on Mon Aug  2 16:10:51 2021
### 

@<TRIPOS>MOLECULE
6hzc_ligand
  164   166     1     0     0
SMALL
GAST_HUCK


@<TRIPOS>ATOM
      1 N          56.0590  -36.9760   -7.1240 N.4       1 LYS         0.2379
      2 CA         55.3020  -35.7300   -6.9260 C.3       1 LYS         0.0650
      3 C          54.8170  -35.6750   -5.6200 C.2       1 LYS         0.2267
      4 O          54.5530  -36.6960   -4.9870 O.2       1 LYS        -0.3907
      5 CB         54.0800  -35.6630   -7.8270 C.3       1 LYS         0.0079
      6 CG         54.4360  -35.6280   -9.2820 C.3       1 LYS        -0.0439
      7 CD         53.1340  -35.5280  -10.0650 C.3       1 LYS        -0.0324
      8 CE         53.2840  -34.3750  -10.9940 C.3       1 LYS         0.0310
      9 NZ         54.4840  -34.6390  -11.7930 N.am      1 LYS        -0.2855
     10 N          54.5500  -34.4330   -5.0460 N.am      1 LYS        -0.2610
     11 CA         53.9860  -34.3710   -3.6850 C.3       1 LYS         0.1312
     12 C          52.6030  -34.6340   -3.7910 C.2       1 LYS         0.2039
     13 O          52.0100  -35.2800   -2.9250 O.2       1 LYS        -0.3944
     14 CB         54.2630  -32.9830   -3.1010 C.3       1 LYS        -0.0092
     15 CG         53.7160  -32.8230   -1.6600 C.3       1 LYS        -0.0156
     16 CD         54.0930  -31.4190   -1.1710 C.3       1 LYS         0.0627
     17 NE         53.5140  -31.1240    0.1560 N.pl3     1 LYS        -0.2723
     18 CZ         52.3250  -30.5190    0.3360 C.cat     1 LYS         0.2882
     19 NH1        51.8770  -30.2590    1.5890 N.pl3     1 LYS        -0.2849
     20 NH2        51.5900  -30.1710   -0.7410 N.pl3     1 LYS        -0.2849
     21 N          51.8850  -34.2010   -4.9190 N.am      1 LYS        -0.2637
     22 CA         50.4270  -34.4790   -5.0610 C.3       1 LYS         0.1311
     23 C          50.1980  -34.9640   -6.3600 C.2       1 LYS         0.2039
     24 O          50.8890  -34.5750   -7.3020 O.2       1 LYS        -0.3944
     25 CB         49.5860  -33.2260   -4.7670 C.3       1 LYS        -0.0092
     26 CG         49.8580  -32.7050   -3.3400 C.3       1 LYS        -0.0156
     27 CD         49.2140  -33.6410   -2.3090 C.3       1 LYS         0.0627
     28 NE         49.4390  -33.1560   -0.9300 N.pl3     1 LYS        -0.2723
     29 CZ         50.2320  -33.7550   -0.0170 C.cat     1 LYS         0.2882
     30 NH1        50.3330  -33.2480    1.2260 N.pl3     1 LYS        -0.2849
     31 NH2        50.9040  -34.8740   -0.3220 N.pl3     1 LYS        -0.2849
     32 N          49.2000  -35.9270   -6.5990 N.am      1 LYS        -0.2632
     33 CA         48.9590  -36.5280   -7.9380 C.3       1 LYS         0.1358
     34 CB         49.4520  -38.0050   -7.9020 C.3       1 LYS         0.0026
     35 CG1        49.3500  -38.6470   -9.3000 C.3       1 LYS        -0.0558
     36 CG2        50.9170  -38.0650   -7.4650 C.3       1 LYS        -0.0558
     37 CG3        48.6180  -38.8410   -6.9170 C.3       1 LYS        -0.0558
     38 C          47.5950  -36.4670   -8.3210 C.2       1 LYS         0.2044
     39 O          46.7010  -36.4690   -7.4760 O.2       1 LYS        -0.3944
     40 N          47.2470  -36.3850   -9.6860 N.am      1 LYS        -0.2637
     41 CA         45.8620  -36.4270  -10.2140 C.3       1 LYS         0.1310
     42 C          45.3330  -37.6760   -9.8580 C.2       1 LYS         0.2035
     43 O          46.0330  -38.6730  -10.0020 O.2       1 LYS        -0.3944
     44 CB         45.8320  -36.2590  -11.7410 C.3       1 LYS        -0.0123
     45 CG         46.3520  -34.8950  -12.1090 C.3       1 LYS        -0.0470
     46 CD         46.7590  -34.7940  -13.5960 C.3       1 LYS        -0.0325
     47 CE         46.7090  -33.3020  -13.9320 C.3       1 LYS         0.0309
     48 NZ         47.7020  -32.7960  -14.9210 N.am      1 LYS        -0.2870
     49 N23        44.0770  -37.7160   -9.3610 N.am      1 LYS        -0.2737
     50 C16        43.4580  -38.9810   -8.8940 C.3       1 LYS         0.0645
     51 C17        43.5790  -39.0360   -7.4740 C.ar      1 LYS        -0.0210
     52 C22        44.7220  -39.5480   -6.8700 C.ar      1 LYS        -0.0584
     53 C21        44.8500  -39.5870   -5.4780 C.ar      1 LYS        -0.0633
     54 C24        43.8340  -39.1160   -4.6400 C.ar      1 LYS         0.0188
     55 C27        43.9580  -39.1510   -3.2320 C.cat     1 LYS         0.2318
     56 N35        45.1580  -39.3700   -2.6780 N.pl3     1 LYS        -0.2729
     57 N34        42.8920  -38.8820   -2.4770 N.pl3     1 LYS        -0.2729
     58 C19        42.6850  -38.6020   -5.2510 C.ar      1 LYS        -0.0633
     59 C18        42.5630  -38.5670   -6.6440 C.ar      1 LYS        -0.0584
     60 C1         48.9220  -32.2630  -14.4270 C.2       1 LYS         0.1761
     61 C2         49.8890  -31.7380  -15.2830 C.3       1 LYS         0.0393
     62 C3         49.8770  -32.4930  -16.5670 C.3       1 LYS        -0.0191
     63 C4         50.6360  -33.8060  -16.4390 C.3       1 LYS         0.0394
     64 C5         51.9420  -33.6310  -16.8890 C.2       1 LYS         0.1778
     65 O1         49.1260  -32.2620  -13.2130 O.2       1 LYS        -0.3971
     66 O5         52.4810  -32.5270  -16.8090 O.2       1 LYS        -0.3969
     67 N1         52.6360  -34.7230  -17.4510 N.am      1 LYS        -0.2766
     68 C2         55.2570  -35.3470  -14.5520 C.ar      1 LYS        -0.0644
     69 C3         54.6480  -35.4940  -15.7840 C.ar      1 LYS        -0.0645
     70 C4         54.6890  -34.4430  -16.6880 C.ar      1 LYS        -0.0274
     71 C5         55.3020  -33.2400  -16.3550 C.ar      1 LYS        -0.0645
     72 C6         55.9060  -33.0910  -15.1140 C.ar      1 LYS        -0.0644
     73 CA         56.4610  -34.0190  -12.9720 C.3       1 LYS         0.0673
     74 C          55.3850  -33.6450  -12.1720 C.2       1 LYS         0.1864
     75 O          55.1780  -32.4710  -11.8670 O.2       1 LYS        -0.3943
     76 C1         55.8900  -34.1540  -14.2220 C.ar      1 LYS        -0.0310
     77 C7         54.0480  -34.5980  -17.9000 C.3       1 LYS         0.0615
     78 H1         56.4073  -37.0109   -8.0693 H         1 LYS         0.2015
     79 H2         55.4550  -37.7660   -6.9592 H         1 LYS         0.2015
     80 H3         56.8334  -37.0048   -6.4793 H         1 LYS         0.2015
     81 H4         55.9612  -34.8722   -7.1249 H         1 LYS         0.1098
     82 H5         53.5114  -34.7539   -7.5819 H         1 LYS         0.0346
     83 H6         53.4550  -36.5484   -7.6388 H         1 LYS         0.0346
     84 H7         54.9728  -36.5469   -9.5603 H         1 LYS         0.0269
     85 H8         55.0702  -34.7545   -9.4934 H         1 LYS         0.0269
     86 H9         52.2911  -35.3559   -9.3795 H         1 LYS         0.0285
     87 H10        52.9611  -36.4536  -10.6337 H         1 LYS         0.0285
     88 H11        53.4040  -33.4413  -10.4249 H         1 LYS         0.0520
     89 H12        52.4024  -34.2957  -11.6470 H         1 LYS         0.0520
     90 H13        54.6656  -35.5793  -12.0807 H         1 LYS         0.1852
     91 H14        54.7392  -33.5918   -5.5526 H         1 LYS         0.1884
     92 H15        54.4559  -35.1326   -3.0454 H         1 LYS         0.0800
     93 H16        53.7867  -32.2286   -3.7444 H         1 LYS         0.0313
     94 H17        55.3504  -32.8179   -3.0854 H         1 LYS         0.0313
     95 H18        54.1652  -33.5818   -1.0024 H         1 LYS         0.0301
     96 H19        52.6221  -32.9386   -1.6596 H         1 LYS         0.0301
     97 H20        53.7204  -30.6785   -1.8941 H         1 LYS         0.0689
     98 H21        55.1887  -31.3477   -1.1047 H         1 LYS         0.0689
     99 H22        54.0511  -31.3970    0.9914 H         1 LYS         0.2642
    100 H23        50.9670  -29.7960    1.7248 H         1 LYS         0.2615
    101 H24        52.4467  -30.5245    2.4050 H         1 LYS         0.2615
    102 H25        51.9383  -30.3725   -1.6891 H         1 LYS         0.2615
    103 H26        50.6807  -29.7039   -0.6149 H         1 LYS         0.2615
    104 H27        52.3609  -33.6970   -5.6398 H         1 LYS         0.1883
    105 H28        50.1431  -35.2580   -4.3381 H         1 LYS         0.0800
    106 H29        48.5193  -33.4773   -4.8617 H         1 LYS         0.0313
    107 H30        49.8435  -32.4405   -5.4927 H         1 LYS         0.0313
    108 H31        49.4320  -31.6965   -3.2328 H         1 LYS         0.0301
    109 H32        50.9436  -32.6647   -3.1675 H         1 LYS         0.0301
    110 H33        49.6529  -34.6443   -2.4122 H         1 LYS         0.0689
    111 H34        48.1317  -33.6929   -2.4986 H         1 LYS         0.0689
    112 H35        48.9527  -32.2941   -0.6443 H         1 LYS         0.2642
    113 H36        50.9387  -33.7065    1.9216 H         1 LYS         0.2615
    114 H37        49.8046  -32.4016    1.4815 H         1 LYS         0.2615
    115 H38        50.8363  -35.2735   -1.2690 H         1 LYS         0.2615
    116 H39        51.4881  -35.3344    0.3906 H         1 LYS         0.2615
    117 H40        48.6269  -36.2205   -5.8339 H         1 LYS         0.1884
    118 H41        49.5482  -35.9727   -8.6827 H         1 LYS         0.0805
    119 H42        49.7025  -39.6879   -9.2520 H         1 LYS         0.0237
    120 H43        49.9721  -38.0816  -10.0094 H         1 LYS         0.0237
    121 H44        48.3027  -38.6297   -9.6359 H         1 LYS         0.0237
    122 H45        51.0209  -37.6127   -6.4677 H         1 LYS         0.0237
    123 H46        51.5374  -37.5114   -8.1851 H         1 LYS         0.0237
    124 H47        51.2459  -39.1140   -7.4279 H         1 LYS         0.0237
    125 H48        47.5595  -38.8103   -7.2148 H         1 LYS         0.0237
    126 H49        48.7257  -38.4283   -5.9031 H         1 LYS         0.0237
    127 H50        48.9721  -39.8824   -6.9286 H         1 LYS         0.0237
    128 H51        47.9910  -36.2914  -10.3476 H         1 LYS         0.1883
    129 H52        45.2676  -35.6234   -9.7548 H         1 LYS         0.0800
    130 H53        44.7981  -36.3660  -12.1009 H         1 LYS         0.0312
    131 H54        46.4639  -37.0296  -12.2066 H         1 LYS         0.0312
    132 H55        47.2323  -34.6743  -11.4874 H         1 LYS         0.0268
    133 H56        45.5657  -34.1525  -11.9081 H         1 LYS         0.0268
    134 H57        46.0532  -35.3541  -14.2269 H         1 LYS         0.0285
    135 H58        47.7754  -35.1877  -13.7442 H         1 LYS         0.0285
    136 H59        46.8613  -32.7459  -12.9952 H         1 LYS         0.0520
    137 H60        45.7062  -33.0849  -14.3284 H         1 LYS         0.0520
    138 H61        47.5150  -32.8307  -15.9027 H         1 LYS         0.1850
    139 H62        43.5494  -36.8683   -9.3064 H         1 LYS         0.1878
    140 H63        43.9771  -39.8391   -9.3458 H         1 LYS         0.0683
    141 H64        42.3957  -39.0036   -9.1787 H         1 LYS         0.0683
    142 H65        45.5284  -39.9237   -7.4893 H         1 LYS         0.0557
    143 H66        45.7554  -39.9906   -5.0393 H         1 LYS         0.0599
    144 H67        45.2549  -39.3967   -1.6529 H         1 LYS         0.3180
    145 H68        45.9837  -39.5117   -3.2772 H         1 LYS         0.3180
    146 H69        41.9765  -38.7161   -2.9189 H         1 LYS         0.3180
    147 H70        42.9842  -38.8402   -1.4520 H         1 LYS         0.3180
    148 H71        41.8766  -38.2249   -4.6351 H         1 LYS         0.0599
    149 H72        41.6585  -38.1664   -7.0873 H         1 LYS         0.0557
    150 H73        50.8804  -31.8265  -14.8147 H         1 LYS         0.0504
    151 H74        49.6692  -30.6781  -15.4787 H         1 LYS         0.0504
    152 H75        50.3496  -31.8799  -17.3485 H         1 LYS         0.0314
    153 H76        48.8352  -32.7065  -16.8483 H         1 LYS         0.0314
    154 H77        50.1393  -34.5777  -17.0454 H         1 LYS         0.0504
    155 H78        50.6501  -34.1205  -15.3850 H         1 LYS         0.0504
    156 H79        52.1678  -35.6011  -17.5497 H         1 LYS         0.1876
    157 H80        55.2410  -36.1647  -13.8406 H         1 LYS         0.0544
    158 H81        54.1446  -36.4192  -16.0405 H         1 LYS         0.0541
    159 H82        55.3082  -32.4197  -17.0636 H         1 LYS         0.0541
    160 H83        56.3841  -32.1561  -14.8451 H         1 LYS         0.0544
    161 H84        56.8945  -34.9708  -12.6311 H         1 LYS         0.0646
    162 H85        57.2395  -33.2418  -12.9754 H         1 LYS         0.0646
    163 H86        54.1909  -33.7215  -18.5490 H         1 LYS         0.0671
    164 H87        54.3879  -35.5027  -18.4254 H         1 LYS         0.0671
@<TRIPOS>BOND
     1    2    1 1  
     2    3    2 1  
     3    2    5 1  
     4    3    4 2  
     5   10    3 am 
     6    5    6 1  
     7    6    7 1  
     8    7    8 1  
     9    8    9 1  
    10    9   74 am 
    11   11   10 1  
    12   12   11 1  
    13   11   14 1  
    14   12   13 2  
    15   21   12 am 
    16   14   15 1  
    17   15   16 1  
    18   16   17 1  
    19   17   18 ar 
    20   18   19 ar 
    21   18   20 ar 
    22   22   21 1  
    23   23   22 1  
    24   22   25 1  
    25   23   24 2  
    26   32   23 am 
    27   25   26 1  
    28   26   27 1  
    29   27   28 1  
    30   28   29 ar 
    31   29   30 ar 
    32   29   31 ar 
    33   33   32 1  
    34   33   34 1  
    35   38   33 1  
    36   34   35 1  
    37   34   36 1  
    38   34   37 1  
    39   38   39 2  
    40   40   38 am 
    41   41   40 1  
    42   41   42 1  
    43   44   41 1  
    44   42   43 2  
    45   42   49 am 
    46   45   44 1  
    47   46   45 1  
    48   47   46 1  
    49   48   47 1  
    50   60   48 am 
    51   49   50 1  
    52   50   51 1  
    53   51   52 ar 
    54   51   59 ar 
    55   52   53 ar 
    56   53   54 ar 
    57   54   55 1  
    58   58   54 ar 
    59   55   56 ar 
    60   55   57 ar 
    61   59   58 ar 
    62   61   60 1  
    63   60   65 2  
    64   62   61 1  
    65   63   62 1  
    66   64   63 1  
    67   64   66 2  
    68   67   64 am 
    69   77   67 1  
    70   69   68 ar 
    71   68   76 ar 
    72   70   69 ar 
    73   70   71 ar 
    74   70   77 1  
    75   71   72 ar 
    76   72   76 ar 
    77   74   73 1  
    78   73   76 1  
    79   74   75 2  
    80    1   78 1  
    81    1   79 1  
    82    1   80 1  
    83    2   81 1  
    84    5   82 1  
    85    5   83 1  
    86    6   84 1  
    87    6   85 1  
    88    7   86 1  
    89    7   87 1  
    90    8   88 1  
    91    8   89 1  
    92    9   90 1  
    93   10   91 1  
    94   11   92 1  
    95   14   93 1  
    96   14   94 1  
    97   15   95 1  
    98   15   96 1  
    99   16   97 1  
   100   16   98 1  
   101   17   99 1  
   102   19  100 1  
   103   19  101 1  
   104   20  102 1  
   105   20  103 1  
   106   21  104 1  
   107   22  105 1  
   108   25  106 1  
   109   25  107 1  
   110   26  108 1  
   111   26  109 1  
   112   27  110 1  
   113   27  111 1  
   114   28  112 1  
   115   30  113 1  
   116   30  114 1  
   117   31  115 1  
   118   31  116 1  
   119   32  117 1  
   120   33  118 1  
   121   35  119 1  
   122   35  120 1  
   123   35  121 1  
   124   36  122 1  
   125   36  123 1  
   126   36  124 1  
   127   37  125 1  
   128   37  126 1  
   129   37  127 1  
   130   40  128 1  
   131   41  129 1  
   132   44  130 1  
   133   44  131 1  
   134   45  132 1  
   135   45  133 1  
   136   46  134 1  
   137   46  135 1  
   138   47  136 1  
   139   47  137 1  
   140   48  138 1  
   141   49  139 1  
   142   50  140 1  
   143   50  141 1  
   144   52  142 1  
   145   53  143 1  
   146   56  144 1  
   147   56  145 1  
   148   57  146 1  
   149   57  147 1  
   150   58  148 1  
   151   59  149 1  
   152   61  150 1  
   153   61  151 1  
   154   62  152 1  
   155   62  153 1  
   156   63  154 1  
   157   63  155 1  
   158   67  156 1  
   159   68  157 1  
   160   69  158 1  
   161   71  159 1  
   162   72  160 1  
   163   73  161 1  
   164   73  162 1  
   165   77  163 1  
   166   77  164 1  
@<TRIPOS>SUBSTRUCTURE
     1 LYS         1

