5yve_ligand
  -I-interpret- 

 43 44  0  0  0  0  0  0  0  0999 V2000
  -20.0550   -2.2980  -43.9800 S   0  0  0  0  0
  -16.7360   -2.1660  -48.0170 O   0  0  0  0  0
  -17.7100   -0.8700  -42.6580 O   0  0  0  0  0
  -20.0130   -2.2190  -42.5180 O   0  0  0  0  0
  -20.3810   -3.7120  -44.1620 O   0  0  0  0  0
  -21.2860   -1.2990  -44.6200 N   0  0  0  0  0
  -19.0260   -3.4990  -50.3080 N   0  0  0  0  0
  -19.8000   -1.2930  -49.8410 N   0  0  0  0  0
  -17.1510   -4.4250  -49.3860 N   0  0  0  0  0
  -20.9700   -2.7340  -51.3710 N   0  0  0  0  0
  -14.7020   -0.8180  -46.5540 C   0  0  0  0  0
  -16.0390   -1.1990  -45.9210 C   0  0  0  0  0
  -17.0120   -1.8480  -46.6710 C   0  0  0  0  0
  -16.2800   -0.8790  -44.5950 C   0  0  0  0  0
  -18.4610   -1.8620  -44.7360 C   0  0  0  0  0
  -13.7270   -1.9870  -46.4780 C   0  0  0  0  0
  -14.1080    0.3720  -45.8010 C   0  0  0  0  0
  -17.4870   -1.2070  -43.9990 C   0  0  0  0  0
  -18.2170   -2.1850  -46.0620 C   0  0  0  0  0
  -17.8670   -2.2130  -48.8530 C   0  0  0  0  0
  -16.5800   -0.9580  -41.8360 C   0  0  0  0  0
  -18.0830   -3.3250  -49.5450 C   0  0  0  0  0
  -18.7070   -1.0930  -48.9610 C   0  0  0  0  0
  -19.8630   -2.5110  -50.4600 C   0  0  0  0  0
  -21.8736   -0.7489  -43.9935 H   0  0  0  0  0
  -21.4328   -1.2531  -45.6283 H   0  0  0  0  0
  -17.2966   -5.2949  -49.8983 H   0  0  0  0  0
  -16.3500   -4.3286  -48.7619 H   0  0  0  0  0
  -21.0617   -3.6283  -51.8529 H   0  0  0  0  0
  -21.6566   -1.9965  -51.5295 H   0  0  0  0  0
  -14.8692   -0.5582  -47.5993 H   0  0  0  0  0
  -15.5134   -0.3647  -44.0154 H   0  0  0  0  0
  -13.5632   -2.2546  -45.4341 H   0  0  0  0  0
  -14.1433   -2.8410  -47.0123 H   0  0  0  0  0
  -12.7796   -1.6985  -46.9334 H   0  0  0  0  0
  -14.7943    1.2168  -45.8597 H   0  0  0  0  0
  -13.9538    0.0994  -44.7570 H   0  0  0  0  0
  -13.1537    0.6455  -46.2512 H   0  0  0  0  0
  -18.9802   -2.7106  -46.6359 H   0  0  0  0  0
  -16.2040   -1.9810  -41.8457 H   0  0  0  0  0
  -15.8090   -0.2826  -42.2069 H   0  0  0  0  0
  -16.8504   -0.6786  -40.8177 H   0  0  0  0  0
  -18.5355   -0.1616  -48.4213 H   0  0  0  0  0
  1  4  2  0  0  0
  1  5  2  0  0  0
  1  6  1  0  0  0
 15  1  1  0  0  0
  2 13  1  0  0  0
 20  2  1  0  0  0
 18  3  1  0  0  0
  3 21  1  0  0  0
 22  7  4  0  0  0
  7 24  4  0  0  0
  8 23  4  0  0  0
 24  8  4  0  0  0
 22  9  1  0  0  0
 24 10  1  0  0  0
 12 11  1  0  0  0
 11 16  1  0  0  0
 11 17  1  0  0  0
 13 12  4  0  0  0
 12 14  4  0  0  0
 13 19  4  0  0  0
 14 18  4  0  0  0
 15 18  4  0  0  0
 19 15  4  0  0  0
 20 22  4  0  0  0
 20 23  4  0  0  0
  6 25  1  0  0  0
  6 26  1  0  0  0
  9 27  1  0  0  0
  9 28  1  0  0  0
 10 29  1  0  0  0
 10 30  1  0  0  0
 11 31  1  0  0  0
 14 32  1  0  0  0
 16 33  1  0  0  0
 16 34  1  0  0  0
 16 35  1  0  0  0
 17 36  1  0  0  0
 17 37  1  0  0  0
 17 38  1  0  0  0
 19 39  1  0  0  0
 21 40  1  0  0  0
 21 41  1  0  0  0
 21 42  1  0  0  0
 23 43  1  0  0  0
M  END
$$$$
