2qhn_ligand
  -I-interpret- 

 29 31  0  0  0  0  0  0  0  0999 V2000
   20.6950   -2.3020    9.5550 C   0  0  0  0  0
   19.6500   -2.9430   10.3190 C   0  0  0  0  0
   18.3000   -2.4110   10.2590 C   0  0  0  0  0
   18.0320   -1.2250    9.4580 C   0  0  0  0  0
   19.0590   -0.5850    8.7630 C   0  0  0  0  0
   20.3930   -1.1200    8.7920 C   0  0  0  0  0
   17.2220   -3.0070   10.9410 N   0  0  0  0  0
   15.9250   -2.5160   10.8570 C   0  0  0  0  0
   15.6610   -1.2770   10.1070 C   0  0  0  0  0
   16.6670   -0.6590    9.4540 C   0  0  0  0  0
   14.9620   -3.0130   11.4100 O   0  0  0  0  0
   17.3070   -4.2380   11.8070 C   0  0  0  0  0
   16.1200    0.5590    8.8780 N   0  0  0  0  0
   14.4610   -0.4930    9.8870 C   0  0  0  0  0
   13.0600   -0.7620   10.3980 C   0  0  0  0  0
   14.8370    0.5970    9.1460 N   0  0  0  0  0
   17.4600   -5.4500   10.8780 C   0  0  0  0  0
   21.7054   -2.7109    9.5565 H   0  0  0  0  0
   19.8721   -3.8156   10.9333 H   0  0  0  0  0
   18.8493    0.3225    8.1969 H   0  0  0  0  0
   21.1846   -0.6247    8.2297 H   0  0  0  0  0
   16.4084   -4.3370   12.4159 H   0  0  0  0  0
   18.1584   -4.1683   12.4840 H   0  0  0  0  0
   12.7168   -1.7263   10.0232 H   0  0  0  0  0
   13.0687   -0.7766   11.4879 H   0  0  0  0  0
   12.3903    0.0241   10.0493 H   0  0  0  0  0
   16.5964   -5.5098   10.2157 H   0  0  0  0  0
   18.3676   -5.3391   10.2846 H   0  0  0  0  0
   17.5244   -6.3589   11.4762 H   0  0  0  0  0
  1  2  4  0  0  0
  1  6  4  0  0  0
  2  3  4  0  0  0
  3  4  4  0  0  0
  3  7  1  0  0  0
  4  5  4  0  0  0
  4 10  1  0  0  0
  5  6  4  0  0  0
  7  8  1  0  0  0
  7 12  1  0  0  0
  8  9  1  0  0  0
  8 11  2  0  0  0
  9 10  4  0  0  0
  9 14  4  0  0  0
 10 13  4  0  0  0
 12 17  1  0  0  0
 13 16  4  0  0  0
 14 15  1  0  0  0
 14 16  4  0  0  0
  1 18  1  0  0  0
  2 19  1  0  0  0
  5 20  1  0  0  0
  6 21  1  0  0  0
 12 22  1  0  0  0
 12 23  1  0  0  0
 15 24  1  0  0  0
 15 25  1  0  0  0
 15 26  1  0  0  0
 17 27  1  0  0  0
 17 28  1  0  0  0
 17 29  1  0  0  0
M  END
$$$$
