4f7l_ligand
  -I-interpret- 

 66 67  0  0  0  0  0  0  0  0999 V2000
   42.8730   60.0880  139.3480 O   0  0  0  0  0
   41.7040   59.8630  139.0640 C   0  0  0  0  0
   41.3280   59.6060  137.7730 O   0  0  0  0  0
   41.9550   58.6660  136.8970 C   0  0  0  0  0
   42.5540   59.4550  135.7390 C   0  0  0  0  0
   40.8970   57.6930  136.3810 C   0  0  0  0  0
   43.0460   57.8320  137.5780 C   0  0  0  0  0
   40.7210   59.8840  140.0380 N   0  0  0  0  0
   41.0040   60.1680  141.4510 C   0  0  0  0  0
   39.8630   59.8940  142.4470 C   0  0  0  0  0
   40.5000   59.7630  143.8260 C   0  0  0  0  0
   39.6550   59.2540  144.9280 N   0  0  0  0  0
   40.1510   58.3660  145.8590 C   0  0  0  0  0
   41.2840   57.9760  145.7390 O   0  0  0  0  0
   39.3630   57.9530  146.9050 N   0  0  0  0  0
   39.7020   57.0060  147.9290 C   0  0  0  0  0
   40.9680   56.5170  148.1890 C   0  0  0  0  0
   40.8520   55.6130  149.2120 C   0  0  0  0  0
   41.9910   54.8090  149.8250 C   0  0  0  0  0
   42.3790   55.3590  151.1910 C   0  0  0  0  0
   43.2270   54.7760  148.9050 C   0  0  0  0  0
   41.5090   53.3830  150.0490 C   0  0  0  0  0
   39.5470   55.5680  149.5530 N   0  0  0  0  0
   38.8970   56.3870  148.8260 N   0  0  0  0  0
   37.4420   56.5170  148.9530 C   0  0  0  0  0
   36.8180   56.6090  150.1890 C   0  0  0  0  0
   36.6700   56.4920  147.7880 C   0  0  0  0  0
   35.2900   56.5830  147.8460 C   0  0  0  0  0
   34.6680   56.6780  149.0860 C   0  0  0  0  0
   33.1670   56.7750  149.1410 C   0  0  0  0  0
   35.4310   56.6950  150.2590 C   0  0  0  0  0
   43.3319   60.1185  136.1170 H   0  0  0  0  0
   42.9846   58.7639  135.0144 H   0  0  0  0  0
   41.7725   60.0450  135.2603 H   0  0  0  0  0
   41.3540   57.0050  135.6697 H   0  0  0  0  0
   40.4834   57.1305  137.2181 H   0  0  0  0  0
   40.1011   58.2515  135.8883 H   0  0  0  0  0
   42.6091   57.2680  138.4021 H   0  0  0  0  0
   43.4797   57.1425  136.8537 H   0  0  0  0  0
   43.8223   58.4946  137.9608 H   0  0  0  0  0
   39.7575   59.6939  139.7624 H   0  0  0  0  0
   41.2063   61.2374  141.5098 H   0  0  0  0  0
   41.8197   59.5034  141.7355 H   0  0  0  0  0
   39.3278   58.9827  142.1804 H   0  0  0  0  0
   39.1348   60.7049  142.4331 H   0  0  0  0  0
   40.7786   60.7761  144.1161 H   0  0  0  0  0
   41.2996   59.0314  143.7097 H   0  0  0  0  0
   38.6866   59.5659  145.0007 H   0  0  0  0  0
   38.4319   58.3657  146.9606 H   0  0  0  0  0
   41.8876   56.7981  147.6758 H   0  0  0  0  0
   42.7006   56.3952  151.0861 H   0  0  0  0  0
   41.5188   55.3100  151.8587 H   0  0  0  0  0
   43.1943   54.7641  151.6026 H   0  0  0  0  0
   42.9576   54.3186  147.9530 H   0  0  0  0  0
   43.5784   55.7935  148.7341 H   0  0  0  0  0
   44.0161   54.1926  149.3795 H   0  0  0  0  0
   40.6534   53.3919  150.7243 H   0  0  0  0  0
   41.2157   52.9458  149.0946 H   0  0  0  0  0
   42.3139   52.7935  150.4880 H   0  0  0  0  0
   37.4127   56.6139  151.1025 H   0  0  0  0  0
   37.1619   56.3995  146.8197 H   0  0  0  0  0
   34.6981   56.5802  146.9307 H   0  0  0  0  0
   32.8416   57.6642  148.6011 H   0  0  0  0  0
   32.7298   55.8888  148.6810 H   0  0  0  0  0
   32.8464   56.8420  150.1806 H   0  0  0  0  0
   34.9385   56.7757  151.2280 H   0  0  0  0  0
  1  2  2  0  0  0
  2  3  1  0  0  0
  2  8  1  0  0  0
  3  4  1  0  0  0
  4  5  1  0  0  0
  4  6  1  0  0  0
  4  7  1  0  0  0
  8  9  1  0  0  0
  9 10  1  0  0  0
 10 11  1  0  0  0
 11 12  1  0  0  0
 12 13  1  0  0  0
 13 14  2  0  0  0
 13 15  1  0  0  0
 15 16  1  0  0  0
 16 17  4  0  0  0
 16 24  4  0  0  0
 17 18  4  0  0  0
 18 19  1  0  0  0
 18 23  4  0  0  0
 19 20  1  0  0  0
 19 21  1  0  0  0
 19 22  1  0  0  0
 23 24  4  0  0  0
 24 25  1  0  0  0
 25 26  4  0  0  0
 25 27  4  0  0  0
 26 31  4  0  0  0
 27 28  4  0  0  0
 28 29  4  0  0  0
 29 30  1  0  0  0
 29 31  4  0  0  0
  5 32  1  0  0  0
  5 33  1  0  0  0
  5 34  1  0  0  0
  6 35  1  0  0  0
  6 36  1  0  0  0
  6 37  1  0  0  0
  7 38  1  0  0  0
  7 39  1  0  0  0
  7 40  1  0  0  0
  8 41  1  0  0  0
  9 42  1  0  0  0
  9 43  1  0  0  0
 10 44  1  0  0  0
 10 45  1  0  0  0
 11 46  1  0  0  0
 11 47  1  0  0  0
 12 48  1  0  0  0
 15 49  1  0  0  0
 17 50  1  0  0  0
 20 51  1  0  0  0
 20 52  1  0  0  0
 20 53  1  0  0  0
 21 54  1  0  0  0
 21 55  1  0  0  0
 21 56  1  0  0  0
 22 57  1  0  0  0
 22 58  1  0  0  0
 22 59  1  0  0  0
 26 60  1  0  0  0
 27 61  1  0  0  0
 28 62  1  0  0  0
 30 63  1  0  0  0
 30 64  1  0  0  0
 30 65  1  0  0  0
 31 66  1  0  0  0
M  END
$$$$
