4tu4_ligand
  -I-interpret- 

 42 44  0  0  0  0  0  0  0  0999 V2000
  -11.9220   23.6620   12.5640 C   0  0  0  0  0
  -13.1590   23.8810   11.7070 C   0  0  0  0  0
  -13.3610   23.3600   10.3960 C   0  0  0  0  0
  -12.4200   22.5130    9.5780 C   0  0  0  0  0
  -12.5250   21.1270    9.4970 C   0  0  0  0  0
  -11.6170   20.4100    8.7080 C   0  0  0  0  0
  -11.6660   18.9930    8.5900 N   0  0  0  0  0
  -13.0340   18.1510    8.1800 S   0  0  0  0  0
  -13.5540   18.5060    6.5120 C   0  0  0  0  0
  -12.7080   18.2050    5.4410 C   0  0  0  0  0
  -13.1010   18.4690    4.1300 C   0  0  0  0  0
  -14.3420   19.0330    3.8850 C   0  0  0  0  0
  -15.1930   19.3380    4.9520 C   0  0  0  0  0
  -14.8040   19.0740    6.2640 C   0  0  0  0  0
  -14.0870   18.3580    9.1360 O   0  0  0  0  0
  -12.8280   16.7340    8.3640 O   0  0  0  0  0
  -10.6210   21.0840    8.0180 C   0  0  0  0  0
  -10.5180   22.4690    8.1090 C   0  0  0  0  0
   -9.4540   23.2030    7.3390 C   0  0  0  0  0
   -9.3110   24.4550    7.4060 O   0  0  0  0  0
   -8.7360   22.5400    6.5640 O   0  0  0  0  0
  -11.4160   23.1770    8.8840 C   0  0  0  0  0
  -14.6630   23.8840   10.0340 C   0  0  0  0  0
  -15.4030   23.6590    8.7350 C   0  0  0  0  0
  -15.1020   24.6090   11.0470 N   0  0  0  0  0
  -14.2330   24.6020   12.0250 O   0  0  0  0  0
  -11.7888   22.5948   12.7415 H   0  0  0  0  0
  -11.0481   24.0574   12.0462 H   0  0  0  0  0
  -12.0455   24.1774   13.5165 H   0  0  0  0  0
  -13.3089   20.6034   10.0442 H   0  0  0  0  0
  -10.8113   18.4654    8.7677 H   0  0  0  0  0
  -11.7318   17.7597    5.6327 H   0  0  0  0  0
  -12.4342   18.2325    3.3008 H   0  0  0  0  0
  -14.6551   19.2390    2.8615 H   0  0  0  0  0
  -16.1675   19.7854    4.7561 H   0  0  0  0  0
  -15.4727   19.3100    7.0918 H   0  0  0  0  0
   -9.9156   20.5268    7.4016 H   0  0  0  0  0
   -9.9333   24.8134    8.0431 H   0  0  0  0  0
  -11.3365   24.2620    8.9514 H   0  0  0  0  0
  -14.8044   24.0385    7.9069 H   0  0  0  0  0
  -15.5790   22.5920    8.5987 H   0  0  0  0  0
  -16.3573   24.1848    8.7662 H   0  0  0  0  0
  1  2  1  0  0  0
  2  3  4  0  0  0
  2 26  4  0  0  0
  3  4  1  0  0  0
  3 23  4  0  0  0
  4  5  4  0  0  0
  4 22  4  0  0  0
  5  6  4  0  0  0
  6  7  1  0  0  0
  6 17  4  0  0  0
  7  8  1  0  0  0
  8  9  1  0  0  0
  8 15  2  0  0  0
  8 16  2  0  0  0
  9 10  4  0  0  0
  9 14  4  0  0  0
 10 11  4  0  0  0
 11 12  4  0  0  0
 12 13  4  0  0  0
 13 14  4  0  0  0
 17 18  4  0  0  0
 18 19  1  0  0  0
 18 22  4  0  0  0
 19 20  1  0  0  0
 19 21  2  0  0  0
 23 24  1  0  0  0
 23 25  4  0  0  0
 25 26  4  0  0  0
  1 27  1  0  0  0
  1 28  1  0  0  0
  1 29  1  0  0  0
  5 30  1  0  0  0
  7 31  1  0  0  0
 10 32  1  0  0  0
 11 33  1  0  0  0
 12 34  1  0  0  0
 13 35  1  0  0  0
 14 36  1  0  0  0
 17 37  1  0  0  0
 20 38  1  0  0  0
 22 39  1  0  0  0
 24 40  1  0  0  0
 24 41  1  0  0  0
 24 42  1  0  0  0
M  END
$$$$
