6hkx_ligand
  -I-interpret- 

 55 57  0  0  0  0  0  0  0  0999 V2000
  -13.8830    6.6960  -22.2370 C   0  0  0  0  0
  -12.3210    6.0860  -20.0410 C   0  0  0  0  0
  -13.3780    5.2690  -20.4250 C   0  0  0  0  0
  -17.8930    8.7170  -23.8740 C   0  0  0  0  0
  -17.5830    9.7770  -27.8540 C   0  0  0  0  0
  -18.4330    7.9180  -22.6670 C   0  0  0  0  0
  -18.1000    8.6290  -21.3460 C   0  0  0  0  0
  -16.7500    8.4370  -26.0690 C   0  0  0  0  0
  -15.8880    7.7870  -26.9310 C   0  0  0  0  0
  -15.8730    8.1410  -28.2670 C   0  0  0  0  0
  -19.5550    3.7770  -26.4700 C   0  0  0  0  0
  -16.4420    3.4910  -24.8510 C   0  0  0  0  0
  -17.9050    5.6100  -25.0080 C   0  0  0  0  0
  -16.7090    8.0360  -24.6060 C   0  0  0  0  0
  -14.7070    7.0570  -23.4680 C   0  0  0  0  0
  -12.8510    7.4980  -21.8800 C   0  0  0  0  0
  -12.0540    7.2250  -20.7700 C   0  0  0  0  0
  -14.1600    5.5660  -21.5250 C   0  0  0  0  0
  -16.7200    9.1360  -28.7250 C   0  0  0  0  0
  -17.6060    9.4220  -26.5080 C   0  0  0  0  0
  -13.6650    4.1340  -19.7250 F   0  0  0  0  0
  -12.6600    8.5920  -22.6550 F   0  0  0  0  0
  -17.7370    4.1330  -25.0740 N   0  0  0  0  0
  -16.7650    6.4600  -24.6730 N   0  0  0  0  0
  -15.2980    6.0410  -24.4210 N   0  3  0  0  0
  -19.3340    8.9170  -20.6200 N   0  3  0  0  0
  -18.9560    6.1450  -25.1940 O   0  0  0  0  0
  -18.8310    3.2820  -25.3630 O   0  0  0  0  0
  -15.2520    8.4390  -24.0160 S   0  0  0  0  0
  -11.7112    5.8293  -19.1747 H   0  0  0  0  0
  -17.5299    9.6712  -23.4923 H   0  0  0  0  0
  -18.7080    8.8055  -24.5924 H   0  0  0  0  0
  -18.2454   10.5606  -28.2219 H   0  0  0  0  0
  -17.9671    6.9326  -22.6620 H   0  0  0  0  0
  -19.5161    7.8354  -22.7574 H   0  0  0  0  0
  -17.5786    9.5623  -21.5585 H   0  0  0  0  0
  -17.4642    7.9851  -20.7384 H   0  0  0  0  0
  -15.2267    7.0033  -26.5614 H   0  0  0  0  0
  -15.1963    7.6383  -28.9581 H   0  0  0  0  0
  -19.9292    4.7748  -26.2410 H   0  0  0  0  0
  -18.8995    3.8241  -27.3396 H   0  0  0  0  0
  -20.3931    3.1128  -26.6808 H   0  0  0  0  0
  -15.7269    3.8519  -25.5902 H   0  0  0  0  0
  -16.0853    3.7334  -23.8499 H   0  0  0  0  0
  -16.5520    2.4108  -24.9472 H   0  0  0  0  0
  -13.8912    7.2057  -22.7606 H   0  0  0  0  0
  -11.2416    7.8939  -20.4860 H   0  0  0  0  0
  -14.9808    4.9111  -21.8175 H   0  0  0  0  0
  -16.7068    9.4160  -29.7783 H   0  0  0  0  0
  -18.2884    9.9143  -25.8152 H   0  0  0  0  0
  -15.2533    5.1030  -24.0227 H   0  0  0  0  0
  -14.7734    6.0177  -25.2955 H   0  0  0  0  0
  -19.1095    9.3888  -19.7440 H   0  0  0  0  0
  -19.9292    9.5190  -21.1889 H   0  0  0  0  0
  -19.8222    8.0436  -20.4218 H   0  0  0  0  0
 15  1  1  0  0  0
  1 16  4  0  0  0
  1 18  4  0  0  0
  3  2  4  0  0  0
 17  2  4  0  0  0
 18  3  4  0  0  0
  3 21  1  0  0  0
  4  6  1  0  0  0
 14  4  1  0  0  0
  5 19  4  0  0  0
 20  5  4  0  0  0
  6  7  1  0  0  0
  7 26  1  0  0  0
  8  9  4  0  0  0
 14  8  1  0  0  0
  8 20  4  0  0  0
  9 10  4  0  0  0
 10 19  4  0  0  0
 28 11  1  0  0  0
 23 12  1  0  0  0
 23 13  1  0  0  0
 13 24  1  0  0  0
 13 27  2  0  0  0
 24 14  1  0  0  0
 14 29  1  0  0  0
 15 25  1  0  0  0
 29 15  1  0  0  0
 16 17  4  0  0  0
 16 22  1  0  0  0
 23 28  1  0  0  0
 24 25  1  0  0  0
  2 30  1  0  0  0
  4 31  1  0  0  0
  4 32  1  0  0  0
  5 33  1  0  0  0
  6 34  1  0  0  0
  6 35  1  0  0  0
  7 36  1  0  0  0
  7 37  1  0  0  0
  9 38  1  0  0  0
 10 39  1  0  0  0
 11 40  1  0  0  0
 11 41  1  0  0  0
 11 42  1  0  0  0
 12 43  1  0  0  0
 12 44  1  0  0  0
 12 45  1  0  0  0
 15 46  1  0  0  0
 17 47  1  0  0  0
 18 48  1  0  0  0
 19 49  1  0  0  0
 20 50  1  0  0  0
 25 51  1  0  0  0
 25 52  1  0  0  0
 26 53  1  0  0  0
 26 54  1  0  0  0
 26 55  1  0  0  0
M  END
$$$$
