### 
### Created by X-TOOL on Mon Sep 10 21:12:51 2018
### 

@<TRIPOS>MOLECULE
1pmx_ligand
  255   257     1     0     0
SMALL
GAST_HUCK


@<TRIPOS>ATOM
      1 N          -1.2580    2.8560    2.7870 N.4       1 ARG         0.2379
      2 CA          0.1480    2.8190    2.3070 C.3       1 ARG         0.0651
      3 C           0.2380    3.2140    0.8370 C.2       1 ARG         0.2268
      4 O          -0.7620    3.5710    0.2160 O.2       1 ARG        -0.3907
      5 CB          0.6930    1.4030    2.5080 C.3       1 ARG         0.0110
      6 CG         -0.1540    0.3250    1.8510 C.3       1 ARG        -0.0125
      7 CD          0.6990   -0.8410    1.3760 C.3       1 ARG         0.0629
      8 NE          1.5630   -1.3570    2.4380 N.pl3     1 ARG        -0.2723
      9 CZ          2.6720   -2.0710    2.2260 C.cat     1 ARG         0.2882
     10 NH1         3.0690   -2.3630    0.9910 N.pl3     1 ARG        -0.2849
     11 NH2         3.3880   -2.4940    3.2580 N.pl3     1 ARG        -0.2849
     12 N           1.4460    3.1500    0.2860 N.am      1 ASN        -0.2589
     13 CA          1.6700    3.5000   -1.1120 C.3       1 ASN         0.1477
     14 C           0.9500    2.5280   -2.0410 C.2       1 ASN         0.2063
     15 O           1.0160    1.3120   -1.8540 O.2       1 ASN        -0.3942
     16 CB          3.1680    3.5080   -1.4230 C.3       1 ASN         0.0773
     17 CG          3.8460    4.7850   -0.9660 C.2       1 ASN         0.1780
     18 OD1         3.9130    5.7660   -1.7060 O.2       1 ASN        -0.3970
     19 ND2         4.3550    4.7780    0.2620 N.am      1 ASN        -0.3007
     20 N           0.2630    3.0700   -3.0410 N.am      1 CYS        -0.2628
     21 CA         -0.4680    2.2480   -3.9990 C.3       1 CYS         0.1406
     22 C           0.4590    1.7350   -5.0960 C.2       1 CYS         0.2049
     23 O           0.3720    0.5780   -5.5050 O.2       1 CYS        -0.3943
     24 CB         -1.6140    3.0490   -4.6190 C.3       1 CYS         0.0443
     25 SG         -3.1600    3.0080   -3.6520 S.3       1 CYS        -0.0882
     26 N           1.3480    2.6050   -5.5680 N.am      1 PHE        -0.2619
     27 CA          2.2900    2.2380   -6.6180 C.3       1 PHE         0.1404
     28 C           3.4940    1.5000   -6.0350 C.2       1 PHE         0.2060
     29 O           4.6000    2.0400   -5.9680 O.2       1 PHE        -0.3942
     30 CB          2.7470    3.4860   -7.3820 C.3       1 PHE         0.0214
     31 CG          1.6630    4.1250   -8.2080 C.ar      1 PHE        -0.0386
     32 CD1         0.7990    3.3490   -8.9660 C.ar      1 PHE        -0.0601
     33 CD2         1.5120    5.5010   -8.2300 C.ar      1 PHE        -0.0601
     34 CE1        -0.1940    3.9330   -9.7280 C.ar      1 PHE        -0.0686
     35 CE2         0.5200    6.0920   -8.9900 C.ar      1 PHE        -0.0686
     36 CZ         -0.3350    5.3060   -9.7400 C.ar      1 PHE        -0.0687
     37 N           3.2680    0.2590   -5.6180 N.am      1 GLU        -0.2635
     38 CA          4.3270   -0.5620   -5.0400 C.3       1 GLU         0.1325
     39 C           4.4410   -1.8910   -5.7800 C.2       1 GLU         0.2041
     40 O           5.5400   -2.3370   -6.1140 O.2       1 GLU        -0.3944
     41 CB          4.0550   -0.8150   -3.5560 C.3       1 GLU        -0.0008
     42 CG          5.3090   -1.1150   -2.7510 C.3       1 GLU         0.0044
     43 CD          6.2480    0.0730   -2.6710 C.2       1 GLU         0.0350
     44 OE1         7.0610    0.2500   -3.6020 O.co2     1 GLU        -0.5690
     45 OE2         6.1720    0.8250   -1.6760 O.co2     1 GLU        -0.5690
     46 N           3.2980   -2.5180   -6.0360 N.am      1 SER        -0.2616
     47 CA          3.2640   -3.7950   -6.7390 C.3       1 SER         0.1539
     48 C           2.0320   -3.8880   -7.6340 C.2       1 SER         0.2062
     49 O           1.1750   -3.0040   -7.6190 O.2       1 SER        -0.3943
     50 CB          3.2710   -4.9530   -5.7390 C.3       1 SER         0.0843
     51 OG          2.3060   -4.7540   -4.7200 O.3       1 SER        -0.3903
     52 N           1.9480   -4.9620   -8.4110 N.am      1 VAL        -0.2634
     53 CA          0.8190   -5.1670   -9.3120 C.3       1 VAL         0.1333
     54 C          -0.4650   -5.4410   -8.5310 C.2       1 VAL         0.2041
     55 O          -1.5590   -5.0990   -8.9770 O.2       1 VAL        -0.3944
     56 CB          1.0880   -6.3330  -10.2870 C.3       1 VAL        -0.0063
     57 CG1        -0.0290   -6.4470  -11.3170 C.3       1 VAL        -0.0584
     58 CG2         2.4360   -6.1510  -10.9690 C.3       1 VAL        -0.0584
     59 N          -0.3220   -6.0610   -7.3630 N.am      1 ALA        -0.2640
     60 CA         -1.4700   -6.3810   -6.5220 C.3       1 ALA         0.1282
     61 C          -2.0350   -5.1300   -5.8580 C.2       1 ALA         0.2036
     62 O          -3.2510   -4.9740   -5.7380 O.2       1 ALA        -0.3944
     63 CB         -1.0800   -7.4090   -5.4710 C.3       1 ALA        -0.0244
     64 N          -1.1450   -4.2440   -5.4230 N.am      1 ALA        -0.2640
     65 CA         -1.5490   -3.0060   -4.7630 C.3       1 ALA         0.1282
     66 C          -2.4820   -2.1740   -5.6390 C.2       1 ALA         0.2036
     67 O          -3.4470   -1.5860   -5.1490 O.2       1 ALA        -0.3944
     68 CB         -0.3220   -2.1910   -4.3800 C.3       1 ALA        -0.0244
     69 N          -2.1900   -2.1230   -6.9350 N.am      1 LEU        -0.2637
     70 CA         -3.0060   -1.3570   -7.8710 C.3       1 LEU         0.1312
     71 C          -4.4490   -1.8630   -7.8810 C.2       1 LEU         0.2039
     72 O          -5.3940   -1.0750   -7.8760 O.2       1 LEU        -0.3944
     73 CB         -2.4000   -1.4200   -9.2810 C.3       1 LEU        -0.0101
     74 CG         -2.2750   -0.0680   -9.9900 C.3       1 LEU        -0.0425
     75 CD1        -1.2500   -0.1410  -11.1110 C.3       1 LEU        -0.0625
     76 CD2        -3.6260    0.3770  -10.5310 C.3       1 LEU        -0.0625
     77 N          -4.6060   -3.1840   -7.8960 N.am      1 ARG        -0.2637
     78 CA         -5.9310   -3.7940   -7.9070 C.3       1 ARG         0.1311
     79 C          -6.6820   -3.4880   -6.6150 C.2       1 ARG         0.2039
     80 O          -7.8240   -3.0280   -6.6430 O.2       1 ARG        -0.3944
     81 CB         -5.8150   -5.3070   -8.0960 C.3       1 ARG        -0.0092
     82 CG         -5.5960   -5.7240   -9.5410 C.3       1 ARG        -0.0156
     83 CD         -5.8790   -7.2040   -9.7430 C.3       1 ARG         0.0627
     84 NE         -4.7680   -8.0410   -9.2900 N.pl3     1 ARG        -0.2723
     85 CZ         -4.8760   -9.3420   -9.0020 C.cat     1 ARG         0.2882
     86 NH1        -6.0410   -9.9720   -9.1140 N.pl3     1 ARG        -0.2849
     87 NH2        -3.8070  -10.0150   -8.5990 N.pl3     1 ARG        -0.2849
     88 N          -6.0350   -3.7480   -5.4840 N.am      1 ARG        -0.2637
     89 CA         -6.6420   -3.5000   -4.1810 C.3       1 ARG         0.1311
     90 C          -7.0050   -2.0290   -4.0150 C.2       1 ARG         0.2039
     91 O          -8.0600   -1.6960   -3.4740 O.2       1 ARG        -0.3944
     92 CB         -5.6920   -3.9320   -3.0620 C.3       1 ARG        -0.0092
     93 CG         -5.5610   -5.4400   -2.9230 C.3       1 ARG        -0.0156
     94 CD         -5.1450   -5.8340   -1.5150 C.3       1 ARG         0.0627
     95 NE         -3.7250   -5.5790   -1.2700 N.pl3     1 ARG        -0.2723
     96 CZ         -3.1630   -5.5520   -0.0580 C.cat     1 ARG         0.2882
     97 NH1        -3.8890   -5.7630    1.0360 N.pl3     1 ARG        -0.2849
     98 NH2        -1.8650   -5.3100    0.0590 N.pl3     1 ARG        -0.2849
     99 N          -6.1230   -1.1500   -4.4820 N.am      1 CYS        -0.2629
    100 CA         -6.3510    0.2880   -4.3840 C.3       1 CYS         0.1406
    101 C          -7.5860    0.7010   -5.1800 C.2       1 CYS         0.2047
    102 O          -8.4360    1.4420   -4.6840 O.2       1 CYS        -0.3944
    103 CB         -5.1260    1.0550   -4.8860 C.3       1 CYS         0.0443
    104 SG         -3.7240    1.0590   -3.7230 S.3       1 CYS        -0.0882
    105 N          -7.6780    0.2180   -6.4140 N.am      1 MET        -0.2637
    106 CA         -8.8080    0.5390   -7.2780 C.3       1 MET         0.1317
    107 C         -10.0700   -0.1900   -6.8220 C.2       1 MET         0.2040
    108 O         -11.1170    0.4260   -6.6280 O.2       1 MET        -0.3944
    109 CB         -8.4910    0.1700   -8.7290 C.3       1 MET        -0.0034
    110 CG         -9.4440    0.7910   -9.7360 C.3       1 MET        -0.0024
    111 SD         -9.1860    0.1690  -11.4080 S.3       1 MET        -0.1639
    112 CE        -10.3360   -1.2040  -11.4410 C.3       1 MET        -0.0181
    113 N          -9.9600   -1.5030   -6.6560 N.am      1 TYR        -0.2621
    114 CA        -11.0910   -2.3160   -6.2250 C.3       1 TYR         0.1390
    115 C         -11.3920   -2.0890   -4.7430 C.2       1 TYR         0.2050
    116 O         -11.1490   -2.9580   -3.9040 O.2       1 TYR        -0.3943
    117 CB        -10.8100   -3.7990   -6.4900 C.3       1 TYR         0.0163
    118 CG        -10.9930   -4.2000   -7.9370 C.ar      1 TYR        -0.0493
    119 CD1       -12.2600   -4.4370   -8.4570 C.ar      1 TYR        -0.0685
    120 CD2        -9.8990   -4.3440   -8.7810 C.ar      1 TYR        -0.0685
    121 CE1       -12.4310   -4.8030   -9.7780 C.ar      1 TYR        -0.0398
    122 CE2       -10.0630   -4.7100  -10.1050 C.ar      1 TYR        -0.0398
    123 CZ        -11.3300   -4.9390  -10.5970 C.ar      1 TYR         0.0805
    124 OH        -11.4980   -5.3040  -11.9130 O.3       1 TYR        -0.3376
    125 N         -11.9230   -0.9120   -4.4290 N.am      1 GLY        -0.2720
    126 CA        -12.2480   -0.5870   -3.0540 C.3       1 GLY         0.0833
    127 C         -13.4330    0.3540   -2.9430 C.2       1 GLY         0.0570
    128 O         -14.3550    0.2470   -3.7780 O.co2     1 GLY        -0.5669
    129 OXT       -13.4360    1.1980   -2.0230 O.co2     1 GLY        -0.5669
    130 H1         -1.2882    2.5912    3.7591 H         1 ARG         0.2015
    131 H2         -1.8147    2.2129    2.2462 H         1 ARG         0.2015
    132 H3         -1.6247    3.7890    2.6813 H         1 ARG         0.2015
    133 H4          0.7480    3.5254    2.8994 H         1 ARG         0.1098
    134 H5          0.7395    1.1985    3.5878 H         1 ARG         0.0347
    135 H6          1.7061    1.3567    2.0820 H         1 ARG         0.0347
    136 H7         -0.6786    0.7594    0.9872 H         1 ARG         0.0302
    137 H8         -0.8907   -0.0445    2.5796 H         1 ARG         0.0302
    138 H9          1.3281   -0.5031    0.5393 H         1 ARG         0.0689
    139 H10         0.0363   -1.6493    1.0333 H         1 ARG         0.0689
    140 H11         1.2988   -1.1566    3.4132 H         1 ARG         0.2642
    141 H12         3.9262   -2.9144    0.8424 H         1 ARG         0.2615
    142 H13         2.5193   -2.0378    0.1829 H         1 ARG         0.2615
    143 H14         3.0881   -2.2726    4.2182 H         1 ARG         0.2615
    144 H15         4.2443   -3.0441    3.0998 H         1 ARG         0.2615
    145 H16         2.2211    2.8543    0.8444 H         1 ASN         0.1886
    146 H17         1.2698    4.5097   -1.2859 H         1 ASN         0.0826
    147 H18         3.3038    3.4053   -2.5097 H         1 ASN         0.0551
    148 H19         3.6395    2.6554   -0.9123 H         1 ASN         0.0551
    149 H20         4.8140    5.5921    0.6176 H         1 ASN         0.1814
    150 H21         4.2789    3.9586    0.8301 H         1 ASN         0.1814
    151 H22         0.2467    4.0650   -3.1391 H         1 CYS         0.1884
    152 H23        -0.8906    1.3838   -3.4656 H         1 CYS         0.0808
    153 H24        -1.8209    2.6390   -5.6185 H         1 CYS         0.0432
    154 H25        -1.2924    4.0968   -4.7118 H         1 CYS         0.0432
    155 H26         1.3705    3.5321   -5.1938 H         1 PHE         0.1885
    156 H27         1.7792    1.5654   -7.3228 H         1 PHE         0.0823
    157 H28         3.5704    3.1996   -8.0527 H         1 PHE         0.0474
    158 H29         3.1085    4.2258   -6.6527 H         1 PHE         0.0474
    159 H30         0.9043    2.2701   -8.9604 H         1 PHE         0.0557
    160 H31         2.1797    6.1224   -7.6442 H         1 PHE         0.0557
    161 H32        -0.8618    3.3138  -10.3159 H         1 PHE         0.0599
    162 H33         0.4126    7.1706   -8.9979 H         1 PHE         0.0599
    163 H34        -1.1143    5.7669  -10.3361 H         1 PHE         0.0559
    164 H35         2.3476   -0.1227   -5.7025 H         1 GLU         0.1883
    165 H36         5.2806   -0.0224   -5.1368 H         1 GLU         0.0801
    166 H37         3.3721   -1.6729   -3.4687 H         1 GLU         0.0330
    167 H38         3.5756    0.0799   -3.1326 H         1 GLU         0.0330
    168 H39         5.8405   -1.9529   -3.2258 H         1 GLU         0.0433
    169 H40         5.0130   -1.3995   -1.7305 H         1 GLU         0.0433
    170 H41         2.4381   -2.1031   -5.7386 H         1 SER         0.1884
    171 H42         4.1618   -3.8697   -7.3701 H         1 SER         0.0823
    172 H43         4.2681   -5.0252   -5.2801 H         1 SER         0.0606
    173 H44         3.0436   -5.8885   -6.2712 H         1 SER         0.0606
    174 H45         2.3313   -5.4854   -4.1142 H         1 SER         0.2097
    175 H46         2.6762   -5.6466   -8.3776 H         1 VAL         0.1883
    176 H47         0.6793   -4.2477   -9.8997 H         1 VAL         0.0802
    177 H48         1.1176   -7.2676   -9.7077 H         1 VAL         0.0343
    178 H49         0.1850   -7.2832  -11.9989 H         1 VAL         0.0234
    179 H50        -0.0939   -5.5119  -11.8926 H         1 VAL         0.0234
    180 H51        -0.9845   -6.6284  -10.8031 H         1 VAL         0.0234
    181 H52         3.2249   -6.0713  -10.2065 H         1 VAL         0.0234
    182 H53         2.4189   -5.2339  -11.5761 H         1 VAL         0.0234
    183 H54         2.6388   -7.0162  -11.6173 H         1 VAL         0.0234
    184 H55         0.5948   -6.3139   -7.0539 H         1 ALA         0.1883
    185 H56        -2.2539   -6.8157   -7.1596 H         1 ALA         0.0797
    186 H57        -1.9533   -7.6417   -4.8439 H         1 ALA         0.0277
    187 H58        -0.2746   -7.0026   -4.8417 H         1 ALA         0.0277
    188 H59        -0.7302   -8.3262   -5.9673 H         1 ALA         0.0277
    189 H60        -0.1710   -4.4306   -5.5514 H         1 ALA         0.1883
    190 H61        -2.0908   -3.2708   -3.8431 H         1 ALA         0.0797
    191 H62        -0.6392   -1.2618   -3.8841 H         1 ALA         0.0277
    192 H63         0.2525   -1.9457   -5.2854 H         1 ALA         0.0277
    193 H64         0.3074   -2.7764   -3.6936 H         1 ALA         0.0277
    194 H65        -1.3928   -2.6211   -7.2761 H         1 LEU         0.1883
    195 H66        -3.0124   -0.3069   -7.5437 H         1 LEU         0.0800
    196 H67        -3.0364   -2.0717   -9.8977 H         1 LEU         0.0315
    197 H68        -1.3943   -1.8584   -9.2015 H         1 LEU         0.0315
    198 H69        -1.9329    0.6769   -9.2565 H         1 LEU         0.0298
    199 H70        -1.1768    0.8390  -11.6053 H         1 LEU         0.0232
    200 H71        -1.5620   -0.8992  -11.8444 H         1 LEU         0.0232
    201 H72        -0.2697   -0.4155  -10.6942 H         1 LEU         0.0232
    202 H73        -4.3534    0.4239   -9.7072 H         1 LEU         0.0232
    203 H74        -3.9737   -0.3429  -11.2865 H         1 LEU         0.0232
    204 H75        -3.5275    1.3717  -10.9902 H         1 LEU         0.0232
    205 H76        -3.7973   -3.7722   -7.8998 H         1 ARG         0.1883
    206 H77        -6.5005   -3.3761   -8.7502 H         1 ARG         0.0800
    207 H78        -6.7431   -5.7748   -7.7358 H         1 ARG         0.0313
    208 H79        -4.9660   -5.6683   -7.4972 H         1 ARG         0.0313
    209 H80        -4.5514   -5.5189   -9.8178 H         1 ARG         0.0301
    210 H81        -6.2680   -5.1402  -10.1872 H         1 ARG         0.0301
    211 H82        -6.0502   -7.3900  -10.8135 H         1 ARG         0.0689
    212 H83        -6.7815   -7.4738   -9.1750 H         1 ARG         0.0689
    213 H84        -3.8432   -7.5996   -9.1863 H         1 ARG         0.2642
    214 H85        -6.1080  -10.9747   -8.8884 H         1 ARG         0.2615
    215 H86        -6.8768   -9.4575   -9.4264 H         1 ARG         0.2615
    216 H87        -2.9000   -9.5352   -8.5092 H         1 ARG         0.2615
    217 H88        -3.8836  -11.0176   -8.3757 H         1 ARG         0.2615
    218 H89        -5.1090   -4.1230   -5.5271 H         1 ARG         0.1883
    219 H90        -7.5636   -4.0962   -4.1087 H         1 ARG         0.0800
    220 H91        -6.0677   -3.5265   -2.1110 H         1 ARG         0.0313
    221 H92        -4.6961   -3.5143   -3.2708 H         1 ARG         0.0313
    222 H93        -4.8029   -5.8003   -3.6340 H         1 ARG         0.0301
    223 H94        -6.5304   -5.9060   -3.1532 H         1 ARG         0.0301
    224 H95        -5.3424   -6.9069   -1.3737 H         1 ARG         0.0689
    225 H96        -5.7393   -5.2537   -0.7939 H         1 ARG         0.0689
    226 H97        -3.1189   -5.4092   -2.0853 H         1 ARG         0.2642
    227 H98        -3.4417   -5.7390    1.9635 H         1 ARG         0.2615
    228 H99        -4.8986   -5.9504    0.9559 H         1 ARG         0.2615
    229 H100       -1.2940   -5.1453   -0.7822 H         1 ARG         0.2615
    230 H101       -1.4274   -5.2867    0.9912 H         1 ARG         0.2615
    231 H102       -5.2830   -1.4826   -4.9108 H         1 CYS         0.1884
    232 H103       -6.5160    0.5426   -3.3267 H         1 CYS         0.0808
    233 H104       -5.4234    2.0975   -5.0722 H         1 CYS         0.0432
    234 H105       -4.7923    0.5950   -5.8278 H         1 CYS         0.0432
    235 H106       -6.9547   -0.3803   -6.7589 H         1 MET         0.1883
    236 H107       -8.9910    1.6223   -7.2226 H         1 MET         0.0800
    237 H108       -8.5437   -0.9241   -8.8292 H         1 MET         0.0320
    238 H109       -7.4708    0.5107   -8.9597 H         1 MET         0.0320
    239 H110       -9.2935    1.8806   -9.7382 H         1 MET         0.0378
    240 H111      -10.4762    0.5640   -9.4309 H         1 MET         0.0378
    241 H112      -10.2916   -1.6959  -12.4239 H         1 MET         0.0340
    242 H113      -11.3559   -0.8325  -11.2628 H         1 MET         0.0340
    243 H114      -10.0667   -1.9268  -10.6567 H         1 MET         0.0340
    244 H115       -9.0801   -1.9448   -6.8309 H         1 TYR         0.1885
    245 H116      -11.9749   -2.0184   -6.8082 H         1 TYR         0.0821
    246 H117      -11.4957   -4.3987   -5.8734 H         1 TYR         0.0453
    247 H118       -9.7714   -4.0139   -6.1981 H         1 TYR         0.0453
    248 H119      -13.1278   -4.3330   -7.8157 H         1 TYR         0.0530
    249 H120       -8.9012   -4.1668   -8.3961 H         1 TYR         0.0530
    250 H121      -13.4260   -4.9824  -10.1689 H         1 TYR         0.0525
    251 H122       -9.1997   -4.8161  -10.7520 H         1 TYR         0.0525
    252 H123      -12.4234   -5.4230  -12.0918 H         1 TYR         0.2458
    253 H124      -12.1006   -0.2422   -5.1500 H         1 GLY         0.1873
    254 H125      -11.3735   -0.1091   -2.5885 H         1 GLY         0.0689
    255 H126      -12.4856   -1.5179   -2.5183 H         1 GLY         0.0689
@<TRIPOS>BOND
     1    1    2 1  
     2    2    3 1  
     3    2    5 1  
     4    3    4 2  
     5    3   12 am 
     6    5    6 1  
     7    6    7 1  
     8    7    8 1  
     9    8    9 ar 
    10    9   10 ar 
    11    9   11 ar 
    12   12   13 1  
    13   13   14 1  
    14   13   16 1  
    15   14   15 2  
    16   14   20 am 
    17   16   17 1  
    18   17   18 2  
    19   17   19 am 
    20   20   21 1  
    21   21   22 1  
    22   21   24 1  
    23   22   23 2  
    24   22   26 am 
    25   24   25 1  
    26   25  104 1  
    27   26   27 1  
    28   27   28 1  
    29   27   30 1  
    30   28   29 2  
    31   28   37 am 
    32   30   31 1  
    33   31   32 ar 
    34   31   33 ar 
    35   32   34 ar 
    36   33   35 ar 
    37   34   36 ar 
    38   35   36 ar 
    39   37   38 1  
    40   38   39 1  
    41   38   41 1  
    42   39   40 2  
    43   39   46 am 
    44   41   42 1  
    45   42   43 1  
    46   43   44 ar 
    47   43   45 ar 
    48   46   47 1  
    49   47   48 1  
    50   47   50 1  
    51   48   49 2  
    52   48   52 am 
    53   50   51 1  
    54   52   53 1  
    55   53   54 1  
    56   53   56 1  
    57   54   55 2  
    58   54   59 am 
    59   56   57 1  
    60   56   58 1  
    61   59   60 1  
    62   60   61 1  
    63   60   63 1  
    64   61   62 2  
    65   61   64 am 
    66   64   65 1  
    67   65   66 1  
    68   65   68 1  
    69   66   67 2  
    70   66   69 am 
    71   69   70 1  
    72   70   71 1  
    73   70   73 1  
    74   71   72 2  
    75   71   77 am 
    76   73   74 1  
    77   74   75 1  
    78   74   76 1  
    79   77   78 1  
    80   78   79 1  
    81   78   81 1  
    82   79   80 2  
    83   79   88 am 
    84   81   82 1  
    85   82   83 1  
    86   83   84 1  
    87   84   85 ar 
    88   85   86 ar 
    89   85   87 ar 
    90   88   89 1  
    91   89   90 1  
    92   89   92 1  
    93   90   91 2  
    94   90   99 am 
    95   92   93 1  
    96   93   94 1  
    97   94   95 1  
    98   95   96 ar 
    99   96   97 ar 
   100   96   98 ar 
   101   99  100 1  
   102  100  101 1  
   103  100  103 1  
   104  101  102 2  
   105  101  105 am 
   106  103  104 1  
   107  105  106 1  
   108  106  107 1  
   109  106  109 1  
   110  107  108 2  
   111  107  113 am 
   112  109  110 1  
   113  110  111 1  
   114  111  112 1  
   115  113  114 1  
   116  114  115 1  
   117  114  117 1  
   118  115  116 2  
   119  115  125 am 
   120  117  118 1  
   121  118  119 ar 
   122  118  120 ar 
   123  119  121 ar 
   124  120  122 ar 
   125  121  123 ar 
   126  122  123 ar 
   127  123  124 1  
   128  125  126 1  
   129  126  127 1  
   130  127  128 ar 
   131  127  129 ar 
   132    1  130 1  
   133    1  131 1  
   134    1  132 1  
   135    2  133 1  
   136    5  134 1  
   137    5  135 1  
   138    6  136 1  
   139    6  137 1  
   140    7  138 1  
   141    7  139 1  
   142    8  140 1  
   143   10  141 1  
   144   10  142 1  
   145   11  143 1  
   146   11  144 1  
   147   12  145 1  
   148   13  146 1  
   149   16  147 1  
   150   16  148 1  
   151   19  149 1  
   152   19  150 1  
   153   20  151 1  
   154   21  152 1  
   155   24  153 1  
   156   24  154 1  
   157   26  155 1  
   158   27  156 1  
   159   30  157 1  
   160   30  158 1  
   161   32  159 1  
   162   33  160 1  
   163   34  161 1  
   164   35  162 1  
   165   36  163 1  
   166   37  164 1  
   167   38  165 1  
   168   41  166 1  
   169   41  167 1  
   170   42  168 1  
   171   42  169 1  
   172   46  170 1  
   173   47  171 1  
   174   50  172 1  
   175   50  173 1  
   176   51  174 1  
   177   52  175 1  
   178   53  176 1  
   179   56  177 1  
   180   57  178 1  
   181   57  179 1  
   182   57  180 1  
   183   58  181 1  
   184   58  182 1  
   185   58  183 1  
   186   59  184 1  
   187   60  185 1  
   188   63  186 1  
   189   63  187 1  
   190   63  188 1  
   191   64  189 1  
   192   65  190 1  
   193   68  191 1  
   194   68  192 1  
   195   68  193 1  
   196   69  194 1  
   197   70  195 1  
   198   73  196 1  
   199   73  197 1  
   200   74  198 1  
   201   75  199 1  
   202   75  200 1  
   203   75  201 1  
   204   76  202 1  
   205   76  203 1  
   206   76  204 1  
   207   77  205 1  
   208   78  206 1  
   209   81  207 1  
   210   81  208 1  
   211   82  209 1  
   212   82  210 1  
   213   83  211 1  
   214   83  212 1  
   215   84  213 1  
   216   86  214 1  
   217   86  215 1  
   218   87  216 1  
   219   87  217 1  
   220   88  218 1  
   221   89  219 1  
   222   92  220 1  
   223   92  221 1  
   224   93  222 1  
   225   93  223 1  
   226   94  224 1  
   227   94  225 1  
   228   95  226 1  
   229   97  227 1  
   230   97  228 1  
   231   98  229 1  
   232   98  230 1  
   233   99  231 1  
   234  100  232 1  
   235  103  233 1  
   236  103  234 1  
   237  105  235 1  
   238  106  236 1  
   239  109  237 1  
   240  109  238 1  
   241  110  239 1  
   242  110  240 1  
   243  112  241 1  
   244  112  242 1  
   245  112  243 1  
   246  113  244 1  
   247  114  245 1  
   248  117  246 1  
   249  117  247 1  
   250  119  248 1  
   251  120  249 1  
   252  121  250 1  
   253  122  251 1  
   254  124  252 1  
   255  125  253 1  
   256  126  254 1  
   257  126  255 1  
@<TRIPOS>SUBSTRUCTURE
     1 ARG         1

