1pmx_ligand
  -I-interpret- 

254256  0  0  0  0  0  0  0  0999 V2000
   -1.2580    2.8560    2.7870 N   0  3  0  0  0
    0.1480    2.8190    2.3070 C   0  0  0  0  0
    0.2380    3.2140    0.8370 C   0  0  0  0  0
   -0.7620    3.5710    0.2160 O   0  0  0  0  0
    0.6930    1.4030    2.5080 C   0  0  0  0  0
   -0.1540    0.3250    1.8510 C   0  0  0  0  0
    0.6990   -0.8410    1.3760 C   0  0  0  0  0
    1.5630   -1.3570    2.4380 N   0  0  0  0  0
    2.6720   -2.0710    2.2260 C   0  0  0  0  0
    3.0690   -2.3630    0.9910 N   0  0  0  0  0
    3.3880   -2.4940    3.2580 N   0  0  0  0  0
    1.4460    3.1500    0.2860 N   0  0  0  0  0
    1.6700    3.5000   -1.1120 C   0  0  0  0  0
    0.9500    2.5280   -2.0410 C   0  0  0  0  0
    1.0160    1.3120   -1.8540 O   0  0  0  0  0
    3.1680    3.5080   -1.4230 C   0  0  0  0  0
    3.8460    4.7850   -0.9660 C   0  0  0  0  0
    3.9130    5.7660   -1.7060 O   0  0  0  0  0
    4.3550    4.7780    0.2620 N   0  0  0  0  0
    0.2630    3.0700   -3.0410 N   0  0  0  0  0
   -0.4680    2.2480   -3.9990 C   0  0  0  0  0
    0.4590    1.7350   -5.0960 C   0  0  0  0  0
    0.3720    0.5780   -5.5050 O   0  0  0  0  0
   -1.6140    3.0490   -4.6190 C   0  0  0  0  0
   -3.1600    3.0080   -3.6520 S   0  0  0  0  0
    1.3480    2.6050   -5.5680 N   0  0  0  0  0
    2.2900    2.2380   -6.6180 C   0  0  0  0  0
    3.4940    1.5000   -6.0350 C   0  0  0  0  0
    4.6000    2.0400   -5.9680 O   0  0  0  0  0
    2.7470    3.4860   -7.3820 C   0  0  0  0  0
    1.6630    4.1250   -8.2080 C   0  0  0  0  0
    0.7990    3.3490   -8.9660 C   0  0  0  0  0
    1.5120    5.5010   -8.2300 C   0  0  0  0  0
   -0.1940    3.9330   -9.7280 C   0  0  0  0  0
    0.5200    6.0920   -8.9900 C   0  0  0  0  0
   -0.3350    5.3060   -9.7400 C   0  0  0  0  0
    3.2680    0.2590   -5.6180 N   0  0  0  0  0
    4.3270   -0.5620   -5.0400 C   0  0  0  0  0
    4.4410   -1.8910   -5.7800 C   0  0  0  0  0
    5.5400   -2.3370   -6.1140 O   0  0  0  0  0
    4.0550   -0.8150   -3.5560 C   0  0  0  0  0
    5.3090   -1.1150   -2.7510 C   0  0  0  0  0
    6.2480    0.0730   -2.6710 C   0  0  0  0  0
    7.0610    0.2500   -3.6020 O   0  0  0  0  0
    6.1720    0.8250   -1.6760 O   0  0  0  0  0
    3.2980   -2.5180   -6.0360 N   0  0  0  0  0
    3.2640   -3.7950   -6.7390 C   0  0  0  0  0
    2.0320   -3.8880   -7.6340 C   0  0  0  0  0
    1.1750   -3.0040   -7.6190 O   0  0  0  0  0
    3.2710   -4.9530   -5.7390 C   0  0  0  0  0
    2.3060   -4.7540   -4.7200 O   0  0  0  0  0
    1.9480   -4.9620   -8.4110 N   0  0  0  0  0
    0.8190   -5.1670   -9.3120 C   0  0  0  0  0
   -0.4650   -5.4410   -8.5310 C   0  0  0  0  0
   -1.5590   -5.0990   -8.9770 O   0  0  0  0  0
    1.0880   -6.3330  -10.2870 C   0  0  0  0  0
   -0.0290   -6.4470  -11.3170 C   0  0  0  0  0
    2.4360   -6.1510  -10.9690 C   0  0  0  0  0
   -0.3220   -6.0610   -7.3630 N   0  0  0  0  0
   -1.4700   -6.3810   -6.5220 C   0  0  0  0  0
   -2.0350   -5.1300   -5.8580 C   0  0  0  0  0
   -3.2510   -4.9740   -5.7380 O   0  0  0  0  0
   -1.0800   -7.4090   -5.4710 C   0  0  0  0  0
   -1.1450   -4.2440   -5.4230 N   0  0  0  0  0
   -1.5490   -3.0060   -4.7630 C   0  0  0  0  0
   -2.4820   -2.1740   -5.6390 C   0  0  0  0  0
   -3.4470   -1.5860   -5.1490 O   0  0  0  0  0
   -0.3220   -2.1910   -4.3800 C   0  0  0  0  0
   -2.1900   -2.1230   -6.9350 N   0  0  0  0  0
   -3.0060   -1.3570   -7.8710 C   0  0  0  0  0
   -4.4490   -1.8630   -7.8810 C   0  0  0  0  0
   -5.3940   -1.0750   -7.8760 O   0  0  0  0  0
   -2.4000   -1.4200   -9.2810 C   0  0  0  0  0
   -2.2750   -0.0680   -9.9900 C   0  0  0  0  0
   -1.2500   -0.1410  -11.1110 C   0  0  0  0  0
   -3.6260    0.3770  -10.5310 C   0  0  0  0  0
   -4.6060   -3.1840   -7.8960 N   0  0  0  0  0
   -5.9310   -3.7940   -7.9070 C   0  0  0  0  0
   -6.6820   -3.4880   -6.6150 C   0  0  0  0  0
   -7.8240   -3.0280   -6.6430 O   0  0  0  0  0
   -5.8150   -5.3070   -8.0960 C   0  0  0  0  0
   -5.5960   -5.7240   -9.5410 C   0  0  0  0  0
   -5.8790   -7.2040   -9.7430 C   0  0  0  0  0
   -4.7680   -8.0410   -9.2900 N   0  0  0  0  0
   -4.8760   -9.3420   -9.0020 C   0  0  0  0  0
   -6.0410   -9.9720   -9.1140 N   0  0  0  0  0
   -3.8070  -10.0150   -8.5990 N   0  0  0  0  0
   -6.0350   -3.7480   -5.4840 N   0  0  0  0  0
   -6.6420   -3.5000   -4.1810 C   0  0  0  0  0
   -7.0050   -2.0290   -4.0150 C   0  0  0  0  0
   -8.0600   -1.6960   -3.4740 O   0  0  0  0  0
   -5.6920   -3.9320   -3.0620 C   0  0  0  0  0
   -5.5610   -5.4400   -2.9230 C   0  0  0  0  0
   -5.1450   -5.8340   -1.5150 C   0  0  0  0  0
   -3.7250   -5.5790   -1.2700 N   0  0  0  0  0
   -3.1630   -5.5520   -0.0580 C   0  0  0  0  0
   -3.8890   -5.7630    1.0360 N   0  0  0  0  0
   -1.8650   -5.3100    0.0590 N   0  0  0  0  0
   -6.1230   -1.1500   -4.4820 N   0  0  0  0  0
   -6.3510    0.2880   -4.3840 C   0  0  0  0  0
   -7.5860    0.7010   -5.1800 C   0  0  0  0  0
   -8.4360    1.4420   -4.6840 O   0  0  0  0  0
   -5.1260    1.0550   -4.8860 C   0  0  0  0  0
   -3.7240    1.0590   -3.7230 S   0  0  0  0  0
   -7.6780    0.2180   -6.4140 N   0  0  0  0  0
   -8.8080    0.5390   -7.2780 C   0  0  0  0  0
  -10.0700   -0.1900   -6.8220 C   0  0  0  0  0
  -11.1170    0.4260   -6.6280 O   0  0  0  0  0
   -8.4910    0.1700   -8.7290 C   0  0  0  0  0
   -9.4440    0.7910   -9.7360 C   0  0  0  0  0
   -9.1860    0.1690  -11.4080 S   0  0  0  0  0
  -10.3360   -1.2040  -11.4410 C   0  0  0  0  0
   -9.9600   -1.5030   -6.6560 N   0  0  0  0  0
  -11.0910   -2.3160   -6.2250 C   0  0  0  0  0
  -11.3920   -2.0890   -4.7430 C   0  0  0  0  0
  -11.1490   -2.9580   -3.9040 O   0  0  0  0  0
  -10.8100   -3.7990   -6.4900 C   0  0  0  0  0
  -10.9930   -4.2000   -7.9370 C   0  0  0  0  0
  -12.2600   -4.4370   -8.4570 C   0  0  0  0  0
   -9.8990   -4.3440   -8.7810 C   0  0  0  0  0
  -12.4310   -4.8030   -9.7780 C   0  0  0  0  0
  -10.0630   -4.7100  -10.1050 C   0  0  0  0  0
  -11.3300   -4.9390  -10.5970 C   0  0  0  0  0
  -11.4980   -5.3040  -11.9130 O   0  0  0  0  0
  -11.9230   -0.9120   -4.4290 N   0  0  0  0  0
  -12.2480   -0.5870   -3.0540 C   0  0  0  0  0
  -13.4330    0.3540   -2.9430 C   0  0  0  0  0
  -14.3550    0.2470   -3.7780 O   0  0  0  0  0
  -13.4360    1.1980   -2.0230 O   0  0  0  0  0
   -1.6351    3.7951    2.6591 H   0  0  0  0  0
   -1.8157    2.1889    2.2538 H   0  0  0  0  0
   -1.2848    2.6093    3.7764 H   0  0  0  0  0
    0.7409    3.5350    2.8762 H   0  0  0  0  0
    0.6998    1.2049    3.5798 H   0  0  0  0  0
    1.6816    1.3656    2.0504 H   0  0  0  0  0
   -0.6570    0.7595    0.9871 H   0  0  0  0  0
   -0.8697   -0.0467    2.5843 H   0  0  0  0  0
    1.3328   -0.4899    0.5616 H   0  0  0  0  0
    0.0329   -1.6434    1.0587 H   0  0  0  0  0
    1.3014   -1.1585    3.4037 H   0  0  0  0  0
    3.9183   -2.9084    0.8439 H   0  0  0  0  0
    2.5242   -2.0416    0.1908 H   0  0  0  0  0
    3.0915   -2.2741    4.2088 H   0  0  0  0  0
    2.2366    2.8484    0.8555 H   0  0  0  0  0
    1.2654    4.4982   -1.2793 H   0  0  0  0  0
    3.2887    3.4300   -2.5035 H   0  0  0  0  0
    3.6272    2.6738   -0.8926 H   0  0  0  0  0
    4.8237    5.6082    0.6245 H   0  0  0  0  0
    4.2768    3.9424    0.8417 H   0  0  0  0  0
    0.2464    4.0849   -3.1411 H   0  0  0  0  0
   -0.8785    1.3910   -3.4650 H   0  0  0  0  0
   -1.8295    2.6043   -5.5906 H   0  0  0  0  0
   -1.2913    4.0890   -4.6672 H   0  0  0  0  0
    1.3709    3.5506   -5.1863 H   0  0  0  0  0
    1.7839    1.5674   -7.3125 H   0  0  0  0  0
    3.5368    3.1765   -8.0665 H   0  0  0  0  0
    3.0671    4.2201   -6.6426 H   0  0  0  0  0
    0.9049    2.2642   -8.9604 H   0  0  0  0  0
    2.1834    6.1259   -7.6410 H   0  0  0  0  0
   -0.8655    3.3103  -10.3192 H   0  0  0  0  0
    0.4120    7.1766   -8.9979 H   0  0  0  0  0
   -1.1186    5.7695  -10.3394 H   0  0  0  0  0
    2.3292   -0.1304   -5.7041 H   0  0  0  0  0
    5.2691   -0.0231   -5.1410 H   0  0  0  0  0
    3.4052   -1.6873   -3.4866 H   0  0  0  0  0
    3.6118    0.0922   -3.1453 H   0  0  0  0  0
    5.8389   -1.9289   -3.2459 H   0  0  0  0  0
    5.0034   -1.3702   -1.7363 H   0  0  0  0  0
    5.4838    0.5064   -1.0873 H   0  0  0  0  0
    2.4209   -2.0948   -5.7327 H   0  0  0  0  0
    4.1535   -3.8612   -7.3654 H   0  0  0  0  0
    4.2574   -5.0100   -5.2786 H   0  0  0  0  0
    3.0317   -5.8740   -6.2706 H   0  0  0  0  0
    2.3316   -5.4931   -4.1079 H   0  0  0  0  0
    2.6907   -5.6603   -8.3769 H   0  0  0  0  0
    0.6946   -4.2491   -9.8866 H   0  0  0  0  0
    1.1129   -7.2610   -9.7158 H   0  0  0  0  0
   -0.9752   -6.6266  -10.8066 H   0  0  0  0  0
   -0.0923   -5.5198  -11.8866 H   0  0  0  0  0
    0.1842   -7.2758  -11.9921 H   0  0  0  0  0
    2.4366   -5.2137  -11.5255 H   0  0  0  0  0
    3.2230   -6.1280  -10.2152 H   0  0  0  0  0
    2.6106   -6.9814  -11.6532 H   0  0  0  0  0
    0.6131   -6.3190   -7.0477 H   0  0  0  0  0
   -2.2485   -6.8021   -7.1582 H   0  0  0  0  0
   -0.7336   -8.3173   -5.9640 H   0  0  0  0  0
   -0.2819   -7.0051   -4.8481 H   0  0  0  0  0
   -1.9461   -7.6387   -4.8503 H   0  0  0  0  0
   -0.1515   -4.4343   -5.5540 H   0  0  0  0  0
   -2.0983   -3.2768   -3.8613 H   0  0  0  0  0
    0.3008   -2.7721   -3.7000 H   0  0  0  0  0
    0.2464   -1.9487   -5.2779 H   0  0  0  0  0
   -0.6376   -1.2706   -3.8888 H   0  0  0  0  0
   -1.3768   -2.6310   -7.2829 H   0  0  0  0  0
   -3.0178   -0.3176   -7.5431 H   0  0  0  0  0
   -3.0693   -2.0325   -9.8851 H   0  0  0  0  0
   -1.3896   -1.8143   -9.1729 H   0  0  0  0  0
   -1.9340    0.6689   -9.2629 H   0  0  0  0  0
   -0.2792   -0.4131  -10.6968 H   0  0  0  0  0
   -1.5603   -0.8926  -11.8369 H   0  0  0  0  0
   -1.1784    0.8305  -11.6000 H   0  0  0  0  0
   -3.9932   -0.3635  -11.2415 H   0  0  0  0  0
   -4.3324    0.4728   -9.7065 H   0  0  0  0  0
   -3.5166    1.3393  -11.0311 H   0  0  0  0  0
   -3.7811   -3.7839   -7.8999 H   0  0  0  0  0
   -6.4919   -3.3713   -8.7405 H   0  0  0  0  0
   -6.7544   -5.7507   -7.7663 H   0  0  0  0  0
   -4.9500   -5.6427   -7.5240 H   0  0  0  0  0
   -4.5550   -5.5329   -9.8014 H   0  0  0  0  0
   -6.2771   -5.1530  -10.1721 H   0  0  0  0  0
   -6.0265   -7.3806  -10.8084 H   0  0  0  0  0
   -6.7622   -7.4649   -9.1599 H   0  0  0  0  0
   -3.8521   -7.6039   -9.1873 H   0  0  0  0  0
   -6.1073  -10.9650   -8.8907 H   0  0  0  0  0
   -6.8687   -9.4624   -9.4233 H   0  0  0  0  0
   -2.9088   -9.5399   -8.5102 H   0  0  0  0  0
   -5.0905   -4.1305   -5.5280 H   0  0  0  0  0
   -7.5579   -4.0879   -4.1202 H   0  0  0  0  0
   -6.0971   -3.5514   -2.1244 H   0  0  0  0  0
   -4.7041   -3.5390   -3.3022 H   0  0  0  0  0
   -4.7970   -5.7864   -3.6190 H   0  0  0  0  0
   -6.5293   -5.8924   -3.1369 H   0  0  0  0  0
   -5.3250   -6.9021   -1.3932 H   0  0  0  0  0
   -5.7244   -5.2383   -0.8096 H   0  0  0  0  0
   -3.1248   -5.4108   -2.0774 H   0  0  0  0  0
   -3.4463   -5.7378    1.9546 H   0  0  0  0  0
   -4.8885   -5.9501    0.9565 H   0  0  0  0  0
   -1.2998   -5.1454   -0.7740 H   0  0  0  0  0
   -5.2662   -1.4893   -4.9194 H   0  0  0  0  0
   -6.5200    0.5323   -3.3352 H   0  0  0  0  0
   -5.4304    2.0919   -5.0281 H   0  0  0  0  0
   -4.7878    0.5621   -5.7975 H   0  0  0  0  0
   -6.9403   -0.3923   -6.7658 H   0  0  0  0  0
   -8.9860    1.6124   -7.2128 H   0  0  0  0  0
   -8.5809   -0.9126   -8.8182 H   0  0  0  0  0
   -7.4916    0.5442   -8.9507 H   0  0  0  0  0
   -9.2669    1.8665   -9.7468 H   0  0  0  0  0
  -10.4609    0.5372   -9.4366 H   0  0  0  0  0
  -10.0682   -1.9194  -10.6635 H   0  0  0  0  0
  -11.3461   -0.8345  -11.2642 H   0  0  0  0  0
  -10.2910   -1.6906  -12.4153 H   0  0  0  0  0
   -9.0625   -1.9537   -6.8343 H   0  0  0  0  0
  -11.9667   -2.0154   -6.8002 H   0  0  0  0  0
  -11.5195   -4.3772   -5.8981 H   0  0  0  0  0
   -9.7688   -3.9866   -6.2277 H   0  0  0  0  0
  -13.1326   -4.3324   -7.8122 H   0  0  0  0  0
   -8.8957   -4.1658   -8.3940 H   0  0  0  0  0
  -13.4315   -4.9834  -10.1711 H   0  0  0  0  0
   -9.1950   -4.8167  -10.7556 H   0  0  0  0  0
  -10.6406   -5.3540  -12.3420 H   0  0  0  0  0
  -12.1042   -0.2288   -5.1644 H   0  0  0  0  0
  -11.3832   -0.0918   -2.6124 H   0  0  0  0  0
  -12.5058   -1.5139   -2.5416 H   0  0  0  0  0
  -14.1487   -0.4617   -4.3918 H   0  0  0  0  0
  1  2  1  0  0  0
  2  3  1  0  0  0
  2  5  1  0  0  0
  3  4  2  0  0  0
  3 12  1  0  0  0
  5  6  1  0  0  0
  6  7  1  0  0  0
  7  8  1  0  0  0
  8  9  1  0  0  0
  9 10  1  0  0  0
  9 11  2  0  0  0
 12 13  1  0  0  0
 13 14  1  0  0  0
 13 16  1  0  0  0
 14 15  2  0  0  0
 14 20  1  0  0  0
 16 17  1  0  0  0
 17 18  2  0  0  0
 17 19  1  0  0  0
 20 21  1  0  0  0
 21 22  1  0  0  0
 21 24  1  0  0  0
 22 23  2  0  0  0
 22 26  1  0  0  0
 24 25  1  0  0  0
 25104  1  0  0  0
 26 27  1  0  0  0
 27 28  1  0  0  0
 27 30  1  0  0  0
 28 29  2  0  0  0
 28 37  1  0  0  0
 30 31  1  0  0  0
 31 32  4  0  0  0
 31 33  4  0  0  0
 32 34  4  0  0  0
 33 35  4  0  0  0
 34 36  4  0  0  0
 35 36  4  0  0  0
 37 38  1  0  0  0
 38 39  1  0  0  0
 38 41  1  0  0  0
 39 40  2  0  0  0
 39 46  1  0  0  0
 41 42  1  0  0  0
 42 43  1  0  0  0
 43 44  2  0  0  0
 43 45  1  0  0  0
 46 47  1  0  0  0
 47 48  1  0  0  0
 47 50  1  0  0  0
 48 49  2  0  0  0
 48 52  1  0  0  0
 50 51  1  0  0  0
 52 53  1  0  0  0
 53 54  1  0  0  0
 53 56  1  0  0  0
 54 55  2  0  0  0
 54 59  1  0  0  0
 56 57  1  0  0  0
 56 58  1  0  0  0
 59 60  1  0  0  0
 60 61  1  0  0  0
 60 63  1  0  0  0
 61 62  2  0  0  0
 61 64  1  0  0  0
 64 65  1  0  0  0
 65 66  1  0  0  0
 65 68  1  0  0  0
 66 67  2  0  0  0
 66 69  1  0  0  0
 69 70  1  0  0  0
 70 71  1  0  0  0
 70 73  1  0  0  0
 71 72  2  0  0  0
 71 77  1  0  0  0
 73 74  1  0  0  0
 74 75  1  0  0  0
 74 76  1  0  0  0
 77 78  1  0  0  0
 78 79  1  0  0  0
 78 81  1  0  0  0
 79 80  2  0  0  0
 79 88  1  0  0  0
 81 82  1  0  0  0
 82 83  1  0  0  0
 83 84  1  0  0  0
 84 85  1  0  0  0
 85 86  1  0  0  0
 85 87  2  0  0  0
 88 89  1  0  0  0
 89 90  1  0  0  0
 89 92  1  0  0  0
 90 91  2  0  0  0
 90 99  1  0  0  0
 92 93  1  0  0  0
 93 94  1  0  0  0
 94 95  1  0  0  0
 95 96  1  0  0  0
 96 97  1  0  0  0
 96 98  2  0  0  0
 99100  1  0  0  0
100101  1  0  0  0
100103  1  0  0  0
101102  2  0  0  0
101105  1  0  0  0
103104  1  0  0  0
105106  1  0  0  0
106107  1  0  0  0
106109  1  0  0  0
107108  2  0  0  0
107113  1  0  0  0
109110  1  0  0  0
110111  1  0  0  0
111112  1  0  0  0
113114  1  0  0  0
114115  1  0  0  0
114117  1  0  0  0
115116  2  0  0  0
115125  1  0  0  0
117118  1  0  0  0
118119  4  0  0  0
118120  4  0  0  0
119121  4  0  0  0
120122  4  0  0  0
121123  4  0  0  0
122123  4  0  0  0
123124  1  0  0  0
125126  1  0  0  0
126127  1  0  0  0
127128  1  0  0  0
127129  2  0  0  0
  1130  1  0  0  0
  1131  1  0  0  0
  1132  1  0  0  0
  2133  1  0  0  0
  5134  1  0  0  0
  5135  1  0  0  0
  6136  1  0  0  0
  6137  1  0  0  0
  7138  1  0  0  0
  7139  1  0  0  0
  8140  1  0  0  0
 10141  1  0  0  0
 10142  1  0  0  0
 11143  1  0  0  0
 12144  1  0  0  0
 13145  1  0  0  0
 16146  1  0  0  0
 16147  1  0  0  0
 19148  1  0  0  0
 19149  1  0  0  0
 20150  1  0  0  0
 21151  1  0  0  0
 24152  1  0  0  0
 24153  1  0  0  0
 26154  1  0  0  0
 27155  1  0  0  0
 30156  1  0  0  0
 30157  1  0  0  0
 32158  1  0  0  0
 33159  1  0  0  0
 34160  1  0  0  0
 35161  1  0  0  0
 36162  1  0  0  0
 37163  1  0  0  0
 38164  1  0  0  0
 41165  1  0  0  0
 41166  1  0  0  0
 42167  1  0  0  0
 42168  1  0  0  0
 45169  1  0  0  0
 46170  1  0  0  0
 47171  1  0  0  0
 50172  1  0  0  0
 50173  1  0  0  0
 51174  1  0  0  0
 52175  1  0  0  0
 53176  1  0  0  0
 56177  1  0  0  0
 57178  1  0  0  0
 57179  1  0  0  0
 57180  1  0  0  0
 58181  1  0  0  0
 58182  1  0  0  0
 58183  1  0  0  0
 59184  1  0  0  0
 60185  1  0  0  0
 63186  1  0  0  0
 63187  1  0  0  0
 63188  1  0  0  0
 64189  1  0  0  0
 65190  1  0  0  0
 68191  1  0  0  0
 68192  1  0  0  0
 68193  1  0  0  0
 69194  1  0  0  0
 70195  1  0  0  0
 73196  1  0  0  0
 73197  1  0  0  0
 74198  1  0  0  0
 75199  1  0  0  0
 75200  1  0  0  0
 75201  1  0  0  0
 76202  1  0  0  0
 76203  1  0  0  0
 76204  1  0  0  0
 77205  1  0  0  0
 78206  1  0  0  0
 81207  1  0  0  0
 81208  1  0  0  0
 82209  1  0  0  0
 82210  1  0  0  0
 83211  1  0  0  0
 83212  1  0  0  0
 84213  1  0  0  0
 86214  1  0  0  0
 86215  1  0  0  0
 87216  1  0  0  0
 88217  1  0  0  0
 89218  1  0  0  0
 92219  1  0  0  0
 92220  1  0  0  0
 93221  1  0  0  0
 93222  1  0  0  0
 94223  1  0  0  0
 94224  1  0  0  0
 95225  1  0  0  0
 97226  1  0  0  0
 97227  1  0  0  0
 98228  1  0  0  0
 99229  1  0  0  0
100230  1  0  0  0
103231  1  0  0  0
103232  1  0  0  0
105233  1  0  0  0
106234  1  0  0  0
109235  1  0  0  0
109236  1  0  0  0
110237  1  0  0  0
110238  1  0  0  0
112239  1  0  0  0
112240  1  0  0  0
112241  1  0  0  0
113242  1  0  0  0
114243  1  0  0  0
117244  1  0  0  0
117245  1  0  0  0
119246  1  0  0  0
120247  1  0  0  0
121248  1  0  0  0
122249  1  0  0  0
124250  1  0  0  0
125251  1  0  0  0
126252  1  0  0  0
126253  1  0  0  0
128254  1  0  0  0
M  END
$$$$
