4pda_ligand
  -I-interpret- 

 29 30  0  0  0  0  0  0  0  0999 V2000
   52.0290  -19.1730   -4.0200 O   0  0  0  0  0
   53.2460  -18.6110   -4.4880 C   0  0  0  0  0
   53.2110  -18.3750   -5.9770 C   0  0  0  0  0
   53.1310  -19.6440   -6.6750 O   0  0  0  0  0
   52.3650  -19.4990   -7.8530 C   0  0  0  0  0
   51.2060  -20.4190   -7.7850 N   0  0  0  0  0
   50.7990  -20.9530   -6.5930 C   0  0  0  0  0
   49.7530  -21.7880   -6.5280 C   0  0  0  0  0
   49.0860  -22.0990   -7.7490 C   0  0  0  0  0
   49.4750  -21.5870   -8.9170 N   0  0  0  0  0
   50.5330  -20.7450   -8.9680 C   0  0  0  0  0
   50.9200  -20.2520  -10.0390 O   0  0  0  0  0
   48.0370  -22.9250   -7.7490 N   0  0  0  0  0
   51.9400  -18.0320   -7.9550 C   0  0  0  0  0
   52.9010  -17.3400   -8.7390 O   0  0  0  0  0
   52.0180  -17.5920   -6.5000 C   0  0  0  0  0
   52.1660  -16.1920   -6.3420 O   0  0  0  0  0
   52.0850  -19.3100   -3.0715 H   0  0  0  0  0
   54.0546  -19.3082   -4.2684 H   0  0  0  0  0
   53.3970  -17.6529   -3.9906 H   0  0  0  0  0
   54.1198  -17.8008   -6.1573 H   0  0  0  0  0
   52.9338  -19.7568   -8.7463 H   0  0  0  0  0
   51.3352  -20.6946   -5.6798 H   0  0  0  0  0
   49.4251  -22.2126   -5.5792 H   0  0  0  0  0
   47.5614  -23.1454   -8.6240 H   0  0  0  0  0
   50.9658  -17.8556   -8.4109 H   0  0  0  0  0
   52.8366  -17.6303   -9.6518 H   0  0  0  0  0
   51.0982  -17.7939   -5.9510 H   0  0  0  0  0
   52.2089  -15.9794   -5.4068 H   0  0  0  0  0
  1  2  1  0  0  0
  2  3  1  0  0  0
  3  4  1  0  0  0
  3 16  1  0  0  0
  4  5  1  0  0  0
  5  6  1  0  0  0
  5 14  1  0  0  0
  6  7  1  0  0  0
  6 11  1  0  0  0
  7  8  2  0  0  0
  8  9  1  0  0  0
  9 10  4  0  0  0
  9 13  2  0  0  0
 10 11  1  0  0  0
 11 12  2  0  0  0
 14 15  1  0  0  0
 14 16  1  0  0  0
 16 17  1  0  0  0
  1 18  1  0  0  0
  2 19  1  0  0  0
  2 20  1  0  0  0
  3 21  1  0  0  0
  5 22  1  0  0  0
  7 23  1  0  0  0
  8 24  1  0  0  0
 13 25  1  0  0  0
 14 26  1  0  0  0
 15 27  1  0  0  0
 16 28  1  0  0  0
 17 29  1  0  0  0
M  END
$$$$
