### 
### Created by X-TOOL on Mon Sep 10 21:13:16 2018
### 

@<TRIPOS>MOLECULE
2lya_ligand
   82    81     1     0     0
SMALL
GAST_HUCK


@<TRIPOS>ATOM
      1 O1          7.7810   14.4600  -29.1910 O.co2     1 PC8        -0.6177
      2 O2          9.3500   12.5470  -28.8570 O.co2     1 PC8        -0.6177
      3 P1          8.4450   13.6490  -28.1680 P.3       1 PC8         0.2554
      4 O3          9.3720   14.5210  -27.1990 O.3       1 PC8        -0.2488
      5 C1         10.6150   15.0290  -27.7240 C.3       1 PC8         0.1234
      6 C2         11.4130   15.9080  -26.7220 C.3       1 PC8        -0.0017
      7 N1         11.8910   15.2670  -25.4240 N.4       1 PC8         0.2388
      8 C3         12.5730   13.9380  -25.6580 C.3       1 PC8        -0.0417
      9 C4         12.9050   16.2040  -24.8090 C.3       1 PC8        -0.0417
     10 C5         10.7550   15.0700  -24.4450 C.3       1 PC8        -0.0417
     11 O4          7.3640   12.8840  -27.2640 O.3       1 PC8        -0.2511
     12 C6          6.1700   13.6140  -26.8910 C.3       1 PC8         0.1167
     13 C7          4.8520   12.7930  -27.0240 C.3       1 PC8         0.1433
     14 C8          4.9520   11.3480  -26.4820 C.3       1 PC8         0.1098
     15 O5          5.8850   10.5850  -27.2540 O.3       1 PC8        -0.2738
     16 C9          7.0950   10.1170  -26.8340 C.2       1 PC8         0.2338
     17 O6          7.4280   10.1960  -25.6270 O.2       1 PC8        -0.3704
     18 C10         7.9910    9.5460  -27.8610 C.3       1 PC8         0.0487
     19 C11         9.1860    8.7190  -27.3140 C.3       1 PC8        -0.0348
     20 C12        10.1640    8.2800  -28.4370 C.3       1 PC8        -0.0509
     21 C13         9.5080    7.3080  -29.4540 C.3       1 PC8        -0.0529
     22 C14         8.9080    6.0510  -28.7700 C.3       1 PC8        -0.0533
     23 C15         8.4260    4.9880  -29.7920 C.3       1 PC8        -0.0559
     24 C16         8.6980    3.5420  -29.3200 C.3       1 PC8        -0.0653
     25 O7          3.7270   13.4140  -26.3760 O.3       1 PC8        -0.2681
     26 C17         2.4580   12.9250  -26.2320 C.2       1 PC8         0.2341
     27 O8          2.1360   12.2740  -25.2080 O.2       1 PC8        -0.3704
     28 C18         1.4790   13.2140  -27.3040 C.3       1 PC8         0.0487
     29 C19         0.5350   12.0380  -27.6790 C.3       1 PC8        -0.0348
     30 C20        -0.8400   12.1160  -26.9600 C.3       1 PC8        -0.0509
     31 C21        -0.8970   11.2230  -25.6920 C.3       1 PC8        -0.0529
     32 C22        -1.2470   12.0200  -24.4060 C.3       1 PC8        -0.0533
     33 C23        -1.5910   11.0940  -23.2090 C.3       1 PC8        -0.0559
     34 C24        -2.9560   10.3880  -23.3670 C.3       1 PC8        -0.0653
     35 H1         10.3922   15.6353  -28.6144 H         1 PC8         0.0674
     36 H2         11.2444   14.1737  -28.0109 H         1 PC8         0.0674
     37 H3         10.7695   16.7573  -26.4487 H         1 PC8         0.0841
     38 H4         12.3039   16.2781  -27.2504 H         1 PC8         0.0841
     39 H5         12.8981   13.5181  -24.6947 H         1 PC8         0.0778
     40 H6         13.4481   14.0844  -26.3081 H         1 PC8         0.0778
     41 H7         11.8690   13.2446  -26.1413 H         1 PC8         0.0778
     42 H8         12.4367   17.1825  -24.6265 H         1 PC8         0.0778
     43 H9         13.7550   16.3268  -25.4964 H         1 PC8         0.0778
     44 H10        13.2613   15.7848  -23.8565 H         1 PC8         0.0778
     45 H11        10.0091   14.3891  -24.8810 H         1 PC8         0.0778
     46 H12        10.2840   16.0405  -24.2297 H         1 PC8         0.0778
     47 H13        11.1456   14.6371  -23.5123 H         1 PC8         0.0778
     48 H14         6.0912   14.5002  -27.5379 H         1 PC8         0.0651
     49 H15         6.2736   13.9328  -25.8433 H         1 PC8         0.0651
     50 H16         4.6294   12.7316  -28.0995 H         1 PC8         0.0704
     51 H17         3.9620   10.8717  -26.5371 H         1 PC8         0.0644
     52 H18         5.2873   11.3768  -25.4348 H         1 PC8         0.0644
     53 H19         8.3972   10.3764  -28.4572 H         1 PC8         0.0518
     54 H20         7.3911    8.8891  -28.5080 H         1 PC8         0.0518
     55 H21         8.7948    7.8203  -26.8148 H         1 PC8         0.0291
     56 H22         9.7366    9.3326  -26.5858 H         1 PC8         0.0291
     57 H23        11.0271    7.7775  -27.9759 H         1 PC8         0.0267
     58 H24        10.5061    9.1757  -28.9762 H         1 PC8         0.0267
     59 H25        10.2714    6.9858  -30.1774 H         1 PC8         0.0265
     60 H26         8.7034    7.8402  -29.9826 H         1 PC8         0.0265
     61 H27         8.0513    6.3606  -28.1534 H         1 PC8         0.0265
     62 H28         9.6777    5.5983  -28.1276 H         1 PC8         0.0265
     63 H29         8.9509    5.1520  -30.7446 H         1 PC8         0.0263
     64 H30         7.3435    5.1110  -29.9439 H         1 PC8         0.0263
     65 H31         8.3371    2.8340  -30.0806 H         1 PC8         0.0230
     66 H32         8.1715    3.3608  -28.3714 H         1 PC8         0.0230
     67 H33         9.7789    3.4018  -29.1721 H         1 PC8         0.0230
     68 H34         2.0387   13.5009  -28.2065 H         1 PC8         0.0518
     69 H35         0.8552   14.0583  -26.9754 H         1 PC8         0.0518
     70 H36         1.0238   11.0927  -27.4007 H         1 PC8         0.0291
     71 H37         0.3648   12.0569  -28.7656 H         1 PC8         0.0291
     72 H38        -1.6231   11.7871  -27.6589 H         1 PC8         0.0267
     73 H39        -1.0259   13.1594  -26.6656 H         1 PC8         0.0267
     74 H40         0.0850   10.7472  -25.5535 H         1 PC8         0.0265
     75 H41        -1.6622   10.4474  -25.8432 H         1 PC8         0.0265
     76 H42        -2.1142   12.6637  -24.6148 H         1 PC8         0.0265
     77 H43        -0.3841   12.6448  -24.1322 H         1 PC8         0.0265
     78 H44        -1.6138   11.7004  -22.2915 H         1 PC8         0.0263
     79 H45        -0.8073   10.3270  -23.1222 H         1 PC8         0.0263
     80 H46        -3.1419    9.7491  -22.4911 H         1 PC8         0.0230
     81 H47        -2.9458    9.7694  -24.2765 H         1 PC8         0.0230
     82 H48        -3.7523   11.1428  -23.4458 H         1 PC8         0.0230
@<TRIPOS>BOND
     1    1    3 ar 
     2    3    2 ar 
     3    3    4 1  
     4    3   11 1  
     5    4    5 1  
     6    5    6 1  
     7    6    7 1  
     8    7    8 1  
     9    7    9 1  
    10    7   10 1  
    11   11   12 1  
    12   12   13 1  
    13   13   14 1  
    14   13   25 1  
    15   14   15 1  
    16   15   16 1  
    17   16   17 2  
    18   16   18 1  
    19   18   19 1  
    20   19   20 1  
    21   20   21 1  
    22   21   22 1  
    23   22   23 1  
    24   23   24 1  
    25   25   26 1  
    26   26   27 2  
    27   26   28 1  
    28   28   29 1  
    29   29   30 1  
    30   30   31 1  
    31   31   32 1  
    32   32   33 1  
    33   33   34 1  
    34    5   35 1  
    35    5   36 1  
    36    6   37 1  
    37    6   38 1  
    38    8   39 1  
    39    8   40 1  
    40    8   41 1  
    41    9   42 1  
    42    9   43 1  
    43    9   44 1  
    44   10   45 1  
    45   10   46 1  
    46   10   47 1  
    47   12   48 1  
    48   12   49 1  
    49   13   50 1  
    50   14   51 1  
    51   14   52 1  
    52   18   53 1  
    53   18   54 1  
    54   19   55 1  
    55   19   56 1  
    56   20   57 1  
    57   20   58 1  
    58   21   59 1  
    59   21   60 1  
    60   22   61 1  
    61   22   62 1  
    62   23   63 1  
    63   23   64 1  
    64   24   65 1  
    65   24   66 1  
    66   24   67 1  
    67   28   68 1  
    68   28   69 1  
    69   29   70 1  
    70   29   71 1  
    71   30   72 1  
    72   30   73 1  
    73   31   74 1  
    74   31   75 1  
    75   32   76 1  
    76   32   77 1  
    77   33   78 1  
    78   33   79 1  
    79   34   80 1  
    80   34   81 1  
    81   34   82 1  
@<TRIPOS>SUBSTRUCTURE
     1 PC8         1

