2lya_ligand
  -I-interpret- 

 83 82  0  0  0  0  0  0  0  0999 V2000
    7.7810   14.4600  -29.1910 O   0  0  0  0  0
    9.3500   12.5470  -28.8570 O   0  0  0  0  0
    8.4450   13.6490  -28.1680 P   0  0  0  0  0
    9.3720   14.5210  -27.1990 O   0  0  0  0  0
   10.6150   15.0290  -27.7240 C   0  0  0  0  0
   11.4130   15.9080  -26.7220 C   0  0  0  0  0
   11.8910   15.2670  -25.4240 N   0  3  0  0  0
   12.5730   13.9380  -25.6580 C   0  0  0  0  0
   12.9050   16.2040  -24.8090 C   0  0  0  0  0
   10.7550   15.0700  -24.4450 C   0  0  0  0  0
    7.3640   12.8840  -27.2640 O   0  0  0  0  0
    6.1700   13.6140  -26.8910 C   0  0  0  0  0
    4.8520   12.7930  -27.0240 C   0  0  0  0  0
    4.9520   11.3480  -26.4820 C   0  0  0  0  0
    5.8850   10.5850  -27.2540 O   0  0  0  0  0
    7.0950   10.1170  -26.8340 C   0  0  0  0  0
    7.4280   10.1960  -25.6270 O   0  0  0  0  0
    7.9910    9.5460  -27.8610 C   0  0  0  0  0
    9.1860    8.7190  -27.3140 C   0  0  0  0  0
   10.1640    8.2800  -28.4370 C   0  0  0  0  0
    9.5080    7.3080  -29.4540 C   0  0  0  0  0
    8.9080    6.0510  -28.7700 C   0  0  0  0  0
    8.4260    4.9880  -29.7920 C   0  0  0  0  0
    8.6980    3.5420  -29.3200 C   0  0  0  0  0
    3.7270   13.4140  -26.3760 O   0  0  0  0  0
    2.4580   12.9250  -26.2320 C   0  0  0  0  0
    2.1360   12.2740  -25.2080 O   0  0  0  0  0
    1.4790   13.2140  -27.3040 C   0  0  0  0  0
    0.5350   12.0380  -27.6790 C   0  0  0  0  0
   -0.8400   12.1160  -26.9600 C   0  0  0  0  0
   -0.8970   11.2230  -25.6920 C   0  0  0  0  0
   -1.2470   12.0200  -24.4060 C   0  0  0  0  0
   -1.5910   11.0940  -23.2090 C   0  0  0  0  0
   -2.9560   10.3880  -23.3670 C   0  0  0  0  0
    9.7814   12.0200  -28.1804 H   0  0  0  0  0
   10.3711   15.6566  -28.5811 H   0  0  0  0  0
   11.2387   14.1687  -27.9668 H   0  0  0  0  0
   10.7232   16.6950  -26.4171 H   0  0  0  0  0
   12.3209   16.1961  -27.2519 H   0  0  0  0  0
   13.4175   14.0783  -26.3327 H   0  0  0  0  0
   12.9281   13.5409  -24.7071 H   0  0  0  0  0
   11.8633   13.2401  -26.1023 H   0  0  0  0  0
   13.2573   15.7874  -23.8653 H   0  0  0  0  0
   13.7467   16.3248  -25.4910 H   0  0  0  0  0
   12.4398   17.1731  -24.6287 H   0  0  0  0  0
   10.0413   14.3568  -24.8573 H   0  0  0  0  0
   11.1503   14.6876  -23.5039 H   0  0  0  0  0
   10.2577   16.0241  -24.2707 H   0  0  0  0  0
    6.0887   14.4649  -27.5674 H   0  0  0  0  0
    6.2746   13.8867  -25.8409 H   0  0  0  0  0
    4.6954   12.7638  -28.1023 H   0  0  0  0  0
    3.9710   10.8773  -26.5469 H   0  0  0  0  0
    5.2930   11.3813  -25.4472 H   0  0  0  0  0
    8.4178   10.3882  -28.4057 H   0  0  0  0  0
    7.3863    8.8632  -28.4578 H   0  0  0  0  0
    8.7873    7.8204  -26.8432 H   0  0  0  0  0
    9.7369    9.3453  -26.6123 H   0  0  0  0  0
   11.0007    7.7612  -27.9691 H   0  0  0  0  0
   10.4746    9.1731  -28.9792 H   0  0  0  0  0
   10.2793    6.9772  -30.1496 H   0  0  0  0  0
    8.6975    7.8392  -29.9531 H   0  0  0  0  0
    8.0454    6.3678  -28.1838 H   0  0  0  0  0
    9.6878    5.5981  -28.1577 H   0  0  0  0  0
    8.9725    5.1453  -30.7219 H   0  0  0  0  0
    7.3490    5.1039  -29.9131 H   0  0  0  0  0
    9.7693    3.4044  -29.1738 H   0  0  0  0  0
    8.1758    3.3637  -28.3800 H   0  0  0  0  0
    8.3400    2.8415  -30.0745 H   0  0  0  0  0
    2.0566   13.4470  -28.1985 H   0  0  0  0  0
    0.8427   14.0187  -26.9358 H   0  0  0  0  0
    1.0194   11.1108  -27.3728 H   0  0  0  0  0
    0.3531   12.0856  -28.7527 H   0  0  0  0  0
   -1.6036   11.7648  -27.6541 H   0  0  0  0  0
   -1.0011   13.1491  -26.6521 H   0  0  0  0  0
    0.0896   10.7813  -25.5515 H   0  0  0  0  0
   -1.6779   10.4780  -25.8446 H   0  0  0  0  0
   -2.1219   12.6344  -24.6185 H   0  0  0  0  0
   -0.3762   12.6154  -24.1315 H   0  0  0  0  0
   -1.6382   11.7126  -22.3128 H   0  0  0  0  0
   -0.8223   10.3232  -23.1531 H   0  0  0  0  0
   -3.7441   11.1369  -23.4450 H   0  0  0  0  0
   -2.9446    9.7754  -24.2685 H   0  0  0  0  0
   -3.1390    9.7552  -22.4985 H   0  0  0  0  0
  1  3  2  0  0  0
  3  2  1  0  0  0
  3  4  1  0  0  0
  3 11  1  0  0  0
  4  5  1  0  0  0
  5  6  1  0  0  0
  6  7  1  0  0  0
  7  8  1  0  0  0
  7  9  1  0  0  0
  7 10  1  0  0  0
 11 12  1  0  0  0
 12 13  1  0  0  0
 13 14  1  0  0  0
 13 25  1  0  0  0
 14 15  1  0  0  0
 15 16  1  0  0  0
 16 17  2  0  0  0
 16 18  1  0  0  0
 18 19  1  0  0  0
 19 20  1  0  0  0
 20 21  1  0  0  0
 21 22  1  0  0  0
 22 23  1  0  0  0
 23 24  1  0  0  0
 25 26  1  0  0  0
 26 27  2  0  0  0
 26 28  1  0  0  0
 28 29  1  0  0  0
 29 30  1  0  0  0
 30 31  1  0  0  0
 31 32  1  0  0  0
 32 33  1  0  0  0
 33 34  1  0  0  0
  2 35  1  0  0  0
  5 36  1  0  0  0
  5 37  1  0  0  0
  6 38  1  0  0  0
  6 39  1  0  0  0
  8 40  1  0  0  0
  8 41  1  0  0  0
  8 42  1  0  0  0
  9 43  1  0  0  0
  9 44  1  0  0  0
  9 45  1  0  0  0
 10 46  1  0  0  0
 10 47  1  0  0  0
 10 48  1  0  0  0
 12 49  1  0  0  0
 12 50  1  0  0  0
 13 51  1  0  0  0
 14 52  1  0  0  0
 14 53  1  0  0  0
 18 54  1  0  0  0
 18 55  1  0  0  0
 19 56  1  0  0  0
 19 57  1  0  0  0
 20 58  1  0  0  0
 20 59  1  0  0  0
 21 60  1  0  0  0
 21 61  1  0  0  0
 22 62  1  0  0  0
 22 63  1  0  0  0
 23 64  1  0  0  0
 23 65  1  0  0  0
 24 66  1  0  0  0
 24 67  1  0  0  0
 24 68  1  0  0  0
 28 69  1  0  0  0
 28 70  1  0  0  0
 29 71  1  0  0  0
 29 72  1  0  0  0
 30 73  1  0  0  0
 30 74  1  0  0  0
 31 75  1  0  0  0
 31 76  1  0  0  0
 32 77  1  0  0  0
 32 78  1  0  0  0
 33 79  1  0  0  0
 33 80  1  0  0  0
 34 81  1  0  0  0
 34 82  1  0  0  0
 34 83  1  0  0  0
M  END
$$$$
