2c6l_ligand
  -I-interpret- 

 51 54  0  0  0  0  0  0  0  0999 V2000
    5.8780  -12.0370    6.8320 O   0  0  0  0  0
    6.4730  -10.8020    7.0150 S   0  0  0  0  0
    5.5680   -9.8720    7.4710 O   0  0  0  0  0
    7.1820  -10.3250    5.7270 N   0  0  0  0  0
    7.7030  -10.9970    8.2720 C   0  0  0  0  0
    8.0150  -12.2700    8.7390 C   0  0  0  0  0
    8.9590  -12.4360    9.7320 C   0  0  0  0  0
    9.6070  -11.3230   10.2760 C   0  0  0  0  0
    9.2790  -10.0330    9.8280 C   0  0  0  0  0
    8.3340   -9.8720    8.8190 C   0  0  0  0  0
   10.5080  -11.4970   11.2850 N   0  0  0  0  0
   11.6070  -10.7240   11.3800 C   0  0  0  0  0
   12.2050  -10.5550   12.5570 N   0  0  0  0  0
   11.8770  -11.0470   13.7320 N   0  0  0  0  0
   12.7900  -10.5820   14.6340 C   0  0  0  0  0
   13.2850   -9.8110   12.6790 C   0  0  0  0  0
   13.6730   -9.8060   13.9580 N   0  0  0  0  0
   13.8370   -9.1820   11.6190 N   0  0  0  0  0
   13.2530   -9.3030   10.3950 C   0  0  0  0  0
   12.1390  -10.1100   10.2550 C   0  0  0  0  0
   13.8370   -8.7680    9.3050 N   0  0  0  0  0
   13.7310   -7.3600    8.9880 C   0  0  0  0  0
   14.4750   -7.2050    7.6630 C   0  0  0  0  0
   14.6010   -5.7250    7.3210 C   0  0  0  0  0
   15.3790   -5.0150    8.4210 C   0  0  0  0  0
   15.5140   -3.5880    8.0860 N   0  3  0  0  0
   14.6350   -5.1620    9.7460 C   0  0  0  0  0
   14.5020   -6.6430   10.0950 C   0  0  0  0  0
    7.1658  -10.9080    4.8902 H   0  0  0  0  0
    7.6661   -9.4273    5.7139 H   0  0  0  0  0
    7.5114  -13.1404    8.3185 H   0  0  0  0  0
    9.1996  -13.4361   10.0926 H   0  0  0  0  0
    9.7626   -9.1613   10.2688 H   0  0  0  0  0
    8.0858   -8.8747    8.4558 H   0  0  0  0  0
   10.3467  -12.2257   11.9803 H   0  0  0  0  0
   12.8063  -10.7955   15.7028 H   0  0  0  0  0
   11.6854  -10.2616    9.2755 H   0  0  0  0  0
   14.3711   -9.3750    8.6832 H   0  0  0  0  0
   12.7136   -6.9758    8.9152 H   0  0  0  0  0
   13.9218   -7.7144    6.8740 H   0  0  0  0  0
   15.4691   -7.6434    7.7511 H   0  0  0  0  0
   13.6071   -5.2854    7.2368 H   0  0  0  0  0
   15.1281   -5.6144    6.3734 H   0  0  0  0  0
   16.3700   -5.4599    8.5106 H   0  0  0  0  0
   16.0353   -3.1146    8.8239 H   0  0  0  0  0
   16.0128   -3.4934    7.2013 H   0  0  0  0  0
   14.5871   -3.1707    8.0014 H   0  0  0  0  0
   13.6428   -4.7198    9.6561 H   0  0  0  0  0
   15.1909   -4.6522   10.5329 H   0  0  0  0  0
   15.4941   -7.0841   10.1911 H   0  0  0  0  0
   13.9651   -6.7472   11.0378 H   0  0  0  0  0
  1  2  2  0  0  0
  2  3  2  0  0  0
  2  4  1  0  0  0
  2  5  1  0  0  0
  5  6  4  0  0  0
  5 10  4  0  0  0
  6  7  4  0  0  0
  7  8  4  0  0  0
  8  9  4  0  0  0
  8 11  1  0  0  0
  9 10  4  0  0  0
 11 12  1  0  0  0
 12 13  4  0  0  0
 12 20  4  0  0  0
 13 14  4  0  0  0
 13 16  4  0  0  0
 14 15  4  0  0  0
 15 17  4  0  0  0
 16 17  4  0  0  0
 16 18  4  0  0  0
 18 19  4  0  0  0
 19 20  4  0  0  0
 19 21  1  0  0  0
 21 22  1  0  0  0
 22 23  1  0  0  0
 22 28  1  0  0  0
 23 24  1  0  0  0
 24 25  1  0  0  0
 25 26  1  0  0  0
 25 27  1  0  0  0
 27 28  1  0  0  0
  4 29  1  0  0  0
  4 30  1  0  0  0
  6 31  1  0  0  0
  7 32  1  0  0  0
  9 33  1  0  0  0
 10 34  1  0  0  0
 11 35  1  0  0  0
 15 36  1  0  0  0
 20 37  1  0  0  0
 21 38  1  0  0  0
 22 39  1  0  0  0
 23 40  1  0  0  0
 23 41  1  0  0  0
 24 42  1  0  0  0
 24 43  1  0  0  0
 25 44  1  0  0  0
 26 45  1  0  0  0
 26 46  1  0  0  0
 26 47  1  0  0  0
 27 48  1  0  0  0
 27 49  1  0  0  0
 28 50  1  0  0  0
 28 51  1  0  0  0
M  END
$$$$
