5g4m_ligand
  -I-interpret- 

 37 39  0  0  0  0  0  0  0  0999 V2000
  124.6260  102.8380  -43.9720 C   0  0  0  0  0
  127.2850  102.6340  -40.9430 F   0  0  0  0  0
  124.8990  102.9660  -42.6320 N   0  0  0  0  0
  124.3890  104.1240  -44.4590 C   0  0  0  0  0
  123.1220  108.9790  -41.5990 N   0  3  0  0  0
  124.5340  105.0320  -43.3650 C   0  0  0  0  0
  124.8520  104.2800  -42.2310 C   0  0  0  0  0
  124.5690  101.7010  -44.7810 C   0  0  0  0  0
  124.2570  101.8890  -46.1260 C   0  0  0  0  0
  124.0130  103.1560  -46.6350 C   0  0  0  0  0
  124.0770  104.2900  -45.8230 C   0  0  0  0  0
  125.0690  104.8600  -40.9710 C   0  0  0  0  0
  124.9500  106.2510  -40.8760 C   0  0  0  0  0
  124.6270  107.0210  -41.9930 C   0  0  0  0  0
  124.4190  106.4270  -43.2390 C   0  0  0  0  0
  125.2090  101.8560  -41.7530 C   0  0  0  0  0
  126.7000  101.6370  -41.6490 C   0  0  0  0  0
  124.5100  108.5010  -41.8620 C   0  0  0  0  0
  123.1270  110.4590  -41.4420 C   0  0  0  0  0
  122.7708  108.5480  -40.7439 H   0  0  0  0  0
  122.5205  108.7226  -42.3819 H   0  0  0  0  0
  124.7608  100.7071  -44.3768 H   0  0  0  0  0
  124.2038  101.0257  -46.7894 H   0  0  0  0  0
  123.7662  103.2687  -47.6907 H   0  0  0  0  0
  123.8898  105.2816  -46.2351 H   0  0  0  0  0
  125.3200  104.2515  -40.1021 H   0  0  0  0  0
  125.1121  106.7397  -39.9153 H   0  0  0  0  0
  124.1698  107.0392  -44.1058 H   0  0  0  0  0
  124.7536  100.9534  -42.1605 H   0  0  0  0  0
  124.8216  102.0819  -40.7595 H   0  0  0  0  0
  126.8814  100.6915  -41.1379 H   0  0  0  0  0
  127.1238  101.6222  -42.6531 H   0  0  0  0  0
  125.1215  108.7995  -41.0105 H   0  0  0  0  0
  124.8274  108.9355  -42.8099 H   0  0  0  0  0
  123.7702  110.7322  -40.6054 H   0  0  0  0  0
  123.5027  110.9188  -42.3561 H   0  0  0  0  0
  122.1118  110.8061  -41.2499 H   0  0  0  0  0
  3  1  4  0  0  0
  1  4  4  0  0  0
  1  8  4  0  0  0
 17  2  1  0  0  0
  3  7  4  0  0  0
 16  3  1  0  0  0
  6  4  4  0  0  0
  4 11  4  0  0  0
 18  5  1  0  0  0
  5 19  1  0  0  0
  7  6  4  0  0  0
  6 15  4  0  0  0
  7 12  4  0  0  0
  8  9  4  0  0  0
  9 10  4  0  0  0
 11 10  4  0  0  0
 12 13  4  0  0  0
 13 14  4  0  0  0
 15 14  4  0  0  0
 14 18  1  0  0  0
 16 17  1  0  0  0
  5 20  1  0  0  0
  5 21  1  0  0  0
  8 22  1  0  0  0
  9 23  1  0  0  0
 10 24  1  0  0  0
 11 25  1  0  0  0
 12 26  1  0  0  0
 13 27  1  0  0  0
 15 28  1  0  0  0
 16 29  1  0  0  0
 16 30  1  0  0  0
 17 31  1  0  0  0
 17 32  1  0  0  0
 18 33  1  0  0  0
 18 34  1  0  0  0
 19 35  1  0  0  0
 19 36  1  0  0  0
 19 37  1  0  0  0
M  END
$$$$
