6jon_ligand
  -I-interpret- 

 46 48  0  0  0  0  0  0  0  0999 V2000
  -12.4070   24.2030    3.4590 P   0  0  0  0  0
  -11.3770   24.8560    2.5550 O   0  0  0  0  0
  -13.7690   24.8500    3.3800 O   0  0  0  0  0
  -11.9250   24.0720    4.8930 O   0  0  0  0  0
  -13.7810   22.1340    1.6960 P   0  0  0  0  0
  -13.4850   20.8580    0.9610 O   0  0  0  0  0
  -15.2010   22.2150    2.2170 O   0  0  0  0  0
  -12.6870   22.5400    2.7390 O   0  0  0  0  0
  -14.7580   24.4640   -0.0130 P   0  0  0  0  0
  -14.3050   25.5600   -0.9350 O   0  0  0  0  0
  -15.5740   24.9220    1.1800 O   0  0  0  0  0
  -13.8100   23.2560    0.2170 O   0  0  0  0  0
  -16.1140   23.7830   -1.1360 O   0  0  0  0  0
  -17.0590   22.9730   -0.5970 C   0  0  0  0  0
  -17.1510   21.5900   -1.4140 C   0  0  0  0  0
  -17.2980   21.7700   -2.8310 O   0  0  0  0  0
  -15.8780   20.8100   -1.1850 C   0  0  0  0  0
  -16.0160   20.0250   -0.0140 O   0  0  0  0  0
  -15.8320   19.9560   -2.4820 C   0  0  0  0  0
  -16.5190   20.8690   -3.5700 C   0  0  0  0  0
  -15.5730   21.6590   -4.5050 N   0  0  0  0  0
  -14.6660   22.6270   -4.0390 C   0  0  0  0  0
  -13.9400   23.1910   -5.0370 N   0  0  0  0  0
  -14.3740   22.5790   -6.2380 C   0  0  0  0  0
  -13.9940   22.7400   -7.6320 C   0  0  0  0  0
  -13.0040   23.6530   -8.0610 N   0  0  0  0  0
  -14.6290   21.9690   -8.5690 N   0  0  0  0  0
  -15.6070   21.0670   -8.1510 C   0  0  0  0  0
  -16.0260   20.8500   -6.8780 N   0  0  0  0  0
  -15.3990   21.6170   -5.9130 C   0  0  0  0  0
  -10.5363   24.4023    2.6496 H   0  0  0  0  0
  -11.0590   23.6577    4.9017 H   0  0  0  0  0
  -15.3257   23.0497    2.6745 H   0  0  0  0  0
  -15.8185   24.1602    1.7105 H   0  0  0  0  0
  -18.0247   23.4763   -0.6441 H   0  0  0  0  0
  -16.7904   22.7557    0.4368 H   0  0  0  0  0
  -18.0370   21.0696   -1.0503 H   0  0  0  0  0
  -14.9719   21.3946   -1.0260 H   0  0  0  0  0
  -15.2080   19.5281    0.1338 H   0  0  0  0  0
  -16.3432   19.0005   -2.3641 H   0  0  0  0  0
  -14.8139   19.6815   -2.7582 H   0  0  0  0  0
  -17.0693   20.2251   -4.2561 H   0  0  0  0  0
  -14.5576   22.8957   -2.9882 H   0  0  0  0  0
  -12.5194   24.2372   -7.3796 H   0  0  0  0  0
  -12.7741   23.7276   -9.0520 H   0  0  0  0  0
  -16.0860   20.4729   -8.9293 H   0  0  0  0  0
  1  2  1  0  0  0
  1  3  2  0  0  0
  1  4  1  0  0  0
  8  1  1  0  0  0
  5  6  2  0  0  0
  5  7  1  0  0  0
  5  8  1  0  0  0
 12  5  1  0  0  0
  9 10  2  0  0  0
  9 11  1  0  0  0
  9 12  1  0  0  0
  9 13  1  0  0  0
 13 14  1  0  0  0
 14 15  1  0  0  0
 15 16  1  0  0  0
 15 17  1  0  0  0
 16 20  1  0  0  0
 17 18  1  0  0  0
 17 19  1  0  0  0
 19 20  1  0  0  0
 20 21  1  0  0  0
 21 22  4  0  0  0
 21 30  4  0  0  0
 22 23  4  0  0  0
 23 24  4  0  0  0
 24 25  4  0  0  0
 24 30  4  0  0  0
 25 26  1  0  0  0
 25 27  4  0  0  0
 27 28  4  0  0  0
 28 29  4  0  0  0
 29 30  4  0  0  0
  2 31  1  0  0  0
  4 32  1  0  0  0
  7 33  1  0  0  0
 11 34  1  0  0  0
 14 35  1  0  0  0
 14 36  1  0  0  0
 15 37  1  0  0  0
 17 38  1  0  0  0
 18 39  1  0  0  0
 19 40  1  0  0  0
 19 41  1  0  0  0
 20 42  1  0  0  0
 22 43  1  0  0  0
 26 44  1  0  0  0
 26 45  1  0  0  0
 28 46  1  0  0  0
M  END
$$$$
