### 
### Created by X-TOOL on Mon Aug  2 16:14:34 2021
### 

@<TRIPOS>MOLECULE
6jon_ligand
   42    44     1     0     0
SMALL
GAST_HUCK


@<TRIPOS>ATOM
      1 PG        -12.4070   24.2030    3.4590 P.3       1 DTP         0.1879
      2 O1G       -11.3770   24.8560    2.5550 O.co2     1 DTP        -0.6091
      3 O2G       -13.7690   24.8500    3.3800 O.co2     1 DTP        -0.6091
      4 O3G       -11.9250   24.0720    4.8930 O.co2     1 DTP        -0.6091
      5 PB        -13.7810   22.1340    1.6960 P.3       1 DTP         0.3553
      6 O1B       -13.4850   20.8580    0.9610 O.co2     1 DTP        -0.5652
      7 O2B       -15.2010   22.2150    2.2170 O.co2     1 DTP        -0.5652
      8 O3B       -12.6870   22.5400    2.7390 O.3       1 DTP        -0.1546
      9 PA        -14.7580   24.4640   -0.0130 P.3       1 DTP         0.3266
     10 O1A       -14.3050   25.5600   -0.9350 O.co2     1 DTP        -0.5692
     11 O2A       -15.5740   24.9220    1.1800 O.co2     1 DTP        -0.5692
     12 O3A       -13.8100   23.2560    0.2170 O.3       1 DTP        -0.1171
     13 O5'       -16.1140   23.7830   -1.1360 O.3       1 DTP        -0.2441
     14 C5'       -17.0590   22.9730   -0.5970 C.3       1 DTP         0.1130
     15 C4'       -17.1510   21.5900   -1.4140 C.3       1 DTP         0.1164
     16 O4'       -17.2980   21.7700   -2.8310 O.3       1 DTP        -0.3389
     17 C3'       -15.8780   20.8100   -1.1850 C.3       1 DTP         0.0890
     18 O3'       -16.0160   20.0250   -0.0140 O.3       1 DTP        -0.3889
     19 C2'       -15.8320   19.9560   -2.4820 C.3       1 DTP         0.0315
     20 C1'       -16.5190   20.8690   -3.5700 C.3       1 DTP         0.1751
     21 N9        -15.5730   21.6590   -4.5050 N.pl3     1 DTP        -0.1945
     22 C8        -14.6660   22.6270   -4.0390 C.2       1 DTP         0.1122
     23 N7        -13.9400   23.1910   -5.0370 N.2       1 DTP        -0.2958
     24 C5        -14.3740   22.5790   -6.2380 C.ar      1 DTP         0.1045
     25 C6        -13.9940   22.7400   -7.6320 C.ar      1 DTP         0.1298
     26 N6        -13.0040   23.6530   -8.0610 N.pl3     1 DTP        -0.3152
     27 N1        -14.6290   21.9690   -8.5690 N.ar      1 DTP        -0.2698
     28 C2        -15.6070   21.0670   -8.1510 C.ar      1 DTP         0.0533
     29 N3        -16.0260   20.8500   -6.8780 N.ar      1 DTP        -0.2714
     30 C4        -15.3990   21.6170   -5.9130 C.ar      1 DTP         0.1612
     31 H1        -18.0342   23.4805   -0.6341 H         1 DTP         0.0648
     32 H2        -16.7970   22.7581    0.4495 H         1 DTP         0.0648
     33 H3        -18.0117   21.0173   -1.0382 H         1 DTP         0.0650
     34 H4        -14.9966   21.4622   -1.0976 H         1 DTP         0.0622
     35 H5        -15.2164   19.5333    0.1323 H         1 DTP         0.2099
     36 H6        -16.3904   19.0173   -2.3512 H         1 DTP         0.0345
     37 H7        -14.7931   19.7286   -2.7629 H         1 DTP         0.0345
     38 H8        -17.1641   20.2395   -4.2005 H         1 DTP         0.0969
     39 H9        -14.5577   22.8955   -2.9892 H         1 DTP         0.1349
     40 H10       -12.7719   23.7284   -9.0617 H         1 DTP         0.1820
     41 H11       -12.5147   24.2430   -7.3730 H         1 DTP         0.1820
     42 H12       -16.0834   20.4762   -8.9250 H         1 DTP         0.0996
@<TRIPOS>BOND
     1    1    2 ar 
     2    1    3 ar 
     3    1    4 ar 
     4    8    1 1  
     5    5    6 ar 
     6    5    7 ar 
     7    5    8 1  
     8   12    5 1  
     9    9   10 ar 
    10    9   11 ar 
    11    9   12 1  
    12    9   13 1  
    13   13   14 1  
    14   14   15 1  
    15   15   16 1  
    16   15   17 1  
    17   16   20 1  
    18   17   18 1  
    19   17   19 1  
    20   19   20 1  
    21   20   21 1  
    22   21   22 1  
    23   21   30 1  
    24   22   23 2  
    25   23   24 1  
    26   24   25 ar 
    27   24   30 ar 
    28   25   26 1  
    29   25   27 ar 
    30   27   28 ar 
    31   28   29 ar 
    32   29   30 ar 
    33   14   31 1  
    34   14   32 1  
    35   15   33 1  
    36   17   34 1  
    37   18   35 1  
    38   19   36 1  
    39   19   37 1  
    40   20   38 1  
    41   22   39 1  
    42   26   40 1  
    43   26   41 1  
    44   28   42 1  
@<TRIPOS>SUBSTRUCTURE
     1 DTP         1

