2q63_ligand
  -I-interpret- 

 86 89  0  0  0  0  0  0  0  0999 V2000
  -12.8660   58.3170    4.2060 C   0  0  0  0  0
  -13.3990   58.6880    5.5930 C   0  0  0  0  0
  -14.4810   59.7720    5.5230 C   0  0  0  0  0
  -15.5600   59.4760    4.4800 C   0  0  0  0  0
  -14.9460   59.1400    3.1200 C   0  0  0  0  0
  -13.9890   57.9580    3.2260 C   0  0  0  0  0
  -12.3270   56.0250    5.0420 N   0  3  0  0  0
  -12.7860   56.3980    6.4060 C   0  0  0  0  0
  -13.9010   57.4470    6.3280 C   0  0  0  0  0
  -11.8300   57.2000    4.2950 C   0  0  0  0  0
  -13.3230   55.2150    7.1530 C   0  0  0  0  0
  -13.0440   55.1770    8.4670 N   0  0  0  0  0
  -13.4630   54.1340    9.3960 C   0  0  0  0  0
  -13.0260   52.7460    8.9140 C   0  0  0  0  0
  -14.9790   54.1650    9.5730 C   0  0  0  0  0
  -12.7880   54.4300   10.7260 C   0  0  0  0  0
  -13.9770   54.3800    6.5530 O   0  0  0  0  0
  -11.2530   55.0150    5.0970 C   0  0  0  0  0
  -11.1990   54.2300    3.7870 C   0  0  0  0  0
  -12.3030   53.1870    3.6650 C   0  0  0  0  0
   -9.9090   53.6160    3.6190 O   0  0  0  0  0
  -12.2390   52.6530    2.3170 N   0  0  0  0  0
  -12.2340   52.0740    4.7110 C   0  0  0  0  0
  -13.2350   52.8230    1.4580 C   0  0  0  0  0
  -14.2830   53.3570    1.7680 O   0  0  0  0  0
  -13.0530   52.3440    0.0530 C   0  0  0  0  0
  -12.9560   50.9850   -0.2320 C   0  0  0  0  0
  -12.7760   50.5380   -1.5400 C   0  0  0  0  0
  -12.6940   51.4290   -2.6120 C   0  0  0  0  0
  -12.7780   52.8050   -2.4100 C   0  0  0  0  0
  -12.9650   53.3310   -1.0450 C   0  0  0  0  0
  -12.6950   53.6650   -3.4600 O   0  0  0  0  0
  -13.0670   54.8180   -0.7720 C   0  0  0  0  0
  -13.5890   50.9510    4.5790 S   0  0  0  0  0
  -13.5240   49.7510    3.3790 C   0  0  0  0  0
  -14.7030   49.3020    2.7780 C   0  0  0  0  0
  -14.6670   48.3170    1.7880 C   0  0  0  0  0
  -13.4410   47.7750    1.3980 C   0  0  0  0  0
  -12.2640   48.2260    1.9940 C   0  0  0  0  0
  -12.3010   49.2110    2.9850 C   0  0  0  0  0
  -12.3737   59.2043    3.8079 H   0  0  0  0  0
  -12.5693   59.1085    6.1612 H   0  0  0  0  0
  -13.9958   60.7067    5.2417 H   0  0  0  0  0
  -14.9665   59.8189    6.4978 H   0  0  0  0  0
  -16.1848   60.3621    4.3678 H   0  0  0  0  0
  -16.1417   58.6184    4.8181 H   0  0  0  0  0
  -14.3902   60.0077    2.7646 H   0  0  0  0  0
  -15.7485   58.8780    2.4305 H   0  0  0  0  0
  -14.5255   57.0797    3.5851 H   0  0  0  0  0
  -13.5667   57.7359    2.2460 H   0  0  0  0  0
  -13.1378   55.6374    4.5596 H   0  0  0  0  0
  -11.9176   56.7958    6.9312 H   0  0  0  0  0
  -14.7501   57.0287    5.7875 H   0  0  0  0  0
  -14.2030   57.7255    7.3376 H   0  0  0  0  0
  -10.9594   57.5901    4.8223 H   0  0  0  0  0
  -11.5942   56.8784    3.2806 H   0  0  0  0  0
  -12.4909   55.9447    8.8478 H   0  0  0  0  0
  -13.4735   52.5432    7.9410 H   0  0  0  0  0
  -11.9397   52.7177    8.8288 H   0  0  0  0  0
  -13.3552   51.9936    9.6307 H   0  0  0  0  0
  -15.2777   55.1363    9.9672 H   0  0  0  0  0
  -15.4596   53.9994    8.6088 H   0  0  0  0  0
  -15.2784   53.3813   10.2689 H   0  0  0  0  0
  -11.7061   54.4181   10.5935 H   0  0  0  0  0
  -13.1012   55.4121   11.0803 H   0  0  0  0  0
  -13.0745   53.6712   11.4542 H   0  0  0  0  0
  -11.4528   54.3261    5.9177 H   0  0  0  0  0
  -10.2982   55.5176    5.2513 H   0  0  0  0  0
  -11.3645   54.9529    2.9882 H   0  0  0  0  0
  -13.2603   53.6709    3.8586 H   0  0  0  0  0
   -9.8933   53.1280    2.7924 H   0  0  0  0  0
  -11.4101   52.1358    2.0240 H   0  0  0  0  0
  -12.2694   52.5338    5.6986 H   0  0  0  0  0
  -11.3125   51.5143    4.5506 H   0  0  0  0  0
  -13.0217   50.2600    0.5792 H   0  0  0  0  0
  -12.6974   49.4677   -1.7305 H   0  0  0  0  0
  -12.5622   51.0421   -3.6225 H   0  0  0  0  0
  -12.7716   54.5669   -3.1403 H   0  0  0  0  0
  -14.0309   55.0364   -0.3124 H   0  0  0  0  0
  -12.2651   55.1181   -0.0975 H   0  0  0  0  0
  -12.9781   55.3653   -1.7104 H   0  0  0  0  0
  -15.6599   49.7244    3.0846 H   0  0  0  0  0
  -15.5909   47.9736    1.3227 H   0  0  0  0  0
  -13.4041   47.0021    0.6304 H   0  0  0  0  0
  -11.3066   47.8068    1.6844 H   0  0  0  0  0
  -11.3765   49.5557    3.4482 H   0  0  0  0  0
  1  2  1  0  0  0
  1  6  1  0  0  0
 10  1  1  0  0  0
  2  3  1  0  0  0
  2  9  1  0  0  0
  3  4  1  0  0  0
  5  4  1  0  0  0
  6  5  1  0  0  0
  7  8  1  0  0  0
  7 10  1  0  0  0
  7 18  1  0  0  0
  8  9  1  0  0  0
  8 11  1  0  0  0
 11 12  1  0  0  0
 11 17  2  0  0  0
 12 13  1  0  0  0
 13 14  1  0  0  0
 13 15  1  0  0  0
 13 16  1  0  0  0
 18 19  1  0  0  0
 19 20  1  0  0  0
 19 21  1  0  0  0
 20 22  1  0  0  0
 20 23  1  0  0  0
 22 24  1  0  0  0
 23 34  1  0  0  0
 24 25  2  0  0  0
 24 26  1  0  0  0
 26 27  4  0  0  0
 26 31  4  0  0  0
 27 28  4  0  0  0
 28 29  4  0  0  0
 29 30  4  0  0  0
 30 31  4  0  0  0
 30 32  1  0  0  0
 31 33  1  0  0  0
 34 35  1  0  0  0
 35 36  4  0  0  0
 35 40  4  0  0  0
 36 37  4  0  0  0
 37 38  4  0  0  0
 38 39  4  0  0  0
 39 40  4  0  0  0
  1 41  1  0  0  0
  2 42  1  0  0  0
  3 43  1  0  0  0
  3 44  1  0  0  0
  4 45  1  0  0  0
  4 46  1  0  0  0
  5 47  1  0  0  0
  5 48  1  0  0  0
  6 49  1  0  0  0
  6 50  1  0  0  0
  7 51  1  0  0  0
  8 52  1  0  0  0
  9 53  1  0  0  0
  9 54  1  0  0  0
 10 55  1  0  0  0
 10 56  1  0  0  0
 12 57  1  0  0  0
 14 58  1  0  0  0
 14 59  1  0  0  0
 14 60  1  0  0  0
 15 61  1  0  0  0
 15 62  1  0  0  0
 15 63  1  0  0  0
 16 64  1  0  0  0
 16 65  1  0  0  0
 16 66  1  0  0  0
 18 67  1  0  0  0
 18 68  1  0  0  0
 19 69  1  0  0  0
 20 70  1  0  0  0
 21 71  1  0  0  0
 22 72  1  0  0  0
 23 73  1  0  0  0
 23 74  1  0  0  0
 27 75  1  0  0  0
 28 76  1  0  0  0
 29 77  1  0  0  0
 32 78  1  0  0  0
 33 79  1  0  0  0
 33 80  1  0  0  0
 33 81  1  0  0  0
 36 82  1  0  0  0
 37 83  1  0  0  0
 38 84  1  0  0  0
 39 85  1  0  0  0
 40 86  1  0  0  0
M  END
$$$$
