5cls_ligand
  -I-interpret- 

 53 55  0  0  0  0  0  0  0  0999 V2000
   25.3520   21.4430   15.1990 C   0  0  0  0  0
   25.0130   19.9500   15.0760 C   0  0  0  0  0
   26.0240   18.9800   14.9260 C   0  0  0  0  0
   25.6930   17.5870   14.8260 C   0  0  0  0  0
   24.3350   17.2290   14.9420 C   0  0  0  0  0
   23.3830   18.1830   15.1430 C   0  0  0  0  0
   23.6910   19.5520   15.2250 C   0  0  0  0  0
   23.9200   15.9240   14.9350 O   0  0  0  0  0
   24.9390   14.9620   15.1810 C   0  0  0  0  0
   26.3660   21.5530   16.2750 N   0  0  0  0  0
   26.5320   21.3060   17.5540 C   0  0  0  0  0
   27.9250   21.6350   17.9350 C   0  0  0  0  0
   28.5490   22.0350   16.8060 N   0  0  0  0  0
   27.5950   22.0170   15.7870 N   0  0  0  0  0
   28.4130   21.5350   19.3310 C   0  0  0  0  0
   25.5110   20.7200   18.4920 C   0  0  0  0  0
   27.4360   20.7270   20.1990 C   0  0  0  0  0
   25.9560   21.0510   19.9150 C   0  0  0  0  0
   24.1340   21.1080   18.2290 O   0  0  0  0  0
   25.6630   19.1780   18.2710 C   0  0  0  0  0
   29.7170   20.9600   19.4030 O   0  0  0  0  0
   30.5690   21.5110   20.4230 C   0  0  0  0  0
   30.1730   22.5360   20.9610 O   0  0  0  0  0
   31.6890   20.8030   20.6630 N   0  0  0  0  0
   32.6910   21.0680   21.6880 C   0  0  0  0  0
   34.0880   21.1780   21.0650 C   0  0  0  0  0
   32.6110   19.9730   22.7630 C   0  0  0  0  0
   24.4636   22.0282   15.4366 H   0  0  0  0  0
   25.7355   21.8365   14.2576 H   0  0  0  0  0
   27.0680   19.2907   14.8855 H   0  0  0  0  0
   26.4641   16.8334   14.6661 H   0  0  0  0  0
   22.3430   17.8727   15.2440 H   0  0  0  0  0
   22.9065   20.2877   15.4023 H   0  0  0  0  0
   25.7097   15.0470   14.4149 H   0  0  0  0  0
   25.3785   15.1429   16.1619 H   0  0  0  0  0
   24.5067   13.9617   15.1540 H   0  0  0  0  0
   28.4736   22.5527   19.7167 H   0  0  0  0  0
   27.6344   20.9799   21.2405 H   0  0  0  0  0
   27.5911   19.6718   19.9741 H   0  0  0  0  0
   25.3558   20.4428   20.5917 H   0  0  0  0  0
   25.8273   22.1245   20.0531 H   0  0  0  0  0
   23.5566   20.6899   18.8719 H   0  0  0  0  0
   25.4563   18.9397   17.2277 H   0  0  0  0  0
   26.6802   18.8751   18.5195 H   0  0  0  0  0
   24.9581   18.6491   18.9124 H   0  0  0  0  0
   31.8539   19.9946   20.0633 H   0  0  0  0  0
   32.4911   22.0271   22.1658 H   0  0  0  0  0
   34.3354   20.2425   20.5633 H   0  0  0  0  0
   34.0987   21.9935   20.3419 H   0  0  0  0  0
   34.8193   21.3759   21.8486 H   0  0  0  0  0
   31.6172   19.9770   23.2107 H   0  0  0  0  0
   32.8009   19.0020   22.3056 H   0  0  0  0  0
   33.3584   20.1659   23.5326 H   0  0  0  0  0
  1  2  1  0  0  0
  1 10  1  0  0  0
  2  3  4  0  0  0
  2  7  4  0  0  0
  3  4  4  0  0  0
  4  5  4  0  0  0
  5  6  4  0  0  0
  5  8  1  0  0  0
  6  7  4  0  0  0
  8  9  1  0  0  0
 10 11  4  0  0  0
 10 14  4  0  0  0
 11 12  4  0  0  0
 11 16  1  0  0  0
 12 13  4  0  0  0
 12 15  1  0  0  0
 13 14  4  0  0  0
 15 17  1  0  0  0
 15 21  1  0  0  0
 16 18  1  0  0  0
 16 19  1  0  0  0
 16 20  1  0  0  0
 17 18  1  0  0  0
 21 22  1  0  0  0
 22 23  2  0  0  0
 22 24  1  0  0  0
 24 25  1  0  0  0
 25 26  1  0  0  0
 25 27  1  0  0  0
  1 28  1  0  0  0
  1 29  1  0  0  0
  3 30  1  0  0  0
  4 31  1  0  0  0
  6 32  1  0  0  0
  7 33  1  0  0  0
  9 34  1  0  0  0
  9 35  1  0  0  0
  9 36  1  0  0  0
 15 37  1  0  0  0
 17 38  1  0  0  0
 17 39  1  0  0  0
 18 40  1  0  0  0
 18 41  1  0  0  0
 19 42  1  0  0  0
 20 43  1  0  0  0
 20 44  1  0  0  0
 20 45  1  0  0  0
 24 46  1  0  0  0
 25 47  1  0  0  0
 26 48  1  0  0  0
 26 49  1  0  0  0
 26 50  1  0  0  0
 27 51  1  0  0  0
 27 52  1  0  0  0
 27 53  1  0  0  0
M  END
$$$$
