6got_ligand
  -I-interpret- 

 34 35  0  0  0  0  0  0  0  0999 V2000
   -4.1330    2.2960   15.5240 C   0  0  0  0  0
   -3.7060    3.4140   14.7930 C   0  0  0  0  0
   -6.3110    3.2380   15.6620 C   0  0  0  0  0
   -5.9020    4.3690   14.9420 C   0  0  0  0  0
   -4.5900    4.4550   14.5090 C   0  0  0  0  0
   -2.2850    5.6870   13.5170 C   0  0  0  0  0
   -1.4850   10.6060   13.2360 C   0  0  0  0  0
   -7.3640    0.8210   16.7420 O   0  0  0  0  0
   -5.9450    0.8530   16.7900 S   0  0  0  0  0
   -5.4660    0.9050   18.1350 O   0  0  0  0  0
   -5.4040   -0.5290   16.0920 N   0  0  0  0  0
   -5.4420    2.1790   15.9900 C   0  0  0  0  0
   -4.0290    5.7640   13.5980 S   0  0  0  0  0
   -1.7240    6.5880   14.6060 C   0  0  0  0  0
   -1.6320    7.9920   14.1050 C   0  0  0  0  0
   -1.9900    8.2800   12.7930 C   0  0  0  0  0
   -1.9200    9.6030   12.3750 C   0  0  0  0  0
   -1.1290   10.3010   14.5410 C   0  0  0  0  0
   -1.2000    8.9890   14.9780 C   0  0  0  0  0
   -3.4222    1.4967   15.7336 H   0  0  0  0  0
   -2.6749    3.4700   14.4439 H   0  0  0  0  0
   -7.3507    3.1750   15.9833 H   0  0  0  0  0
   -6.6082    5.1707   14.7258 H   0  0  0  0  0
   -1.9384    6.0185   12.5382 H   0  0  0  0  0
   -1.9460    4.6617   13.6647 H   0  0  0  0  0
   -1.4239   11.6355   12.8832 H   0  0  0  0  0
   -6.0695   -1.2104   15.7271 H   0  0  0  0  0
   -4.4020   -0.7071   16.0228 H   0  0  0  0  0
   -0.7296    6.2394   14.8848 H   0  0  0  0  0
   -2.3834    6.5578   15.4734 H   0  0  0  0  0
   -2.3155    7.4924   12.1134 H   0  0  0  0  0
   -2.2105    9.8596   11.3562 H   0  0  0  0  0
   -0.7958   11.0880   15.2176 H   0  0  0  0  0
   -0.9192    8.7369   16.0006 H   0  0  0  0  0
  2  1  4  0  0  0
  1 12  4  0  0  0
  5  2  4  0  0  0
  4  3  4  0  0  0
  3 12  4  0  0  0
  5  4  4  0  0  0
 13  5  1  0  0  0
  6 13  1  0  0  0
 14  6  1  0  0  0
 17  7  4  0  0  0
  7 18  4  0  0  0
  9  8  2  0  0  0
  9 10  2  0  0  0
  9 11  1  0  0  0
 12  9  1  0  0  0
 15 14  1  0  0  0
 16 15  4  0  0  0
 15 19  4  0  0  0
 16 17  4  0  0  0
 18 19  4  0  0  0
  1 20  1  0  0  0
  2 21  1  0  0  0
  3 22  1  0  0  0
  4 23  1  0  0  0
  6 24  1  0  0  0
  6 25  1  0  0  0
  7 26  1  0  0  0
 11 27  1  0  0  0
 11 28  1  0  0  0
 14 29  1  0  0  0
 14 30  1  0  0  0
 16 31  1  0  0  0
 17 32  1  0  0  0
 18 33  1  0  0  0
 19 34  1  0  0  0
M  END
$$$$
