4crl_ligand
  -I-interpret- 

 72 78  0  0  0  0  0  0  0  0999 V2000
    2.2190   17.7910   -2.7150 C   0  0  0  0  0
    2.8140   16.4630   -2.5380 N   0  3  0  0  0
    2.2750   15.8570   -1.3190 C   0  0  0  0  0
    2.5760   15.6070   -3.7040 C   0  0  0  0  0
    1.0770   15.4470   -3.8750 C   0  0  0  0  0
    0.6930   14.6220   -5.0960 C   0  0  0  0  0
    0.7400   13.1060   -4.8800 C   0  0  0  0  0
   -0.3630   12.6070   -5.8570 C   0  0  0  0  0
   -1.0680   13.8740   -6.3710 C   0  0  0  0  0
   -0.7000   14.8810   -5.4100 O   0  0  0  0  0
   -0.4060   14.3240   -7.6770 C   0  0  0  0  0
    0.9620   14.7900   -7.5340 C   0  0  0  0  0
    1.5350   14.9600   -6.3070 C   0  0  0  0  0
    2.9530   15.4280   -6.1810 C   0  0  0  0  0
    3.2900   16.2120   -7.3180 O   0  0  0  0  0
    3.1680   16.2790   -4.9400 C   0  0  0  0  0
    4.5660   16.4470   -4.7470 O   0  0  0  0  0
   -1.0280   14.3050   -8.8300 C   0  0  0  0  0
   -2.4450   13.8410   -9.0080 C   0  0  0  0  0
   -2.9670   13.0740   -7.8180 C   0  0  0  0  0
   -2.4470   11.6390   -7.8520 C   0  0  0  0  0
   -4.4650   13.0780   -7.5710 C   0  0  0  0  0
   -4.5880   12.5110   -6.1400 C   0  0  0  0  0
   -3.2750   12.9250   -5.4360 C   0  0  0  0  0
   -2.5660   13.7780   -6.4940 C   0  0  0  0  0
   -5.2740   12.3200   -8.5920 C   0  0  0  0  0
   -5.9290   11.1760   -8.2710 C   0  0  0  0  0
   -6.6850   10.5210   -9.2460 C   0  0  0  0  0
   -7.3780    9.3340   -8.9880 C   0  0  0  0  0
   -8.0750    8.7650   -9.9330 N   0  0  0  0  0
   -8.1600    9.2490  -11.1520 C   0  0  0  0  0
   -7.5280   10.3940  -11.4980 C   0  0  0  0  0
   -6.7640   11.0680  -10.5420 C   0  0  0  0  0
   -6.0860   12.2510  -10.8340 C   0  0  0  0  0
   -5.3630   12.8560   -9.8650 C   0  0  0  0  0
    2.6572   18.2703   -3.5904 H   0  0  0  0  0
    1.1428   17.6898   -2.8551 H   0  0  0  0  0
    2.4162   18.3969   -1.8306 H   0  0  0  0  0
    3.8251   16.5623   -2.4478 H   0  0  0  0  0
    1.2006   15.7116   -1.4315 H   0  0  0  0  0
    2.7574   14.8944   -1.1493 H   0  0  0  0  0
    2.4671   16.5155   -0.4719 H   0  0  0  0  0
    3.0413   14.6306   -3.5689 H   0  0  0  0  0
    0.6526   16.4427   -4.0042 H   0  0  0  0  0
    0.6993   14.9269   -2.9947 H   0  0  0  0  0
    0.5661   12.8114   -3.8451 H   0  0  0  0  0
    1.7202   12.6717   -5.0767 H   0  0  0  0  0
   -1.0632   11.9374   -5.3575 H   0  0  0  0  0
    0.0639   12.0293   -6.6768 H   0  0  0  0  0
    1.5453   15.0093   -8.4283 H   0  0  0  0  0
    3.5829   14.5416   -6.1062 H   0  0  0  0  0
    4.1982   16.5132   -7.2398 H   0  0  0  0  0
    2.6730   17.2399   -5.0807 H   0  0  0  0  0
    4.7178   16.9834   -3.9654 H   0  0  0  0  0
   -0.4851   14.6459   -9.7116 H   0  0  0  0  0
   -2.4708   13.1747   -9.8703 H   0  0  0  0  0
   -3.0707   14.7245   -9.1345 H   0  0  0  0  0
   -2.7838   11.1535   -8.7679 H   0  0  0  0  0
   -1.3574   11.6480   -7.8235 H   0  0  0  0  0
   -2.8298   11.0946   -6.9888 H   0  0  0  0  0
   -4.8889   14.0773   -7.6702 H   0  0  0  0  0
   -4.7231   11.4294   -6.1426 H   0  0  0  0  0
   -5.4653   12.9005   -5.6235 H   0  0  0  0  0
   -2.6801   12.0690   -5.1175 H   0  0  0  0  0
   -3.4485   13.4663   -4.5059 H   0  0  0  0  0
   -2.8679   14.8215   -6.4046 H   0  0  0  0  0
   -5.8658   10.7715   -7.2608 H   0  0  0  0  0
   -7.3358    8.8836   -7.9963 H   0  0  0  0  0
   -8.7508    8.7178  -11.8982 H   0  0  0  0  0
   -7.6139   10.7863  -12.5113 H   0  0  0  0  0
   -6.1384   12.6835  -11.8332 H   0  0  0  0  0
   -4.8394   13.7849  -10.0909 H   0  0  0  0  0
  1  2  1  0  0  0
  2  3  1  0  0  0
  2  4  1  0  0  0
  4  5  1  0  0  0
  4 16  1  0  0  0
  5  6  1  0  0  0
  6  7  1  0  0  0
  6 10  1  0  0  0
  6 13  1  0  0  0
  7  8  1  0  0  0
  8  9  1  0  0  0
  9 10  1  0  0  0
  9 11  1  0  0  0
  9 25  1  0  0  0
 11 12  1  0  0  0
 11 18  2  0  0  0
 12 13  2  0  0  0
 13 14  1  0  0  0
 14 15  1  0  0  0
 14 16  1  0  0  0
 16 17  1  0  0  0
 18 19  1  0  0  0
 19 20  1  0  0  0
 20 21  1  0  0  0
 20 22  1  0  0  0
 20 25  1  0  0  0
 22 23  1  0  0  0
 22 26  1  0  0  0
 23 24  1  0  0  0
 24 25  1  0  0  0
 26 27  4  0  0  0
 26 35  4  0  0  0
 27 28  4  0  0  0
 28 29  4  0  0  0
 28 33  4  0  0  0
 29 30  4  0  0  0
 30 31  4  0  0  0
 31 32  4  0  0  0
 32 33  4  0  0  0
 33 34  4  0  0  0
 34 35  4  0  0  0
  1 36  1  0  0  0
  1 37  1  0  0  0
  1 38  1  0  0  0
  2 39  1  0  0  0
  3 40  1  0  0  0
  3 41  1  0  0  0
  3 42  1  0  0  0
  4 43  1  0  0  0
  5 44  1  0  0  0
  5 45  1  0  0  0
  7 46  1  0  0  0
  7 47  1  0  0  0
  8 48  1  0  0  0
  8 49  1  0  0  0
 12 50  1  0  0  0
 14 51  1  0  0  0
 15 52  1  0  0  0
 16 53  1  0  0  0
 17 54  1  0  0  0
 18 55  1  0  0  0
 19 56  1  0  0  0
 19 57  1  0  0  0
 21 58  1  0  0  0
 21 59  1  0  0  0
 21 60  1  0  0  0
 22 61  1  0  0  0
 23 62  1  0  0  0
 23 63  1  0  0  0
 24 64  1  0  0  0
 24 65  1  0  0  0
 25 66  1  0  0  0
 27 67  1  0  0  0
 29 68  1  0  0  0
 31 69  1  0  0  0
 32 70  1  0  0  0
 34 71  1  0  0  0
 35 72  1  0  0  0
M  END
$$$$
