6ind_ligand
  -I-interpret- 

 53 56  0  0  0  0  0  0  0  0999 V2000
   83.0210  156.6270   24.7240 C   0  0  0  0  0
   83.5060  156.0470   28.6590 C   0  0  0  0  0
   82.2980  157.5340   25.5090 C   0  0  0  0  0
   81.3040  158.3090   24.9190 C   0  0  0  0  0
   84.4820  154.8820   23.1560 C   0  0  0  0  0
   82.6600  157.6610   26.9600 C   0  0  0  0  0
   80.6490  159.0590   27.2140 C   0  0  0  0  0
   80.5080  159.3000   25.7290 C   0  0  0  0  0
   80.7690  157.9620   20.7060 C   0  0  0  0  0
   82.7790  159.6940   28.3320 C   0  0  0  0  0
   82.3250  156.3900   27.7610 C   0  0  0  0  0
   82.0580  158.8590   27.5530 N   0  0  0  0  0
   83.0180  153.2560   31.0420 N   0  0  0  0  0
   82.7550  156.4840   23.3830 C   0  0  0  0  0
   81.0450  158.1600   23.5470 C   0  0  0  0  0
   83.3670  154.7550   29.4030 C   0  0  0  0  0
   83.0460  154.5870   30.7200 C   0  0  0  0  0
   83.3240  152.5220   29.9210 C   0  0  0  0  0
   83.5510  153.4320   28.8650 C   0  0  0  0  0
   83.4210  151.1450   29.7510 C   0  0  0  0  0
   81.7420  157.2540   22.7800 C   0  0  0  0  0
   83.7540  150.6640   28.4940 C   0  0  0  0  0
   83.9760  151.5540   27.4410 C   0  0  0  0  0
   83.8820  152.9170   27.6040 C   0  0  0  0  0
   83.8680  149.1850   28.2500 C   0  0  0  0  0
   81.5580  157.0280   21.4390 O   0  0  0  0  0
   83.4100  155.6110   22.5610 O   0  0  0  0  0
   82.3890  160.7640   28.7610 O   0  0  0  0  0
   83.8059  156.0259   25.1830 H   0  0  0  0  0
   83.5792  156.8381   29.4052 H   0  0  0  0  0
   84.3794  155.9509   28.0140 H   0  0  0  0  0
   85.2352  155.5798   23.5218 H   0  0  0  0  0
   84.0995  154.2896   23.9872 H   0  0  0  0  0
   84.9275  154.2215   22.4121 H   0  0  0  0  0
   83.7426  157.7770   27.0122 H   0  0  0  0  0
   80.0826  158.1695   27.4897 H   0  0  0  0  0
   80.2673  159.9237   27.7569 H   0  0  0  0  0
   79.4564  159.1908   25.4640 H   0  0  0  0  0
   80.8823  160.2997   25.5086 H   0  0  0  0  0
   79.7649  157.9981   21.1287 H   0  0  0  0  0
   81.2264  158.9495   20.7678 H   0  0  0  0  0
   80.7145  157.6501   19.6630 H   0  0  0  0  0
   83.7901  159.3852   28.5975 H   0  0  0  0  0
   81.4371  156.5614   28.3695 H   0  0  0  0  0
   82.1303  155.5641   27.0769 H   0  0  0  0  0
   80.2758  158.7747   23.0794 H   0  0  0  0  0
   82.8407  155.3990   31.4175 H   0  0  0  0  0
   83.2404  150.4635   30.5822 H   0  0  0  0  0
   84.2318  151.1563   26.4589 H   0  0  0  0  0
   84.0625  153.5874   26.7637 H   0  0  0  0  0
   84.6382  148.7692   28.8996 H   0  0  0  0  0
   82.9121  148.7077   28.4659 H   0  0  0  0  0
   84.1361  149.0095   27.2081 H   0  0  0  0  0
  1  3  4  0  0  0
 14  1  4  0  0  0
 11  2  1  0  0  0
  2 16  1  0  0  0
  4  3  4  0  0  0
  3  6  1  0  0  0
  4  8  1  0  0  0
 15  4  4  0  0  0
 27  5  1  0  0  0
  6 11  1  0  0  0
  6 12  1  0  0  0
  8  7  1  0  0  0
  7 12  1  0  0  0
 26  9  1  0  0  0
 12 10  1  0  0  0
 10 28  2  0  0  0
 17 13  4  0  0  0
 18 13  4  0  0  0
 21 14  4  0  0  0
 14 27  1  0  0  0
 21 15  4  0  0  0
 16 17  4  0  0  0
 16 19  4  0  0  0
 19 18  4  0  0  0
 18 20  4  0  0  0
 19 24  4  0  0  0
 20 22  4  0  0  0
 21 26  1  0  0  0
 22 23  4  0  0  0
 22 25  1  0  0  0
 23 24  4  0  0  0
  1 29  1  0  0  0
  2 30  1  0  0  0
  2 31  1  0  0  0
  5 32  1  0  0  0
  5 33  1  0  0  0
  5 34  1  0  0  0
  6 35  1  0  0  0
  7 36  1  0  0  0
  7 37  1  0  0  0
  8 38  1  0  0  0
  8 39  1  0  0  0
  9 40  1  0  0  0
  9 41  1  0  0  0
  9 42  1  0  0  0
 10 43  1  0  0  0
 11 44  1  0  0  0
 11 45  1  0  0  0
 15 46  1  0  0  0
 17 47  1  0  0  0
 20 48  1  0  0  0
 23 49  1  0  0  0
 24 50  1  0  0  0
 25 51  1  0  0  0
 25 52  1  0  0  0
 25 53  1  0  0  0
M  END
$$$$
