2hmv_ligand
  -I-interpret- 

 42 44  0  0  0  0  0  0  0  0999 V2000
  113.2460   48.3660   16.9490 P   0  0  0  0  0
  114.2380   48.9890   17.8610 O   0  0  0  0  0
  112.3360   47.3160   17.7720 O   0  0  0  0  0
  114.0200   47.5760   15.7780 O   0  0  0  0  0
  111.4900   50.3560   17.3990 P   0  0  0  0  0
  111.1080   49.4900   18.5390 O   0  0  0  0  0
  112.4170   51.5670   17.9370 O   0  0  0  0  0
  112.3110   49.5150   16.2730 O   0  0  0  0  0
  109.0940   55.2360   13.3070 N   0  0  0  0  0
  109.6030   56.1370   14.2170 C   0  0  0  0  0
  109.0230   57.2920   14.0780 N   0  0  0  0  0
  108.1080   57.2170   13.0820 C   0  0  0  0  0
  107.1920   58.1260   12.4810 C   0  0  0  0  0
  107.1020   59.4350   12.9280 N   0  0  0  0  0
  106.4050   57.6840   11.4670 N   0  0  0  0  0
  106.4760   56.4190   11.0210 C   0  0  0  0  0
  107.3280   55.5330   11.5580 N   0  0  0  0  0
  108.1490   55.8880   12.5710 C   0  0  0  0  0
  110.1160   50.9120   16.7290 O   0  0  0  0  0
  110.3940   52.1110   16.0130 C   0  0  0  0  0
  109.9650   51.9800   14.5470 C   0  0  0  0  0
  108.9600   52.9990   14.2190 O   0  0  0  0  0
  111.1700   52.2060   13.5970 C   0  0  0  0  0
  111.1270   51.2820   12.5010 O   0  0  0  0  0
  110.9990   53.6640   13.1670 C   0  0  0  0  0
  111.6250   53.9430   11.9170 O   0  0  0  0  0
  109.4770   53.8250   13.1300 C   0  0  0  0  0
  111.6960   46.9154   17.1790 H   0  0  0  0  0
  113.3791   47.1728   15.1878 H   0  0  0  0  0
  112.6659   52.1297   17.2001 H   0  0  0  0  0
  110.3800   55.9134   14.9480 H   0  0  0  0  0
  107.6952   59.7543   13.6939 H   0  0  0  0  0
  106.4426   60.0789   12.4910 H   0  0  0  0  0
  105.8264   56.1052   10.2039 H   0  0  0  0  0
  111.4664   52.3025   16.0501 H   0  0  0  0  0
  109.8394   52.9305   16.4701 H   0  0  0  0  0
  109.5610   50.9761   14.4164 H   0  0  0  0  0
  112.1436   52.0331   14.0557 H   0  0  0  0  0
  111.8789   51.4361   11.9243 H   0  0  0  0  0
  111.4806   54.3728   13.8406 H   0  0  0  0  0
  111.4901   54.8664   11.6919 H   0  0  0  0  0
  109.0663   53.5143   12.1693 H   0  0  0  0  0
  1  2  2  0  0  0
  1  3  1  0  0  0
  1  4  1  0  0  0
  8  1  1  0  0  0
  5  6  2  0  0  0
  5  7  1  0  0  0
  5  8  1  0  0  0
 19  5  1  0  0  0
  9 10  4  0  0  0
  9 18  4  0  0  0
 27  9  1  0  0  0
 10 11  4  0  0  0
 12 11  4  0  0  0
 12 13  4  0  0  0
 18 12  4  0  0  0
 13 14  1  0  0  0
 13 15  4  0  0  0
 16 15  4  0  0  0
 17 16  4  0  0  0
 18 17  4  0  0  0
 20 19  1  0  0  0
 21 20  1  0  0  0
 22 21  1  0  0  0
 21 23  1  0  0  0
 22 27  1  0  0  0
 23 24  1  0  0  0
 23 25  1  0  0  0
 25 26  1  0  0  0
 25 27  1  0  0  0
  3 28  1  0  0  0
  4 29  1  0  0  0
  7 30  1  0  0  0
 10 31  1  0  0  0
 14 32  1  0  0  0
 14 33  1  0  0  0
 16 34  1  0  0  0
 20 35  1  0  0  0
 20 36  1  0  0  0
 21 37  1  0  0  0
 23 38  1  0  0  0
 24 39  1  0  0  0
 25 40  1  0  0  0
 26 41  1  0  0  0
 27 42  1  0  0  0
M  END
$$$$
