4bcd_ligand
  -I-interpret- 

 65 69  0  0  0  0  0  0  0  0999 V2000
   42.7490   37.6400   86.5450 C   0  0  0  0  0
   44.1820   37.9120   86.0560 C   0  0  0  0  0
   45.2600   37.8390   87.1530 C   0  0  0  0  0
   45.3870   36.4340   87.7660 C   0  0  0  0  0
   45.6020   35.3310   86.9580 C   0  0  0  0  0
   45.3150   36.3010   89.1400 C   0  0  0  0  0
   45.7180   34.0590   87.5160 C   0  0  0  0  0
   45.4190   35.0230   89.7220 C   0  0  0  0  0
   45.6260   33.9000   88.9050 C   0  0  0  0  0
   41.7980   37.2600   85.4110 C   0  0  0  0  0
   42.2140   37.1100   84.2470 O   0  0  0  0  0
   33.2450   42.1010   91.8400 F   0  0  0  0  0
   33.9950   41.1550   91.2410 C   0  0  0  0  0
   35.0640   41.5440   90.4340 C   0  0  0  0  0
   35.8480   40.5720   89.8100 C   0  0  0  0  0
   33.7090   39.7960   91.4210 C   0  0  0  0  0
   34.5010   38.8240   90.7930 C   0  0  0  0  0
   35.5800   39.2090   89.9920 C   0  0  0  0  0
   36.4380   38.1840   89.3000 C   0  0  0  0  0
   36.5160   36.9620   89.8650 N   0  0  0  0  0
   37.3460   36.1710   89.0430 N   0  0  0  0  0
   37.2130   38.2500   88.1620 C   0  0  0  0  0
   37.7220   37.0290   87.9950 N   0  0  0  0  0
   38.6460   36.4510   86.9730 C   0  0  0  0  0
   39.9230   37.2530   87.0930 C   0  0  0  0  0
   38.1770   36.6100   85.5260 C   0  0  0  0  0
   39.4810   36.7340   84.7400 C   0  0  0  0  0
   39.4000   37.7860   83.6440 C   0  0  0  0  0
   39.7200   38.9680   83.8730 O   0  0  0  0  0
   40.5000   37.1040   85.7370 N   0  0  0  0  0
   38.9760   37.4040   82.4450 N   0  0  0  0  0
   38.8990   38.3780   81.3470 C   0  0  0  0  0
   38.4340   37.5290   80.1780 C   0  0  0  0  0
   37.7060   36.3580   80.8660 C   0  0  0  0  0
   38.5400   36.0370   82.1090 C   0  0  0  0  0
   42.3734   38.5551   87.0029 H   0  0  0  0  0
   42.7877   36.8033   87.2425 H   0  0  0  0  0
   44.1961   38.9290   85.6641 H   0  0  0  0  0
   44.4201   37.1394   85.3249 H   0  0  0  0  0
   44.9755   38.5274   87.9488 H   0  0  0  0  0
   46.2176   38.0946   86.6994 H   0  0  0  0  0
   45.6811   35.4579   85.8783 H   0  0  0  0  0
   45.1785   37.1804   89.7694 H   0  0  0  0  0
   45.8795   33.1923   86.8750 H   0  0  0  0  0
   45.3391   34.9060   90.8027 H   0  0  0  0  0
   45.7147   32.9087   89.3495 H   0  0  0  0  0
   35.2861   42.6015   90.2913 H   0  0  0  0  0
   36.6786   40.8772   89.1736 H   0  0  0  0  0
   32.8710   39.4938   92.0491 H   0  0  0  0  0
   34.2749   37.7665   90.9297 H   0  0  0  0  0
   37.3763   39.1218   87.5284 H   0  0  0  0  0
   38.7308   35.3813   87.1645 H   0  0  0  0  0
   40.5829   36.9029   87.8868 H   0  0  0  0  0
   39.7586   38.2906   87.3836 H   0  0  0  0  0
   37.5241   37.4723   85.3908 H   0  0  0  0  0
   37.5652   35.7725   85.1907 H   0  0  0  0  0
   39.7142   35.7997   84.2292 H   0  0  0  0  0
   39.8479   38.8794   81.1568 H   0  0  0  0  0
   38.2269   39.2086   81.5625 H   0  0  0  0  0
   39.2560   37.1997   79.5425 H   0  0  0  0  0
   37.7930   38.0769   79.4874 H   0  0  0  0  0
   37.6220   35.4948   80.2057 H   0  0  0  0  0
   36.6813   36.6214   81.1279 H   0  0  0  0  0
   38.0053   35.5143   82.9021 H   0  0  0  0  0
   39.3460   35.3201   81.9524 H   0  0  0  0  0
  1  2  1  0  0  0
 10  1  1  0  0  0
  2  3  1  0  0  0
  3  4  1  0  0  0
  4  5  4  0  0  0
  4  6  4  0  0  0
  5  7  4  0  0  0
  6  8  4  0  0  0
  7  9  4  0  0  0
  8  9  4  0  0  0
 10 11  2  0  0  0
 30 10  1  0  0  0
 13 12  1  0  0  0
 14 13  4  0  0  0
 16 13  4  0  0  0
 15 14  4  0  0  0
 18 15  4  0  0  0
 17 16  4  0  0  0
 18 17  4  0  0  0
 19 18  1  0  0  0
 19 20  4  0  0  0
 22 19  4  0  0  0
 21 20  4  0  0  0
 23 21  4  0  0  0
 23 22  4  0  0  0
 24 23  1  0  0  0
 25 24  1  0  0  0
 24 26  1  0  0  0
 25 30  1  0  0  0
 26 27  1  0  0  0
 27 28  1  0  0  0
 27 30  1  0  0  0
 28 29  2  0  0  0
 28 31  1  0  0  0
 31 32  1  0  0  0
 31 35  1  0  0  0
 32 33  1  0  0  0
 33 34  1  0  0  0
 34 35  1  0  0  0
  1 36  1  0  0  0
  1 37  1  0  0  0
  2 38  1  0  0  0
  2 39  1  0  0  0
  3 40  1  0  0  0
  3 41  1  0  0  0
  5 42  1  0  0  0
  6 43  1  0  0  0
  7 44  1  0  0  0
  8 45  1  0  0  0
  9 46  1  0  0  0
 14 47  1  0  0  0
 15 48  1  0  0  0
 16 49  1  0  0  0
 17 50  1  0  0  0
 22 51  1  0  0  0
 24 52  1  0  0  0
 25 53  1  0  0  0
 25 54  1  0  0  0
 26 55  1  0  0  0
 26 56  1  0  0  0
 27 57  1  0  0  0
 32 58  1  0  0  0
 32 59  1  0  0  0
 33 60  1  0  0  0
 33 61  1  0  0  0
 34 62  1  0  0  0
 34 63  1  0  0  0
 35 64  1  0  0  0
 35 65  1  0  0  0
M  END
$$$$
