2gbf_ligand
  -I-interpret- 

 39 40  0  0  0  0  0  0  0  0999 V2000
   14.2770   39.3180  -83.2740 C   0  0  0  0  0
   16.3030   38.0390  -83.7990 C   0  0  0  0  0
   14.8080   37.1930  -81.9510 C   0  0  0  0  0
   14.7050   39.6530  -84.7050 C   0  0  0  0  0
   14.6430   40.4170  -82.3370 C   0  0  0  0  0
   16.1700   39.2400  -84.7620 C   0  0  0  0  0
   17.6420   38.2860  -83.0870 C   0  0  0  0  0
   13.5140   37.3610  -81.1060 C   0  0  0  0  0
   15.0970   38.1240  -82.9370 N   0  0  0  0  0
   15.5130   36.2210  -81.6980 O   0  0  0  0  0
   14.9620   41.2570  -81.5540 C   0  0  0  0  0
   17.6880   38.5860  -81.7720 N   0  0  0  0  0
   13.6630   38.0850  -79.7540 C   0  0  0  0  0
   12.9760   36.0280  -80.9300 N   0  3  0  0  0
   12.3420   38.5400  -79.1320 C   0  0  0  0  0
   14.3010   37.3000  -78.6140 C   0  0  0  0  0
   12.7300   38.9590  -77.7140 C   0  0  0  0  0
   13.9970   38.1560  -77.3790 C   0  0  0  0  0
   13.2008   39.1644  -83.1947 H   0  0  0  0  0
   16.3301   37.0353  -84.2232 H   0  0  0  0  0
   14.5652   40.7081  -84.9402 H   0  0  0  0  0
   14.1012   39.1320  -85.4480 H   0  0  0  0  0
   16.4686   38.9721  -85.7755 H   0  0  0  0  0
   16.8260   40.0596  -84.4686 H   0  0  0  0  0
   18.5706   38.2178  -83.6537 H   0  0  0  0  0
   12.8470   38.0292  -81.6507 H   0  0  0  0  0
   16.8243   38.6521  -81.2335 H   0  0  0  0  0
   14.3063   38.9011  -80.0832 H   0  0  0  0  0
   12.8890   35.5749  -81.8397 H   0  0  0  0  0
   13.6035   35.4850  -80.3369 H   0  0  0  0  0
   12.0579   36.0886  -80.4898 H   0  0  0  0  0
   11.5875   37.7534  -79.1399 H   0  0  0  0  0
   11.8783   39.3522  -79.6919 H   0  0  0  0  0
   15.3694   37.1420  -78.7611 H   0  0  0  0  0
   13.9050   36.2880  -78.5296 H   0  0  0  0  0
   11.9286   38.7540  -77.0042 H   0  0  0  0  0
   12.9095   40.0322  -77.6503 H   0  0  0  0  0
   14.8309   38.8178  -77.1451 H   0  0  0  0  0
   13.8455   37.5333  -76.4973 H   0  0  0  0  0
  1  4  1  0  0  0
  1  5  1  0  0  0
  9  1  1  0  0  0
  2  6  1  0  0  0
  2  7  1  0  0  0
  9  2  1  0  0  0
  3  8  1  0  0  0
  3  9  1  0  0  0
  3 10  2  0  0  0
  4  6  1  0  0  0
  5 11  3  0  0  0
  7 12  2  0  0  0
  8 13  1  0  0  0
  8 14  1  0  0  0
 13 15  1  0  0  0
 13 16  1  0  0  0
 15 17  1  0  0  0
 16 18  1  0  0  0
 17 18  1  0  0  0
  1 19  1  0  0  0
  2 20  1  0  0  0
  4 21  1  0  0  0
  4 22  1  0  0  0
  6 23  1  0  0  0
  6 24  1  0  0  0
  7 25  1  0  0  0
  8 26  1  0  0  0
 12 27  1  0  0  0
 13 28  1  0  0  0
 14 29  1  0  0  0
 14 30  1  0  0  0
 14 31  1  0  0  0
 15 32  1  0  0  0
 15 33  1  0  0  0
 16 34  1  0  0  0
 16 35  1  0  0  0
 17 36  1  0  0  0
 17 37  1  0  0  0
 18 38  1  0  0  0
 18 39  1  0  0  0
M  END
$$$$
