### 
### Created by X-TOOL on Mon Sep 10 21:12:55 2018
### 

@<TRIPOS>MOLECULE
2gbf_ligand
   40    41     1     0     0
SMALL
GAST_HUCK


@<TRIPOS>ATOM
      1 C2         14.2770   39.3180  -83.2740 C.3       1 AIA         0.1095
      2 C3         16.3030   38.0390  -83.7990 C.3       1 AIA         0.1050
      3 C4         14.8080   37.1930  -81.9510 C.2       1 AIA         0.2314
      4 C5         14.7050   39.6530  -84.7050 C.3       1 AIA        -0.0131
      5 C6         14.6430   40.4170  -82.3370 C.1       1 AIA        -0.0772
      6 C7         16.1700   39.2400  -84.7620 C.3       1 AIA        -0.0084
      7 C8         17.6420   38.2860  -83.0870 C.2       1 AIA         0.0209
      8 C9         13.5140   37.3610  -81.1060 C.3       1 AIA         0.0682
      9 N1         15.0970   38.1240  -82.9370 N.am      1 AIA        -0.2312
     10 O10        15.5130   36.2210  -81.6980 O.2       1 AIA        -0.3904
     11 C11        14.9620   41.2570  -81.5540 C.1       1 AIA        -0.1168
     12 N12        17.6880   38.5860  -81.7720 N.2       1 AIA        -0.3619
     13 C13        13.6630   38.0850  -79.7540 C.3       1 AIA         0.0195
     14 N14        12.9760   36.0280  -80.9300 N.4       1 AIA         0.2381
     15 C16        12.3420   38.5400  -79.1320 C.3       1 AIA        -0.0429
     16 C17        14.3010   37.3000  -78.6140 C.3       1 AIA        -0.0429
     17 C18        12.7300   38.9590  -77.7140 C.3       1 AIA        -0.0525
     18 C19        13.9970   38.1560  -77.3790 C.3       1 AIA        -0.0525
     19 H1         13.1991   39.1065  -83.2163 H         1 AIA         0.0699
     20 H2         16.3245   37.0743  -84.3271 H         1 AIA         0.0842
     21 H3         14.5949   40.7293  -84.9035 H         1 AIA         0.0300
     22 H4         14.1102   39.0830  -85.4339 H         1 AIA         0.0300
     23 H5         16.4455   38.9439  -85.7849 H         1 AIA         0.0324
     24 H6         16.8151   40.0683  -84.4337 H         1 AIA         0.0324
     25 H7         18.5698   38.2178  -83.6532 H         1 AIA         0.1225
     26 H8         12.8027   37.9518  -81.7018 H         1 AIA         0.1101
     27 H9         15.2446   42.0013  -80.8602 H         1 AIA         0.1229
     28 H10        18.5759   38.7448  -81.3220 H         1 AIA         0.1054
     29 H11        14.2848   38.9704  -79.9527 H         1 AIA         0.0381
     30 H12        12.8896   35.5792  -81.8284 H         1 AIA         0.2015
     31 H13        12.0685   36.0866  -80.4951 H         1 AIA         0.2015
     32 H14        13.5954   35.4903  -80.3441 H         1 AIA         0.2015
     33 H15        11.6143   37.7154  -79.1113 H         1 AIA         0.0271
     34 H16        11.9187   39.3888  -79.6891 H         1 AIA         0.0271
     35 H17        15.3858   37.1983  -78.7650 H         1 AIA         0.0271
     36 H18        13.8484   36.3017  -78.5219 H         1 AIA         0.0271
     37 H19        11.9230   38.7158  -77.0072 H         1 AIA         0.0265
     38 H20        12.9381   40.0385  -77.6757 H         1 AIA         0.0265
     39 H21        14.8357   38.8366  -77.1711 H         1 AIA         0.0265
     40 H22        13.8206   37.5134  -76.5038 H         1 AIA         0.0265
@<TRIPOS>BOND
     1    1    4 1  
     2    1    5 1  
     3    9    1 1  
     4    2    6 1  
     5    2    7 1  
     6    9    2 1  
     7    3    8 1  
     8    3    9 am 
     9    3   10 2  
    10    4    6 1  
    11    5   11 3  
    12    7   12 2  
    13    8   13 1  
    14    8   14 1  
    15   13   15 1  
    16   13   16 1  
    17   15   17 1  
    18   16   18 1  
    19   17   18 1  
    20    1   19 1  
    21    2   20 1  
    22    4   21 1  
    23    4   22 1  
    24    6   23 1  
    25    6   24 1  
    26    7   25 1  
    27    8   26 1  
    28   11   27 1  
    29   12   28 1  
    30   13   29 1  
    31   14   30 1  
    32   14   31 1  
    33   14   32 1  
    34   15   33 1  
    35   15   34 1  
    36   16   35 1  
    37   16   36 1  
    38   17   37 1  
    39   17   38 1  
    40   18   39 1  
    41   18   40 1  
@<TRIPOS>SUBSTRUCTURE
     1 AIA         1

