4k9h_ligand
  -I-interpret- 

 82 86  0  0  0  0  0  0  0  0999 V2000
   60.6160  -15.8510   20.5330 O   0  0  0  0  0
   61.4090  -16.4100   21.3220 C   0  0  0  0  0
   60.9310  -17.2990   22.4310 C   0  0  0  0  0
   62.2270  -17.6360   23.2290 C   0  0  0  0  0
   63.3930  -17.1810   22.3610 C   0  0  0  0  0
   62.7750  -16.3600   21.3070 N   0  0  0  0  0
   63.4630  -15.6940   20.4070 C   0  0  0  0  0
   64.2330  -14.5470   20.7080 C   0  0  0  0  0
   63.3440  -16.1380   19.0970 C   0  0  0  0  0
   62.6530  -17.0980   18.7880 O   0  0  0  0  0
   63.9750  -15.4870   18.1080 N   0  0  0  0  0
   63.8120  -16.0310   16.7620 C   0  0  0  0  0
   65.2040  -16.3140   16.1130 C   0  0  0  0  0
   65.1910  -15.5550   14.8160 C   0  0  0  0  0
   64.1970  -14.4310   15.0620 C   0  0  0  0  0
   63.0630  -15.0630   15.8380 C   0  0  0  0  0
   64.7190  -14.3650   18.3690 C   0  0  0  0  0
   64.8970  -13.8990   19.6620 C   0  0  0  0  0
   65.7420  -12.6150   19.8810 C   0  0  0  0  0
   66.2810  -12.4370   20.9630 O   0  0  0  0  0
   65.5620  -11.6330   18.9870 N   0  0  0  0  0
   66.3500  -10.3900   19.0030 C   0  0  0  0  0
   66.9600  -10.1810   17.5900 C   0  0  0  0  0
   67.5310  -11.5040   17.0100 C   0  0  0  0  0
   68.3160  -12.3670   17.7790 C   0  0  0  0  0
   68.7930  -13.5630   17.2400 C   0  0  0  0  0
   68.5380  -13.8840   15.9180 C   0  0  0  0  0
   67.7800  -13.0170   15.1530 C   0  0  0  0  0
   67.2660  -11.8590   15.7050 C   0  0  0  0  0
   65.6680   -9.1330   19.4560 C   0  0  0  0  0
   66.5710   -8.0390   19.2730 O   0  0  0  0  0
   65.2960   -9.1750   20.9410 C   0  0  0  0  0
   64.9230   -7.8290   21.3490 N   0  3  0  0  0
   64.8810   -7.7080   22.8450 C   0  0  0  0  0
   66.3560   -7.5570   23.3620 C   0  0  0  0  0
   67.2620   -6.6420   22.7790 C   0  0  0  0  0
   66.7710   -8.3570   24.4120 C   0  0  0  0  0
   68.0960   -8.2220   24.8520 C   0  0  0  0  0
   68.9720   -7.3200   24.2710 C   0  0  0  0  0
   68.5650   -6.4900   23.2400 C   0  0  0  0  0
   69.5670   -5.4560   22.5740 C   0  0  0  0  0
   70.7020   -5.2660   23.2260 F   0  0  0  0  0
   69.0640   -4.2370   22.3880 F   0  0  0  0  0
   69.8560   -5.9640   21.4010 F   0  0  0  0  0
   60.4313  -18.1929   22.0578 H   0  0  0  0  0
   60.1771  -16.8156   23.0523 H   0  0  0  0  0
   62.2899  -18.7030   23.4426 H   0  0  0  0  0
   62.2359  -17.1302   24.1945 H   0  0  0  0  0
   63.9463  -18.0244   21.9480 H   0  0  0  0  0
   64.1317  -16.6199   22.9333 H   0  0  0  0  0
   64.3072  -14.1769   21.7306 H   0  0  0  0  0
   63.2367  -16.9505   16.8702 H   0  0  0  0  0
   65.3664  -17.3802   15.9551 H   0  0  0  0  0
   66.0225  -15.9958   16.7587 H   0  0  0  0  0
   64.9065  -16.1825   13.9713 H   0  0  0  0  0
   66.1786  -15.1828   14.5436 H   0  0  0  0  0
   63.8478  -13.9928   14.1271 H   0  0  0  0  0
   64.6509  -13.6080   15.6140 H   0  0  0  0  0
   62.4506  -14.3390   16.3754 H   0  0  0  0  0
   62.3258  -15.5545   15.2031 H   0  0  0  0  0
   65.1808  -13.8275   17.5408 H   0  0  0  0  0
   64.8501  -11.7518   18.2663 H   0  0  0  0  0
   67.0988  -10.5504   19.7786 H   0  0  0  0  0
   67.7746   -9.4612   17.6704 H   0  0  0  0  0
   66.1728   -9.8257   16.9250 H   0  0  0  0  0
   68.5580  -12.1040   18.8087 H   0  0  0  0  0
   69.3689  -14.2473   17.8631 H   0  0  0  0  0
   68.9286  -14.8058   15.4868 H   0  0  0  0  0
   67.5862  -13.2488   14.1057 H   0  0  0  0  0
   66.6366  -11.2117   15.0943 H   0  0  0  0  0
   64.7546   -9.0241   18.8712 H   0  0  0  0  0
   66.1486   -7.2257   19.5588 H   0  0  0  0  0
   66.1420   -9.5268   21.5315 H   0  0  0  0  0
   64.4647   -9.8614   21.1018 H   0  0  0  0  0
   63.9953   -7.6217   20.9792 H   0  0  0  0  0
   65.6178   -7.1750   20.9886 H   0  0  0  0  0
   64.4181   -8.5931   23.2813 H   0  0  0  0  0
   64.2896   -6.8398   23.1359 H   0  0  0  0  0
   66.9274   -6.0341   21.9384 H   0  0  0  0  0
   66.0912   -9.0681   24.8814 H   0  0  0  0  0
   68.4464   -8.8449   25.6749 H   0  0  0  0  0
   69.9991   -7.2625   24.6314 H   0  0  0  0  0
  1  2  2  0  0  0
  2  3  1  0  0  0
  2  6  1  0  0  0
  3  4  1  0  0  0
  4  5  1  0  0  0
  5  6  1  0  0  0
  6  7  1  0  0  0
  7  8  2  0  0  0
  7  9  1  0  0  0
  8 18  1  0  0  0
  9 10  2  0  0  0
  9 11  1  0  0  0
 11 12  1  0  0  0
 11 17  1  0  0  0
 12 13  1  0  0  0
 12 16  1  0  0  0
 13 14  1  0  0  0
 14 15  1  0  0  0
 15 16  1  0  0  0
 17 18  2  0  0  0
 18 19  1  0  0  0
 19 20  2  0  0  0
 19 21  1  0  0  0
 21 22  1  0  0  0
 22 23  1  0  0  0
 22 30  1  0  0  0
 23 24  1  0  0  0
 24 25  4  0  0  0
 24 29  4  0  0  0
 25 26  4  0  0  0
 26 27  4  0  0  0
 27 28  4  0  0  0
 28 29  4  0  0  0
 30 31  1  0  0  0
 30 32  1  0  0  0
 32 33  1  0  0  0
 33 34  1  0  0  0
 34 35  1  0  0  0
 35 36  4  0  0  0
 35 37  4  0  0  0
 36 40  4  0  0  0
 37 38  4  0  0  0
 38 39  4  0  0  0
 39 40  4  0  0  0
 40 41  1  0  0  0
 41 42  1  0  0  0
 41 43  1  0  0  0
 41 44  1  0  0  0
  3 45  1  0  0  0
  3 46  1  0  0  0
  4 47  1  0  0  0
  4 48  1  0  0  0
  5 49  1  0  0  0
  5 50  1  0  0  0
  8 51  1  0  0  0
 12 52  1  0  0  0
 13 53  1  0  0  0
 13 54  1  0  0  0
 14 55  1  0  0  0
 14 56  1  0  0  0
 15 57  1  0  0  0
 15 58  1  0  0  0
 16 59  1  0  0  0
 16 60  1  0  0  0
 17 61  1  0  0  0
 21 62  1  0  0  0
 22 63  1  0  0  0
 23 64  1  0  0  0
 23 65  1  0  0  0
 25 66  1  0  0  0
 26 67  1  0  0  0
 27 68  1  0  0  0
 28 69  1  0  0  0
 29 70  1  0  0  0
 30 71  1  0  0  0
 31 72  1  0  0  0
 32 73  1  0  0  0
 32 74  1  0  0  0
 33 75  1  0  0  0
 33 76  1  0  0  0
 34 77  1  0  0  0
 34 78  1  0  0  0
 36 79  1  0  0  0
 37 80  1  0  0  0
 38 81  1  0  0  0
 39 82  1  0  0  0
M  END
$$$$
