4bqx_ligand
  -I-interpret- 

 28 29  0  0  0  0  0  0  0  0999 V2000
   36.3030  -16.5910   -3.1550 O   0  0  0  0  0
   35.6650  -17.1970   -4.0420 C   0  0  0  0  0
   34.4670  -17.0160   -4.3460 O   0  0  0  0  0
   36.4130  -18.2610   -4.8470 C   0  0  0  0  0
   37.8070  -18.3520   -4.3930 N   0  0  0  0  0
   38.6010  -19.2990   -4.8890 C   0  0  0  0  0
   38.2430  -20.1380   -5.7100 O   0  0  0  0  0
   40.0360  -19.3300   -4.3640 C   0  0  0  0  0
   40.7260  -20.4560   -4.5960 N   0  0  0  0  0
   41.9760  -20.6400   -4.1470 C   0  0  0  0  0
   42.7290  -22.1630   -4.5070 Cl  0  0  0  0  0
   42.6030  -19.6270   -3.4250 C   0  0  0  0  0
   40.6080  -18.2870   -3.6440 C   0  0  0  0  0
   39.9070  -17.1610   -3.3390 O   0  0  0  0  0
   41.9130  -18.4420   -3.1810 C   0  0  0  0  0
   42.5140  -17.4140   -2.4600 C   0  0  0  0  0
   43.8110  -17.5690   -1.9790 C   0  0  0  0  0
   44.5040  -18.7530   -2.2200 C   0  0  0  0  0
   43.9000  -19.7800   -2.9380 C   0  0  0  0  0
   37.2037  -16.9220   -3.1276 H   0  0  0  0  0
   36.3980  -17.9870   -5.9019 H   0  0  0  0  0
   35.9266  -19.2257   -4.7027 H   0  0  0  0  0
   38.1650  -17.6932   -3.7014 H   0  0  0  0  0
   40.4678  -16.5611   -2.8418 H   0  0  0  0  0
   41.9695  -16.4886   -2.2723 H   0  0  0  0  0
   44.2836  -16.7651   -1.4146 H   0  0  0  0  0
   45.5204  -18.8749   -1.8457 H   0  0  0  0  0
   44.4428  -20.7075   -3.1204 H   0  0  0  0  0
  1  2  1  0  0  0
  2  3  2  0  0  0
  2  4  1  0  0  0
  4  5  1  0  0  0
  5  6  1  0  0  0
  6  7  2  0  0  0
  6  8  1  0  0  0
  8  9  4  0  0  0
  8 13  4  0  0  0
  9 10  4  0  0  0
 10 11  1  0  0  0
 10 12  4  0  0  0
 12 15  4  0  0  0
 12 19  4  0  0  0
 13 14  1  0  0  0
 13 15  4  0  0  0
 15 16  4  0  0  0
 16 17  4  0  0  0
 17 18  4  0  0  0
 18 19  4  0  0  0
  1 20  1  0  0  0
  4 21  1  0  0  0
  4 22  1  0  0  0
  5 23  1  0  0  0
 14 24  1  0  0  0
 16 25  1  0  0  0
 17 26  1  0  0  0
 18 27  1  0  0  0
 19 28  1  0  0  0
M  END
$$$$
