5f0c_ligand
  -I-interpret- 

 50 52  0  0  0  0  0  0  0  0999 V2000
   32.5010   19.6380   -0.1930 C   0  0  0  0  0
   31.4930   17.6240    1.0320 C   0  0  0  0  0
   31.7320   18.4310    2.3330 C   0  0  0  0  0
   28.8850   15.3090   -2.7720 N   0  0  0  0  0
   32.8680   19.4240    2.3070 C   0  0  0  0  0
   31.0160   17.9830   -1.3860 C   0  0  0  0  0
   30.1900   16.8270   -1.4220 C   0  0  0  0  0
   29.6860   16.3560   -2.6470 C   0  0  0  0  0
   30.0180   16.9600   -3.8670 C   0  0  0  0  0
   30.8850   18.0740   -3.8560 C   0  0  0  0  0
   31.3880   18.5530   -2.6040 C   0  0  0  0  0
   28.4040   14.4750   -1.8440 C   0  0  0  0  0
   27.5400   13.3790   -2.3990 C   0  0  0  0  0
   28.4700   12.3940   -3.1130 C   0  0  0  0  0
   27.6460   11.1620   -3.6270 C   0  0  0  0  0
   27.3500   10.2400   -2.4890 C   0  0  0  0  0
   27.4240    8.8070   -3.0780 C   0  0  0  0  0
   27.8200    8.8960   -4.5340 C   0  0  0  0  0
   28.3950   10.3120   -4.6520 C   0  0  0  0  0
   28.6390   14.5030   -0.6380 O   0  0  0  0  0
   31.6060   18.4780   -0.1750 N   0  0  0  0  0
   32.7070   20.4090    1.1150 C   0  0  0  0  0
   32.0386   20.3490   -0.8777 H   0  0  0  0  0
   33.4827   19.2414   -0.4522 H   0  0  0  0  0
   30.4850   17.2106    1.0658 H   0  0  0  0  0
   32.2498   16.8420    0.9702 H   0  0  0  0  0
   31.9863   17.6999    3.1004 H   0  0  0  0  0
   30.8252   19.0125    2.4995 H   0  0  0  0  0
   28.5881   15.1068   -3.7267 H   0  0  0  0  0
   33.8074   18.8829    2.1935 H   0  0  0  0  0
   32.8620   19.9917    3.2374 H   0  0  0  0  0
   29.9466   16.3041   -0.4971 H   0  0  0  0  0
   29.6152   16.5777   -4.8049 H   0  0  0  0  0
   31.1677   18.5630   -4.7882 H   0  0  0  0  0
   32.0849   19.3911   -2.6023 H   0  0  0  0  0
   26.8015   13.7832   -3.0914 H   0  0  0  0  0
   26.9895   12.8805   -1.6012 H   0  0  0  0  0
   29.2346   12.0506   -2.4161 H   0  0  0  0  0
   28.9399   12.8922   -3.9610 H   0  0  0  0  0
   26.7522   11.5863   -4.0844 H   0  0  0  0  0
   26.3691   10.4423   -2.0588 H   0  0  0  0  0
   28.0629   10.3721   -1.6751 H   0  0  0  0  0
   26.4521    8.3216   -2.9895 H   0  0  0  0  0
   28.1624    8.2212   -2.5305 H   0  0  0  0  0
   26.9823    8.7237   -5.2098 H   0  0  0  0  0
   28.5344    8.1256   -4.8243 H   0  0  0  0  0
   29.4678   10.3181   -4.4593 H   0  0  0  0  0
   28.2654   10.7063   -5.6599 H   0  0  0  0  0
   31.8382   21.0426    1.2936 H   0  0  0  0  0
   33.6095   21.0145    1.0312 H   0  0  0  0  0
 21  1  1  0  0  0
  1 22  1  0  0  0
  2  3  1  0  0  0
 21  2  1  0  0  0
  3  5  1  0  0  0
  8  4  1  0  0  0
  4 12  1  0  0  0
 22  5  1  0  0  0
  7  6  4  0  0  0
  6 11  4  0  0  0
  6 21  1  0  0  0
  7  8  4  0  0  0
  8  9  4  0  0  0
  9 10  4  0  0  0
 10 11  4  0  0  0
 12 13  1  0  0  0
 12 20  2  0  0  0
 13 14  1  0  0  0
 14 15  1  0  0  0
 15 16  1  0  0  0
 15 19  1  0  0  0
 16 17  1  0  0  0
 17 18  1  0  0  0
 18 19  1  0  0  0
  1 23  1  0  0  0
  1 24  1  0  0  0
  2 25  1  0  0  0
  2 26  1  0  0  0
  3 27  1  0  0  0
  3 28  1  0  0  0
  4 29  1  0  0  0
  5 30  1  0  0  0
  5 31  1  0  0  0
  7 32  1  0  0  0
  9 33  1  0  0  0
 10 34  1  0  0  0
 11 35  1  0  0  0
 13 36  1  0  0  0
 13 37  1  0  0  0
 14 38  1  0  0  0
 14 39  1  0  0  0
 15 40  1  0  0  0
 16 41  1  0  0  0
 16 42  1  0  0  0
 17 43  1  0  0  0
 17 44  1  0  0  0
 18 45  1  0  0  0
 18 46  1  0  0  0
 19 47  1  0  0  0
 19 48  1  0  0  0
 22 49  1  0  0  0
 22 50  1  0  0  0
M  END
$$$$
