4b5b_ligand
  -I-interpret- 

 48 50  0  0  0  0  0  0  0  0999 V2000
   38.2360    5.5840   12.4420 C   0  0  0  0  0
   37.7550    6.6490   13.2080 C   0  0  0  0  0
   37.3830    7.8410   12.6120 C   0  0  0  0  0
   37.4970    7.9680   11.2280 C   0  0  0  0  0
   37.9830    6.9030   10.4490 C   0  0  0  0  0
   38.3430    5.6880   11.0540 C   0  0  0  0  0
   38.8350    4.6400   10.2570 C   0  0  0  0  0
   37.9910    3.4390   10.2540 N   0  0  0  0  0
   37.1010    3.1630    9.2560 C   0  0  0  0  0
   36.8610    4.0180    8.2660 N   0  0  0  0  0
   38.1980    2.5170   11.2260 C   0  0  0  0  0
   39.0380    2.7120   12.1070 O   0  0  0  0  0
   37.4810    1.3290   11.2700 N   0  0  0  0  0
   36.5090    1.0490   10.3220 C   0  0  0  0  0
   35.8960   -0.0200   10.3810 O   0  0  0  0  0
   36.3190    1.9820    9.2950 C   0  0  0  0  0
   35.4390    1.6580    8.3180 N   0  0  0  0  0
   35.9140    0.6690    7.3300 C   0  0  0  0  0
   33.8650    2.1460    8.3400 S   0  0  0  0  0
   33.8230    3.6770    8.3750 O   0  0  0  0  0
   33.1340    1.5840    7.0990 O   0  0  0  0  0
   33.1450    1.4460    9.8480 C   0  0  0  0  0
   33.3350    2.0970   11.0700 C   0  0  0  0  0
   32.7720    1.5440   12.2230 C   0  0  0  0  0
   32.0250    0.3590   12.1490 C   0  0  0  0  0
   31.8430   -0.2890   10.9350 C   0  0  0  0  0
   32.3920    0.2670    9.7890 C   0  0  0  0  0
   31.0900   -1.4930   10.8590 C   0  0  0  0  0
   38.5321    4.6583   12.9355 H   0  0  0  0  0
   37.6717    6.5393   14.2893 H   0  0  0  0  0
   37.0068    8.6676   13.2147 H   0  0  0  0  0
   37.2067    8.9014   10.7456 H   0  0  0  0  0
   38.0808    7.0212    9.3698 H   0  0  0  0  0
   39.8031    4.3517   10.6666 H   0  0  0  0  0
   38.8752    5.0074    9.2316 H   0  0  0  0  0
   37.3488    4.9133    8.2359 H   0  0  0  0  0
   37.6719    0.6531   12.0097 H   0  0  0  0  0
   35.8221    2.9300    9.5011 H   0  0  0  0  0
   35.3607   -0.2618    7.4547 H   0  0  0  0  0
   35.7536    1.0565    6.3239 H   0  0  0  0  0
   36.9771    0.4847    7.4846 H   0  0  0  0  0
   33.9123    3.0200   11.1227 H   0  0  0  0  0
   32.9140    2.0360   13.1852 H   0  0  0  0  0
   31.5829   -0.0573   13.0542 H   0  0  0  0  0
   32.2348   -0.2215    8.8274 H   0  0  0  0  0
   31.5561   -2.2518   11.4876 H   0  0  0  0  0
   30.0734   -1.3067   11.2054 H   0  0  0  0  0
   31.0654   -1.8400    9.8260 H   0  0  0  0  0
  1  2  4  0  0  0
  1  6  4  0  0  0
  2  3  4  0  0  0
  3  4  4  0  0  0
  4  5  4  0  0  0
  5  6  4  0  0  0
  6  7  1  0  0  0
  7  8  1  0  0  0
  8  9  1  0  0  0
  8 11  1  0  0  0
  9 10  2  0  0  0
  9 16  1  0  0  0
 11 12  2  0  0  0
 11 13  1  0  0  0
 13 14  1  0  0  0
 14 15  2  0  0  0
 14 16  1  0  0  0
 16 17  1  0  0  0
 17 18  1  0  0  0
 17 19  1  0  0  0
 19 20  2  0  0  0
 19 21  2  0  0  0
 19 22  1  0  0  0
 22 23  4  0  0  0
 22 27  4  0  0  0
 23 24  4  0  0  0
 24 25  4  0  0  0
 25 26  4  0  0  0
 26 27  4  0  0  0
 26 28  1  0  0  0
  1 29  1  0  0  0
  2 30  1  0  0  0
  3 31  1  0  0  0
  4 32  1  0  0  0
  5 33  1  0  0  0
  7 34  1  0  0  0
  7 35  1  0  0  0
 10 36  1  0  0  0
 13 37  1  0  0  0
 16 38  1  0  0  0
 18 39  1  0  0  0
 18 40  1  0  0  0
 18 41  1  0  0  0
 23 42  1  0  0  0
 24 43  1  0  0  0
 25 44  1  0  0  0
 27 45  1  0  0  0
 28 46  1  0  0  0
 28 47  1  0  0  0
 28 48  1  0  0  0
M  END
$$$$
