### 
### Created by X-TOOL on Mon Sep 10 21:13:11 2018
### 

@<TRIPOS>MOLECULE
4b5b_ligand
   48    50     1     0     0
SMALL
GAST_HUCK


@<TRIPOS>ATOM
      1 CAY        38.2360    5.5840   12.4420 C.ar      1 BBE        -0.0578
      2 CAZ        37.7550    6.6490   13.2080 C.ar      1 BBE        -0.0685
      3 CBA        37.3830    7.8410   12.6120 C.ar      1 BBE        -0.0687
      4 CAX        37.4970    7.9680   11.2280 C.ar      1 BBE        -0.0685
      5 CAW        37.9830    6.9030   10.4490 C.ar      1 BBE        -0.0578
      6 CAV        38.3430    5.6880   11.0540 C.ar      1 BBE        -0.0133
      7 CAU        38.8350    4.6400   10.2570 C.3       1 BBE         0.1020
      8 NAN        37.9910    3.4390   10.2540 N.am      1 BBE        -0.1513
      9 CAO        37.1010    3.1630    9.2560 C.2       1 BBE         0.1624
     10 NAP        36.8610    4.0180    8.2660 N.2       1 BBE        -0.3924
     11 CAM        38.1980    2.5170   11.2260 C.2       1 BBE         0.3372
     12 OAL        39.0380    2.7120   12.1070 O.2       1 BBE        -0.3761
     13 NAD        37.4810    1.3290   11.2700 N.am      1 BBE        -0.1727
     14 CAE        36.5090    1.0490   10.3220 C.2       1 BBE         0.2502
     15 OAA        35.8960   -0.0200   10.3810 O.2       1 BBE        -0.3802
     16 CAF        36.3190    1.9820    9.2950 C.3       1 BBE         0.2174
     17 NAG        35.4390    1.6580    8.3180 N.am      1 BBE        -0.1937
     18 CAB        35.9140    0.6690    7.3300 C.3       1 BBE         0.0244
     19 SAH        33.8650    2.1460    8.3400 S.o2      1 BBE         0.0735
     20 OAQ        33.8230    3.6770    8.3750 O.2       1 BBE        -0.1499
     21 OAC        33.1340    1.5840    7.0990 O.2       1 BBE        -0.1499
     22 CAI        33.1450    1.4460    9.8480 C.ar      1 BBE         0.1021
     23 CAJ        33.3350    2.0970   11.0700 C.ar      1 BBE        -0.0421
     24 CAK        32.7720    1.5440   12.2230 C.ar      1 BBE        -0.0667
     25 CAT        32.0250    0.3590   12.1490 C.ar      1 BBE        -0.0605
     26 CAS        31.8430   -0.2890   10.9350 C.ar      1 BBE        -0.0442
     27 CAR        32.3920    0.2670    9.7890 C.ar      1 BBE        -0.0340
     28 CAL        31.0900   -1.4930   10.8590 C.3       1 BBE        -0.0311
     29 H1         38.5304    4.6634   12.9328 H         1 BBE         0.0557
     30 H2         37.6722    6.5399   14.2833 H         1 BBE         0.0599
     31 H3         37.0089    8.6631   13.2114 H         1 BBE         0.0559
     32 H4         37.2083    8.8962   10.7483 H         1 BBE         0.0599
     33 H5         38.0803    7.0205    9.3758 H         1 BBE         0.0557
     34 H6         39.8311    4.3606   10.6308 H         1 BBE         0.0774
     35 H7         38.9204    5.0041    9.2225 H         1 BBE         0.0774
     36 H8         36.1971    3.7813    7.5454 H         1 BBE         0.0533
     37 H9         37.6682    0.6664   11.9952 H         1 BBE         0.2272
     38 H10        35.5346    2.5022    9.8644 H         1 BBE         0.1053
     39 H11        36.9869    0.4821    7.4850 H         1 BBE         0.0446
     40 H12        35.7527    1.0589    6.3142 H         1 BBE         0.0446
     41 H13        35.3564   -0.2709    7.4548 H         1 BBE         0.0446
     42 H14        33.9092    3.0150   11.1224 H         1 BBE         0.0578
     43 H15        32.9132    2.0333   13.1799 H         1 BBE         0.0600
     44 H16        31.5853   -0.0550   13.0492 H         1 BBE         0.0557
     45 H17        32.2356   -0.2189    8.8327 H         1 BBE         0.0576
     46 H18        30.7415   -1.7715   11.8645 H         1 BBE         0.0391
     47 H19        31.7231   -2.2966   10.4548 H         1 BBE         0.0391
     48 H20        30.2229   -1.3422   10.1991 H         1 BBE         0.0391
@<TRIPOS>BOND
     1    1    2 ar 
     2    1    6 ar 
     3    2    3 ar 
     4    3    4 ar 
     5    4    5 ar 
     6    5    6 ar 
     7    6    7 1  
     8    7    8 1  
     9    8    9 1  
    10    8   11 am 
    11    9   10 2  
    12    9   16 1  
    13   11   12 2  
    14   11   13 am 
    15   13   14 am 
    16   14   15 2  
    17   14   16 1  
    18   16   17 1  
    19   17   18 1  
    20   17   19 am 
    21   19   20 2  
    22   19   21 2  
    23   19   22 1  
    24   22   23 ar 
    25   22   27 ar 
    26   23   24 ar 
    27   24   25 ar 
    28   25   26 ar 
    29   26   27 ar 
    30   26   28 1  
    31    1   29 1  
    32    2   30 1  
    33    3   31 1  
    34    4   32 1  
    35    5   33 1  
    36    7   34 1  
    37    7   35 1  
    38   10   36 1  
    39   13   37 1  
    40   16   38 1  
    41   18   39 1  
    42   18   40 1  
    43   18   41 1  
    44   23   42 1  
    45   24   43 1  
    46   25   44 1  
    47   27   45 1  
    48   28   46 1  
    49   28   47 1  
    50   28   48 1  
@<TRIPOS>SUBSTRUCTURE
     1 BBE         1

