4zyv_ligand
  -I-interpret- 

 54 56  0  0  0  0  0  0  0  0999 V2000
   15.2600   48.2600   60.6040 N   0  0  0  0  0
   15.6820   49.1630   59.7130 C   0  0  0  0  0
   14.9910   50.2970   59.5170 N   0  0  0  0  0
   13.8610   50.5770   60.1980 C   0  0  0  0  0
   13.5480   47.7150   62.2350 N   0  0  0  0  0
   12.4450   48.3250   62.6890 C   0  0  0  0  0
   12.3080   49.5460   62.0150 C   0  0  0  0  0
   13.3940   49.6430   61.1330 C   0  0  0  0  0
   14.1410   48.4690   61.3150 C   0  0  0  0  0
   13.2080   51.7680   59.9480 O   0  0  0  0  0
   16.8740   48.9200   58.9670 N   0  0  0  0  0
   14.4890   47.1550   67.8280 S   0  0  0  0  0
   16.1080   47.3200   68.2280 C   0  0  0  0  0
   16.4020   48.6860   68.0520 C   0  0  0  0  0
   15.3060   49.4990   67.6140 C   0  0  0  0  0
   14.1290   48.7540   67.4370 C   0  0  0  0  0
   17.0370   46.2240   68.6450 C   0  0  0  0  0
   18.2040   46.4860   68.8890 O   0  0  0  0  0
   16.5670   44.8680   68.7070 N   0  0  0  0  0
   17.4260   43.7770   69.0610 C   0  0  0  0  0
   16.5950   42.5920   69.4400 C   0  0  0  0  0
   17.0040   42.0490   70.7690 C   0  0  0  0  0
   15.8310   41.4510   71.4810 C   0  0  0  0  0
   15.6690   40.2030   71.5160 O   0  0  0  0  0
   14.9980   42.1970   72.0610 O   0  0  0  0  0
   18.2740   43.4330   67.8690 C   0  0  0  0  0
   19.2040   42.5870   67.9710 O   0  0  0  0  0
   18.0710   43.9820   66.7470 O   0  0  0  0  0
   11.5360   47.7870   63.7430 C   0  0  0  0  0
   12.2070   47.7860   65.0880 C   0  0  0  0  0
   12.6890   49.1480   65.4870 C   0  0  0  0  0
   12.8070   49.2770   66.9810 C   0  0  0  0  0
   15.3319   50.9695   58.8300 H   0  0  0  0  0
   11.5119   50.2782   62.1501 H   0  0  0  0  0
   17.4013   48.0594   59.1143 H   0  0  0  0  0
   17.1987   49.6069   58.2865 H   0  0  0  0  0
   17.3947   49.0966   68.2362 H   0  0  0  0  0
   15.3779   50.5724   67.4384 H   0  0  0  0  0
   15.5888   44.6752   68.4918 H   0  0  0  0  0
   18.0586   44.0551   69.9039 H   0  0  0  0  0
   16.7342   41.8147   68.6887 H   0  0  0  0  0
   15.5517   42.9025   69.4970 H   0  0  0  0  0
   17.4052   42.8626   71.3733 H   0  0  0  0  0
   17.7556   41.2744   70.6166 H   0  0  0  0  0
   15.2566   43.1142   71.9451 H   0  0  0  0  0
   17.3381   44.5975   66.8211 H   0  0  0  0  0
   11.2712   46.7617   63.4848 H   0  0  0  0  0
   10.6502   48.4201   63.7958 H   0  0  0  0  0
   13.0719   47.1249   65.0329 H   0  0  0  0  0
   11.4782   47.4559   65.8283 H   0  0  0  0  0
   11.9689   49.8858   65.1331 H   0  0  0  0  0
   13.6741   49.3072   65.0484 H   0  0  0  0  0
   12.7229   50.3280   67.2575 H   0  0  0  0  0
   12.0115   48.7013   67.4542 H   0  0  0  0  0
  1  2  2  0  0  0
  9  1  1  0  0  0
  3  2  1  0  0  0
  2 11  1  0  0  0
  4  3  1  0  0  0
  8  4  1  0  0  0
  4 10  2  0  0  0
  6  5  4  0  0  0
  5  9  4  0  0  0
  6  7  4  0  0  0
 29  6  1  0  0  0
  7  8  4  0  0  0
  8  9  4  0  0  0
 12 13  4  0  0  0
 16 12  4  0  0  0
 14 13  4  0  0  0
 13 17  1  0  0  0
 15 14  4  0  0  0
 16 15  4  0  0  0
 32 16  1  0  0  0
 17 18  2  0  0  0
 17 19  1  0  0  0
 19 20  1  0  0  0
 20 21  1  0  0  0
 20 26  1  0  0  0
 21 22  1  0  0  0
 22 23  1  0  0  0
 23 24  2  0  0  0
 23 25  1  0  0  0
 26 27  2  0  0  0
 26 28  1  0  0  0
 30 29  1  0  0  0
 31 30  1  0  0  0
 31 32  1  0  0  0
  3 33  1  0  0  0
  7 34  1  0  0  0
 11 35  1  0  0  0
 11 36  1  0  0  0
 14 37  1  0  0  0
 15 38  1  0  0  0
 19 39  1  0  0  0
 20 40  1  0  0  0
 21 41  1  0  0  0
 21 42  1  0  0  0
 22 43  1  0  0  0
 22 44  1  0  0  0
 25 45  1  0  0  0
 28 46  1  0  0  0
 29 47  1  0  0  0
 29 48  1  0  0  0
 30 49  1  0  0  0
 30 50  1  0  0  0
 31 51  1  0  0  0
 31 52  1  0  0  0
 32 53  1  0  0  0
 32 54  1  0  0  0
M  END
$$$$
