5bpa_ligand
  -I-interpret- 

 54 57  0  0  0  0  0  0  0  0999 V2000
  -10.7770   23.6220   47.6710 C   0  0  0  0  0
  -10.6930   24.1290   46.3820 C   0  0  0  0  0
   -9.5690   24.8600   45.9820 C   0  0  0  0  0
   -8.5630   25.1040   46.8560 C   0  0  0  0  0
   -9.7470   23.8650   48.5760 C   0  0  0  0  0
   -8.6310   24.6110   48.1600 C   0  0  0  0  0
   -8.3230   24.0130   50.2810 C   0  0  0  0  0
   -9.5270   23.5020   49.9310 C   0  0  0  0  0
   -7.7040   23.9200   51.5910 C   0  0  0  0  0
   -7.4930   22.9320   53.6840 C   0  0  0  0  0
   -7.9030   23.6370   54.9740 C   0  0  0  0  0
  -11.7850   23.8380   45.4370 C   0  0  0  0  0
  -13.7400   23.5110   44.4980 C   0  0  0  0  0
  -13.1250   23.9070   45.6960 C   0  0  0  0  0
  -10.3700   23.1780   43.4690 C   0  0  0  0  0
  -15.1890   23.3920   44.2720 C   0  0  0  0  0
  -15.9680   23.9960   44.9810 O   0  0  0  0  0
  -18.9870   16.5710   45.4030 O   0  0  0  0  0
  -18.8530   17.7550   46.0240 C   0  0  0  0  0
  -19.1220   17.8450   47.2070 O   0  0  0  0  0
  -18.3890   18.9320   45.2570 C   0  0  0  0  0
  -17.9820   20.0890   45.9250 C   0  0  0  0  0
  -17.5530   21.1810   45.1970 C   0  0  0  0  0
  -18.3570   18.8970   43.8590 C   0  0  0  0  0
  -17.9280   20.0010   43.1440 C   0  0  0  0  0
  -17.5250   21.1430   43.8110 C   0  0  0  0  0
  -17.0510   22.3690   43.0550 C   0  0  0  0  0
  -15.6190   22.5500   43.3080 N   0  0  0  0  0
  -12.7910   23.2200   43.6240 N   0  0  0  0  0
  -11.6450   23.4000   44.1530 N   0  0  0  0  0
   -7.7840   24.7020   49.2180 N   0  0  0  0  0
   -6.5920   24.3710   51.7820 O   0  0  0  0  0
   -8.3700   23.3710   52.6170 O   0  0  0  0  0
  -11.6451   23.0364   47.9736 H   0  0  0  0  0
   -9.5023   25.2355   44.9609 H   0  0  0  0  0
   -7.6980   25.6870   46.5399 H   0  0  0  0  0
  -10.1977   22.9238   50.5665 H   0  0  0  0  0
   -7.5739   21.8523   53.8098 H   0  0  0  0  0
   -6.4597   23.1780   53.4394 H   0  0  0  0  0
   -7.8150   24.7153   54.8410 H   0  0  0  0  0
   -8.9354   23.3822   55.2135 H   0  0  0  0  0
   -7.2504   23.3152   55.7856 H   0  0  0  0  0
  -13.6089   24.2037   46.6265 H   0  0  0  0  0
   -9.8101   24.1126   43.4345 H   0  0  0  0  0
   -9.7942   22.4278   44.0110 H   0  0  0  0  0
  -10.5596   22.8289   42.4540 H   0  0  0  0  0
  -18.7376   16.6646   44.4807 H   0  0  0  0  0
  -18.0029   20.1297   47.0140 H   0  0  0  0  0
  -17.2326   22.0834   45.7177 H   0  0  0  0  0
  -18.6712   17.9967   43.3310 H   0  0  0  0  0
  -17.9077   19.9704   42.0546 H   0  0  0  0  0
  -17.6011   23.2479   43.3912 H   0  0  0  0  0
  -17.2253   22.2368   41.9872 H   0  0  0  0  0
  -14.9392   22.0340   42.7494 H   0  0  0  0  0
  2  1  4  0  0  0
  1  5  4  0  0  0
  2  3  4  0  0  0
 12  2  1  0  0  0
  3  4  4  0  0  0
  4  6  4  0  0  0
  5  6  4  0  0  0
  5  8  4  0  0  0
  6 31  4  0  0  0
  8  7  4  0  0  0
  7  9  1  0  0  0
 31  7  4  0  0  0
  9 32  2  0  0  0
  9 33  1  0  0  0
 10 11  1  0  0  0
 33 10  1  0  0  0
 14 12  4  0  0  0
 12 30  4  0  0  0
 13 14  4  0  0  0
 16 13  1  0  0  0
 13 29  4  0  0  0
 30 15  1  0  0  0
 16 17  2  0  0  0
 28 16  1  0  0  0
 19 18  1  0  0  0
 19 20  2  0  0  0
 21 19  1  0  0  0
 22 21  4  0  0  0
 24 21  4  0  0  0
 23 22  4  0  0  0
 26 23  4  0  0  0
 25 24  4  0  0  0
 26 25  4  0  0  0
 27 26  1  0  0  0
 27 28  1  0  0  0
 29 30  4  0  0  0
  1 34  1  0  0  0
  3 35  1  0  0  0
  4 36  1  0  0  0
  8 37  1  0  0  0
 10 38  1  0  0  0
 10 39  1  0  0  0
 11 40  1  0  0  0
 11 41  1  0  0  0
 11 42  1  0  0  0
 14 43  1  0  0  0
 15 44  1  0  0  0
 15 45  1  0  0  0
 15 46  1  0  0  0
 18 47  1  0  0  0
 22 48  1  0  0  0
 23 49  1  0  0  0
 24 50  1  0  0  0
 25 51  1  0  0  0
 27 52  1  0  0  0
 27 53  1  0  0  0
 28 54  1  0  0  0
M  END
$$$$
