### 
### Created by X-TOOL on Mon Sep 10 21:12:58 2018
### 

@<TRIPOS>MOLECULE
2vl8_ligand
   36    37     1     0     0
SMALL
GAST_HUCK


@<TRIPOS>ATOM
      1 N1         22.7470   26.2870   34.9590 N.am      1 UDP        -0.1592
      2 C2         23.2700   26.8780   36.1160 C.2       1 UDP         0.3328
      3 N3         22.7600   28.0670   36.5740 N.am      1 UDP        -0.1865
      4 C4         21.7190   28.6750   35.9050 C.2       1 UDP         0.1822
      5 C5         21.1710   28.0920   34.7480 C.2       1 UDP         0.0062
      6 C6         21.7030   26.8890   34.2780 C.2       1 UDP         0.0591
      7 O2         24.1970   26.4010   36.7470 O.2       1 UDP        -0.3815
      8 O4         21.2930   29.7370   36.3500 O.2       1 UDP        -0.4124
      9 C1'        23.2990   25.0120   34.4660 C.3       1 UDP         0.2059
     10 C2'        22.8110   23.9050   35.3690 C.3       1 UDP         0.1387
     11 O2'        23.9180   23.0490   35.5610 O.3       1 UDP        -0.3836
     12 C3'        21.7110   23.2590   34.5460 C.3       1 UDP         0.1149
     13 C4'        22.2850   23.3890   33.1370 C.3       1 UDP         0.1189
     14 O4'        22.8580   24.6800   33.1480 O.3       1 UDP        -0.3363
     15 O3'        21.4540   21.9440   34.9690 O.3       1 UDP        -0.3864
     16 C5'        21.2920   23.3100   31.9920 C.3       1 UDP         0.1132
     17 O5'        20.4600   24.4340   32.0790 O.3       1 UDP        -0.2436
     18 PA         18.9870   24.3070   31.4920 P.3       1 UDP         0.3276
     19 O1A        18.0560   25.3480   32.0050 O.co2     1 UDP        -0.5556
     20 O2A        18.3890   22.9630   31.7180 O.co2     1 UDP        -0.5556
     21 O3A        19.3710   24.6540   29.9700 O.3       1 UDP        -0.1548
     22 PB         18.5820   24.0350   28.7020 P.3       1 UDP         0.2069
     23 O1B        19.4360   24.2350   27.4990 O.co2     1 UDP        -0.5891
     24 O2B        18.3540   22.5710   28.8900 O.co2     1 UDP        -0.5891
     25 O3B        17.2700   24.7130   28.5930 O.co2     1 UDP        -0.5891
     26 H1         23.1437   28.4927   37.3935 H         1 UDP         0.2259
     27 H2         20.3441   28.5716   34.2263 H         1 UDP         0.0258
     28 H3         21.2979   26.4264   33.3792 H         1 UDP         0.1178
     29 H4         24.3976   25.0654   34.4821 H         1 UDP         0.0997
     30 H5         22.4292   24.2749   36.3320 H         1 UDP         0.0676
     31 H6         23.6655   22.3286   36.1264 H         1 UDP         0.2101
     32 H7         20.7751   23.8314   34.6262 H         1 UDP         0.0648
     33 H8         23.0531   22.6169   32.9825 H         1 UDP         0.0651
     34 H9         20.8250   21.5410   34.3821 H         1 UDP         0.2100
     35 H10        20.6927   22.3915   32.0770 H         1 UDP         0.0648
     36 H11        21.8263   23.3116   31.0305 H         1 UDP         0.0648
@<TRIPOS>BOND
     1    1    2 am 
     2    1    6 1  
     3    1    9 1  
     4    2    3 am 
     5    2    7 2  
     6    3    4 am 
     7    4    5 1  
     8    4    8 2  
     9    5    6 2  
    10    9   10 1  
    11    9   14 1  
    12   10   11 1  
    13   10   12 1  
    14   12   13 1  
    15   12   15 1  
    16   13   14 1  
    17   13   16 1  
    18   16   17 1  
    19   17   18 1  
    20   18   19 ar 
    21   18   20 ar 
    22   18   21 1  
    23   21   22 1  
    24   22   23 ar 
    25   22   24 ar 
    26   22   25 ar 
    27    3   26 1  
    28    5   27 1  
    29    6   28 1  
    30    9   29 1  
    31   10   30 1  
    32   11   31 1  
    33   12   32 1  
    34   13   33 1  
    35   15   34 1  
    36   16   35 1  
    37   16   36 1  
@<TRIPOS>SUBSTRUCTURE
     1 UDP         1

