4y83_ligand
  -I-interpret- 

 34 37  0  0  0  0  0  0  0  0999 V2000
   -8.1700   -4.0670   -9.4480 C   0  0  0  0  0
   -8.2130   -5.3860   -9.9300 C   0  0  0  0  0
   -7.9170   -6.4200   -9.0360 C   0  0  0  0  0
  -10.0380   -5.3030  -16.1670 C   0  0  0  0  0
  -10.6460   -4.2210  -15.4980 C   0  0  0  0  0
  -10.4380   -4.0190  -14.1210 C   0  0  0  0  0
   -9.5920   -4.9040  -13.4290 C   0  0  0  0  0
   -9.3410   -4.7310  -12.0660 C   0  0  0  0  0
   -6.1630  -10.8600   -6.4250 S   0  0  0  0  0
   -6.7190   -9.2480   -6.2580 C   0  0  0  0  0
   -6.6930   -8.5280   -5.1720 N   0  0  0  0  0
   -6.9960   -7.2820   -5.5710 N   0  0  0  0  0
   -7.2840   -8.5790   -7.2630 O   0  0  0  0  0
   -7.3490   -7.3320   -6.7910 C   0  0  0  0  0
   -7.7010   -6.1480   -7.6720 C   0  0  0  0  0
   -7.6520   -4.7910   -7.2590 C   0  0  0  0  0
   -7.3470   -4.3850   -6.0070 N   0  0  0  0  0
   -7.9000   -3.8080   -8.1510 N   0  0  0  0  0
   -8.5090   -5.6370  -11.3740 C   0  0  0  0  0
   -8.9720   -5.9970  -14.0960 C   0  0  0  0  0
   -8.1650   -6.8600  -13.4190 N   0  0  0  0  0
   -7.8980   -6.6860  -12.1030 C   0  0  0  0  0
   -9.1960   -6.1880  -15.4750 C   0  0  0  0  0
   -8.3577   -3.2396  -10.1323 H   0  0  0  0  0
   -7.8530   -7.4458   -9.3988 H   0  0  0  0  0
  -10.2233   -5.4537  -17.2305 H   0  0  0  0  0
  -11.2840   -3.5336  -16.0534 H   0  0  0  0  0
  -10.9230   -3.1929  -13.6010 H   0  0  0  0  0
   -9.7899   -3.8921  -11.5341 H   0  0  0  0  0
   -6.4870   -8.8428   -4.2239 H   0  0  0  0  0
   -7.1324   -5.0735   -5.2857 H   0  0  0  0  0
   -7.3314   -3.3900   -5.7831 H   0  0  0  0  0
   -7.2055   -7.3605  -11.5995 H   0  0  0  0  0
   -8.7193   -7.0161  -15.9995 H   0  0  0  0  0
  2  1  4  0  0  0
  1 18  4  0  0  0
  3  2  4  0  0  0
  2 19  1  0  0  0
 15  3  4  0  0  0
  5  4  4  0  0  0
  4 23  4  0  0  0
  6  5  4  0  0  0
  7  6  4  0  0  0
  8  7  4  0  0  0
  7 20  4  0  0  0
 19  8  4  0  0  0
 10  9  2  0  0  0
 10 11  1  0  0  0
 13 10  1  0  0  0
 12 11  1  0  0  0
 14 12  2  0  0  0
 14 13  1  0  0  0
 14 15  1  0  0  0
 15 16  4  0  0  0
 16 17  1  0  0  0
 16 18  4  0  0  0
 19 22  4  0  0  0
 20 21  4  0  0  0
 20 23  4  0  0  0
 21 22  4  0  0  0
  1 24  1  0  0  0
  3 25  1  0  0  0
  4 26  1  0  0  0
  5 27  1  0  0  0
  6 28  1  0  0  0
  8 29  1  0  0  0
 11 30  1  0  0  0
 17 31  1  0  0  0
 17 32  1  0  0  0
 22 33  1  0  0  0
 23 34  1  0  0  0
M  END
$$$$
