4lxm_ligand
  -I-interpret- 

 72 74  0  0  0  0  0  0  0  0999 V2000
   27.8380    8.2430   20.0110 F   0  0  0  0  0
   28.5640    9.2370   19.4400 C   0  0  0  0  0
   27.9960    9.5110   18.2400 F   0  0  0  0  0
   28.5080   10.3580   20.2100 F   0  0  0  0  0
   30.0320    8.7780   19.2220 C   0  0  0  0  0
   30.7740    9.7730   18.4830 O   0  0  0  0  0
   31.1000    9.5500   17.1460 C   0  0  0  0  0
   30.7810   10.5540   16.1970 C   0  0  0  0  0
   31.1000   10.3500   14.8280 C   0  0  0  0  0
   31.7240    9.1480   14.4070 C   0  0  0  0  0
   32.0310    8.1420   15.3620 C   0  0  0  0  0
   31.7260    8.3500   16.7250 C   0  0  0  0  0
   32.6760    6.8050   14.9550 C   0  0  0  0  0
   31.6580    5.8540   14.2220 C   0  0  0  0  0
   32.1970    4.4150   13.9240 C   0  0  0  0  0
   31.1760    3.5250   13.1370 C   0  0  0  0  0
   29.7700    3.3960   13.7970 C   0  0  0  0  0
   29.0470    5.0300   13.9590 S   0  0  0  0  0
   30.2980    5.7710   14.9940 C   0  0  0  0  0
   27.8220    4.8770   14.8070 O   0  0  0  0  0
   31.7250    2.1940   12.7550 N   0  3  0  0  0
   31.0880    1.3610   11.6830 C   0  0  0  0  0
   30.9320    2.2000   10.3960 C   0  0  0  0  0
   32.0880    2.5940    9.6830 C   0  0  0  0  0
   32.0340    3.3770    8.4980 C   0  0  0  0  0
   30.7340    3.7500    8.0530 C   0  0  0  0  0
   29.5580    3.3670    8.7440 C   0  0  0  0  0
   29.6540    2.5890    9.9200 C   0  0  0  0  0
   33.3540    3.7890    7.7580 C   0  0  0  0  0
   34.2780    2.5500    7.5790 C   0  0  0  0  0
   33.1360    4.4070    6.3360 C   0  0  0  0  0
   34.1310    4.8600    8.5910 C   0  0  0  0  0
   33.3940    4.4390   13.1230 O   0  0  0  0  0
   30.8060   11.2910   13.9350 F   0  0  0  0  0
   30.1730   11.6950   16.5970 N   0  0  0  0  0
   30.8530    8.5050   20.5070 C   0  0  0  0  0
   30.1870    7.6590   21.3340 F   0  0  0  0  0
   31.1190    9.6650   21.1500 F   0  0  0  0  0
   32.0390    7.9260   20.1830 F   0  0  0  0  0
   29.9169    7.8352   18.6873 H   0  0  0  0  0
   31.9670    8.9967   13.3553 H   0  0  0  0  0
   31.9736    7.5825   17.4583 H   0  0  0  0  0
   33.0179    6.3034   15.8603 H   0  0  0  0  0
   33.4958    7.0183   14.2690 H   0  0  0  0  0
   31.5027    6.3203   13.2491 H   0  0  0  0  0
   32.3851    3.9961   14.9126 H   0  0  0  0  0
   31.0135    4.0861   12.2167 H   0  0  0  0  0
   29.8672    2.9383   14.7815 H   0  0  0  0  0
   29.1288    2.7708   13.1757 H   0  0  0  0  0
   29.9826    6.7770   15.2708 H   0  0  0  0  0
   30.4309    5.1598   15.8867 H   0  0  0  0  0
   27.4027    5.7333   14.9189 H   0  0  0  0  0
   31.6113    1.6327   13.5990 H   0  0  0  0  0
   32.6479    2.4105   12.3786 H   0  0  0  0  0
   30.1058    1.0289   12.0192 H   0  0  0  0  0
   31.7173    0.4954   11.4761 H   0  0  0  0  0
   33.0630    2.2836   10.0586 H   0  0  0  0  0
   30.6402    4.3514    7.1488 H   0  0  0  0  0
   28.5809    3.6718    8.3693 H   0  0  0  0  0
   28.7534    2.2905   10.4566 H   0  0  0  0  0
   34.5293    2.1414    8.5577 H   0  0  0  0  0
   33.7592    1.7935    6.9903 H   0  0  0  0  0
   35.1905    2.8503    7.0640 H   0  0  0  0  0
   32.6286    3.6817    5.6999 H   0  0  0  0  0
   32.5262    5.3064    6.4217 H   0  0  0  0  0
   34.1020    4.6616    5.8999 H   0  0  0  0  0
   33.5044    5.7425    8.7204 H   0  0  0  0  0
   34.3838    4.4460    9.5671 H   0  0  0  0  0
   35.0446    5.1355    8.0642 H   0  0  0  0  0
   33.6896    3.5395   12.9643 H   0  0  0  0  0
   29.9441   11.8329   17.5814 H   0  0  0  0  0
   29.9436   12.4171   15.9141 H   0  0  0  0  0
  1  2  1  0  0  0
  2  3  1  0  0  0
  2  4  1  0  0  0
  2  5  1  0  0  0
  5  6  1  0  0  0
  5 36  1  0  0  0
  6  7  1  0  0  0
  7  8  4  0  0  0
  7 12  4  0  0  0
  8  9  4  0  0  0
  8 35  1  0  0  0
  9 10  4  0  0  0
  9 34  1  0  0  0
 10 11  4  0  0  0
 11 12  4  0  0  0
 11 13  1  0  0  0
 13 14  1  0  0  0
 14 15  1  0  0  0
 14 19  1  0  0  0
 15 16  1  0  0  0
 15 33  1  0  0  0
 16 17  1  0  0  0
 16 21  1  0  0  0
 17 18  1  0  0  0
 18 19  1  0  0  0
 18 20  1  0  0  0
 21 22  1  0  0  0
 22 23  1  0  0  0
 23 24  4  0  0  0
 23 28  4  0  0  0
 24 25  4  0  0  0
 25 26  4  0  0  0
 25 29  1  0  0  0
 26 27  4  0  0  0
 27 28  4  0  0  0
 29 30  1  0  0  0
 29 31  1  0  0  0
 29 32  1  0  0  0
 36 37  1  0  0  0
 36 38  1  0  0  0
 36 39  1  0  0  0
  5 40  1  0  0  0
 10 41  1  0  0  0
 12 42  1  0  0  0
 13 43  1  0  0  0
 13 44  1  0  0  0
 14 45  1  0  0  0
 15 46  1  0  0  0
 16 47  1  0  0  0
 17 48  1  0  0  0
 17 49  1  0  0  0
 19 50  1  0  0  0
 19 51  1  0  0  0
 20 52  1  0  0  0
 21 53  1  0  0  0
 21 54  1  0  0  0
 22 55  1  0  0  0
 22 56  1  0  0  0
 24 57  1  0  0  0
 26 58  1  0  0  0
 27 59  1  0  0  0
 28 60  1  0  0  0
 30 61  1  0  0  0
 30 62  1  0  0  0
 30 63  1  0  0  0
 31 64  1  0  0  0
 31 65  1  0  0  0
 31 66  1  0  0  0
 32 67  1  0  0  0
 32 68  1  0  0  0
 32 69  1  0  0  0
 33 70  1  0  0  0
 35 71  1  0  0  0
 35 72  1  0  0  0
M  END
$$$$
