2fwy_ligand
  -I-interpret- 

 50 53  0  0  0  0  0  0  0  0999 V2000
    5.3730    5.8070   26.8060 C   0  0  0  0  0
    3.9740    5.4860   27.3370 C   0  0  0  0  0
    3.9300    4.0400   27.8350 C   0  0  0  0  0
    2.9760    5.6620   26.2710 N   0  3  0  0  0
    2.5120    7.0570   26.2210 C   0  0  0  0  0
    3.5710    7.9560   25.5800 C   0  0  0  0  0
    3.3000    9.4330   25.8800 C   0  0  0  0  0
    2.0790    9.9150   25.2200 N   0  0  0  0  0
    0.8610    9.9490   25.7530 C   0  0  0  0  0
    0.3330    9.5220   26.9070 N   0  0  0  0  0
   -0.9500    9.7050   27.1660 C   0  0  0  0  0
   -1.7520   10.3100   26.3070 N   0  0  0  0  0
   -1.2920   10.7590   25.1310 C   0  0  0  0  0
   -2.1070   11.3640   24.2710 N   0  0  0  0  0
    0.0500   10.5850   24.8190 C   0  0  0  0  0
    0.7950   10.9010   23.7640 N   0  0  0  0  0
    2.0320   10.4820   24.0180 C   0  0  0  0  0
    3.3930   10.6440   22.9300 S   0  0  0  0  0
    4.3230   11.8880   23.7360 C   0  0  0  0  0
    3.6620   12.9870   24.2740 C   0  0  0  0  0
    4.3840   14.0110   24.8770 C   0  0  0  0  0
    4.0040   15.1810   25.4580 O   0  0  0  0  0
    5.1620   16.0040   25.2600 C   0  0  0  0  0
    6.2220   15.0760   25.5300 O   0  0  0  0  0
    5.7720   13.9370   24.9370 C   0  0  0  0  0
    6.4310   12.8380   24.4010 C   0  0  0  0  0
    5.7110   11.8090   23.8020 C   0  0  0  0  0
    6.6380   10.2970   23.1340 Br  0  0  0  0  0
    5.6093    5.1365   25.9797 H   0  0  0  0  0
    5.3998    6.8393   26.4570 H   0  0  0  0  0
    6.1029    5.6730   27.6044 H   0  0  0  0  0
    3.7461    6.1644   28.1592 H   0  0  0  0  0
    2.9358    3.8214   28.2246 H   0  0  0  0  0
    4.1542    3.3655   27.0086 H   0  0  0  0  0
    4.6688    3.9066   28.6253 H   0  0  0  0  0
    2.1786    5.0552   26.4615 H   0  0  0  0  0
    3.4031    5.4236   25.3759 H   0  0  0  0  0
    2.3245    7.4028   27.2375 H   0  0  0  0  0
    1.6012    7.1044   25.6241 H   0  0  0  0  0
    3.5436    7.8099   24.5002 H   0  0  0  0  0
    4.5458    7.6913   25.9896 H   0  0  0  0  0
    4.1417   10.0162   25.5065 H   0  0  0  0  0
    3.1712    9.5436   26.9567 H   0  0  0  0  0
   -1.3571    9.3480   28.1120 H   0  0  0  0  0
   -3.0920   11.4898   24.5040 H   0  0  0  0  0
   -1.7468   11.7021   23.3786 H   0  0  0  0  0
    2.5748   13.0458   24.2228 H   0  0  0  0  0
    5.1831   16.8880   25.8973 H   0  0  0  0  0
    5.2154   16.4505   24.2671 H   0  0  0  0  0
    7.5184   12.7814   24.4499 H   0  0  0  0  0
  1  2  1  0  0  0
  2  3  1  0  0  0
  2  4  1  0  0  0
  4  5  1  0  0  0
  5  6  1  0  0  0
  6  7  1  0  0  0
  7  8  1  0  0  0
  8  9  4  0  0  0
  8 17  4  0  0  0
  9 10  4  0  0  0
  9 15  4  0  0  0
 10 11  4  0  0  0
 11 12  4  0  0  0
 12 13  4  0  0  0
 13 14  1  0  0  0
 13 15  4  0  0  0
 15 16  4  0  0  0
 16 17  4  0  0  0
 17 18  1  0  0  0
 18 19  1  0  0  0
 19 20  4  0  0  0
 19 27  4  0  0  0
 20 21  4  0  0  0
 21 22  1  0  0  0
 21 25  4  0  0  0
 22 23  1  0  0  0
 23 24  1  0  0  0
 24 25  1  0  0  0
 25 26  4  0  0  0
 26 27  4  0  0  0
 27 28  1  0  0  0
  1 29  1  0  0  0
  1 30  1  0  0  0
  1 31  1  0  0  0
  2 32  1  0  0  0
  3 33  1  0  0  0
  3 34  1  0  0  0
  3 35  1  0  0  0
  4 36  1  0  0  0
  4 37  1  0  0  0
  5 38  1  0  0  0
  5 39  1  0  0  0
  6 40  1  0  0  0
  6 41  1  0  0  0
  7 42  1  0  0  0
  7 43  1  0  0  0
 11 44  1  0  0  0
 14 45  1  0  0  0
 14 46  1  0  0  0
 20 47  1  0  0  0
 23 48  1  0  0  0
 23 49  1  0  0  0
 26 50  1  0  0  0
M  END
$$$$
