4gqq_ligand
  -I-interpret- 

 27 27  0  0  0  0  0  0  0  0999 V2000
    9.8770  -20.8740  121.0190 C   0  0  0  0  0
    9.1890  -19.5740  120.5900 C   0  0  0  0  0
    8.9770  -19.6330  119.1750 O   0  0  0  0  0
    8.1490  -18.6400  118.7540 C   0  0  0  0  0
    7.6920  -17.8230  119.5530 O   0  0  0  0  0
    7.7870  -18.5770  117.2690 C   0  0  0  0  0
    7.1010  -17.2520  116.9400 C   0  0  0  0  0
    6.6500  -17.1900  115.4820 C   0  0  0  0  0
    6.8780  -18.2440  114.6040 C   0  0  0  0  0
    5.9350  -16.0760  115.0580 C   0  0  0  0  0
    5.4390  -16.0160  113.7590 C   0  0  0  0  0
    5.6610  -17.0740  112.8840 C   0  0  0  0  0
    5.1780  -17.0180  111.6150 O   0  0  0  0  0
    6.3800  -18.1870  113.3050 C   0  0  0  0  0
    6.5700  -19.2190  112.4400 O   0  0  0  0  0
    9.2389  -21.7213  120.7679 H   0  0  0  0  0
   10.8299  -20.9683  120.4982 H   0  0  0  0  0
   10.0500  -20.8541  122.0950 H   0  0  0  0  0
    9.8126  -18.7164  120.8424 H   0  0  0  0  0
    8.2373  -19.4619  121.1095 H   0  0  0  0  0
    7.9902  -19.3673  116.5463 H   0  0  0  0  0
    6.9513  -16.4472  117.6597 H   0  0  0  0  0
    7.4462  -19.1142  114.9325 H   0  0  0  0  0
    5.7623  -15.2473  115.7446 H   0  0  0  0  0
    4.8779  -15.1420  113.4282 H   0  0  0  0  0
    5.4170  -17.8215  111.1471 H   0  0  0  0  0
    6.1619  -19.0078  111.5971 H   0  0  0  0  0
  1  2  1  0  0  0
  2  3  1  0  0  0
  3  4  1  0  0  0
  4  5  2  0  0  0
  4  6  1  0  0  0
  6  7  2  0  0  0
  7  8  1  0  0  0
  8  9  4  0  0  0
  8 10  4  0  0  0
  9 14  4  0  0  0
 10 11  4  0  0  0
 11 12  4  0  0  0
 12 13  1  0  0  0
 12 14  4  0  0  0
 14 15  1  0  0  0
  1 16  1  0  0  0
  1 17  1  0  0  0
  1 18  1  0  0  0
  2 19  1  0  0  0
  2 20  1  0  0  0
  6 21  1  0  0  0
  7 22  1  0  0  0
  9 23  1  0  0  0
 10 24  1  0  0  0
 11 25  1  0  0  0
 13 26  1  0  0  0
 15 27  1  0  0  0
M  END
$$$$
