6cdp_ligand
  -I-interpret- 

109109  0  0  0  0  0  0  0  0999 V2000
  -67.0610  -84.1490  -47.4620 N   0  3  0  0  0
  -66.1170  -84.9400  -46.6830 C   0  0  0  0  0
  -66.6510  -86.3460  -46.4300 C   0  0  0  0  0
  -67.8360  -86.5290  -46.1550 O   0  0  0  0  0
  -65.8090  -84.2500  -45.3630 C   0  0  0  0  0
  -65.7610  -87.3360  -46.5310 N   0  0  0  0  0
  -66.1250  -88.7120  -46.2070 C   0  0  0  0  0
  -66.5550  -88.8270  -44.7510 C   0  0  0  0  0
  -67.4630  -89.6010  -44.4180 O   0  0  0  0  0
  -64.9450  -89.6550  -46.5260 C   0  0  0  0  0
  -65.1450  -91.0190  -45.8840 C   0  0  0  0  0
  -64.7620  -89.7880  -48.0300 C   0  0  0  0  0
  -65.9410  -88.0470  -43.8700 N   0  0  0  0  0
  -66.1420  -88.1740  -42.4410 C   0  0  0  0  0
  -64.9570  -88.8510  -41.7820 C   0  0  0  0  0
  -63.9990  -89.2830  -42.4300 O   0  0  0  0  0
  -65.0280  -88.9420  -40.4560 N   0  0  0  0  0
  -63.9670  -89.5660  -39.6730 C   0  0  0  0  0
  -64.4530  -90.7380  -38.8350 C   0  0  0  0  0
  -63.6180  -91.5140  -38.3470 O   0  0  0  0  0
  -63.2450  -88.5400  -38.7710 C   0  0  0  0  0
  -64.0790  -88.2350  -37.5250 C   0  0  0  0  0
  -62.9310  -87.2650  -39.5420 C   0  0  0  0  0
  -63.2470  -87.8710  -36.3130 C   0  0  0  0  0
  -65.7630  -90.9060  -38.6500 N   0  0  0  0  0
  -66.2890  -91.9520  -37.8040 C   0  0  0  0  0
  -66.8350  -93.1390  -38.5840 C   0  0  0  0  0
  -66.8580  -93.1740  -39.8120 O   0  0  0  0  0
  -67.2750  -94.1390  -37.8210 N   0  0  0  0  0
  -67.9370  -95.3190  -38.3600 C   0  0  0  0  0
  -69.4450  -95.1390  -38.4110 C   0  0  0  0  0
  -70.0990  -95.5960  -39.3550 O   0  0  0  0  0
  -67.5970  -96.5430  -37.5110 C   0  0  0  0  0
  -69.9920  -94.4680  -37.4030 N   0  0  0  0  0
  -71.4120  -94.1580  -37.2920 C   0  0  0  0  0
  -71.5060  -92.8040  -36.6030 C   0  0  0  0  0
  -70.7230  -92.5100  -35.6940 O   0  0  0  0  0
  -72.1770  -95.2580  -36.5180 C   0  0  0  0  0
  -73.5560  -94.7760  -36.1050 C   0  0  0  0  0
  -72.2950  -96.5300  -37.3480 C   0  0  0  0  0
  -72.4410  -91.9720  -37.0600 N   0  0  0  0  0
  -72.5230  -90.5600  -36.6710 C   0  0  0  0  0
  -71.2820  -89.8070  -37.1430 C   0  0  0  0  0
  -70.9460  -89.8170  -38.3280 O   0  0  0  0  0
  -72.6850  -90.3850  -35.1530 C   0  0  0  0  0
  -73.6830  -91.3160  -34.5260 C   0  0  0  0  0
  -73.2660  -92.3260  -33.6730 C   0  0  0  0  0
  -75.0390  -91.1710  -34.7720 C   0  0  0  0  0
  -74.1820  -93.1810  -33.0870 C   0  0  0  0  0
  -75.9600  -92.0220  -34.1870 C   0  0  0  0  0
  -75.5300  -93.0290  -33.3450 C   0  0  0  0  0
  -70.5860  -89.1710  -36.3510 O   0  0  0  0  0
  -67.2564  -84.6252  -48.3426 H   0  0  0  0  0
  -67.9269  -84.0386  -46.9344 H   0  0  0  0  0
  -66.6581  -83.2315  -47.6524 H   0  0  0  0  0
  -65.1967  -85.0263  -47.2606 H   0  0  0  0  0
  -66.7196  -84.1848  -44.7674 H   0  0  0  0  0
  -65.0588  -84.8251  -44.8203 H   0  0  0  0  0
  -65.4287  -83.2474  -45.5586 H   0  0  0  0  0
  -64.8114  -87.1275  -46.8395 H   0  0  0  0  0
  -66.9752  -89.0100  -46.8206 H   0  0  0  0  0
  -64.0391  -89.2186  -46.1054 H   0  0  0  0  0
  -65.2169  -90.9031  -44.8026 H   0  0  0  0  0
  -66.0629  -91.4672  -46.2645 H   0  0  0  0  0
  -64.2981  -91.6609  -46.1264 H   0  0  0  0  0
  -65.6716  -90.1960  -48.4707 H   0  0  0  0  0
  -64.5579  -88.8066  -48.4581 H   0  0  0  0  0
  -63.9258  -90.4564  -48.2353 H   0  0  0  0  0
  -65.3021  -87.3295  -44.2128 H   0  0  0  0  0
  -67.0314  -88.7793  -42.2661 H   0  0  0  0  0
  -66.2561  -87.1773  -42.0147 H   0  0  0  0  0
  -65.8451  -88.5659  -39.9751 H   0  0  0  0  0
  -63.2592  -89.9579  -40.4034 H   0  0  0  0  0
  -62.3001  -88.9768  -38.4478 H   0  0  0  0  0
  -64.6394  -89.1367  -37.2780 H   0  0  0  0  0
  -64.7115  -87.3780  -37.7567 H   0  0  0  0  0
  -62.2867  -87.5031  -40.3883 H   0  0  0  0  0
  -63.8593  -86.8226  -39.9035 H   0  0  0  0  0
  -62.4231  -86.5598  -38.8841 H   0  0  0  0  0
  -62.5839  -88.7003  -36.0667 H   0  0  0  0  0
  -62.6542  -86.9834  -36.5341 H   0  0  0  0  0
  -63.9062  -87.6683  -35.4689 H   0  0  0  0  0
  -66.4134  -90.2766  -39.1203 H   0  0  0  0  0
  -67.1127  -91.5282  -37.2295 H   0  0  0  0  0
  -65.4712  -92.3148  -37.1814 H   0  0  0  0  0
  -67.1419  -94.0750  -36.8118 H   0  0  0  0  0
  -67.5770  -95.4646  -39.3785 H   0  0  0  0  0
  -66.5186  -96.7011  -37.5192 H   0  0  0  0  0
  -67.9336  -96.3785  -36.4874 H   0  0  0  0  0
  -68.0971  -97.4196  -37.9229 H   0  0  0  0  0
  -69.3760  -94.1479  -36.6557 H   0  0  0  0  0
  -71.8808  -94.1199  -38.2753 H   0  0  0  0  0
  -71.6048  -95.4832  -35.6180 H   0  0  0  0  0
  -73.4563  -93.9013  -35.4622 H   0  0  0  0  0
  -74.1285  -94.5118  -36.9941 H   0  0  0  0  0
  -74.0698  -95.5700  -35.5631 H   0  0  0  0  0
  -72.8341  -96.3120  -38.2700 H   0  0  0  0  0
  -71.2980  -96.8999  -37.5873 H   0  0  0  0  0
  -72.8371  -97.2849  -36.7785 H   0  0  0  0  0
  -73.1349  -92.3353  -37.7134 H   0  0  0  0  0
  -73.4101  -90.1471  -37.1514 H   0  0  0  0  0
  -71.5695  -90.3452  -38.8318 H   0  0  0  0  0
  -73.0435  -89.3696  -34.9838 H   0  0  0  0  0
  -71.7171  -90.6006  -34.7004 H   0  0  0  0  0
  -72.2037  -92.4479  -33.4615 H   0  0  0  0  0
  -75.3842  -90.3771  -35.4343 H   0  0  0  0  0
  -73.8400  -93.9741  -32.4221 H   0  0  0  0  0
  -77.0236  -91.8978  -34.3904 H   0  0  0  0  0
  -76.2533  -93.7024  -32.8851 H   0  0  0  0  0
  1  2  1  0  0  0
  2  3  1  0  0  0
  2  5  1  0  0  0
  3  4  2  0  0  0
  3  6  1  0  0  0
  6  7  1  0  0  0
  7  8  1  0  0  0
  7 10  1  0  0  0
  8  9  2  0  0  0
  8 13  1  0  0  0
 10 11  1  0  0  0
 10 12  1  0  0  0
 13 14  1  0  0  0
 14 15  1  0  0  0
 15 16  2  0  0  0
 15 17  1  0  0  0
 17 18  1  0  0  0
 18 19  1  0  0  0
 18 21  1  0  0  0
 19 20  2  0  0  0
 19 25  1  0  0  0
 21 22  1  0  0  0
 21 23  1  0  0  0
 22 24  1  0  0  0
 25 26  1  0  0  0
 26 27  1  0  0  0
 27 28  2  0  0  0
 27 29  1  0  0  0
 29 30  1  0  0  0
 30 31  1  0  0  0
 30 33  1  0  0  0
 31 32  2  0  0  0
 31 34  1  0  0  0
 34 35  1  0  0  0
 35 36  1  0  0  0
 35 38  1  0  0  0
 36 37  2  0  0  0
 36 41  1  0  0  0
 38 39  1  0  0  0
 38 40  1  0  0  0
 41 42  1  0  0  0
 42 43  1  0  0  0
 42 45  1  0  0  0
 43 44  1  0  0  0
 43 52  2  0  0  0
 45 46  1  0  0  0
 46 47  4  0  0  0
 46 48  4  0  0  0
 47 49  4  0  0  0
 48 50  4  0  0  0
 49 51  4  0  0  0
 50 51  4  0  0  0
  1 53  1  0  0  0
  1 54  1  0  0  0
  1 55  1  0  0  0
  2 56  1  0  0  0
  5 57  1  0  0  0
  5 58  1  0  0  0
  5 59  1  0  0  0
  6 60  1  0  0  0
  7 61  1  0  0  0
 10 62  1  0  0  0
 11 63  1  0  0  0
 11 64  1  0  0  0
 11 65  1  0  0  0
 12 66  1  0  0  0
 12 67  1  0  0  0
 12 68  1  0  0  0
 13 69  1  0  0  0
 14 70  1  0  0  0
 14 71  1  0  0  0
 17 72  1  0  0  0
 18 73  1  0  0  0
 21 74  1  0  0  0
 22 75  1  0  0  0
 22 76  1  0  0  0
 23 77  1  0  0  0
 23 78  1  0  0  0
 23 79  1  0  0  0
 24 80  1  0  0  0
 24 81  1  0  0  0
 24 82  1  0  0  0
 25 83  1  0  0  0
 26 84  1  0  0  0
 26 85  1  0  0  0
 29 86  1  0  0  0
 30 87  1  0  0  0
 33 88  1  0  0  0
 33 89  1  0  0  0
 33 90  1  0  0  0
 34 91  1  0  0  0
 35 92  1  0  0  0
 38 93  1  0  0  0
 39 94  1  0  0  0
 39 95  1  0  0  0
 39 96  1  0  0  0
 40 97  1  0  0  0
 40 98  1  0  0  0
 40 99  1  0  0  0
 41100  1  0  0  0
 42101  1  0  0  0
 44102  1  0  0  0
 45103  1  0  0  0
 45104  1  0  0  0
 47105  1  0  0  0
 48106  1  0  0  0
 49107  1  0  0  0
 50108  1  0  0  0
 51109  1  0  0  0
M  END
$$$$
