5nk3_ligand
  -I-interpret- 

 54 57  0  0  0  0  0  0  0  0999 V2000
  123.0100   38.2230  -23.9050 C   0  0  0  0  0
  121.9870   39.3640  -24.0050 C   0  0  0  0  0
  120.6720   38.6980  -24.1580 N   0  3  0  0  0
  120.9900   37.2550  -24.2560 C   0  0  0  0  0
  122.1510   37.1430  -23.3070 C   0  0  0  0  0
  122.7840   35.8060  -23.4250 N   0  0  0  0  0
  123.7880   35.4070  -22.6310 C   0  0  0  0  0
  124.2480   36.1040  -21.7280 O   0  0  0  0  0
  124.2420   34.0980  -22.8450 C   0  0  0  0  0
  125.6060   33.8000  -22.8890 C   0  0  0  0  0
  123.3120   33.0770  -22.9990 C   0  0  0  0  0
  123.7370   31.7670  -23.2040 C   0  0  0  0  0
  125.1030   31.4810  -23.2510 C   0  0  0  0  0
  126.0470   32.4900  -23.1070 C   0  0  0  0  0
  127.3490   32.1150  -23.1530 N   0  0  0  0  0
  128.3310   32.8420  -23.6910 C   0  0  0  0  0
  128.2480   34.3150  -24.5320 S   0  0  0  0  0
  129.6150   32.4620  -23.6200 N   0  0  0  0  0
  130.5020   33.3200  -24.2030 C   0  0  0  0  0
  129.9340   34.3990  -24.7820 C   0  0  0  0  0
  130.5470   35.4210  -25.4260 C   0  0  0  0  0
  129.8880   36.4110  -25.7460 O   0  0  0  0  0
  131.8890   35.3370  -25.6500 N   0  0  0  0  0
  132.5690   36.3740  -26.2240 C   0  0  0  0  0
  132.9310   36.3430  -27.5800 C   0  0  0  0  0
  132.5250   35.0260  -28.6310 Cl  0  0  0  0  0
  133.6440   37.4120  -28.1260 C   0  0  0  0  0
  134.0060   38.4990  -27.3410 C   0  0  0  0  0
  133.6540   38.5240  -25.9970 C   0  0  0  0  0
  132.9430   37.4640  -25.4290 C   0  0  0  0  0
  132.6200   37.5410  -24.0740 C   0  0  0  0  0
  123.8958   38.4664  -23.3184 H   0  0  0  0  0
  123.4728   37.9525  -24.8541 H   0  0  0  0  0
  122.2028   40.0237  -24.8454 H   0  0  0  0  0
  122.0124   40.0040  -23.1230 H   0  0  0  0  0
  120.1691   39.0333  -24.9796 H   0  0  0  0  0
  120.0508   38.8982  -23.3742 H   0  0  0  0  0
  121.2193   36.9250  -25.2692 H   0  0  0  0  0
  120.1532   36.6041  -24.0028 H   0  0  0  0  0
  121.9346   37.2470  -22.2438 H   0  0  0  0  0
  122.4411   35.1641  -24.1397 H   0  0  0  0  0
  126.3359   34.5978  -22.7518 H   0  0  0  0  0
  122.2463   33.3024  -22.9592 H   0  0  0  0  0
  123.0062   30.9677  -23.3273 H   0  0  0  0  0
  125.4327   30.4532  -23.4026 H   0  0  0  0  0
  127.5961   31.2124  -22.7473 H   0  0  0  0  0
  131.5784   33.1484  -24.2012 H   0  0  0  0  0
  132.3917   34.4897  -25.3859 H   0  0  0  0  0
  133.9197   37.3933  -29.1804 H   0  0  0  0  0
  134.5633   39.3282  -27.7769 H   0  0  0  0  0
  133.9350   39.3779  -25.3806 H   0  0  0  0  0
  131.5364   37.5172  -23.9582 H   0  0  0  0  0
  133.0616   36.6947  -23.5479 H   0  0  0  0  0
  133.0105   38.4711  -23.6610 H   0  0  0  0  0
  1  2  1  0  0  0
  1  5  1  0  0  0
  2  3  1  0  0  0
  3  4  1  0  0  0
  4  5  1  0  0  0
  5  6  1  0  0  0
  6  7  1  0  0  0
  7  8  2  0  0  0
  7  9  1  0  0  0
  9 10  4  0  0  0
  9 11  4  0  0  0
 10 14  4  0  0  0
 11 12  4  0  0  0
 12 13  4  0  0  0
 13 14  4  0  0  0
 14 15  1  0  0  0
 15 16  1  0  0  0
 16 17  4  0  0  0
 16 18  4  0  0  0
 17 20  4  0  0  0
 18 19  4  0  0  0
 19 20  4  0  0  0
 20 21  1  0  0  0
 21 22  2  0  0  0
 21 23  1  0  0  0
 23 24  1  0  0  0
 24 25  4  0  0  0
 24 30  4  0  0  0
 25 26  1  0  0  0
 25 27  4  0  0  0
 27 28  4  0  0  0
 28 29  4  0  0  0
 29 30  4  0  0  0
 30 31  1  0  0  0
  1 32  1  0  0  0
  1 33  1  0  0  0
  2 34  1  0  0  0
  2 35  1  0  0  0
  3 36  1  0  0  0
  3 37  1  0  0  0
  4 38  1  0  0  0
  4 39  1  0  0  0
  5 40  1  0  0  0
  6 41  1  0  0  0
 10 42  1  0  0  0
 11 43  1  0  0  0
 12 44  1  0  0  0
 13 45  1  0  0  0
 15 46  1  0  0  0
 19 47  1  0  0  0
 23 48  1  0  0  0
 27 49  1  0  0  0
 28 50  1  0  0  0
 29 51  1  0  0  0
 31 52  1  0  0  0
 31 53  1  0  0  0
 31 54  1  0  0  0
M  END
$$$$
