2wwj_ligand
  -I-interpret- 

 42 43  0  0  0  0  0  0  0  0999 V2000
  -19.7810  -18.4080  -18.9070 C   0  0  0  0  0
  -19.7600  -17.0120  -18.7460 C   0  0  0  0  0
  -20.5210  -16.3680  -17.7610 C   0  0  0  0  0
  -21.3320  -17.1330  -16.9250 C   0  0  0  0  0
  -21.3590  -18.5310  -17.0890 C   0  0  0  0  0
  -20.5840  -19.1790  -18.0700 C   0  0  0  0  0
  -20.6340  -20.5740  -18.2190 C   0  0  0  0  0
  -21.9460  -21.2140  -18.1430 O   0  0  0  0  0
  -22.7590  -20.9480  -19.2460 C   0  0  0  0  0
  -22.2180  -20.6430  -20.4970 C   0  0  0  0  0
  -23.0580  -20.3930  -21.5970 C   0  0  0  0  0
  -24.1600  -20.9890  -19.1520 C   0  0  0  0  0
  -25.0040  -20.7490  -20.2520 C   0  0  0  0  0
  -24.4550  -20.4460  -21.5000 C   0  0  0  0  0
  -25.3590  -20.1970  -22.7460 C   0  0  0  0  0
  -25.6550  -21.5450  -23.5030 C   0  0  0  0  0
  -24.6600  -21.8030  -24.6230 C   0  0  0  0  0
  -23.4800  -22.0650  -24.2950 O   0  0  0  0  0
  -25.1090  -21.7860  -25.7900 O   0  0  0  0  0
  -26.9730  -21.4360  -24.0960 N   0  0  0  0  0
  -28.0400  -21.4240  -23.3140 C   0  0  0  0  0
  -27.9430  -21.5990  -22.0980 O   0  0  0  0  0
  -29.4420  -21.1610  -23.9150 C   0  0  0  0  0
  -29.5660  -21.0060  -25.1690 O   0  0  0  0  0
  -30.3870  -21.1120  -23.0800 O   0  0  0  0  0
  -19.1751  -18.8824  -19.6790 H   0  0  0  0  0
  -19.1335  -16.4126  -19.4066 H   0  0  0  0  0
  -20.4791  -15.2844  -17.6504 H   0  0  0  0  0
  -21.9373  -16.6555  -16.1545 H   0  0  0  0  0
  -21.9977  -19.1285  -16.4384 H   0  0  0  0  0
  -20.0612  -20.9790  -17.3848 H   0  0  0  0  0
  -20.2673  -20.7750  -19.2256 H   0  0  0  0  0
  -21.1361  -20.5984  -20.6218 H   0  0  0  0  0
  -22.6065  -20.1495  -22.5588 H   0  0  0  0  0
  -24.6122  -21.2162  -18.1866 H   0  0  0  0  0
  -26.0860  -20.7995  -20.1302 H   0  0  0  0  0
  -24.8412  -19.5198  -23.4252 H   0  0  0  0  0
  -26.3037  -19.7668  -22.4135 H   0  0  0  0  0
  -25.5832  -22.3644  -22.7878 H   0  0  0  0  0
  -23.3947  -22.0101  -23.3404 H   0  0  0  0  0
  -27.0771  -21.3691  -25.1085 H   0  0  0  0  0
  -28.7057  -21.0879  -25.5870 H   0  0  0  0  0
  1  2  4  0  0  0
  1  6  4  0  0  0
  2  3  4  0  0  0
  3  4  4  0  0  0
  4  5  4  0  0  0
  5  6  4  0  0  0
  6  7  1  0  0  0
  7  8  1  0  0  0
  8  9  1  0  0  0
  9 10  4  0  0  0
  9 12  4  0  0  0
 10 11  4  0  0  0
 11 14  4  0  0  0
 12 13  4  0  0  0
 13 14  4  0  0  0
 14 15  1  0  0  0
 15 16  1  0  0  0
 16 17  1  0  0  0
 16 20  1  0  0  0
 17 18  1  0  0  0
 17 19  2  0  0  0
 20 21  1  0  0  0
 21 22  2  0  0  0
 21 23  1  0  0  0
 23 24  1  0  0  0
 23 25  2  0  0  0
  1 26  1  0  0  0
  2 27  1  0  0  0
  3 28  1  0  0  0
  4 29  1  0  0  0
  5 30  1  0  0  0
  7 31  1  0  0  0
  7 32  1  0  0  0
 10 33  1  0  0  0
 11 34  1  0  0  0
 12 35  1  0  0  0
 13 36  1  0  0  0
 15 37  1  0  0  0
 15 38  1  0  0  0
 16 39  1  0  0  0
 18 40  1  0  0  0
 20 41  1  0  0  0
 24 42  1  0  0  0
M  END
$$$$
