4h5d_ligand
  -I-interpret- 

 46 47  0  0  0  0  0  0  0  0999 V2000
   16.3650   35.5510   -6.3130 O   0  0  0  0  0
   15.0430   35.3670   -7.1130 P   0  0  0  0  0
   14.1070   35.4140   -5.7750 O   0  0  0  0  0
   14.8300   36.5910   -7.9870 O   0  0  0  0  0
   14.9480   33.8760   -8.0240 C   0  0  0  0  0
   16.1750   33.8580   -9.4350 P   0  0  0  0  0
   17.6620   33.8150   -8.6430 O   0  0  0  0  0
   15.9070   32.6040  -10.2510 O   0  0  0  0  0
   15.9510   35.0910  -10.2700 O   0  0  0  0  0
   15.1910   32.7110   -7.1180 N   0  0  0  0  0
   14.8900   31.4740   -7.5260 C   0  0  0  0  0
   15.5890   30.3400   -7.0090 C   0  0  0  0  0
   13.8920   31.2860   -8.3660 N   0  0  0  0  0
   13.5680   30.0140   -8.8490 C   0  0  0  0  0
   14.2740   28.8950   -8.3800 C   0  0  0  0  0
   15.3370   29.0770   -7.4430 C   0  0  0  0  0
   16.1170   27.9730   -6.9470 C   0  0  0  0  0
   16.1590   26.7710   -7.6780 C   0  0  0  0  0
   16.8680   25.6350   -7.2000 C   0  0  0  0  0
   16.8250   28.0300   -5.7080 C   0  0  0  0  0
   17.5650   26.9330   -5.2350 C   0  0  0  0  0
   17.5860   25.7320   -5.9920 C   0  0  0  0  0
   18.3190   24.6040   -5.6210 O   0  0  0  0  0
   19.1460   24.6360   -4.4220 C   0  0  0  0  0
   20.4640   25.2510   -4.7680 C   0  0  0  0  0
   19.4810   23.1840   -4.2110 C   0  0  0  0  0
   16.5104   34.7826   -5.7563 H   0  0  0  0  0
   14.2660   34.6283   -5.2469 H   0  0  0  0  0
   13.9474   33.8032   -8.4502 H   0  0  0  0  0
   17.7292   33.0034   -8.1347 H   0  0  0  0  0
   16.0546   31.8295   -9.7033 H   0  0  0  0  0
   15.5861   32.8602   -6.1895 H   0  0  0  0  0
   16.3484   30.4928   -6.2422 H   0  0  0  0  0
   12.7728   29.8924   -9.5845 H   0  0  0  0  0
   14.0133   27.8954   -8.7279 H   0  0  0  0  0
   15.6360   26.7096   -8.6324 H   0  0  0  0  0
   16.8561   24.7007   -7.7613 H   0  0  0  0  0
   16.7906   28.9447   -5.1161 H   0  0  0  0  0
   18.1166   27.0033   -4.2975 H   0  0  0  0  0
   18.6611   25.1560   -3.5958 H   0  0  0  0  0
   20.9507   24.6542   -5.5394 H   0  0  0  0  0
   20.3050   26.2642   -5.1370 H   0  0  0  0  0
   21.0939   25.2814   -3.8789 H   0  0  0  0  0
   18.5607   22.6164   -4.0733 H   0  0  0  0  0
   20.0159   22.8056   -5.0821 H   0  0  0  0  0
   20.1082   23.0821   -3.3254 H   0  0  0  0  0
  1  2  1  0  0  0
  2  3  1  0  0  0
  2  4  2  0  0  0
  2  5  1  0  0  0
  5  6  1  0  0  0
  5 10  1  0  0  0
  6  7  1  0  0  0
  6  8  1  0  0  0
  6  9  2  0  0  0
 10 11  1  0  0  0
 11 12  4  0  0  0
 11 13  4  0  0  0
 12 16  4  0  0  0
 13 14  4  0  0  0
 14 15  4  0  0  0
 15 16  4  0  0  0
 16 17  1  0  0  0
 17 18  4  0  0  0
 17 20  4  0  0  0
 18 19  4  0  0  0
 19 22  4  0  0  0
 20 21  4  0  0  0
 21 22  4  0  0  0
 22 23  1  0  0  0
 23 24  1  0  0  0
 24 25  1  0  0  0
 24 26  1  0  0  0
  1 27  1  0  0  0
  3 28  1  0  0  0
  5 29  1  0  0  0
  7 30  1  0  0  0
  8 31  1  0  0  0
 10 32  1  0  0  0
 12 33  1  0  0  0
 14 34  1  0  0  0
 15 35  1  0  0  0
 18 36  1  0  0  0
 19 37  1  0  0  0
 20 38  1  0  0  0
 21 39  1  0  0  0
 24 40  1  0  0  0
 25 41  1  0  0  0
 25 42  1  0  0  0
 25 43  1  0  0  0
 26 44  1  0  0  0
 26 45  1  0  0  0
 26 46  1  0  0  0
M  END
$$$$
