### 
### Created by X-TOOL on Mon Sep 10 21:13:09 2018
### 

@<TRIPOS>MOLECULE
4h5d_ligand
   42    43     1     0     0
SMALL
GAST_HUCK


@<TRIPOS>ATOM
      1 O5         16.3650   35.5510   -6.3130 O.co2     1 YS4        -0.5598
      2 P2         15.0430   35.3670   -7.1130 P.3       1 YS4         0.1025
      3 O6         14.1070   35.4140   -5.7750 O.co2     1 YS4        -0.5598
      4 O7         14.8300   36.5910   -7.9870 O.co2     1 YS4        -0.5598
      5 C13        14.9480   33.8760   -8.0240 C.3       1 YS4         0.1784
      6 P1         16.1750   33.8580   -9.4350 P.3       1 YS4         0.1025
      7 O3         17.6620   33.8150   -8.6430 O.co2     1 YS4        -0.5598
      8 O2         15.9070   32.6040  -10.2510 O.co2     1 YS4        -0.5598
      9 O4         15.9510   35.0910  -10.2700 O.co2     1 YS4        -0.5598
     10 N1         15.1910   32.7110   -7.1180 N.pl3     1 YS4        -0.2780
     11 C12        14.8900   31.4740   -7.5260 C.ar      1 YS4         0.1098
     12 C11        15.5890   30.3400   -7.0090 C.ar      1 YS4        -0.0132
     13 N2         13.8920   31.2860   -8.3660 N.ar      1 YS4        -0.2894
     14 C14        13.5680   30.0140   -8.8490 C.ar      1 YS4        -0.0069
     15 C15        14.2740   28.8950   -8.3800 C.ar      1 YS4        -0.0441
     16 C10        15.3370   29.0770   -7.4430 C.ar      1 YS4        -0.0185
     17 C9         16.1170   27.9730   -6.9470 C.ar      1 YS4        -0.0226
     18 C6         16.1590   26.7710   -7.6780 C.ar      1 YS4        -0.0590
     19 C5         16.8680   25.6350   -7.2000 C.ar      1 YS4        -0.0294
     20 C8         16.8250   28.0300   -5.7080 C.ar      1 YS4        -0.0590
     21 C7         17.5650   26.9330   -5.2350 C.ar      1 YS4        -0.0294
     22 C4         17.5860   25.7320   -5.9920 C.ar      1 YS4         0.0950
     23 O1         18.3190   24.6040   -5.6210 O.3       1 YS4        -0.3130
     24 C2         19.1460   24.6360   -4.4220 C.3       1 YS4         0.0766
     25 C1         20.4640   25.2510   -4.7680 C.3       1 YS4        -0.0344
     26 C3         19.4810   23.1840   -4.2110 C.3       1 YS4        -0.0344
     27 H1         13.9352   33.7899   -8.4445 H         1 YS4         0.0946
     28 H2         15.5900   32.8617   -6.1804 H         1 YS4         0.1829
     29 H3         16.3443   30.4920   -6.2464 H         1 YS4         0.0589
     30 H4         12.7772   29.8931   -9.5805 H         1 YS4         0.0771
     31 H5         14.0147   27.9009   -8.7260 H         1 YS4         0.0586
     32 H6         15.6389   26.7099   -8.6271 H         1 YS4         0.0615
     33 H7         16.8561   24.7059   -7.7582 H         1 YS4         0.0552
     34 H8         16.7908   28.9396   -5.1194 H         1 YS4         0.0615
     35 H9         18.1136   27.0029   -4.3027 H         1 YS4         0.0552
     36 H10        18.6536   25.1189   -3.5650 H         1 YS4         0.0646
     37 H11        21.1006   25.2823   -3.8715 H         1 YS4         0.0258
     38 H12        20.3049   26.2737   -5.1406 H         1 YS4         0.0258
     39 H13        20.9562   24.6496   -5.5464 H         1 YS4         0.0258
     40 H14        20.1140   23.0799   -3.3174 H         1 YS4         0.0258
     41 H15        20.0209   22.8008   -5.0894 H         1 YS4         0.0258
     42 H16        18.5530   22.6100   -4.0718 H         1 YS4         0.0258
@<TRIPOS>BOND
     1    1    2 ar 
     2    2    3 ar 
     3    2    4 ar 
     4    2    5 1  
     5    5    6 1  
     6    5   10 1  
     7    6    7 ar 
     8    6    8 ar 
     9    6    9 ar 
    10   10   11 1  
    11   11   12 ar 
    12   11   13 ar 
    13   12   16 ar 
    14   13   14 ar 
    15   14   15 ar 
    16   15   16 ar 
    17   16   17 1  
    18   17   18 ar 
    19   17   20 ar 
    20   18   19 ar 
    21   19   22 ar 
    22   20   21 ar 
    23   21   22 ar 
    24   22   23 1  
    25   23   24 1  
    26   24   25 1  
    27   24   26 1  
    28    5   27 1  
    29   10   28 1  
    30   12   29 1  
    31   14   30 1  
    32   15   31 1  
    33   18   32 1  
    34   19   33 1  
    35   20   34 1  
    36   21   35 1  
    37   24   36 1  
    38   25   37 1  
    39   25   38 1  
    40   25   39 1  
    41   26   40 1  
    42   26   41 1  
    43   26   42 1  
@<TRIPOS>SUBSTRUCTURE
     1 YS4         1

