6szp_ligand
  -I-interpret- 

 39 38  0  0  0  0  0  0  0  0999 V2000
   -4.4810   20.0600    4.2300 C   0  0  0  0  0
   -5.1680   18.9280    3.4450 C   0  0  0  0  0
   -6.6450   18.7750    3.8140 C   0  0  0  0  0
   -7.2780   17.6590    2.9750 C   0  0  0  0  0
   -3.5240   21.8850    2.8970 C   0  0  0  0  0
   -2.0880   21.1180    1.0240 C   0  0  0  0  0
   -0.8800   21.9770    1.4230 C   0  0  0  0  0
   -0.3120   23.9710    2.5110 C   0  0  0  0  0
   -6.9450   16.3470    3.5150 N   0  3  0  0  0
   -4.6860   21.3760    3.6340 N   0  3  0  0  0
   -3.9500   22.7660    2.0900 N   0  3  0  0  0
   -2.9620   20.7760    2.1490 N   0  3  0  0  0
   -1.3230   23.2250    1.8780 O   0  0  0  0  0
   -3.4095   19.8599    4.2305 H   0  0  0  0  0
   -4.9129   20.0786    5.2306 H   0  0  0  0  0
   -4.6614   17.9939    3.6875 H   0  0  0  0  0
   -5.1089   19.1696    2.3838 H   0  0  0  0  0
   -7.1644   19.7127    3.6165 H   0  0  0  0  0
   -6.7277   18.5218    4.8710 H   0  0  0  0  0
   -6.8940   17.7260    1.9571 H   0  0  0  0  0
   -8.3611   17.7798    2.9925 H   0  0  0  0  0
   -2.7693   22.3097    3.5589 H   0  0  0  0  0
   -1.7036   20.1844    0.6133 H   0  0  0  0  0
   -2.6799   21.6961    0.3144 H   0  0  0  0  0
   -0.2316   22.1155    0.5578 H   0  0  0  0  0
   -0.3258   21.4770    2.2173 H   0  0  0  0  0
    0.0608   23.4174    3.3728 H   0  0  0  0  0
    0.5033   24.1447    1.8088 H   0  0  0  0  0
   -0.7196   24.9268    2.8402 H   0  0  0  0  0
   -7.3774   15.6242    2.9398 H   0  0  0  0  0
   -5.9322   16.2260    3.5107 H   0  0  0  0  0
   -7.2931   16.2758    4.4711 H   0  0  0  0  0
   -4.8700   22.0281    4.3965 H   0  0  0  0  0
   -5.4531   21.2900    2.9673 H   0  0  0  0  0
   -3.1668   23.1446    1.5574 H   0  0  0  0  0
   -4.6240   22.3432    1.4518 H   0  0  0  0  0
   -4.4005   23.5161    2.6142 H   0  0  0  0  0
   -3.7556   20.2770    1.7470 H   0  0  0  0  0
   -2.3818   20.2573    2.8084 H   0  0  0  0  0
  1  2  1  0  0  0
 10  1  1  0  0  0
  2  3  1  0  0  0
  3  4  1  0  0  0
  4  9  1  0  0  0
  5 10  1  0  0  0
  5 11  1  0  0  0
 12  5  1  0  0  0
  6  7  1  0  0  0
  6 12  1  0  0  0
  7 13  1  0  0  0
 13  8  1  0  0  0
  1 14  1  0  0  0
  1 15  1  0  0  0
  2 16  1  0  0  0
  2 17  1  0  0  0
  3 18  1  0  0  0
  3 19  1  0  0  0
  4 20  1  0  0  0
  4 21  1  0  0  0
  5 22  1  0  0  0
  6 23  1  0  0  0
  6 24  1  0  0  0
  7 25  1  0  0  0
  7 26  1  0  0  0
  8 27  1  0  0  0
  8 28  1  0  0  0
  8 29  1  0  0  0
  9 30  1  0  0  0
  9 31  1  0  0  0
  9 32  1  0  0  0
 10 33  1  0  0  0
 10 34  1  0  0  0
 11 35  1  0  0  0
 11 36  1  0  0  0
 11 37  1  0  0  0
 12 38  1  0  0  0
 12 39  1  0  0  0
M  END
$$$$
