1ukh_ligand
  -I-interpret- 

177179  0  0  0  0  0  0  0  0999 V2000
   19.5540   15.3220   39.6960 N   0  3  0  0  0
   19.5560   16.7360   39.2110 C   0  0  0  0  0
   18.3180   17.5160   39.6570 C   0  0  0  0  0
   17.2000   17.2350   39.2250 O   0  0  0  0  0
   19.6410   16.6890   37.6940 C   0  0  0  0  0
   19.0860   15.2490   37.4020 C   0  0  0  0  0
   19.6090   14.3850   38.5570 C   0  0  0  0  0
   18.5280   18.4970   40.5280 N   0  0  0  0  0
   17.4320   19.3140   41.0320 C   0  0  0  0  0
   17.1840   20.4940   40.0800 C   0  0  0  0  0
   18.1280   21.0980   39.5540 O   0  0  0  0  0
   17.7710   19.8230   42.4430 C   0  0  0  0  0
   16.5790   19.9440   43.3960 C   0  0  0  0  0
   15.5040   20.8810   42.8480 C   0  0  0  0  0
   14.2790   20.9620   43.7620 C   0  0  0  0  0
   13.1760   21.7610   43.1460 N   0  3  0  0  0
   15.9110   20.8120   39.8590 N   0  0  0  0  0
   15.5300   21.9110   38.9720 C   0  0  0  0  0
   15.6690   23.2740   39.6470 C   0  0  0  0  0
   15.2220   23.4570   40.7760 O   0  0  0  0  0
   14.0820   21.7310   38.4910 C   0  0  0  0  0
   13.8460   20.5050   37.5990 C   0  0  0  0  0
   12.4060   20.4630   37.1170 C   0  0  0  0  0
   12.0890   19.2900   36.3020 N   0  0  0  0  0
   10.9100   19.0960   35.7100 C   0  0  0  0  0
    9.9460   19.9980   35.8470 N   0  0  0  0  0
   10.6890   18.0080   34.9810 N   0  0  0  0  0
   16.2910   24.2500   38.9570 N   0  0  0  0  0
   16.4800   25.5950   39.5010 C   0  0  0  0  0
   15.2060   26.1000   40.1680 C   0  0  0  0  0
   14.1030   25.9380   39.6300 O   0  0  0  0  0
   16.8600   26.4070   38.2680 C   0  0  0  0  0
   17.6480   25.4300   37.4730 C   0  0  0  0  0
   16.7990   24.1800   37.5730 C   0  0  0  0  0
   15.3650   26.7010   41.3430 N   0  0  0  0  0
   14.2300   27.2170   42.1010 C   0  0  0  0  0
   14.1750   28.7330   41.9960 C   0  0  0  0  0
   13.2460   29.3740   42.5000 O   0  0  0  0  0
   14.3390   26.8380   43.5900 C   0  0  0  0  0
   15.3410   27.6510   44.2170 O   0  0  0  0  0
   14.7140   25.3610   43.7350 C   0  0  0  0  0
   15.1820   29.3000   41.3410 N   0  0  0  0  0
   15.2450   30.7380   41.1720 C   0  0  0  0  0
   16.0160   31.1770   39.9090 C   0  0  0  0  0
   16.8650   30.4510   39.3810 O   0  0  0  0  0
   15.8600   31.3960   42.4380 C   0  0  0  0  0
   17.0560   30.7010   42.8100 O   0  0  0  0  0
   14.8740   31.3390   43.6040 C   0  0  0  0  0
   15.6750   32.3610   39.4150 N   0  0  0  0  0
   16.3100   32.9500   38.2490 C   0  0  0  0  0
   16.3370   34.4320   38.5790 C   0  0  0  0  0
   15.3160   34.9970   38.9690 O   0  0  0  0  0
   15.4730   32.7170   36.9930 C   0  0  0  0  0
   16.0700   33.3220   35.7190 C   0  0  0  0  0
   17.2800   32.5110   35.2870 C   0  0  0  0  0
   15.0220   33.3390   34.6220 C   0  0  0  0  0
   17.4950   35.0630   38.4330 N   0  0  0  0  0
   17.6150   36.4790   38.7680 C   0  0  0  0  0
   17.2480   37.3950   37.6050 C   0  0  0  0  0
   18.0480   37.6200   36.6970 O   0  0  0  0  0
   19.0400   36.7780   39.2330 C   0  0  0  0  0
   19.1580   38.1210   39.9200 C   0  0  0  0  0
   18.7850   38.2750   41.0830 O   0  0  0  0  0
   19.6730   39.1080   39.1960 N   0  0  0  0  0
   16.0400   37.9380   37.6440 N   0  0  0  0  0
   15.6020   38.8110   36.5800 C   0  0  0  0  0
   16.2700   40.1740   36.6140 C   0  0  0  0  0
   16.6530   40.7020   35.5670 O   0  0  0  0  0
   14.0950   38.9700   36.6310 C   0  0  0  0  0
   13.3200   37.6590   36.5190 C   0  0  0  0  0
   13.9120   36.7730   35.4270 C   0  0  0  0  0
   13.3800   36.9530   37.8460 C   0  0  0  0  0
   16.3910   40.7460   37.8140 N   0  0  0  0  0
   17.0240   42.0580   38.0100 C   0  0  0  0  0
   18.3780   42.1600   37.2960 C   0  0  0  0  0
   18.7010   43.2660   36.8140 O   0  0  0  0  0
   17.2230   42.3490   39.5030 C   0  0  0  0  0
   15.9580   42.7290   40.2360 C   0  0  0  0  0
   15.9870   42.9780   41.6150 C   0  0  0  0  0
   14.7440   42.8510   39.5620 C   0  0  0  0  0
   14.8240   43.3480   42.3120 C   0  0  0  0  0
   13.5770   43.2200   40.2500 C   0  0  0  0  0
   13.6180   43.4690   41.6330 C   0  0  0  0  0
   19.1100   41.1460   37.2450 O   0  0  0  0  0
   18.6970   15.1535   40.2228 H   0  0  0  0  0
   20.3717   15.1733   40.2873 H   0  0  0  0  0
   20.4074   17.2627   39.6419 H   0  0  0  0  0
   20.6447   16.8601   37.3048 H   0  0  0  0  0
   19.0834   17.4835   37.1980 H   0  0  0  0  0
   19.4179   14.8752   36.4334 H   0  0  0  0  0
   17.9974   15.2373   37.3474 H   0  0  0  0  0
   19.0234   13.4795   38.7162 H   0  0  0  0  0
   20.6067   13.9847   38.3771 H   0  0  0  0  0
   19.4776   18.6823   40.8510 H   0  0  0  0  0
   16.5249   18.7121   41.0858 H   0  0  0  0  0
   18.1797   20.8264   42.3240 H   0  0  0  0  0
   18.4513   19.0942   42.8836 H   0  0  0  0  0
   16.9374   20.3511   44.3415 H   0  0  0  0  0
   16.1389   18.9545   43.5200 H   0  0  0  0  0
   15.1792   20.4933   41.8825 H   0  0  0  0  0
   15.9342   21.8796   42.7716 H   0  0  0  0  0
   14.5768   21.4493   44.6904 H   0  0  0  0  0
   13.9131   19.9497   43.9337 H   0  0  0  0  0
   12.3814   21.7904   43.7848 H   0  0  0  0  0
   13.5045   22.7098   42.9662 H   0  0  0  0  0
   12.8921   21.3261   42.2681 H   0  0  0  0  0
   15.1789   20.2733   40.3219 H   0  0  0  0  0
   16.2127   21.8833   38.1227 H   0  0  0  0  0
   13.8365   22.6086   37.8930 H   0  0  0  0  0
   13.4679   21.5966   39.3814 H   0  0  0  0  0
   14.0514   19.6036   38.1764 H   0  0  0  0  0
   14.5062   20.5656   36.7338 H   0  0  0  0  0
   12.2461   21.3435   36.4947 H   0  0  0  0  0
   11.7688   20.4262   38.0006 H   0  0  0  0  0
   12.8111   18.5801   36.1797 H   0  0  0  0  0
   10.1080   20.8370   36.4040 H   0  0  0  0  0
    9.7838   17.8705   34.5315 H   0  0  0  0  0
   11.4245   17.3099   34.8707 H   0  0  0  0  0
   17.2352   25.6533   40.2849 H   0  0  0  0  0
   17.4173   27.3128   38.5071 H   0  0  0  0  0
   15.9963   26.7986   37.7306 H   0  0  0  0  0
   18.6633   25.2917   37.8447 H   0  0  0  0  0
   17.8219   25.7513   36.4460 H   0  0  0  0  0
   16.0047   24.1420   36.8275 H   0  0  0  0  0
   17.3574   23.2665   37.3683 H   0  0  0  0  0
   16.3052   26.8042   41.7248 H   0  0  0  0  0
   13.3266   26.7753   41.6805 H   0  0  0  0  0
   13.3751   27.0060   44.0704 H   0  0  0  0  0
   15.4087   27.4146   45.1450 H   0  0  0  0  0
   13.9473   24.7450   43.2652 H   0  0  0  0  0
   15.6735   25.1818   43.2500 H   0  0  0  0  0
   14.7873   25.1082   44.7927 H   0  0  0  0  0
   15.9213   28.7151   40.9515 H   0  0  0  0  0
   14.2192   31.0803   41.0357 H   0  0  0  0  0
   16.0869   32.4373   42.2091 H   0  0  0  0  0
   17.4326   31.1106   43.5923 H   0  0  0  0  0
   13.9628   31.8729   43.3341 H   0  0  0  0  0
   14.6351   30.2989   43.8256 H   0  0  0  0  0
   15.3232   31.8048   44.4811 H   0  0  0  0  0
   14.9303   32.8829   39.8770 H   0  0  0  0  0
   17.2935   32.5252   38.0481 H   0  0  0  0  0
   14.5084   33.1979   37.1557 H   0  0  0  0  0
   15.4153   31.6393   36.8406 H   0  0  0  0  0
   16.3872   34.3463   35.9149 H   0  0  0  0  0
   18.0276   32.5257   36.0801 H   0  0  0  0  0
   16.9757   31.4827   35.0918 H   0  0  0  0  0
   17.7017   32.9448   34.3803 H   0  0  0  0  0
   14.6934   32.3197   34.4193 H   0  0  0  0  0
   14.1709   33.9393   34.9436 H   0  0  0  0  0
   15.4514   33.7703   33.7177 H   0  0  0  0  0
   18.3077   34.5549   38.0840 H   0  0  0  0  0
   16.9046   36.6814   39.5696 H   0  0  0  0  0
   19.6836   36.7934   38.3534 H   0  0  0  0  0
   19.3276   36.0084   39.9493 H   0  0  0  0  0
   19.7724   40.0391   39.6005 H   0  0  0  0  0
   19.9691   38.9350   38.2354 H   0  0  0  0  0
   15.4178   37.7390   38.4274 H   0  0  0  0  0
   15.8984   38.3402   35.6427 H   0  0  0  0  0
   13.8086   39.5855   35.7782 H   0  0  0  0  0
   13.8512   39.4046   37.6004 H   0  0  0  0  0
   12.2843   37.8710   36.2535 H   0  0  0  0  0
   13.8625   37.2945   34.4712 H   0  0  0  0  0
   14.9514   36.5487   35.6666 H   0  0  0  0  0
   13.3435   35.8450   35.3659 H   0  0  0  0  0
   14.4200   36.7500   38.1014 H   0  0  0  0  0
   12.9330   37.5853   38.6131 H   0  0  0  0  0
   12.8303   36.0139   37.7817 H   0  0  0  0  0
   16.0289   40.2517   38.6294 H   0  0  0  0  0
   16.3495   42.7960   37.5758 H   0  0  0  0  0
   17.9036   43.1972   39.5766 H   0  0  0  0  0
   17.5966   41.4333   39.9613 H   0  0  0  0  0
   16.9282   42.8830   42.1565 H   0  0  0  0  0
   14.7002   42.6580   38.4901 H   0  0  0  0  0
   14.8682   43.5398   43.3841 H   0  0  0  0  0
   12.6351   43.3138   39.7095 H   0  0  0  0  0
   12.7120   43.7543   42.1676 H   0  0  0  0  0
   18.6669   40.4109   37.6749 H   0  0  0  0  0
  1  2  1  0  0  0
  1  7  1  0  0  0
  2  3  1  0  0  0
  2  5  1  0  0  0
  3  4  2  0  0  0
  3  8  1  0  0  0
  5  6  1  0  0  0
  6  7  1  0  0  0
  8  9  1  0  0  0
  9 10  1  0  0  0
  9 12  1  0  0  0
 10 11  2  0  0  0
 10 17  1  0  0  0
 12 13  1  0  0  0
 13 14  1  0  0  0
 14 15  1  0  0  0
 15 16  1  0  0  0
 17 18  1  0  0  0
 18 19  1  0  0  0
 18 21  1  0  0  0
 19 20  2  0  0  0
 19 28  1  0  0  0
 21 22  1  0  0  0
 22 23  1  0  0  0
 23 24  1  0  0  0
 24 25  1  0  0  0
 25 26  2  0  0  0
 25 27  1  0  0  0
 28 29  1  0  0  0
 28 34  1  0  0  0
 29 30  1  0  0  0
 29 32  1  0  0  0
 30 31  2  0  0  0
 30 35  1  0  0  0
 32 33  1  0  0  0
 33 34  1  0  0  0
 35 36  1  0  0  0
 36 37  1  0  0  0
 36 39  1  0  0  0
 37 38  2  0  0  0
 37 42  1  0  0  0
 39 40  1  0  0  0
 39 41  1  0  0  0
 42 43  1  0  0  0
 43 44  1  0  0  0
 43 46  1  0  0  0
 44 45  2  0  0  0
 44 49  1  0  0  0
 46 47  1  0  0  0
 46 48  1  0  0  0
 49 50  1  0  0  0
 50 51  1  0  0  0
 50 53  1  0  0  0
 51 52  2  0  0  0
 51 57  1  0  0  0
 53 54  1  0  0  0
 54 55  1  0  0  0
 54 56  1  0  0  0
 57 58  1  0  0  0
 58 59  1  0  0  0
 58 61  1  0  0  0
 59 60  2  0  0  0
 59 65  1  0  0  0
 61 62  1  0  0  0
 62 63  2  0  0  0
 62 64  1  0  0  0
 65 66  1  0  0  0
 66 67  1  0  0  0
 66 69  1  0  0  0
 67 68  2  0  0  0
 67 73  1  0  0  0
 69 70  1  0  0  0
 70 71  1  0  0  0
 70 72  1  0  0  0
 73 74  1  0  0  0
 74 75  1  0  0  0
 74 77  1  0  0  0
 75 76  2  0  0  0
 75 84  1  0  0  0
 77 78  1  0  0  0
 78 79  4  0  0  0
 78 80  4  0  0  0
 79 81  4  0  0  0
 80 82  4  0  0  0
 81 83  4  0  0  0
 82 83  4  0  0  0
  1 85  1  0  0  0
  1 86  1  0  0  0
  2 87  1  0  0  0
  5 88  1  0  0  0
  5 89  1  0  0  0
  6 90  1  0  0  0
  6 91  1  0  0  0
  7 92  1  0  0  0
  7 93  1  0  0  0
  8 94  1  0  0  0
  9 95  1  0  0  0
 12 96  1  0  0  0
 12 97  1  0  0  0
 13 98  1  0  0  0
 13 99  1  0  0  0
 14100  1  0  0  0
 14101  1  0  0  0
 15102  1  0  0  0
 15103  1  0  0  0
 16104  1  0  0  0
 16105  1  0  0  0
 16106  1  0  0  0
 17107  1  0  0  0
 18108  1  0  0  0
 21109  1  0  0  0
 21110  1  0  0  0
 22111  1  0  0  0
 22112  1  0  0  0
 23113  1  0  0  0
 23114  1  0  0  0
 24115  1  0  0  0
 26116  1  0  0  0
 27117  1  0  0  0
 27118  1  0  0  0
 29119  1  0  0  0
 32120  1  0  0  0
 32121  1  0  0  0
 33122  1  0  0  0
 33123  1  0  0  0
 34124  1  0  0  0
 34125  1  0  0  0
 35126  1  0  0  0
 36127  1  0  0  0
 39128  1  0  0  0
 40129  1  0  0  0
 41130  1  0  0  0
 41131  1  0  0  0
 41132  1  0  0  0
 42133  1  0  0  0
 43134  1  0  0  0
 46135  1  0  0  0
 47136  1  0  0  0
 48137  1  0  0  0
 48138  1  0  0  0
 48139  1  0  0  0
 49140  1  0  0  0
 50141  1  0  0  0
 53142  1  0  0  0
 53143  1  0  0  0
 54144  1  0  0  0
 55145  1  0  0  0
 55146  1  0  0  0
 55147  1  0  0  0
 56148  1  0  0  0
 56149  1  0  0  0
 56150  1  0  0  0
 57151  1  0  0  0
 58152  1  0  0  0
 61153  1  0  0  0
 61154  1  0  0  0
 64155  1  0  0  0
 64156  1  0  0  0
 65157  1  0  0  0
 66158  1  0  0  0
 69159  1  0  0  0
 69160  1  0  0  0
 70161  1  0  0  0
 71162  1  0  0  0
 71163  1  0  0  0
 71164  1  0  0  0
 72165  1  0  0  0
 72166  1  0  0  0
 72167  1  0  0  0
 73168  1  0  0  0
 74169  1  0  0  0
 77170  1  0  0  0
 77171  1  0  0  0
 79172  1  0  0  0
 80173  1  0  0  0
 81174  1  0  0  0
 82175  1  0  0  0
 83176  1  0  0  0
 84177  1  0  0  0
M  END
$$$$
