### 
### Created by X-TOOL on Mon Sep 10 21:12:52 2018
### 

@<TRIPOS>MOLECULE
1ukh_ligand
  177   179     1     0     0
SMALL
GAST_HUCK


@<TRIPOS>ATOM
      1 N          19.5540   15.3220   39.6960 N.4       1 PRO         0.2461
      2 CA         19.5560   16.7360   39.2110 C.3       1 PRO         0.0670
      3 C          18.3180   17.5160   39.6570 C.2       1 PRO         0.2268
      4 O          17.2000   17.2350   39.2250 O.2       1 PRO        -0.3907
      5 CB         19.6410   16.6890   37.6940 C.3       1 PRO         0.0127
      6 CG         19.0860   15.2490   37.4020 C.3       1 PRO        -0.0053
      7 CD         19.6090   14.3850   38.5570 C.3       1 PRO        -0.0313
      8 N          18.5280   18.4970   40.5280 N.am      1 LYS        -0.2610
      9 CA         17.4320   19.3140   41.0320 C.3       1 LYS         0.1311
     10 C          17.1840   20.4940   40.0800 C.2       1 LYS         0.2039
     11 O          18.1280   21.0980   39.5540 O.2       1 LYS        -0.3944
     12 CB         17.7710   19.8230   42.4430 C.3       1 LYS        -0.0122
     13 CG         16.5790   19.9440   43.3960 C.3       1 LYS        -0.0440
     14 CD         15.5040   20.8810   42.8480 C.3       1 LYS        -0.0124
     15 CE         14.2790   20.9620   43.7620 C.3       1 LYS        -0.0354
     16 NZ         13.1760   21.7610   43.1460 N.4       1 LYS         0.2185
     17 N          15.9110   20.8120   39.8590 N.am      1 ARG        -0.2637
     18 CA         15.5300   21.9110   38.9720 C.3       1 ARG         0.1313
     19 C          15.6690   23.2740   39.6470 C.2       1 ARG         0.2064
     20 O          15.2220   23.4570   40.7760 O.2       1 ARG        -0.3942
     21 CB         14.0820   21.7310   38.4910 C.3       1 ARG        -0.0092
     22 CG         13.8460   20.5050   37.5990 C.3       1 ARG        -0.0156
     23 CD         12.4060   20.4630   37.1170 C.3       1 ARG         0.0627
     24 NE         12.0890   19.2900   36.3020 N.pl3     1 ARG        -0.2723
     25 CZ         10.9100   19.0960   35.7100 C.cat     1 ARG         0.2882
     26 NH1         9.9460   19.9980   35.8470 N.pl3     1 ARG        -0.2849
     27 NH2        10.6890   18.0080   34.9810 N.pl3     1 ARG        -0.2849
     28 N          16.2910   24.2500   38.9570 N.am      1 PRO        -0.2498
     29 CA         16.4800   25.5950   39.5010 C.3       1 PRO         0.1338
     30 C          15.2060   26.1000   40.1680 C.2       1 PRO         0.2042
     31 O          14.1030   25.9380   39.6300 O.2       1 PRO        -0.3944
     32 CB         16.8600   26.4070   38.2680 C.3       1 PRO        -0.0104
     33 CG         17.6480   25.4300   37.4730 C.3       1 PRO        -0.0281
     34 CD         16.7990   24.1800   37.5730 C.3       1 PRO         0.0369
     35 N          15.3650   26.7010   41.3430 N.am      1 THR        -0.2613
     36 CA         14.2300   27.2170   42.1010 C.3       1 THR         0.1565
     37 C          14.1750   28.7330   41.9960 C.2       1 THR         0.2065
     38 O          13.2460   29.3740   42.5000 O.2       1 THR        -0.3943
     39 CB         14.3390   26.8380   43.5900 C.3       1 THR         0.0924
     40 OG1        15.3410   27.6510   44.2170 O.3       1 THR        -0.3874
     41 CG2        14.7140   25.3610   43.7350 C.3       1 THR        -0.0346
     42 N          15.1820   29.3000   41.3410 N.am      1 THR        -0.2613
     43 CA         15.2450   30.7380   41.1720 C.3       1 THR         0.1565
     44 C          16.0160   31.1770   39.9090 C.2       1 THR         0.2065
     45 O          16.8650   30.4510   39.3810 O.2       1 THR        -0.3943
     46 CB         15.8600   31.3960   42.4380 C.3       1 THR         0.0924
     47 OG1        17.0560   30.7010   42.8100 O.3       1 THR        -0.3874
     48 CG2        14.8740   31.3390   43.6040 C.3       1 THR        -0.0346
     49 N          15.6750   32.3610   39.4150 N.am      1 LEU        -0.2636
     50 CA         16.3100   32.9500   38.2490 C.3       1 LEU         0.1312
     51 C          16.3370   34.4320   38.5790 C.2       1 LEU         0.2040
     52 O          15.3160   34.9970   38.9690 O.2       1 LEU        -0.3944
     53 CB         15.4730   32.7170   36.9930 C.3       1 LEU        -0.0101
     54 CG         16.0700   33.3220   35.7190 C.3       1 LEU        -0.0425
     55 CD1        17.2800   32.5110   35.2870 C.3       1 LEU        -0.0625
     56 CD2        15.0220   33.3390   34.6220 C.3       1 LEU        -0.0625
     57 N          17.4950   35.0630   38.4330 N.am      1 ASN        -0.2616
     58 CA         17.6150   36.4790   38.7680 C.3       1 ASN         0.1476
     59 C          17.2480   37.3950   37.6050 C.2       1 ASN         0.2063
     60 O          18.0480   37.6200   36.6970 O.2       1 ASN        -0.3942
     61 CB         19.0400   36.7780   39.2330 C.3       1 ASN         0.0773
     62 CG         19.1580   38.1210   39.9200 C.2       1 ASN         0.1780
     63 OD1        18.7850   38.2750   41.0830 O.2       1 ASN        -0.3970
     64 ND2        19.6730   39.1080   39.1960 N.am      1 ASN        -0.3007
     65 N          16.0400   37.9380   37.6440 N.am      1 LEU        -0.2636
     66 CA         15.6020   38.8110   36.5800 C.3       1 LEU         0.1312
     67 C          16.2700   40.1740   36.6140 C.2       1 LEU         0.2035
     68 O          16.6530   40.7020   35.5670 O.2       1 LEU        -0.3944
     69 CB         14.0950   38.9700   36.6310 C.3       1 LEU        -0.0101
     70 CG         13.3200   37.6590   36.5190 C.3       1 LEU        -0.0425
     71 CD1        13.9120   36.7730   35.4270 C.3       1 LEU        -0.0625
     72 CD2        13.3800   36.9530   37.8460 C.3       1 LEU        -0.0625
     73 N          16.3910   40.7460   37.8140 N.am      1 PHE        -0.2677
     74 CA         17.0240   42.0580   38.0100 C.3       1 PHE         0.1039
     75 C          18.3780   42.1600   37.2960 C.2       1 PHE         0.0621
     76 O          18.7010   43.2660   36.8140 O.co2     1 PHE        -0.5664
     77 CB         17.2230   42.3490   39.5030 C.3       1 PHE         0.0159
     78 CG         15.9580   42.7290   40.2360 C.ar      1 PHE        -0.0392
     79 CD1        15.9870   42.9780   41.6150 C.ar      1 PHE        -0.0602
     80 CD2        14.7440   42.8510   39.5620 C.ar      1 PHE        -0.0602
     81 CE1        14.8240   43.3480   42.3120 C.ar      1 PHE        -0.0686
     82 CE2        13.5770   43.2200   40.2500 C.ar      1 PHE        -0.0686
     83 CZ         13.6180   43.4690   41.6330 C.ar      1 PHE        -0.0687
     84 OXT        19.1100   41.1460   37.2450 O.co2     1 PHE        -0.5664
     85 H1         18.7119   15.1535   40.2238 H         1 PRO         0.2035
     86 H2         20.3567   15.1729   40.2872 H         1 PRO         0.2035
     87 H3         20.4451   17.2470   39.6089 H         1 PRO         0.1099
     88 H4         20.6782   16.7997   37.3447 H         1 PRO         0.0347
     89 H5         19.0133   17.4645   37.2308 H         1 PRO         0.0347
     90 H6         19.4631   14.8766   36.4381 H         1 PRO         0.0320
     91 H7         17.9861   15.2531   37.3886 H         1 PRO         0.0320
     92 H8         18.9617   13.5120   38.7269 H         1 PRO         0.0814
     93 H9         20.6385   14.0469   38.3678 H         1 PRO         0.0814
     94 H10        19.4590   18.6787   40.8447 H         1 LYS         0.1884
     95 H11        16.5207   18.7002   41.0838 H         1 LYS         0.0800
     96 H12        18.2304   20.8176   42.3448 H         1 LYS         0.0312
     97 H13        18.4955   19.1270   42.8909 H         1 LYS         0.0312
     98 H14        16.9335   20.3354   44.3609 H         1 LYS         0.0269
     99 H15        16.1394   18.9466   43.5440 H         1 LYS         0.0269
    100 H16        15.1849   20.5138   41.8615 H         1 LYS         0.0317
    101 H17        15.9335   21.8882   42.7430 H         1 LYS         0.0317
    102 H18        14.5736   21.4347   44.7105 H         1 LYS         0.0813
    103 H19        13.9135   19.9432   43.9580 H         1 LYS         0.0813
    104 H20        12.3901   21.7907   43.7765 H         1 LYS         0.1994
    105 H21        12.8946   21.3322   42.2783 H         1 LYS         0.1994
    106 H22        13.4995   22.6989   42.9679 H         1 LYS         0.1994
    107 H23        15.1933   20.2839   40.3129 H         1 ARG         0.1883
    108 H24        16.1966   21.8898   38.0972 H         1 ARG         0.0800
    109 H25        13.7969   22.6279   37.9216 H         1 ARG         0.0313
    110 H26        13.4365   21.6385   39.3769 H         1 ARG         0.0313
    111 H27        14.0612   19.5926   38.1744 H         1 ARG         0.0301
    112 H28        14.5170   20.5566   36.7289 H         1 ARG         0.0301
    113 H29        12.2152   21.3644   36.5161 H         1 ARG         0.0689
    114 H30        11.7458   20.4623   37.9969 H         1 ARG         0.0689
    115 H31        12.8182   18.5731   36.1785 H         1 ARG         0.2642
    116 H32         9.0343   19.8508   35.3909 H         1 ARG         0.2615
    117 H33        10.1096   20.8452   36.4095 H         1 ARG         0.2615
    118 H34        11.4317   17.3031   34.8696 H         1 ARG         0.2615
    119 H35         9.7749   17.8691   34.5271 H         1 ARG         0.2615
    120 H36        17.2968   25.6081   40.2376 H         1 PRO         0.0802
    121 H37        17.4688   27.2819   38.5398 H         1 PRO         0.0313
    122 H38        15.9664   26.7383   37.7187 H         1 PRO         0.0313
    123 H39        18.6449   25.2714   37.9101 H         1 PRO         0.0287
    124 H40        17.7536   25.7582   36.4284 H         1 PRO         0.0287
    125 H41        15.9745   24.2001   36.8452 H         1 PRO         0.0524
    126 H42        17.4041   23.2748   37.4167 H         1 PRO         0.0524
    127 H43        16.2868   26.8021   41.7173 H         1 THR         0.1884
    128 H44        13.3046   26.7898   41.6873 H         1 THR         0.0826
    129 H45        13.3696   27.0136   44.0792 H         1 THR         0.0639
    130 H46        16.1773   27.5061   43.7903 H         1 THR         0.2101
    131 H47        14.7883   25.1046   44.8021 H         1 THR         0.0257
    132 H48        15.6823   25.1788   43.2459 H         1 THR         0.0257
    133 H49        13.9409   24.7382   43.2613 H         1 THR         0.0257
    134 H50        15.9068   28.7265   40.9591 H         1 THR         0.1884
    135 H51        14.2122   31.1019   41.0677 H         1 THR         0.0826
    136 H52        16.1006   32.4464   42.2170 H         1 THR         0.0639
    137 H53        16.8484   29.7928   42.9955 H         1 THR         0.2101
    138 H54        15.3262   31.8088   44.4899 H         1 THR         0.0257
    139 H55        14.6321   30.2897   43.8287 H         1 THR         0.0257
    140 H56        13.9540   31.8775   43.3329 H         1 THR         0.0257
    141 H57        14.9449   32.8727   39.8680 H         1 LEU         0.1883
    142 H58        17.3245   32.5506   38.1034 H         1 LEU         0.0800
    143 H59        14.4797   33.1615   37.1531 H         1 LEU         0.0315
    144 H60        15.3695   31.6321   36.8438 H         1 LEU         0.0315
    145 H61        16.3875   34.3548   35.9253 H         1 LEU         0.0298
    146 H62        17.7065   32.9479   34.3720 H         1 LEU         0.0232
    147 H63        16.9742   31.4730   35.0896 H         1 LEU         0.0232
    148 H64        18.0353   32.5251   36.0865 H         1 LEU         0.0232
    149 H65        14.1550   33.9298   34.9524 H         1 LEU         0.0232
    150 H66        14.7024   32.3092   34.4042 H         1 LEU         0.0232
    151 H67        15.4487   33.7903   33.7141 H         1 LEU         0.0232
    152 H68        18.2918   34.5649   38.0909 H         1 ASN         0.1885
    153 H69        16.9242   36.6912   39.5973 H         1 ASN         0.0826
    154 H70        19.7053   36.7707   38.3570 H         1 ASN         0.0551
    155 H71        19.3527   35.9932   39.9375 H         1 ASN         0.0551
    156 H72        19.7765   40.0192   39.5947 H         1 ASN         0.1814
    157 H73        19.9573   38.9400   38.2521 H         1 ASN         0.1814
    158 H74        15.4300   37.7429   38.4120 H         1 LEU         0.1883
    159 H75        15.8669   38.3333   35.6252 H         1 LEU         0.0800
    160 H76        13.7892   39.6228   35.8001 H         1 LEU         0.0315
    161 H77        13.8310   39.4454   37.5872 H         1 LEU         0.0315
    162 H78        12.2712   37.8786   36.2703 H         1 LEU         0.0298
    163 H79        13.3391   35.8361   35.3643 H         1 LEU         0.0232
    164 H80        14.9610   36.5459   35.6676 H         1 LEU         0.0232
    165 H81        13.8626   37.2982   34.4618 H         1 LEU         0.0232
    166 H82        12.9511   37.6001   38.6253 H         1 LEU         0.0232
    167 H83        14.4275   36.7260   38.0936 H         1 LEU         0.0232
    168 H84        12.8053   36.0168   37.7896 H         1 LEU         0.0232
    169 H85        16.0360   40.2614   38.6135 H         1 PHE         0.1877
    170 H86        16.3543   42.8232   37.5905 H         1 PHE         0.0749
    171 H87        17.9396   43.1779   39.6000 H         1 PHE         0.0467
    172 H88        17.6385   41.4477   39.9773 H         1 PHE         0.0467
    173 H89        16.9230   42.8835   42.1535 H         1 PHE         0.0557
    174 H90        14.7004   42.6591   38.4960 H         1 PHE         0.0557
    175 H91        14.8679   43.5388   43.3782 H         1 PHE         0.0599
    176 H92        12.6403   43.3133   39.7124 H         1 PHE         0.0599
    177 H93        12.7170   43.7528   42.1647 H         1 PHE         0.0559
@<TRIPOS>BOND
     1    1    2 1  
     2    1    7 1  
     3    2    3 1  
     4    2    5 1  
     5    3    4 2  
     6    3    8 am 
     7    5    6 1  
     8    6    7 1  
     9    8    9 1  
    10    9   10 1  
    11    9   12 1  
    12   10   11 2  
    13   10   17 am 
    14   12   13 1  
    15   13   14 1  
    16   14   15 1  
    17   15   16 1  
    18   17   18 1  
    19   18   19 1  
    20   18   21 1  
    21   19   20 2  
    22   19   28 am 
    23   21   22 1  
    24   22   23 1  
    25   23   24 1  
    26   24   25 ar 
    27   25   26 ar 
    28   25   27 ar 
    29   28   29 1  
    30   28   34 1  
    31   29   30 1  
    32   29   32 1  
    33   30   31 2  
    34   30   35 am 
    35   32   33 1  
    36   33   34 1  
    37   35   36 1  
    38   36   37 1  
    39   36   39 1  
    40   37   38 2  
    41   37   42 am 
    42   39   40 1  
    43   39   41 1  
    44   42   43 1  
    45   43   44 1  
    46   43   46 1  
    47   44   45 2  
    48   44   49 am 
    49   46   47 1  
    50   46   48 1  
    51   49   50 1  
    52   50   51 1  
    53   50   53 1  
    54   51   52 2  
    55   51   57 am 
    56   53   54 1  
    57   54   55 1  
    58   54   56 1  
    59   57   58 1  
    60   58   59 1  
    61   58   61 1  
    62   59   60 2  
    63   59   65 am 
    64   61   62 1  
    65   62   63 2  
    66   62   64 am 
    67   65   66 1  
    68   66   67 1  
    69   66   69 1  
    70   67   68 2  
    71   67   73 am 
    72   69   70 1  
    73   70   71 1  
    74   70   72 1  
    75   73   74 1  
    76   74   75 1  
    77   74   77 1  
    78   75   76 ar 
    79   75   84 ar 
    80   77   78 1  
    81   78   79 ar 
    82   78   80 ar 
    83   79   81 ar 
    84   80   82 ar 
    85   81   83 ar 
    86   82   83 ar 
    87    1   85 1  
    88    1   86 1  
    89    2   87 1  
    90    5   88 1  
    91    5   89 1  
    92    6   90 1  
    93    6   91 1  
    94    7   92 1  
    95    7   93 1  
    96    8   94 1  
    97    9   95 1  
    98   12   96 1  
    99   12   97 1  
   100   13   98 1  
   101   13   99 1  
   102   14  100 1  
   103   14  101 1  
   104   15  102 1  
   105   15  103 1  
   106   16  104 1  
   107   16  105 1  
   108   16  106 1  
   109   17  107 1  
   110   18  108 1  
   111   21  109 1  
   112   21  110 1  
   113   22  111 1  
   114   22  112 1  
   115   23  113 1  
   116   23  114 1  
   117   24  115 1  
   118   26  116 1  
   119   26  117 1  
   120   27  118 1  
   121   27  119 1  
   122   29  120 1  
   123   32  121 1  
   124   32  122 1  
   125   33  123 1  
   126   33  124 1  
   127   34  125 1  
   128   34  126 1  
   129   35  127 1  
   130   36  128 1  
   131   39  129 1  
   132   40  130 1  
   133   41  131 1  
   134   41  132 1  
   135   41  133 1  
   136   42  134 1  
   137   43  135 1  
   138   46  136 1  
   139   47  137 1  
   140   48  138 1  
   141   48  139 1  
   142   48  140 1  
   143   49  141 1  
   144   50  142 1  
   145   53  143 1  
   146   53  144 1  
   147   54  145 1  
   148   55  146 1  
   149   55  147 1  
   150   55  148 1  
   151   56  149 1  
   152   56  150 1  
   153   56  151 1  
   154   57  152 1  
   155   58  153 1  
   156   61  154 1  
   157   61  155 1  
   158   64  156 1  
   159   64  157 1  
   160   65  158 1  
   161   66  159 1  
   162   69  160 1  
   163   69  161 1  
   164   70  162 1  
   165   71  163 1  
   166   71  164 1  
   167   71  165 1  
   168   72  166 1  
   169   72  167 1  
   170   72  168 1  
   171   73  169 1  
   172   74  170 1  
   173   77  171 1  
   174   77  172 1  
   175   79  173 1  
   176   80  174 1  
   177   81  175 1  
   178   82  176 1  
   179   83  177 1  
@<TRIPOS>SUBSTRUCTURE
     1 PRO         1

