### 
### Created by X-TOOL on Mon Sep 10 21:13:06 2018
### 

@<TRIPOS>MOLECULE
3atu_ligand
   39    41     1     0     0
SMALL
GAST_HUCK


@<TRIPOS>ATOM
      1 PB          4.4130   12.6730   17.9280 P.3       1 ADP         0.2069
      2 O1B         4.5700   12.6760   19.4350 O.co2     1 ADP        -0.5891
      3 O2B         3.5980   11.5420   17.3770 O.co2     1 ADP        -0.5891
      4 O3B         5.7420   12.8540   17.2080 O.co2     1 ADP        -0.5891
      5 PA          3.0880   14.8160   16.3540 P.3       1 ADP         0.3276
      6 O1A         3.0910   13.9140   15.1350 O.co2     1 ADP        -0.5556
      7 O2A         1.8780   15.5580   16.7670 O.co2     1 ADP        -0.5556
      8 O3A         3.5410   14.0040   17.6960 O.3       1 ADP        -0.1548
      9 O5'         4.3500   15.8110   16.1740 O.3       1 ADP        -0.2436
     10 C5'         4.5800   16.8560   17.1470 C.3       1 ADP         0.1132
     11 C4'         5.5840   17.8700   16.6370 C.3       1 ADP         0.1189
     12 O4'         5.0050   18.4930   15.4950 O.3       1 ADP        -0.3364
     13 C3'         5.9250   18.9500   17.6560 C.3       1 ADP         0.1149
     14 O3'         7.3690   19.1390   17.6160 O.3       1 ADP        -0.3864
     15 C2'         5.1880   20.1620   17.1130 C.3       1 ADP         0.1385
     16 O2'         5.7110   21.4340   17.5040 O.3       1 ADP        -0.3836
     17 C1'         5.2840   19.8750   15.6160 C.3       1 ADP         0.2010
     18 N9          4.3090   20.6000   14.8200 N.pl3     1 ADP        -0.1919
     19 C8          2.9450   20.5710   14.9080 C.2       1 ADP         0.1123
     20 N7          2.4170   21.3960   13.9730 N.2       1 ADP        -0.2958
     21 C5          3.4470   21.9300   13.2790 C.ar      1 ADP         0.1045
     22 C6          3.5720   22.8970   12.1870 C.ar      1 ADP         0.1298
     23 N6          2.4460   23.4110   11.6480 N.pl3     1 ADP        -0.3152
     24 N1          4.8210   23.1980   11.7440 N.ar      1 ADP        -0.2698
     25 C2          5.9260   22.6690   12.3000 C.ar      1 ADP         0.0533
     26 N3          5.8910   21.7690   13.3180 N.ar      1 ADP        -0.2714
     27 C4          4.6810   21.4140   13.8400 C.ar      1 ADP         0.1613
     28 H1          4.9650   16.4049   18.0734 H         1 ADP         0.0648
     29 H2          3.6287   17.3672   17.3559 H         1 ADP         0.0648
     30 H3          6.5091   17.3472   16.3528 H         1 ADP         0.0651
     31 H4          5.5924   18.6932   18.6726 H         1 ADP         0.0648
     32 H5          7.6170   19.8089   18.2423 H         1 ADP         0.2100
     33 H6          4.1369   20.1337   17.4360 H         1 ADP         0.0676
     34 H7          5.6848   21.5085   18.4508 H         1 ADP         0.2101
     35 H8          6.2959   20.1084   15.2533 H         1 ADP         0.0996
     36 H9          2.3725   19.9772   15.6190 H         1 ADP         0.1349
     37 H10         2.5081   24.0931   10.8787 H         1 ADP         0.1820
     38 H11         1.5248   23.1211   12.0061 H         1 ADP         0.1820
     39 H12         6.8925   22.9759   11.9170 H         1 ADP         0.0996
@<TRIPOS>BOND
     1    1    2 ar 
     2    1    3 ar 
     3    1    4 ar 
     4    8    1 1  
     5    5    6 ar 
     6    5    7 ar 
     7    5    8 1  
     8    5    9 1  
     9    9   10 1  
    10   10   11 1  
    11   11   12 1  
    12   11   13 1  
    13   12   17 1  
    14   13   14 1  
    15   13   15 1  
    16   15   16 1  
    17   15   17 1  
    18   17   18 1  
    19   18   19 1  
    20   18   27 1  
    21   19   20 2  
    22   20   21 1  
    23   21   22 ar 
    24   21   27 ar 
    25   22   23 1  
    26   22   24 ar 
    27   24   25 ar 
    28   25   26 ar 
    29   26   27 ar 
    30   10   28 1  
    31   10   29 1  
    32   11   30 1  
    33   13   31 1  
    34   14   32 1  
    35   15   33 1  
    36   16   34 1  
    37   17   35 1  
    38   19   36 1  
    39   23   37 1  
    40   23   38 1  
    41   25   39 1  
@<TRIPOS>SUBSTRUCTURE
     1 ADP         1

