3atu_ligand
  -I-interpret- 

 42 44  0  0  0  0  0  0  0  0999 V2000
    4.4130   12.6730   17.9280 P   0  0  0  0  0
    4.5700   12.6760   19.4350 O   0  0  0  0  0
    3.5980   11.5420   17.3770 O   0  0  0  0  0
    5.7420   12.8540   17.2080 O   0  0  0  0  0
    3.0880   14.8160   16.3540 P   0  0  0  0  0
    3.0910   13.9140   15.1350 O   0  0  0  0  0
    1.8780   15.5580   16.7670 O   0  0  0  0  0
    3.5410   14.0040   17.6960 O   0  0  0  0  0
    4.3500   15.8110   16.1740 O   0  0  0  0  0
    4.5800   16.8560   17.1470 C   0  0  0  0  0
    5.5840   17.8700   16.6370 C   0  0  0  0  0
    5.0050   18.4930   15.4950 O   0  0  0  0  0
    5.9250   18.9500   17.6560 C   0  0  0  0  0
    7.3690   19.1390   17.6160 O   0  0  0  0  0
    5.1880   20.1620   17.1130 C   0  0  0  0  0
    5.7110   21.4340   17.5040 O   0  0  0  0  0
    5.2840   19.8750   15.6160 C   0  0  0  0  0
    4.3090   20.6000   14.8200 N   0  0  0  0  0
    2.9450   20.5710   14.9080 C   0  0  0  0  0
    2.4170   21.3960   13.9730 N   0  0  0  0  0
    3.4470   21.9300   13.2790 C   0  0  0  0  0
    3.5720   22.8970   12.1870 C   0  0  0  0  0
    2.4460   23.4110   11.6480 N   0  0  0  0  0
    4.8210   23.1980   11.7440 N   0  0  0  0  0
    5.9260   22.6690   12.3000 C   0  0  0  0  0
    5.8910   21.7690   13.3180 N   0  0  0  0  0
    4.6810   21.4140   13.8400 C   0  0  0  0  0
    5.1026   13.4299   19.6986 H   0  0  0  0  0
    6.2198   13.5884   17.6004 H   0  0  0  0  0
    3.9612   13.5224   15.0302 H   0  0  0  0  0
    4.9749   16.4032   18.0565 H   0  0  0  0  0
    3.6363   17.3670   17.3377 H   0  0  0  0  0
    6.5130   17.3455   16.4135 H   0  0  0  0  0
    5.6486   18.7357   18.6884 H   0  0  0  0  0
    7.6196   19.8159   18.2489 H   0  0  0  0  0
    4.1747   20.2687   17.5002 H   0  0  0  0  0
    5.1799   22.1312   17.1123 H   0  0  0  0  0
    6.2647   20.1800   15.2509 H   0  0  0  0  0
    2.3720   19.9766   15.6197 H   0  0  0  0  0
    1.5337   23.1239   12.0026 H   0  0  0  0  0
    2.5075   24.0864   10.8862 H   0  0  0  0  0
    6.8979   22.9776   11.9149 H   0  0  0  0  0
  1  2  1  0  0  0
  1  3  2  0  0  0
  1  4  1  0  0  0
  8  1  1  0  0  0
  5  6  1  0  0  0
  5  7  2  0  0  0
  5  8  1  0  0  0
  5  9  1  0  0  0
  9 10  1  0  0  0
 10 11  1  0  0  0
 11 12  1  0  0  0
 11 13  1  0  0  0
 12 17  1  0  0  0
 13 14  1  0  0  0
 13 15  1  0  0  0
 15 16  1  0  0  0
 15 17  1  0  0  0
 17 18  1  0  0  0
 18 19  4  0  0  0
 18 27  4  0  0  0
 19 20  4  0  0  0
 20 21  4  0  0  0
 21 22  4  0  0  0
 21 27  4  0  0  0
 22 23  1  0  0  0
 22 24  4  0  0  0
 24 25  4  0  0  0
 25 26  4  0  0  0
 26 27  4  0  0  0
  2 28  1  0  0  0
  4 29  1  0  0  0
  6 30  1  0  0  0
 10 31  1  0  0  0
 10 32  1  0  0  0
 11 33  1  0  0  0
 13 34  1  0  0  0
 14 35  1  0  0  0
 15 36  1  0  0  0
 16 37  1  0  0  0
 17 38  1  0  0  0
 19 39  1  0  0  0
 23 40  1  0  0  0
 23 41  1  0  0  0
 25 42  1  0  0  0
M  END
$$$$
