5vi6_ligand
  -I-interpret- 

 89 93  0  0  0  0  0  0  0  0999 V2000
    4.8440   -4.9490  -32.7030 N   0  0  0  0  0
    4.4720   -3.9170  -33.6070 C   0  0  0  0  0
    4.5110   -4.6110  -34.9950 C   0  0  0  0  0
    3.5680   -4.5280  -35.7740 O   0  0  0  0  0
    5.4120   -2.7090  -33.6510 C   0  0  0  0  0
    5.0800   -1.7120  -34.7340 C   0  0  0  0  0
    5.8180   -1.6420  -35.9150 C   0  0  0  0  0
    3.9300   -0.9270  -34.6600 C   0  0  0  0  0
    5.4730   -0.7600  -36.9340 C   0  0  0  0  0
    3.5890   -0.0440  -35.6730 C   0  0  0  0  0
    4.3590    0.0530  -36.8100 C   0  0  0  0  0
    5.6180   -5.3260  -35.3710 N   0  0  0  0  0
    5.7740   -5.9300  -36.6770 C   0  0  0  0  0
    5.0040   -7.2230  -36.9060 C   0  0  0  0  0
    4.4070   -7.3200  -37.9640 O   0  0  0  0  0
    7.2570   -6.1180  -36.9790 C   0  0  0  0  0
    7.9530   -4.8730  -37.3910 C   0  0  0  0  0
    8.6340   -4.0990  -36.4530 C   0  0  0  0  0
    7.9260   -4.4230  -38.6960 C   0  0  0  0  0
    9.2460   -2.9130  -36.8080 C   0  0  0  0  0
    8.5490   -3.2360  -39.0510 C   0  0  0  0  0
    9.2220   -2.4810  -38.1130 C   0  0  0  0  0
    5.0060   -8.3360  -36.0400 N   0  0  0  0  0
    4.1660   -9.4910  -36.4050 C   0  0  0  0  0
    4.7290  -10.8390  -35.9800 C   0  0  0  0  0
    5.2330  -10.8040  -34.5660 C   0  0  0  0  0
    6.2320   -9.6850  -34.3870 C   0  0  0  0  0
    5.6660   -8.3140  -34.7460 C   0  0  0  0  0
    4.6900   -7.7740  -33.6880 C   0  0  0  0  0
    3.5150   -7.5230  -33.9320 O   0  0  0  0  0
    4.0750   -4.3960  -23.8870 O   0  0  0  0  0
    5.1240   -5.3520  -23.9510 C   0  0  0  0  0
    5.7420   -5.3270  -25.3460 C   0  0  0  0  0
    4.7740   -5.6370  -26.4720 C   0  0  0  0  0
    5.4840   -6.0690  -27.7430 C   0  0  0  0  0
    4.5720   -6.1750  -28.9310 C   0  0  0  0  0
    5.2870   -6.7640  -30.1250 C   0  0  0  0  0
    4.4210   -6.9180  -31.3400 C   0  0  0  0  0
    5.1790   -7.5850  -32.4200 N   0  0  0  0  0
    3.9360   -5.6150  -31.9260 C   0  0  0  0  0
    2.7980   -5.2000  -31.7240 O   0  0  0  0  0
    4.5310   -6.5840  -23.6710 O   0  0  0  0  0
    6.1100   -5.0420  -22.8110 C   0  0  0  0  0
    7.4030   -4.3380  -23.0190 C   0  0  0  0  0
    7.3620   -5.7670  -22.8850 O   0  0  0  0  0
    5.8291   -5.2036  -32.6306 H   0  0  0  0  0
    3.5099   -3.5066  -33.3005 H   0  0  0  0  0
    6.4140   -3.0863  -33.8551 H   0  0  0  0  0
    5.3189   -2.1919  -32.6960 H   0  0  0  0  0
    6.6836   -2.2921  -36.0425 H   0  0  0  0  0
    3.2843   -1.0094  -33.7857 H   0  0  0  0  0
    6.0834   -0.7086  -37.8356 H   0  0  0  0  0
    2.7016    0.5802  -35.5680 H   0  0  0  0  0
    4.0963    0.7576  -37.5990 H   0  0  0  0  0
    6.3726   -5.4386  -34.6940 H   0  0  0  0  0
    5.3206   -5.2282  -37.3770 H   0  0  0  0  0
    7.3310   -6.8195  -37.8100 H   0  0  0  0  0
    7.7320   -6.4650  -36.0613 H   0  0  0  0  0
    8.6846   -4.4368  -35.4179 H   0  0  0  0  0
    7.4087   -5.0079  -39.4565 H   0  0  0  0  0
    9.7512   -2.3157  -36.0489 H   0  0  0  0  0
    8.5063   -2.8949  -40.0854 H   0  0  0  0  0
    9.7258   -1.5584  -38.4013 H   0  0  0  0  0
    4.0951   -9.5032  -37.4926 H   0  0  0  0  0
    3.2124   -9.3671  -35.8918 H   0  0  0  0  0
    5.5621  -11.0879  -36.6373 H   0  0  0  0  0
    3.9334  -11.5813  -36.0446 H   0  0  0  0  0
    5.7201  -11.7526  -34.3404 H   0  0  0  0  0
    4.3909  -10.6373  -33.8943 H   0  0  0  0  0
    7.0721   -9.8813  -35.0532 H   0  0  0  0  0
    6.5170   -9.6606  -33.3352 H   0  0  0  0  0
    6.5237   -7.6425  -34.7851 H   0  0  0  0  0
    3.6843   -4.4096  -23.0102 H   0  0  0  0  0
    6.5113   -6.0989  -25.3667 H   0  0  0  0  0
    6.1097   -4.3145  -25.5127 H   0  0  0  0  0
    4.2107   -4.7301  -26.6919 H   0  0  0  0  0
    4.1321   -6.4566  -26.1490 H   0  0  0  0  0
    5.9049   -7.0583  -27.5634 H   0  0  0  0  0
    6.2348   -5.3128  -27.9724 H   0  0  0  0  0
    4.2275   -5.1746  -29.1930 H   0  0  0  0  0
    3.7387   -6.8275  -28.6703 H   0  0  0  0  0
    5.6247   -7.7605  -29.8403 H   0  0  0  0  0
    6.0943   -6.0804  -30.3879 H   0  0  0  0  0
    3.5621   -7.4936  -30.9949 H   0  0  0  0  0
    6.1181   -7.9237  -32.2108 H   0  0  0  0  0
    5.1986   -7.2733  -23.7006 H   0  0  0  0  0
    5.2908   -4.8708  -22.1127 H   0  0  0  0  0
    7.9521   -3.4891  -22.6116 H   0  0  0  0  0
    7.8329   -3.5860  -23.6806 H   0  0  0  0  0
  2  1  1  0  0  0
  1 40  1  0  0  0
  3  2  1  0  0  0
  2  5  1  0  0  0
  3  4  2  0  0  0
 12  3  1  0  0  0
  5  6  1  0  0  0
  6  7  4  0  0  0
  6  8  4  0  0  0
  7  9  4  0  0  0
  8 10  4  0  0  0
  9 11  4  0  0  0
 10 11  4  0  0  0
 13 12  1  0  0  0
 14 13  1  0  0  0
 13 16  1  0  0  0
 14 15  2  0  0  0
 23 14  1  0  0  0
 16 17  1  0  0  0
 17 18  4  0  0  0
 17 19  4  0  0  0
 18 20  4  0  0  0
 19 21  4  0  0  0
 20 22  4  0  0  0
 21 22  4  0  0  0
 23 24  1  0  0  0
 28 23  1  0  0  0
 24 25  1  0  0  0
 26 25  1  0  0  0
 27 26  1  0  0  0
 28 27  1  0  0  0
 29 28  1  0  0  0
 29 30  2  0  0  0
 39 29  1  0  0  0
 32 31  1  0  0  0
 33 32  1  0  0  0
 32 42  1  0  0  0
 32 43  1  0  0  0
 34 33  1  0  0  0
 35 34  1  0  0  0
 36 35  1  0  0  0
 37 36  1  0  0  0
 38 37  1  0  0  0
 38 39  1  0  0  0
 38 40  1  0  0  0
 40 41  2  0  0  0
 43 44  1  0  0  0
 43 45  1  0  0  0
 44 45  1  0  0  0
  1 46  1  0  0  0
  2 47  1  0  0  0
  5 48  1  0  0  0
  5 49  1  0  0  0
  7 50  1  0  0  0
  8 51  1  0  0  0
  9 52  1  0  0  0
 10 53  1  0  0  0
 11 54  1  0  0  0
 12 55  1  0  0  0
 13 56  1  0  0  0
 16 57  1  0  0  0
 16 58  1  0  0  0
 18 59  1  0  0  0
 19 60  1  0  0  0
 20 61  1  0  0  0
 21 62  1  0  0  0
 22 63  1  0  0  0
 24 64  1  0  0  0
 24 65  1  0  0  0
 25 66  1  0  0  0
 25 67  1  0  0  0
 26 68  1  0  0  0
 26 69  1  0  0  0
 27 70  1  0  0  0
 27 71  1  0  0  0
 28 72  1  0  0  0
 31 73  1  0  0  0
 33 74  1  0  0  0
 33 75  1  0  0  0
 34 76  1  0  0  0
 34 77  1  0  0  0
 35 78  1  0  0  0
 35 79  1  0  0  0
 36 80  1  0  0  0
 36 81  1  0  0  0
 37 82  1  0  0  0
 37 83  1  0  0  0
 38 84  1  0  0  0
 39 85  1  0  0  0
 42 86  1  0  0  0
 43 87  1  0  0  0
 44 88  1  0  0  0
 44 89  1  0  0  0
M  END
$$$$
