5hzn_ligand
  -I-interpret- 

 63 68  0  0  0  0  0  0  0  0999 V2000
   19.5250    1.4840   11.9740 C   0  0  0  0  0
   20.0230    2.7760   12.1230 C   0  0  0  0  0
   19.8960    3.6570   11.0510 C   0  0  0  0  0
   19.3230    3.2520    9.8560 C   0  0  0  0  0
   18.8930    1.9440    9.6940 C   0  0  0  0  0
   19.0300    1.0560   10.7500 C   0  0  0  0  0
   18.7120    7.9140   11.7990 C   0  0  0  0  0
   18.8990    9.2150   12.2490 C   0  0  0  0  0
   20.0230    9.9180   11.8200 C   0  0  0  0  0
   20.9490    9.3370   10.9490 C   0  0  0  0  0
   23.8000   -1.1320   15.9400 C   0  0  0  0  0
   26.2770   -2.0550   14.1970 C   0  0  0  0  0
   27.6770   -1.4540   14.0330 C   0  0  0  0  0
   27.4620   -0.5330   15.2370 C   0  0  0  0  0
   16.6670   -0.5010   12.1510 N   0  0  0  0  0
   24.9610   -0.2530   15.4630 C   0  0  0  0  0
   22.5100   -0.4320   16.3660 C   0  0  0  0  0
   23.0170   -1.9670   14.9190 C   0  0  0  0  0
   21.7180   -1.3580   15.4410 C   0  0  0  0  0
   26.1310   -1.1370   15.3410 N   0  3  0  0  0
   17.5080   -1.0760   13.0430 C   0  0  0  0  0
   17.0700   -2.1890   13.6450 N   0  0  0  0  0
   17.7940   -2.8700   14.5440 C   0  0  0  0  0
   18.7860   -0.6880   13.3810 C   0  0  0  0  0
   19.5320   -1.3030   14.2570 C   0  0  0  0  0
   19.0210   -2.4860   14.8920 N   0  0  0  0  0
   20.7450   -0.7750   14.4740 N   0  0  0  0  0
   19.6750    0.4460   12.9960 C   0  0  0  0  0
   20.8800    0.3260   13.6680 C   0  0  0  0  0
   20.2970    4.9610   11.1430 O   0  0  0  0  0
   19.4270    5.9030   10.4620 C   0  0  0  0  0
   19.6380    7.3310   10.9300 C   0  0  0  0  0
   20.7530    8.0350   10.4960 C   0  0  0  0  0
   20.4988    3.0893   13.0523 H   0  0  0  0  0
   19.2098    3.9652    9.0395 H   0  0  0  0  0
   18.4539    1.6187    8.7509 H   0  0  0  0  0
   18.7463    0.0119   10.6177 H   0  0  0  0  0
   17.8404    7.3463   12.1248 H   0  0  0  0  0
   18.1798    9.6773   12.9251 H   0  0  0  0  0
   20.1828   10.9380   12.1695 H   0  0  0  0  0
   21.8229    9.9021   10.6250 H   0  0  0  0  0
   24.4257   -1.6428   16.6719 H   0  0  0  0  0
   26.1094   -3.1284   14.2851 H   0  0  0  0  0
   25.5567   -2.0879   13.3796 H   0  0  0  0  0
   27.9607   -1.0194   13.0745 H   0  0  0  0  0
   28.5422   -2.1167   14.0177 H   0  0  0  0  0
   27.6065    0.5456   15.1755 H   0  0  0  0  0
   28.1545   -0.5066   16.0783 H   0  0  0  0  0
   15.7541   -0.9179   11.9688 H   0  0  0  0  0
   16.9464    0.3490   11.6613 H   0  0  0  0  0
   25.1542    0.5552   16.1684 H   0  0  0  0  0
   24.7270    0.2189   14.5087 H   0  0  0  0  0
   22.4152    0.6499   16.2734 H   0  0  0  0  0
   22.2491   -0.3549   17.4215 H   0  0  0  0  0
   23.1416   -3.0492   14.8812 H   0  0  0  0  0
   23.2634   -1.9130   13.8586 H   0  0  0  0  0
   20.9449   -2.0034   15.8580 H   0  0  0  0  0
   25.8861   -1.5873   16.2229 H   0  0  0  0  0
   17.3673   -3.7620   15.0027 H   0  0  0  0  0
   21.7532    0.9718   13.5755 H   0  0  0  0  0
   18.3954    5.6264   10.6799 H   0  0  0  0  0
   19.6539    5.8610    9.3967 H   0  0  0  0  0
   21.4648    7.5751    9.8105 H   0  0  0  0  0
  2  1  4  0  0  0
  1  6  4  0  0  0
  1 28  1  0  0  0
  3  2  4  0  0  0
  3  4  4  0  0  0
 30  3  1  0  0  0
  4  5  4  0  0  0
  5  6  4  0  0  0
  7  8  4  0  0  0
 32  7  4  0  0  0
  8  9  4  0  0  0
  9 10  4  0  0  0
 10 33  4  0  0  0
 11 16  1  0  0  0
 17 11  1  0  0  0
 18 11  1  0  0  0
 12 13  1  0  0  0
 20 12  1  0  0  0
 14 13  1  0  0  0
 20 14  1  0  0  0
 21 15  1  0  0  0
 16 20  1  0  0  0
 19 17  1  0  0  0
 19 18  1  0  0  0
 27 19  1  0  0  0
 21 22  4  0  0  0
 24 21  4  0  0  0
 22 23  4  0  0  0
 26 23  4  0  0  0
 24 25  4  0  0  0
 28 24  4  0  0  0
 25 26  4  0  0  0
 27 25  4  0  0  0
 29 27  4  0  0  0
 28 29  4  0  0  0
 31 30  1  0  0  0
 31 32  1  0  0  0
 32 33  4  0  0  0
  2 34  1  0  0  0
  4 35  1  0  0  0
  5 36  1  0  0  0
  6 37  1  0  0  0
  7 38  1  0  0  0
  8 39  1  0  0  0
  9 40  1  0  0  0
 10 41  1  0  0  0
 11 42  1  0  0  0
 12 43  1  0  0  0
 12 44  1  0  0  0
 13 45  1  0  0  0
 13 46  1  0  0  0
 14 47  1  0  0  0
 14 48  1  0  0  0
 15 49  1  0  0  0
 15 50  1  0  0  0
 16 51  1  0  0  0
 16 52  1  0  0  0
 17 53  1  0  0  0
 17 54  1  0  0  0
 18 55  1  0  0  0
 18 56  1  0  0  0
 19 57  1  0  0  0
 20 58  1  0  0  0
 23 59  1  0  0  0
 29 60  1  0  0  0
 31 61  1  0  0  0
 31 62  1  0  0  0
 33 63  1  0  0  0
M  END
$$$$
