6i3u_ligand
  -I-interpret- 

 70 75  0  0  0  0  0  0  0  0999 V2000
   17.0190   11.5670   77.3240 C   0  0  0  0  0
   18.3410   11.9490   77.5870 C   0  0  0  0  0
   18.3200    9.7740   79.2990 C   0  0  0  0  0
   17.0020    9.5690   78.8920 C   0  0  0  0  0
   16.2370   10.7060   78.2790 C   0  0  0  0  0
   15.2960    5.7370   79.4630 C   0  0  0  0  0
   15.1890    4.2310   79.2590 C   0  0  0  0  0
   16.0390    4.4130   76.9860 C   0  0  0  0  0
   17.0190    3.8320   76.0030 C   0  0  0  0  0
   16.9300    1.7600   77.0570 C   0  0  0  0  0
   23.1530   13.5040   77.3030 C   0  0  0  0  0
   22.5420   12.2740   77.4980 C   0  0  0  0  0
   16.4120    8.3200   79.0800 C   0  0  0  0  0
   14.3250    6.2790   80.5210 C   0  0  0  0  0
   15.9430    2.2830   78.0670 C   0  0  0  0  0
   19.0990   11.3280   79.0600 S   0  0  0  0  0
   17.1580    7.2850   79.6400 C   0  0  0  0  0
   18.4810    7.4990   80.0380 C   0  0  0  0  0
   19.0480    8.7360   79.8710 C   0  0  0  0  0
   16.6700    6.0260   79.8590 O   0  0  0  0  0
   16.1480    3.7220   78.2810 N   0  3  0  0  0
   16.8130    2.4380   75.8130 O   0  0  0  0  0
   19.0200   12.8170   76.7050 C   0  0  0  0  0
   18.3820   13.2260   75.5420 C   0  0  0  0  0
   17.0750   12.8480   75.2860 C   0  0  0  0  0
   16.3970   12.0400   76.1710 C   0  0  0  0  0
   20.4510   13.1830   76.9020 C   0  0  0  0  0
   21.0260   14.4310   76.7170 C   0  0  0  0  0
   22.3850   14.6220   76.9320 C   0  0  0  0  0
   21.2270   12.1100   77.2350 O   0  0  0  0  0
   23.2480   11.1380   77.7820 N   0  0  0  0  0
   24.7140   11.1120   77.8730 C   0  0  0  0  0
   25.1620   10.0420   78.8460 C   0  0  0  0  0
   24.5940    8.7750   78.5360 O   0  0  0  0  0
   23.1890    8.8520   78.6370 C   0  0  0  0  0
   22.6160    9.8180   77.6350 C   0  0  0  0  0
   22.9100   15.7530   76.8110 O   0  0  0  0  0
   15.4245   10.2614   77.7044 H   0  0  0  0  0
   15.9277   11.3525   79.1002 H   0  0  0  0  0
   15.0261    6.2307   78.5294 H   0  0  0  0  0
   14.1873    4.0150   78.8876 H   0  0  0  0  0
   15.3988    3.7492   80.2140 H   0  0  0  0  0
   15.0280    4.2874   76.5985 H   0  0  0  0  0
   16.2594    5.4712   77.1265 H   0  0  0  0  0
   18.0254    3.9793   76.3949 H   0  0  0  0  0
   16.8804    4.3325   75.0447 H   0  0  0  0  0
   16.7276    0.7016   76.8932 H   0  0  0  0  0
   17.9365    1.9200   77.4436 H   0  0  0  0  0
   24.2300   13.6040   77.4376 H   0  0  0  0  0
   15.3742    8.1543   78.7909 H   0  0  0  0  0
   14.5320    5.8036   81.4798 H   0  0  0  0  0
   14.4549    7.3573   80.6131 H   0  0  0  0  0
   13.3010    6.0597   80.2188 H   0  0  0  0  0
   16.0878    1.7582   79.0113 H   0  0  0  0  0
   14.9317    2.1187   77.6949 H   0  0  0  0  0
   19.0587    6.6866   80.4788 H   0  0  0  0  0
   20.0765    8.9072   80.1887 H   0  0  0  0  0
   17.0783    3.8949   78.6619 H   0  0  0  0  0
   18.9145   13.8500   74.8243 H   0  0  0  0  0
   16.5796   13.1922   74.3781 H   0  0  0  0  0
   15.3616   11.7674   75.9670 H   0  0  0  0  0
   20.4061   15.2697   76.4000 H   0  0  0  0  0
   25.0657   12.0820   78.2245 H   0  0  0  0  0
   25.1275   10.8930   76.8885 H   0  0  0  0  0
   24.8349   10.3289   79.8454 H   0  0  0  0  0
   26.2468    9.9555   78.7846 H   0  0  0  0  0
   22.9334    9.2004   79.6377 H   0  0  0  0  0
   22.7740    7.8635   78.4400 H   0  0  0  0  0
   22.8048    9.4423   76.6293 H   0  0  0  0  0
   21.5439    9.9150   77.8061 H   0  0  0  0  0
  2  1  4  0  0  0
  1  5  1  0  0  0
  1 26  4  0  0  0
  2 16  1  0  0  0
 23  2  4  0  0  0
  3  4  4  0  0  0
 16  3  1  0  0  0
  3 19  4  0  0  0
  5  4  1  0  0  0
  4 13  4  0  0  0
  6  7  1  0  0  0
  6 14  1  0  0  0
 20  6  1  0  0  0
  7 21  1  0  0  0
  8  9  1  0  0  0
 21  8  1  0  0  0
  9 22  1  0  0  0
 15 10  1  0  0  0
 10 22  1  0  0  0
 12 11  2  0  0  0
 11 29  1  0  0  0
 30 12  1  0  0  0
 12 31  1  0  0  0
 13 17  4  0  0  0
 21 15  1  0  0  0
 18 17  4  0  0  0
 17 20  1  0  0  0
 19 18  4  0  0  0
 23 24  4  0  0  0
 27 23  1  0  0  0
 24 25  4  0  0  0
 25 26  4  0  0  0
 27 28  2  0  0  0
 27 30  1  0  0  0
 28 29  1  0  0  0
 29 37  2  0  0  0
 31 32  1  0  0  0
 31 36  1  0  0  0
 32 33  1  0  0  0
 33 34  1  0  0  0
 34 35  1  0  0  0
 35 36  1  0  0  0
  5 38  1  0  0  0
  5 39  1  0  0  0
  6 40  1  0  0  0
  7 41  1  0  0  0
  7 42  1  0  0  0
  8 43  1  0  0  0
  8 44  1  0  0  0
  9 45  1  0  0  0
  9 46  1  0  0  0
 10 47  1  0  0  0
 10 48  1  0  0  0
 11 49  1  0  0  0
 13 50  1  0  0  0
 14 51  1  0  0  0
 14 52  1  0  0  0
 14 53  1  0  0  0
 15 54  1  0  0  0
 15 55  1  0  0  0
 18 56  1  0  0  0
 19 57  1  0  0  0
 21 58  1  0  0  0
 24 59  1  0  0  0
 25 60  1  0  0  0
 26 61  1  0  0  0
 28 62  1  0  0  0
 32 63  1  0  0  0
 32 64  1  0  0  0
 33 65  1  0  0  0
 33 66  1  0  0  0
 35 67  1  0  0  0
 35 68  1  0  0  0
 36 69  1  0  0  0
 36 70  1  0  0  0
M  END
$$$$
