3u1y_ligand
  -I-interpret- 

 69 71  0  0  0  0  0  0  0  0999 V2000
   14.5690    6.0630   24.7380 C   0  0  0  0  0
   14.1150    5.6760   23.4910 C   0  0  0  0  0
   14.8900    5.8570   22.3610 C   0  0  0  0  0
   16.1370    6.4290   22.4730 C   0  0  0  0  0
   16.6210    6.8230   23.7090 C   0  0  0  0  0
   15.8230    6.6460   24.8280 C   0  0  0  0  0
   16.8400    6.5550   21.2890 O   0  0  0  0  0
   13.7510    5.8400   25.9300 C   0  0  0  0  0
   12.3760    6.0350   25.9320 C   0  0  0  0  0
   11.6160    5.8180   27.0740 C   0  0  0  0  0
   12.2180    5.3990   28.2450 C   0  0  0  0  0
   13.5900    5.2080   28.2470 C   0  0  0  0  0
   14.3490    5.4200   27.1090 C   0  0  0  0  0
   11.4350    5.1600   29.5060 C   0  0  0  0  0
   11.0380    3.6930   29.5920 C   0  0  0  0  0
   10.1750    3.2340   30.7720 C   0  0  0  0  0
   10.8300    3.5970   32.1130 C   0  0  0  0  0
    9.9210    1.4550   30.6810 S   0  0  0  0  0
   11.5450    0.7500   30.6840 C   0  0  0  0  0
    9.2140    1.0090   31.8680 O   0  0  0  0  0
    9.3380    1.1040   29.3990 O   0  0  0  0  0
    8.7920    3.8430   30.6170 C   0  0  0  0  0
   10.0560    4.3430   32.9700 N   0  0  0  0  0
   11.9660    3.2690   32.4310 O   0  0  0  0  0
   17.7830    7.6130   21.3410 C   0  0  0  0  0
   18.2620    7.8010   19.9200 C   0  0  0  0  0
   19.7190    8.1470   19.9610 C   0  0  0  0  0
   10.7370    4.5440   34.1910 O   0  0  0  0  0
   20.2750    8.1200   18.5900 N   0  3  0  0  0
   20.8750    6.7930   18.2450 C   0  0  0  0  0
   21.3620    6.8880   16.8140 C   0  0  0  0  0
   22.3310    7.9440   16.7580 O   0  0  0  0  0
   21.7390    9.2250   17.0040 C   0  0  0  0  0
   21.2220    9.2620   18.4290 C   0  0  0  0  0
   13.1292    5.2204   23.3973 H   0  0  0  0  0
   14.5153    5.5481   21.3852 H   0  0  0  0  0
   17.6132    7.2650   23.8003 H   0  0  0  0  0
   16.1899    6.9727   25.8010 H   0  0  0  0  0
   11.8828    6.3654   25.0178 H   0  0  0  0  0
   10.5383    5.9792   27.0464 H   0  0  0  0  0
   14.0823    4.8840   29.1639 H   0  0  0  0  0
   15.4261    5.2554   27.1396 H   0  0  0  0  0
   10.5370    5.7777   29.4967 H   0  0  0  0  0
   12.0496    5.4195   30.3680 H   0  0  0  0  0
   11.9773    3.1505   29.6993 H   0  0  0  0  0
   10.4283    3.5115   28.7069 H   0  0  0  0  0
   12.0793    1.0755   31.5766 H   0  0  0  0  0
   11.4677   -0.3373   30.6815 H   0  0  0  0  0
   12.0843    1.0793   29.7958 H   0  0  0  0  0
    8.3716    3.5467   29.6560 H   0  0  0  0  0
    8.1480    3.4883   31.4217 H   0  0  0  0  0
    8.8676    4.9294   30.6625 H   0  0  0  0  0
    9.1248    4.6997   32.7552 H   0  0  0  0  0
   18.6091    7.3777   22.0120 H   0  0  0  0  0
   17.3362    8.5259   21.7348 H   0  0  0  0  0
   17.6998    8.6003   19.4370 H   0  0  0  0  0
   18.1095    6.8856   19.3483 H   0  0  0  0  0
   20.2462    7.4208   20.5797 H   0  0  0  0  0
   19.8424    9.1448   20.3820 H   0  0  0  0  0
   10.1874    5.0655   34.7806 H   0  0  0  0  0
   19.5187    8.2382   17.9158 H   0  0  0  0  0
   20.1382    5.9967   18.3503 H   0  0  0  0  0
   21.6983    6.5545   18.9183 H   0  0  0  0  0
   20.5304    7.0975   16.1413 H   0  0  0  0  0
   21.8077    5.9444   16.4994 H   0  0  0  0  0
   20.9156    9.3899   16.3090 H   0  0  0  0  0
   22.4835   10.0083   16.8618 H   0  0  0  0  0
   22.0465    9.1772   19.1368 H   0  0  0  0  0
   20.7175   10.2075   18.6279 H   0  0  0  0  0
  1  2  4  0  0  0
  1  6  4  0  0  0
  1  8  1  0  0  0
  2  3  4  0  0  0
  3  4  4  0  0  0
  4  5  4  0  0  0
  4  7  1  0  0  0
  5  6  4  0  0  0
  7 25  1  0  0  0
  8  9  4  0  0  0
  8 13  4  0  0  0
  9 10  4  0  0  0
 10 11  4  0  0  0
 11 12  4  0  0  0
 11 14  1  0  0  0
 12 13  4  0  0  0
 14 15  1  0  0  0
 15 16  1  0  0  0
 16 17  1  0  0  0
 16 18  1  0  0  0
 16 22  1  0  0  0
 17 23  1  0  0  0
 17 24  2  0  0  0
 18 19  1  0  0  0
 18 20  2  0  0  0
 18 21  2  0  0  0
 23 28  1  0  0  0
 25 26  1  0  0  0
 26 27  1  0  0  0
 27 29  1  0  0  0
 29 30  1  0  0  0
 29 34  1  0  0  0
 30 31  1  0  0  0
 31 32  1  0  0  0
 32 33  1  0  0  0
 33 34  1  0  0  0
  2 35  1  0  0  0
  3 36  1  0  0  0
  5 37  1  0  0  0
  6 38  1  0  0  0
  9 39  1  0  0  0
 10 40  1  0  0  0
 12 41  1  0  0  0
 13 42  1  0  0  0
 14 43  1  0  0  0
 14 44  1  0  0  0
 15 45  1  0  0  0
 15 46  1  0  0  0
 19 47  1  0  0  0
 19 48  1  0  0  0
 19 49  1  0  0  0
 22 50  1  0  0  0
 22 51  1  0  0  0
 22 52  1  0  0  0
 23 53  1  0  0  0
 25 54  1  0  0  0
 25 55  1  0  0  0
 26 56  1  0  0  0
 26 57  1  0  0  0
 27 58  1  0  0  0
 27 59  1  0  0  0
 28 60  1  0  0  0
 29 61  1  0  0  0
 30 62  1  0  0  0
 30 63  1  0  0  0
 31 64  1  0  0  0
 31 65  1  0  0  0
 33 66  1  0  0  0
 33 67  1  0  0  0
 34 68  1  0  0  0
 34 69  1  0  0  0
M  END
$$$$
