### 
### Created by X-TOOL on Mon Sep 10 21:12:52 2018
### 

@<TRIPOS>MOLECULE
1sjh_ligand
  191   193     1     0     0
SMALL
GAST_HUCK


@<TRIPOS>ATOM
      1 N         127.1410   52.6590  -20.4570 N.4       1 PRO         0.2461
      2 CA        128.5320   53.0750  -20.1770 C.3       1 PRO         0.0670
      3 C         128.9110   52.6360  -18.7650 C.2       1 PRO         0.2268
      4 O         128.0980   52.7130  -17.8430 O.2       1 PRO        -0.3907
      5 CB        128.5810   54.5950  -20.2860 C.3       1 PRO         0.0127
      6 CG        127.3580   54.8890  -21.1370 C.3       1 PRO        -0.0053
      7 CD        126.3130   53.8540  -20.6900 C.3       1 PRO        -0.0313
      8 N         130.1490   52.1850  -18.6000 N.am      1 GLU        -0.2609
      9 CA        130.6050   51.7360  -17.2960 C.3       1 GLU         0.1326
     10 C         131.6590   52.6280  -16.6490 C.2       1 GLU         0.2040
     11 O         132.6140   53.0680  -17.2970 O.2       1 GLU        -0.3944
     12 CB        131.1530   50.3160  -17.3910 C.3       1 GLU        -0.0008
     13 CG        131.7680   49.8200  -16.1000 C.3       1 GLU         0.0044
     14 CD        132.2150   48.3800  -16.1900 C.2       1 GLU         0.0350
     15 OE1       132.7850   47.8660  -15.2050 O.co2     1 GLU        -0.5690
     16 OE2       131.9950   47.7560  -17.2490 O.co2     1 GLU        -0.5690
     17 N         131.4610   52.9050  -15.3650 N.am      1 VAL        -0.2635
     18 CA        132.4290   53.6780  -14.6030 C.3       1 VAL         0.1332
     19 C         133.4820   52.6270  -14.2460 C.2       1 VAL         0.2042
     20 O         133.1460   51.5520  -13.7550 O.2       1 VAL        -0.3944
     21 CB        131.8120   54.2580  -13.3090 C.3       1 VAL        -0.0063
     22 CG1       132.9120   54.8770  -12.4410 C.3       1 VAL        -0.0584
     23 CG2       130.7690   55.3250  -13.6590 C.3       1 VAL        -0.0584
     24 N         134.7450   52.9260  -14.5260 N.am      1 ILE        -0.2634
     25 CA        135.8340   51.9930  -14.2530 C.3       1 ILE         0.1337
     26 C         136.6820   52.4970  -13.0980 C.2       1 ILE         0.2067
     27 O         137.0690   53.6620  -13.0660 O.2       1 ILE        -0.3942
     28 CB        136.7520   51.8330  -15.4910 C.3       1 ILE        -0.0037
     29 CG1       135.9280   51.3570  -16.6920 C.3       1 ILE        -0.0491
     30 CG2       137.8720   50.8480  -15.1850 C.3       1 ILE        -0.0582
     31 CD1       136.7180   51.2740  -17.9940 C.3       1 ILE        -0.0648
     32 N         136.9980   51.6210  -12.1360 N.am      1 PRO        -0.2498
     33 CA        137.8140   52.0440  -10.9940 C.3       1 PRO         0.1338
     34 C         139.3040   51.7550  -11.1850 C.2       1 PRO         0.2041
     35 O         139.6840   50.9590  -12.0370 O.2       1 PRO        -0.3944
     36 CB        137.2570   51.2020   -9.8640 C.3       1 PRO        -0.0104
     37 CG        137.0770   49.8620  -10.5750 C.3       1 PRO        -0.0281
     38 CD        136.4620   50.2620  -11.9250 C.3       1 PRO         0.0369
     39 N         140.1300   52.4320  -10.3880 N.am      1 MET        -0.2637
     40 CA        141.5740   52.2120  -10.3620 C.3       1 MET         0.1317
     41 C         141.7120   51.1200   -9.3070 C.2       1 MET         0.2040
     42 O         140.9770   51.1360   -8.3270 O.2       1 MET        -0.3944
     43 CB        142.3050   53.4630   -9.8630 C.3       1 MET        -0.0034
     44 CG        142.4020   54.5820  -10.8720 C.3       1 MET        -0.0024
     45 SD        143.5230   54.1400  -12.1850 S.3       1 MET        -0.1639
     46 CE        145.0460   54.7910  -11.5380 C.3       1 MET        -0.0181
     47 N         142.6330   50.1790   -9.4790 N.am      1 PHE        -0.2619
     48 CA        142.7840   49.1160   -8.4820 C.3       1 PHE         0.1404
     49 C         143.9040   49.3970   -7.4800 C.2       1 PHE         0.2060
     50 O         144.9670   49.8990   -7.8370 O.2       1 PHE        -0.3942
     51 CB        142.9970   47.7620   -9.1720 C.3       1 PHE         0.0214
     52 CG        141.8060   47.3010   -9.9800 C.ar      1 PHE        -0.0386
     53 CD1       140.6030   46.9670   -9.3460 C.ar      1 PHE        -0.0601
     54 CD2       141.8780   47.2140  -11.3750 C.ar      1 PHE        -0.0601
     55 CE1       139.4880   46.5510  -10.0820 C.ar      1 PHE        -0.0686
     56 CE2       140.7710   46.8020  -12.1260 C.ar      1 PHE        -0.0686
     57 CZ        139.5690   46.4680  -11.4790 C.ar      1 PHE        -0.0687
     58 N         143.6390   49.0690   -6.2190 N.am      1 SER        -0.2614
     59 CA        144.5770   49.2880   -5.1220 C.3       1 SER         0.1539
     60 C         145.9180   48.5970   -5.2760 C.2       1 SER         0.2062
     61 O         145.9880   47.4290   -5.6560 O.2       1 SER        -0.3943
     62 CB        143.9650   48.8110   -3.8050 C.3       1 SER         0.0843
     63 OG        142.7020   49.3870   -3.5720 O.3       1 SER        -0.3903
     64 N         146.9830   49.3260   -4.9580 N.am      1 ALA        -0.2639
     65 CA        148.3340   48.7720   -5.0000 C.3       1 ALA         0.1282
     66 C         148.6090   48.2440   -3.5900 C.2       1 ALA         0.2036
     67 O         148.3510   48.9350   -2.6020 O.2       1 ALA        -0.3944
     68 CB        149.3520   49.8660   -5.3590 C.3       1 ALA        -0.0244
     69 N         149.1240   47.0230   -3.5020 N.am      1 LEU        -0.2637
     70 CA        149.4380   46.4060   -2.2150 C.3       1 LEU         0.1312
     71 C         150.8540   46.7720   -1.7570 C.2       1 LEU         0.2040
     72 O         151.7990   46.7480   -2.5550 O.2       1 LEU        -0.3944
     73 CB        149.3140   44.8850   -2.3360 C.3       1 LEU        -0.0101
     74 CG        149.4910   43.9750   -1.1150 C.3       1 LEU        -0.0425
     75 CD1       148.4870   44.3180   -0.0170 C.3       1 LEU        -0.0625
     76 CD2       149.2840   42.5320   -1.5720 C.3       1 LEU        -0.0625
     77 N         150.9950   47.1270   -0.4790 N.am      1 SER        -0.2616
     78 CA        152.3050   47.4590    0.0780 C.3       1 SER         0.1539
     79 C         153.0670   46.1460    0.2080 C.2       1 SER         0.2062
     80 O         152.4620   45.0730    0.2770 O.2       1 SER        -0.3943
     81 CB        152.1760   48.0780    1.4720 C.3       1 SER         0.0843
     82 OG        151.3420   49.2190    1.4610 O.3       1 SER        -0.3903
     83 N         154.3910   46.2240    0.2480 N.am      1 GLU        -0.2636
     84 CA        155.1940   45.0140    0.3890 C.3       1 GLU         0.1324
     85 C         155.0690   44.5380    1.8350 C.2       1 GLU         0.2032
     86 O         155.2880   45.3120    2.7720 O.2       1 GLU        -0.3944
     87 CB        156.6580   45.3060    0.0420 C.3       1 GLU        -0.0008
     88 CG        157.5580   44.0830    0.0140 C.3       1 GLU         0.0044
     89 CD        158.8530   44.3320   -0.7410 C.2       1 GLU         0.0350
     90 OE1       159.5370   45.3310   -0.4400 O.co2     1 GLU        -0.5690
     91 OE2       159.1890   43.5260   -1.6350 O.co2     1 GLU        -0.5690
     92 N         154.6900   43.2750    2.0020 N.am      1 GLY        -0.2722
     93 CA        154.5260   42.7000    3.3260 C.3       1 GLY         0.0833
     94 C         155.6260   43.0560    4.3110 C.2       1 GLY         0.0570
     95 O         156.5070   42.2020    4.5470 O.co2     1 GLY        -0.5669
     96 OXT       155.6160   44.1850    4.8460 O.co2     1 GLY        -0.5669
     97 H1        126.7778   52.1462  -19.6688 H         1 PRO         0.2035
     98 H2        127.1235   52.0723  -21.2765 H         1 PRO         0.2035
     99 H3        129.2206   52.6211  -20.9049 H         1 PRO         0.1099
    100 H4        129.5035   54.9308  -20.7822 H         1 PRO         0.0347
    101 H5        128.5032   55.0696  -19.2967 H         1 PRO         0.0347
    102 H6        127.5908   54.7685  -22.2053 H         1 PRO         0.0320
    103 H7        126.9946   55.9109  -20.9538 H         1 PRO         0.0320
    104 H8        125.8043   54.1730  -19.7683 H         1 PRO         0.0814
    105 H9        125.5664   53.6749  -21.4777 H         1 PRO         0.0814
    106 H10       130.7732   52.1542  -19.3807 H         1 GLU         0.1885
    107 H11       129.7288   51.7252  -16.6311 H         1 GLU         0.0801
    108 H12       131.9234   50.2916  -18.1758 H         1 GLU         0.0330
    109 H13       130.3283   49.6419  -17.6656 H         1 GLU         0.0330
    110 H14       131.0219   49.9085  -15.2966 H         1 GLU         0.0433
    111 H15       132.6402   50.4461  -15.8610 H         1 GLU         0.0433
    112 H16       130.6312   52.5760  -14.9141 H         1 VAL         0.1883
    113 H17       132.8554   54.4908  -15.2092 H         1 VAL         0.0802
    114 H18       131.3237   53.4472  -12.7486 H         1 VAL         0.0343
    115 H19       132.4669   55.2875  -11.5227 H         1 VAL         0.0234
    116 H20       133.4095   55.6835  -12.9995 H         1 VAL         0.0234
    117 H21       133.6494   54.1045  -12.1774 H         1 VAL         0.0234
    118 H22       129.9810   54.8769  -14.2821 H         1 VAL         0.0234
    119 H23       131.2530   56.1433  -14.2123 H         1 VAL         0.0234
    120 H24       130.3243   55.7205  -12.7339 H         1 VAL         0.0234
    121 H25       134.9558   53.8140  -14.9348 H         1 ILE         0.1883
    122 H26       135.4052   51.0145  -13.9911 H         1 ILE         0.0803
    123 H27       137.1971   52.8095  -15.7324 H         1 ILE         0.0345
    124 H28       135.0933   52.0583  -16.8383 H         1 ILE         0.0267
    125 H29       135.5310   50.3568  -16.4642 H         1 ILE         0.0267
    126 H30       138.4505   51.2074  -14.3212 H         1 ILE         0.0235
    127 H31       138.5338   50.7620  -16.0594 H         1 ILE         0.0235
    128 H32       137.4408   49.8629  -14.9532 H         1 ILE         0.0235
    129 H33       136.0575   50.9264  -18.8021 H         1 ILE         0.0230
    130 H34       137.5519   50.5671  -17.8725 H         1 ILE         0.0230
    131 H35       137.1142   52.2686  -18.2465 H         1 ILE         0.0230
    132 H36       137.6773   53.1173  -10.7957 H         1 PRO         0.0802
    133 H37       136.2989   51.5984   -9.4968 H         1 PRO         0.0313
    134 H38       137.9669   51.1252   -9.0272 H         1 PRO         0.0313
    135 H39       136.3986   49.2044  -10.0117 H         1 PRO         0.0287
    136 H40       138.0440   49.3570  -10.7161 H         1 PRO         0.0287
    137 H41       136.7844   49.5798  -12.7254 H         1 PRO         0.0524
    138 H42       135.3633   50.2727  -11.8727 H         1 PRO         0.0524
    139 H43       139.7428   53.1238   -9.7785 H         1 MET         0.1883
    140 H44       141.9610   51.9002  -11.3433 H         1 MET         0.0800
    141 H45       143.3260   53.1715   -9.5756 H         1 MET         0.0320
    142 H46       141.7700   53.8432   -8.9803 H         1 MET         0.0320
    143 H47       142.7699   55.4900  -10.3719 H         1 MET         0.0378
    144 H48       141.4055   54.7750  -11.2960 H         1 MET         0.0378
    145 H49       145.8608   54.5943  -12.2504 H         1 MET         0.0340
    146 H50       145.2736   54.3056  -10.5775 H         1 MET         0.0340
    147 H51       144.9458   55.8758  -11.3860 H         1 MET         0.0340
    148 H52       143.2220   50.1958  -10.2869 H         1 PHE         0.1885
    149 H53       141.8431   49.0604   -7.9149 H         1 PHE         0.0823
    150 H54       143.2065   47.0072   -8.3997 H         1 PHE         0.0474
    151 H55       143.8623   47.8473   -9.8457 H         1 PHE         0.0474
    152 H56       140.5343   47.0318   -8.2661 H         1 PHE         0.0557
    153 H57       142.8026   47.4689  -11.8802 H         1 PHE         0.0557
    154 H58       138.5655   46.2940   -9.5740 H         1 PHE         0.0599
    155 H59       140.8408   46.7406  -13.2060 H         1 PHE         0.0599
    156 H60       138.7095   46.1480  -12.0569 H         1 PHE         0.0559
    157 H61       142.7540   48.6520   -6.0120 H         1 SER         0.1884
    158 H62       144.7604   50.3707   -5.0579 H         1 SER         0.0823
    159 H63       144.6385   49.0861   -2.9800 H         1 SER         0.0606
    160 H64       143.8555   47.7170   -3.8397 H         1 SER         0.0606
    161 H65       142.3564   49.0667   -2.7472 H         1 SER         0.2097
    162 H66       146.8560   50.2789   -4.6827 H         1 ALA         0.1883
    163 H67       148.3929   47.9568   -5.7362 H         1 ALA         0.0797
    164 H68       150.3624   49.4320   -5.3861 H         1 ALA         0.0277
    165 H69       149.3157   50.6633   -4.6021 H         1 ALA         0.0277
    166 H70       149.1066   50.2857   -6.3457 H         1 ALA         0.0277
    167 H71       149.3023   46.5103   -4.3419 H         1 LEU         0.1883
    168 H72       148.7194   46.7669   -1.4645 H         1 LEU         0.0800
    169 H73       150.0668   44.5682   -3.0728 H         1 LEU         0.0315
    170 H74       148.3072   44.6845   -2.7311 H         1 LEU         0.0315
    171 H75       150.5096   44.0940   -0.7172 H         1 LEU         0.0298
    172 H76       148.6405   43.6487    0.8423 H         1 LEU         0.0232
    173 H77       147.4646   44.1912   -0.4024 H         1 LEU         0.0232
    174 H78       148.6326   45.3611    0.3002 H         1 LEU         0.0232
    175 H79       150.0095   42.2902   -2.3627 H         1 LEU         0.0232
    176 H80       148.2626   42.4141   -1.9630 H         1 LEU         0.0232
    177 H81       149.4309   41.8527   -0.7194 H         1 LEU         0.0232
    178 H82       150.1879   47.1668    0.1101 H         1 SER         0.1884
    179 H83       152.8356   48.1532   -0.5902 H         1 SER         0.0823
    180 H84       153.1755   48.3702    1.8264 H         1 SER         0.0606
    181 H85       151.7484   47.3303    2.1561 H         1 SER         0.0606
    182 H86       150.4749   48.9732    1.1606 H         1 SER         0.2097
    183 H87       154.8399   47.1151    0.1813 H         1 GLU         0.1883
    184 H88       154.8125   44.2363   -0.2889 H         1 GLU         0.0801
    185 H89       157.0549   46.0067    0.7913 H         1 GLU         0.0330
    186 H90       156.6876   45.7764   -0.9519 H         1 GLU         0.0330
    187 H91       157.0179   43.2584   -0.4741 H         1 GLU         0.0433
    188 H92       157.8015   43.8002    1.0487 H         1 GLU         0.0433
    189 H93       154.5137   42.7075    1.1977 H         1 GLY         0.1873
    190 H94       154.4985   41.6051    3.2235 H         1 GLY         0.0689
    191 H95       153.5693   43.0539    3.7376 H         1 GLY         0.0689
@<TRIPOS>BOND
     1    1    2 1  
     2    1    7 1  
     3    2    3 1  
     4    2    5 1  
     5    3    4 2  
     6    3    8 am 
     7    5    6 1  
     8    6    7 1  
     9    8    9 1  
    10    9   10 1  
    11    9   12 1  
    12   10   11 2  
    13   10   17 am 
    14   12   13 1  
    15   13   14 1  
    16   14   15 ar 
    17   14   16 ar 
    18   17   18 1  
    19   18   19 1  
    20   18   21 1  
    21   19   20 2  
    22   19   24 am 
    23   21   22 1  
    24   21   23 1  
    25   24   25 1  
    26   25   26 1  
    27   25   28 1  
    28   26   27 2  
    29   26   32 am 
    30   28   29 1  
    31   28   30 1  
    32   29   31 1  
    33   32   33 1  
    34   32   38 1  
    35   33   34 1  
    36   33   36 1  
    37   34   35 2  
    38   34   39 am 
    39   36   37 1  
    40   37   38 1  
    41   39   40 1  
    42   40   41 1  
    43   40   43 1  
    44   41   42 2  
    45   41   47 am 
    46   43   44 1  
    47   44   45 1  
    48   45   46 1  
    49   47   48 1  
    50   48   49 1  
    51   48   51 1  
    52   49   50 2  
    53   49   58 am 
    54   51   52 1  
    55   52   53 ar 
    56   52   54 ar 
    57   53   55 ar 
    58   54   56 ar 
    59   55   57 ar 
    60   56   57 ar 
    61   58   59 1  
    62   59   60 1  
    63   59   62 1  
    64   60   61 2  
    65   60   64 am 
    66   62   63 1  
    67   64   65 1  
    68   65   66 1  
    69   65   68 1  
    70   66   67 2  
    71   66   69 am 
    72   69   70 1  
    73   70   71 1  
    74   70   73 1  
    75   71   72 2  
    76   71   77 am 
    77   73   74 1  
    78   74   75 1  
    79   74   76 1  
    80   77   78 1  
    81   78   79 1  
    82   78   81 1  
    83   79   80 2  
    84   79   83 am 
    85   81   82 1  
    86   83   84 1  
    87   84   85 1  
    88   84   87 1  
    89   85   86 2  
    90   85   92 am 
    91   87   88 1  
    92   88   89 1  
    93   89   90 ar 
    94   89   91 ar 
    95   92   93 1  
    96   93   94 1  
    97   94   95 ar 
    98   94   96 ar 
    99    1   97 1  
   100    1   98 1  
   101    2   99 1  
   102    5  100 1  
   103    5  101 1  
   104    6  102 1  
   105    6  103 1  
   106    7  104 1  
   107    7  105 1  
   108    8  106 1  
   109    9  107 1  
   110   12  108 1  
   111   12  109 1  
   112   13  110 1  
   113   13  111 1  
   114   17  112 1  
   115   18  113 1  
   116   21  114 1  
   117   22  115 1  
   118   22  116 1  
   119   22  117 1  
   120   23  118 1  
   121   23  119 1  
   122   23  120 1  
   123   24  121 1  
   124   25  122 1  
   125   28  123 1  
   126   29  124 1  
   127   29  125 1  
   128   30  126 1  
   129   30  127 1  
   130   30  128 1  
   131   31  129 1  
   132   31  130 1  
   133   31  131 1  
   134   33  132 1  
   135   36  133 1  
   136   36  134 1  
   137   37  135 1  
   138   37  136 1  
   139   38  137 1  
   140   38  138 1  
   141   39  139 1  
   142   40  140 1  
   143   43  141 1  
   144   43  142 1  
   145   44  143 1  
   146   44  144 1  
   147   46  145 1  
   148   46  146 1  
   149   46  147 1  
   150   47  148 1  
   151   48  149 1  
   152   51  150 1  
   153   51  151 1  
   154   53  152 1  
   155   54  153 1  
   156   55  154 1  
   157   56  155 1  
   158   57  156 1  
   159   58  157 1  
   160   59  158 1  
   161   62  159 1  
   162   62  160 1  
   163   63  161 1  
   164   64  162 1  
   165   65  163 1  
   166   68  164 1  
   167   68  165 1  
   168   68  166 1  
   169   69  167 1  
   170   70  168 1  
   171   73  169 1  
   172   73  170 1  
   173   74  171 1  
   174   75  172 1  
   175   75  173 1  
   176   75  174 1  
   177   76  175 1  
   178   76  176 1  
   179   76  177 1  
   180   77  178 1  
   181   78  179 1  
   182   81  180 1  
   183   81  181 1  
   184   82  182 1  
   185   83  183 1  
   186   84  184 1  
   187   87  185 1  
   188   87  186 1  
   189   88  187 1  
   190   88  188 1  
   191   92  189 1  
   192   93  190 1  
   193   93  191 1  
@<TRIPOS>SUBSTRUCTURE
     1 PRO         1

