1sjh_ligand
  -I-interpret- 

194196  0  0  0  0  0  0  0  0999 V2000
  127.1410   52.6590  -20.4570 N   0  3  0  0  0
  128.5320   53.0750  -20.1770 C   0  0  0  0  0
  128.9110   52.6360  -18.7650 C   0  0  0  0  0
  128.0980   52.7130  -17.8430 O   0  0  0  0  0
  128.5810   54.5950  -20.2860 C   0  0  0  0  0
  127.3580   54.8890  -21.1370 C   0  0  0  0  0
  126.3130   53.8540  -20.6900 C   0  0  0  0  0
  130.1490   52.1850  -18.6000 N   0  0  0  0  0
  130.6050   51.7360  -17.2960 C   0  0  0  0  0
  131.6590   52.6280  -16.6490 C   0  0  0  0  0
  132.6140   53.0680  -17.2970 O   0  0  0  0  0
  131.1530   50.3160  -17.3910 C   0  0  0  0  0
  131.7680   49.8200  -16.1000 C   0  0  0  0  0
  132.2150   48.3800  -16.1900 C   0  0  0  0  0
  132.7850   47.8660  -15.2050 O   0  0  0  0  0
  131.9950   47.7560  -17.2490 O   0  0  0  0  0
  131.4610   52.9050  -15.3650 N   0  0  0  0  0
  132.4290   53.6780  -14.6030 C   0  0  0  0  0
  133.4820   52.6270  -14.2460 C   0  0  0  0  0
  133.1460   51.5520  -13.7550 O   0  0  0  0  0
  131.8120   54.2580  -13.3090 C   0  0  0  0  0
  132.9120   54.8770  -12.4410 C   0  0  0  0  0
  130.7690   55.3250  -13.6590 C   0  0  0  0  0
  134.7450   52.9260  -14.5260 N   0  0  0  0  0
  135.8340   51.9930  -14.2530 C   0  0  0  0  0
  136.6820   52.4970  -13.0980 C   0  0  0  0  0
  137.0690   53.6620  -13.0660 O   0  0  0  0  0
  136.7520   51.8330  -15.4910 C   0  0  0  0  0
  135.9280   51.3570  -16.6920 C   0  0  0  0  0
  137.8720   50.8480  -15.1850 C   0  0  0  0  0
  136.7180   51.2740  -17.9940 C   0  0  0  0  0
  136.9980   51.6210  -12.1360 N   0  0  0  0  0
  137.8140   52.0440  -10.9940 C   0  0  0  0  0
  139.3040   51.7550  -11.1850 C   0  0  0  0  0
  139.6840   50.9590  -12.0370 O   0  0  0  0  0
  137.2570   51.2020   -9.8640 C   0  0  0  0  0
  137.0770   49.8620  -10.5750 C   0  0  0  0  0
  136.4620   50.2620  -11.9250 C   0  0  0  0  0
  140.1300   52.4320  -10.3880 N   0  0  0  0  0
  141.5740   52.2120  -10.3620 C   0  0  0  0  0
  141.7120   51.1200   -9.3070 C   0  0  0  0  0
  140.9770   51.1360   -8.3270 O   0  0  0  0  0
  142.3050   53.4630   -9.8630 C   0  0  0  0  0
  142.4020   54.5820  -10.8720 C   0  0  0  0  0
  143.5230   54.1400  -12.1850 S   0  0  0  0  0
  145.0460   54.7910  -11.5380 C   0  0  0  0  0
  142.6330   50.1790   -9.4790 N   0  0  0  0  0
  142.7840   49.1160   -8.4820 C   0  0  0  0  0
  143.9040   49.3970   -7.4800 C   0  0  0  0  0
  144.9670   49.8990   -7.8370 O   0  0  0  0  0
  142.9970   47.7620   -9.1720 C   0  0  0  0  0
  141.8060   47.3010   -9.9800 C   0  0  0  0  0
  140.6030   46.9670   -9.3460 C   0  0  0  0  0
  141.8780   47.2140  -11.3750 C   0  0  0  0  0
  139.4880   46.5510  -10.0820 C   0  0  0  0  0
  140.7710   46.8020  -12.1260 C   0  0  0  0  0
  139.5690   46.4680  -11.4790 C   0  0  0  0  0
  143.6390   49.0690   -6.2190 N   0  0  0  0  0
  144.5770   49.2880   -5.1220 C   0  0  0  0  0
  145.9180   48.5970   -5.2760 C   0  0  0  0  0
  145.9880   47.4290   -5.6560 O   0  0  0  0  0
  143.9650   48.8110   -3.8050 C   0  0  0  0  0
  142.7020   49.3870   -3.5720 O   0  0  0  0  0
  146.9830   49.3260   -4.9580 N   0  0  0  0  0
  148.3340   48.7720   -5.0000 C   0  0  0  0  0
  148.6090   48.2440   -3.5900 C   0  0  0  0  0
  148.3510   48.9350   -2.6020 O   0  0  0  0  0
  149.3520   49.8660   -5.3590 C   0  0  0  0  0
  149.1240   47.0230   -3.5020 N   0  0  0  0  0
  149.4380   46.4060   -2.2150 C   0  0  0  0  0
  150.8540   46.7720   -1.7570 C   0  0  0  0  0
  151.7990   46.7480   -2.5550 O   0  0  0  0  0
  149.3140   44.8850   -2.3360 C   0  0  0  0  0
  149.4910   43.9750   -1.1150 C   0  0  0  0  0
  148.4870   44.3180   -0.0170 C   0  0  0  0  0
  149.2840   42.5320   -1.5720 C   0  0  0  0  0
  150.9950   47.1270   -0.4790 N   0  0  0  0  0
  152.3050   47.4590    0.0780 C   0  0  0  0  0
  153.0670   46.1460    0.2080 C   0  0  0  0  0
  152.4620   45.0730    0.2770 O   0  0  0  0  0
  152.1760   48.0780    1.4720 C   0  0  0  0  0
  151.3420   49.2190    1.4610 O   0  0  0  0  0
  154.3910   46.2240    0.2480 N   0  0  0  0  0
  155.1940   45.0140    0.3890 C   0  0  0  0  0
  155.0690   44.5380    1.8350 C   0  0  0  0  0
  155.2880   45.3120    2.7720 O   0  0  0  0  0
  156.6580   45.3060    0.0420 C   0  0  0  0  0
  157.5580   44.0830    0.0140 C   0  0  0  0  0
  158.8530   44.3320   -0.7410 C   0  0  0  0  0
  159.5370   45.3310   -0.4400 O   0  0  0  0  0
  159.1890   43.5260   -1.6350 O   0  0  0  0  0
  154.6900   43.2750    2.0020 N   0  0  0  0  0
  154.5260   42.7000    3.3260 C   0  0  0  0  0
  155.6260   43.0560    4.3110 C   0  0  0  0  0
  156.5070   42.2020    4.5470 O   0  0  0  0  0
  155.6160   44.1850    4.8460 O   0  0  0  0  0
  126.7733   52.1390  -19.6603 H   0  0  0  0  0
  127.1228   52.0642  -21.2854 H   0  0  0  0  0
  129.2310   52.6219  -20.8800 H   0  0  0  0  0
  129.5090   54.9674  -20.7199 H   0  0  0  0  0
  128.5658   55.0982  -19.3192 H   0  0  0  0  0
  127.5761   54.8125  -22.2022 H   0  0  0  0  0
  127.0031   55.9104  -20.9995 H   0  0  0  0  0
  125.7483   54.1645  -19.8109 H   0  0  0  0  0
  125.5238   53.6943  -21.4246 H   0  0  0  0  0
  130.7856   52.1536  -19.3963 H   0  0  0  0  0
  129.7242   51.7803  -16.6554 H   0  0  0  0  0
  131.9366   50.3167  -18.1487 H   0  0  0  0  0
  130.3182   49.6575  -17.6309 H   0  0  0  0  0
  131.0119   49.8898  -15.3180 H   0  0  0  0  0
  132.6444   50.4322  -15.8873 H   0  0  0  0  0
  132.8529   48.5153  -14.5012 H   0  0  0  0  0
  130.6147   52.5694  -14.9051 H   0  0  0  0  0
  132.8113   54.5348  -15.1578 H   0  0  0  0  0
  131.3277   53.4533  -12.7559 H   0  0  0  0  0
  133.6420   54.1106  -12.1806 H   0  0  0  0  0
  133.4042   55.6759  -12.9956 H   0  0  0  0  0
  132.4698   55.2834  -11.5314 H   0  0  0  0  0
  131.2467   56.1278  -14.2207 H   0  0  0  0  0
  129.9807   54.8762  -14.2633 H   0  0  0  0  0
  130.3404   55.7272  -12.7410 H   0  0  0  0  0
  134.9600   53.8317  -14.9429 H   0  0  0  0  0
  135.3855   51.0315  -14.0030 H   0  0  0  0  0
  137.1975   52.7974  -15.7350 H   0  0  0  0  0
  135.1298   52.0835  -16.8443 H   0  0  0  0  0
  135.5754   50.3512  -16.4635 H   0  0  0  0  0
  138.4613   51.2189  -14.3464 H   0  0  0  0  0
  137.4425   49.8795  -14.9287 H   0  0  0  0  0
  138.5113   50.7429  -16.0616 H   0  0  0  0  0
  137.1101   52.2601  -18.2431 H   0  0  0  0  0
  137.5440   50.5733  -17.8723 H   0  0  0  0  0
  136.0625   50.9295  -18.7939 H   0  0  0  0  0
  137.7621   53.1202  -10.8292 H   0  0  0  0  0
  136.3422   51.5981   -9.4231 H   0  0  0  0  0
  137.8995   51.1563   -8.9847 H   0  0  0  0  0
  136.4487   49.1694  -10.0149 H   0  0  0  0  0
  138.0132   49.3146  -10.6847 H   0  0  0  0  0
  136.7194   49.5737  -12.7301 H   0  0  0  0  0
  135.3725   50.2305  -11.9218 H   0  0  0  0  0
  139.7351   53.1376   -9.7663 H   0  0  0  0  0
  141.9861   51.9666  -11.3408 H   0  0  0  0  0
  143.3250   53.1608   -9.6255 H   0  0  0  0  0
  141.7349   53.8472   -9.0171 H   0  0  0  0  0
  142.7741   55.4774  -10.3741 H   0  0  0  0  0
  141.4143   54.7648  -11.2952 H   0  0  0  0  0
  144.9454   55.8659  -11.3878 H   0  0  0  0  0
  145.2704   54.3092  -10.5863 H   0  0  0  0  0
  145.8525   54.5955  -12.2447 H   0  0  0  0  0
  143.2338   50.1962  -10.3031 H   0  0  0  0  0
  141.8571   49.0835   -7.9093 H   0  0  0  0  0
  143.1692   47.0209   -8.3915 H   0  0  0  0  0
  143.8351   47.8739   -9.8598 H   0  0  0  0  0
  140.5339   47.0322   -8.2601 H   0  0  0  0  0
  142.8077   47.4703  -11.8830 H   0  0  0  0  0
  138.5604   46.2926   -9.5712 H   0  0  0  0  0
  140.8412   46.7403  -13.2120 H   0  0  0  0  0
  138.7047   46.1463  -12.0601 H   0  0  0  0  0
  142.7363   48.6436   -6.0078 H   0  0  0  0  0
  144.7626   50.3620   -5.1321 H   0  0  0  0  0
  144.6297   49.1065   -2.9932 H   0  0  0  0  0
  143.8420   47.7293   -3.8581 H   0  0  0  0  0
  142.3528   49.0633   -2.7384 H   0  0  0  0  0
  146.8535   50.2980   -4.6772 H   0  0  0  0  0
  148.4210   47.9883   -5.7525 H   0  0  0  0  0
  149.1077   50.2810   -6.3369 H   0  0  0  0  0
  149.3150   50.6554   -4.6083 H   0  0  0  0  0
  150.3527   49.4347   -5.3856 H   0  0  0  0  0
  149.3059   46.5000   -4.3586 H   0  0  0  0  0
  148.7326   46.7795   -1.4727 H   0  0  0  0  0
  150.1370   44.6055   -2.9938 H   0  0  0  0  0
  148.2769   44.7285   -2.6325 H   0  0  0  0  0
  150.4898   44.1139   -0.7011 H   0  0  0  0  0
  148.6323   45.3518    0.2964 H   0  0  0  0  0
  147.4744   44.1920   -0.4001 H   0  0  0  0  0
  148.6401   43.6541    0.8339 H   0  0  0  0  0
  148.2803   42.4228   -1.9828 H   0  0  0  0  0
  150.0200   42.2855   -2.3373 H   0  0  0  0  0
  149.4046   41.8618   -0.7209 H   0  0  0  0  0
  150.1718   47.1676    0.1219 H   0  0  0  0  0
  152.8094   48.1778   -0.5678 H   0  0  0  0  0
  153.1681   48.3805    1.8070 H   0  0  0  0  0
  151.7352   47.3363    2.1381 H   0  0  0  0  0
  151.2839   49.5801    2.3486 H   0  0  0  0  0
  154.8489   47.1329    0.1799 H   0  0  0  0  0
  154.8410   44.2400   -0.2925 H   0  0  0  0  0
  157.0432   45.9664    0.8190 H   0  0  0  0  0
  156.6681   45.7311   -0.9616 H   0  0  0  0  0
  157.0212   43.2815   -0.4935 H   0  0  0  0  0
  157.8118   43.8281    1.0429 H   0  0  0  0  0
  158.5273   42.8341   -1.7056 H   0  0  0  0  0
  154.5102   42.6961    1.1816 H   0  0  0  0  0
  154.5443   41.6167    3.2067 H   0  0  0  0  0
  153.5952   43.0964    3.7318 H   0  0  0  0  0
  156.3283   41.4097    4.0353 H   0  0  0  0  0
  1  2  1  0  0  0
  1  7  1  0  0  0
  2  3  1  0  0  0
  2  5  1  0  0  0
  3  4  2  0  0  0
  3  8  1  0  0  0
  5  6  1  0  0  0
  6  7  1  0  0  0
  8  9  1  0  0  0
  9 10  1  0  0  0
  9 12  1  0  0  0
 10 11  2  0  0  0
 10 17  1  0  0  0
 12 13  1  0  0  0
 13 14  1  0  0  0
 14 15  1  0  0  0
 14 16  2  0  0  0
 17 18  1  0  0  0
 18 19  1  0  0  0
 18 21  1  0  0  0
 19 20  2  0  0  0
 19 24  1  0  0  0
 21 22  1  0  0  0
 21 23  1  0  0  0
 24 25  1  0  0  0
 25 26  1  0  0  0
 25 28  1  0  0  0
 26 27  2  0  0  0
 26 32  1  0  0  0
 28 29  1  0  0  0
 28 30  1  0  0  0
 29 31  1  0  0  0
 32 33  1  0  0  0
 32 38  1  0  0  0
 33 34  1  0  0  0
 33 36  1  0  0  0
 34 35  2  0  0  0
 34 39  1  0  0  0
 36 37  1  0  0  0
 37 38  1  0  0  0
 39 40  1  0  0  0
 40 41  1  0  0  0
 40 43  1  0  0  0
 41 42  2  0  0  0
 41 47  1  0  0  0
 43 44  1  0  0  0
 44 45  1  0  0  0
 45 46  1  0  0  0
 47 48  1  0  0  0
 48 49  1  0  0  0
 48 51  1  0  0  0
 49 50  2  0  0  0
 49 58  1  0  0  0
 51 52  1  0  0  0
 52 53  4  0  0  0
 52 54  4  0  0  0
 53 55  4  0  0  0
 54 56  4  0  0  0
 55 57  4  0  0  0
 56 57  4  0  0  0
 58 59  1  0  0  0
 59 60  1  0  0  0
 59 62  1  0  0  0
 60 61  2  0  0  0
 60 64  1  0  0  0
 62 63  1  0  0  0
 64 65  1  0  0  0
 65 66  1  0  0  0
 65 68  1  0  0  0
 66 67  2  0  0  0
 66 69  1  0  0  0
 69 70  1  0  0  0
 70 71  1  0  0  0
 70 73  1  0  0  0
 71 72  2  0  0  0
 71 77  1  0  0  0
 73 74  1  0  0  0
 74 75  1  0  0  0
 74 76  1  0  0  0
 77 78  1  0  0  0
 78 79  1  0  0  0
 78 81  1  0  0  0
 79 80  2  0  0  0
 79 83  1  0  0  0
 81 82  1  0  0  0
 83 84  1  0  0  0
 84 85  1  0  0  0
 84 87  1  0  0  0
 85 86  2  0  0  0
 85 92  1  0  0  0
 87 88  1  0  0  0
 88 89  1  0  0  0
 89 90  2  0  0  0
 89 91  1  0  0  0
 92 93  1  0  0  0
 93 94  1  0  0  0
 94 95  1  0  0  0
 94 96  2  0  0  0
  1 97  1  0  0  0
  1 98  1  0  0  0
  2 99  1  0  0  0
  5100  1  0  0  0
  5101  1  0  0  0
  6102  1  0  0  0
  6103  1  0  0  0
  7104  1  0  0  0
  7105  1  0  0  0
  8106  1  0  0  0
  9107  1  0  0  0
 12108  1  0  0  0
 12109  1  0  0  0
 13110  1  0  0  0
 13111  1  0  0  0
 15112  1  0  0  0
 17113  1  0  0  0
 18114  1  0  0  0
 21115  1  0  0  0
 22116  1  0  0  0
 22117  1  0  0  0
 22118  1  0  0  0
 23119  1  0  0  0
 23120  1  0  0  0
 23121  1  0  0  0
 24122  1  0  0  0
 25123  1  0  0  0
 28124  1  0  0  0
 29125  1  0  0  0
 29126  1  0  0  0
 30127  1  0  0  0
 30128  1  0  0  0
 30129  1  0  0  0
 31130  1  0  0  0
 31131  1  0  0  0
 31132  1  0  0  0
 33133  1  0  0  0
 36134  1  0  0  0
 36135  1  0  0  0
 37136  1  0  0  0
 37137  1  0  0  0
 38138  1  0  0  0
 38139  1  0  0  0
 39140  1  0  0  0
 40141  1  0  0  0
 43142  1  0  0  0
 43143  1  0  0  0
 44144  1  0  0  0
 44145  1  0  0  0
 46146  1  0  0  0
 46147  1  0  0  0
 46148  1  0  0  0
 47149  1  0  0  0
 48150  1  0  0  0
 51151  1  0  0  0
 51152  1  0  0  0
 53153  1  0  0  0
 54154  1  0  0  0
 55155  1  0  0  0
 56156  1  0  0  0
 57157  1  0  0  0
 58158  1  0  0  0
 59159  1  0  0  0
 62160  1  0  0  0
 62161  1  0  0  0
 63162  1  0  0  0
 64163  1  0  0  0
 65164  1  0  0  0
 68165  1  0  0  0
 68166  1  0  0  0
 68167  1  0  0  0
 69168  1  0  0  0
 70169  1  0  0  0
 73170  1  0  0  0
 73171  1  0  0  0
 74172  1  0  0  0
 75173  1  0  0  0
 75174  1  0  0  0
 75175  1  0  0  0
 76176  1  0  0  0
 76177  1  0  0  0
 76178  1  0  0  0
 77179  1  0  0  0
 78180  1  0  0  0
 81181  1  0  0  0
 81182  1  0  0  0
 82183  1  0  0  0
 83184  1  0  0  0
 84185  1  0  0  0
 87186  1  0  0  0
 87187  1  0  0  0
 88188  1  0  0  0
 88189  1  0  0  0
 91190  1  0  0  0
 92191  1  0  0  0
 93192  1  0  0  0
 93193  1  0  0  0
 95194  1  0  0  0
M  END
$$$$
