1xdg_ligand
  -I-interpret- 

 91 94  0  0  0  0  0  0  0  0999 V2000
   52.3630   28.6250   15.9210 C   0  0  0  0  0
   52.5730   27.3410   15.3170 O   0  0  0  0  0
   51.8920   26.2280   15.8440 C   0  0  0  0  0
   52.4520   24.9700   15.6120 C   0  0  0  0  0
   53.6390   24.8870   14.8940 O   0  0  0  0  0
   51.8460   23.8140   16.0970 C   0  0  0  0  0
   50.6520   23.9320   16.8020 C   0  0  0  0  0
   50.6960   26.3310   16.5530 C   0  0  0  0  0
   50.0780   25.1760   17.0270 C   0  0  0  0  0
   48.7890   25.2370   17.8210 C   0  0  0  0  0
   49.1770   24.9150   19.1820 N   0  0  0  0  0
   50.0450   25.8080   19.9570 C   0  0  0  0  0
   49.4100   27.2390   20.0940 C   0  0  0  0  0
   50.2460   28.2340   20.8980 C   0  0  0  0  0
   49.6660   28.8840   21.9410 N   0  0  0  0  0
   50.2230   30.1400   22.4440 C   0  0  0  0  0
   51.4270   28.3480   20.6040 O   0  0  0  0  0
   50.3930   25.2780   21.3610 C   0  0  0  0  0
   50.2810   23.7130   21.3480 C   0  0  0  0  0
   48.9460   23.4010   20.9540 O   0  0  0  0  0
   48.6170   23.8250   19.7410 C   0  0  0  0  0
   47.7690   23.1620   19.1460 O   0  0  0  0  0
   50.4940   23.1640   22.7740 C   0  0  0  0  0
   50.4640   21.6040   22.8590 C   0  0  0  0  0
   50.5260   21.1490   24.3320 C   0  0  0  0  0
   50.4130   19.6130   24.2710 C   0  0  0  0  0
   50.3750   19.0710   25.6630 C   0  0  0  0  0
   49.7220   19.8650   26.7270 C   0  0  0  0  0
   49.2360   21.0690   26.4890 C   0  0  0  0  0
   49.3550   21.7450   25.1440 C   0  0  0  0  0
   48.0080   21.5930   24.3960 C   0  0  0  0  0
   50.9060   17.8810   25.9450 C   0  0  0  0  0
   51.5800   16.9720   24.9510 C   0  0  0  0  0
   53.0570   16.7870   25.3610 C   0  0  0  0  0
   51.4730   17.4780   23.4940 C   0  0  0  0  0
   51.5830   19.0300   23.4400 C   0  0  0  0  0
   52.8050   19.4970   24.0220 O   0  0  0  0  0
   53.8870   19.4220   23.2590 C   0  0  0  0  0
   53.8590   19.0910   22.0770 O   0  0  0  0  0
   55.1550   19.7600   24.0160 C   0  0  0  0  0
   56.1400   18.5710   23.9800 C   0  0  0  0  0
   55.8090   20.9630   23.3690 C   0  0  0  0  0
   54.8630   22.1630   23.5780 C   0  0  0  0  0
   51.3074   28.8883   15.8541 H   0  0  0  0  0
   52.6634   28.5861   16.9681 H   0  0  0  0  0
   52.9592   29.3729   15.3982 H   0  0  0  0  0
   53.9002   23.9666   14.8150 H   0  0  0  0  0
   52.2977   22.8365   15.9279 H   0  0  0  0  0
   50.1611   23.0363   17.1825 H   0  0  0  0  0
   50.2479   27.3078   16.7350 H   0  0  0  0  0
   48.0421   24.5424   17.4366 H   0  0  0  0  0
   48.3172   26.2173   17.7545 H   0  0  0  0  0
   50.9742   25.8590   19.3895 H   0  0  0  0  0
   48.4651   27.1175   20.6236 H   0  0  0  0  0
   49.3182   27.6433   19.0859 H   0  0  0  0  0
   48.8323   28.4916   22.3785 H   0  0  0  0  0
   51.2453   29.9726   22.7830 H   0  0  0  0  0
   50.2204   30.8825   21.6460 H   0  0  0  0  0
   49.6167   30.4973   23.2764 H   0  0  0  0  0
   49.7030   25.6931   22.0957 H   0  0  0  0  0
   51.4070   25.5751   21.6288 H   0  0  0  0  0
   51.0235   23.2808   20.6771 H   0  0  0  0  0
   49.6786   23.5393   23.3924 H   0  0  0  0  0
   51.4808   23.4890   23.1038 H   0  0  0  0  0
   51.3244   21.2011   22.3247 H   0  0  0  0  0
   49.5389   21.2402   22.4120 H   0  0  0  0  0
   51.4406   21.4804   24.8237 H   0  0  0  0  0
   49.4903   19.3173   23.7717 H   0  0  0  0  0
   49.6404   19.4463   27.7301 H   0  0  0  0  0
   48.7281   21.5967   27.2962 H   0  0  0  0  0
   49.5719   22.8047   25.2783 H   0  0  0  0  0
   48.0643   22.1128   23.4396 H   0  0  0  0  0
   47.8062   20.5356   24.2250 H   0  0  0  0  0
   47.2085   22.0240   24.9987 H   0  0  0  0  0
   50.8477   17.5384   26.9781 H   0  0  0  0  0
   51.0603   16.0141   24.9710 H   0  0  0  0  0
   53.5545   17.7568   25.3697 H   0  0  0  0  0
   53.1038   16.3442   26.3559 H   0  0  0  0  0
   53.5517   16.1298   24.6458 H   0  0  0  0  0
   50.5067   17.1792   23.0876 H   0  0  0  0  0
   52.2868   17.0469   22.9110 H   0  0  0  0  0
   51.5537   19.3441   22.3967 H   0  0  0  0  0
   54.9010   19.9769   25.0536 H   0  0  0  0  0
   55.6734   17.7002   24.4407 H   0  0  0  0  0
   56.3949   18.3433   22.9450 H   0  0  0  0  0
   57.0444   18.8333   24.5290 H   0  0  0  0  0
   55.9746   20.7850   22.3065 H   0  0  0  0  0
   56.7827   21.1587   23.8182 H   0  0  0  0  0
   53.9010   21.9513   23.1113 H   0  0  0  0  0
   54.7212   22.3306   24.6457 H   0  0  0  0  0
   55.3005   23.0523   23.1243 H   0  0  0  0  0
  1  2  1  0  0  0
  2  3  1  0  0  0
  3  4  4  0  0  0
  3  8  4  0  0  0
  4  5  1  0  0  0
  4  6  4  0  0  0
  6  7  4  0  0  0
  7  9  4  0  0  0
  8  9  4  0  0  0
  9 10  1  0  0  0
 10 11  1  0  0  0
 11 12  1  0  0  0
 11 21  1  0  0  0
 12 13  1  0  0  0
 12 18  1  0  0  0
 13 14  1  0  0  0
 14 15  1  0  0  0
 14 17  2  0  0  0
 15 16  1  0  0  0
 18 19  1  0  0  0
 19 20  1  0  0  0
 19 23  1  0  0  0
 20 21  1  0  0  0
 21 22  2  0  0  0
 23 24  1  0  0  0
 24 25  1  0  0  0
 25 26  1  0  0  0
 25 30  1  0  0  0
 26 27  1  0  0  0
 26 36  1  0  0  0
 27 28  1  0  0  0
 27 32  2  0  0  0
 28 29  2  0  0  0
 29 30  1  0  0  0
 30 31  1  0  0  0
 32 33  1  0  0  0
 33 34  1  0  0  0
 33 35  1  0  0  0
 35 36  1  0  0  0
 36 37  1  0  0  0
 37 38  1  0  0  0
 38 39  2  0  0  0
 38 40  1  0  0  0
 40 41  1  0  0  0
 40 42  1  0  0  0
 42 43  1  0  0  0
  1 44  1  0  0  0
  1 45  1  0  0  0
  1 46  1  0  0  0
  5 47  1  0  0  0
  6 48  1  0  0  0
  7 49  1  0  0  0
  8 50  1  0  0  0
 10 51  1  0  0  0
 10 52  1  0  0  0
 12 53  1  0  0  0
 13 54  1  0  0  0
 13 55  1  0  0  0
 15 56  1  0  0  0
 16 57  1  0  0  0
 16 58  1  0  0  0
 16 59  1  0  0  0
 18 60  1  0  0  0
 18 61  1  0  0  0
 19 62  1  0  0  0
 23 63  1  0  0  0
 23 64  1  0  0  0
 24 65  1  0  0  0
 24 66  1  0  0  0
 25 67  1  0  0  0
 26 68  1  0  0  0
 28 69  1  0  0  0
 29 70  1  0  0  0
 30 71  1  0  0  0
 31 72  1  0  0  0
 31 73  1  0  0  0
 31 74  1  0  0  0
 32 75  1  0  0  0
 33 76  1  0  0  0
 34 77  1  0  0  0
 34 78  1  0  0  0
 34 79  1  0  0  0
 35 80  1  0  0  0
 35 81  1  0  0  0
 36 82  1  0  0  0
 40 83  1  0  0  0
 41 84  1  0  0  0
 41 85  1  0  0  0
 41 86  1  0  0  0
 42 87  1  0  0  0
 42 88  1  0  0  0
 43 89  1  0  0  0
 43 90  1  0  0  0
 43 91  1  0  0  0
M  END
$$$$
