3aw0_ligand
  -I-interpret- 

 80 80  0  0  0  0  0  0  0  0999 V2000
  -27.3610  -30.1340    5.7140 C   0  0  0  0  0
  -27.2580  -30.1760    6.9490 O   0  0  0  0  0
  -27.5350  -28.8320    4.9450 C   0  0  0  0  0
  -27.5090  -31.2680    5.0110 N   0  0  0  0  0
  -27.4930  -32.6210    5.5990 C   0  0  0  0  0
  -26.1150  -33.3010    5.5080 C   0  0  0  0  0
  -25.3150  -33.0490    4.5900 O   0  0  0  0  0
  -28.5570  -33.5370    4.9270 C   0  0  0  0  0
  -29.8800  -33.2670    5.3760 O   0  0  0  0  0
  -25.8580  -34.1830    6.4670 N   0  0  0  0  0
  -24.8080  -35.1900    6.3170 C   0  0  0  0  0
  -25.2010  -36.1950    5.2090 C   0  0  0  0  0
  -26.3970  -36.3810    4.9220 O   0  0  0  0  0
  -24.5810  -35.8930    7.6300 C   0  0  0  0  0
  -24.2020  -36.8140    4.5770 N   0  0  0  0  0
  -24.4390  -37.8110    3.5290 C   0  0  0  0  0
  -23.6720  -39.0880    3.8930 C   0  0  0  0  0
  -22.4500  -39.1000    3.9890 O   0  0  0  0  0
  -24.0740  -37.2800    2.0710 C   0  0  0  0  0
  -24.0590  -38.4200    1.0050 C   0  0  0  0  0
  -25.0050  -36.1150    1.6370 C   0  0  0  0  0
  -24.4030  -40.1790    4.0930 N   0  0  0  0  0
  -23.7730  -41.4540    4.4180 C   0  0  0  0  0
  -23.2920  -42.1570    3.1510 C   0  0  0  0  0
  -24.1020  -42.5780    2.3260 O   0  0  0  0  0
  -24.7450  -42.3540    5.1830 C   0  0  0  0  0
  -25.3030  -41.7890    6.4910 C   0  0  0  0  0
  -26.1440  -42.8320    7.2120 C   0  0  0  0  0
  -24.1780  -41.2900    7.3850 C   0  0  0  0  0
  -21.9760  -42.2830    2.9950 N   0  0  0  0  0
  -21.4250  -42.9160    1.7940 C   0  0  0  0  0
  -19.9510  -42.5330    1.6080 C   0  0  0  0  0
  -19.7420  -41.1060    1.1920 C   0  0  0  0  0
  -18.8110  -40.2850    1.7870 N   0  0  0  0  0
  -20.3290  -40.3620    0.2230 C   0  0  0  0  0
  -18.8240  -39.1030    1.1990 C   0  0  0  0  0
  -19.7380  -39.1220    0.2480 N   0  0  0  0  0
  -21.6850  -44.4520    1.8610 C   0  0  0  0  0
  -20.8920  -45.2900    1.4270 O   0  0  0  0  0
  -22.7577  -44.8562    2.3841 O   0  0  0  0  0
  -28.4477  -28.3358    5.2750 H   0  0  0  0  0
  -26.6792  -28.1835    5.1326 H   0  0  0  0  0
  -27.6023  -29.0475    3.8786 H   0  0  0  0  0
  -27.6414  -31.1889    4.0027 H   0  0  0  0  0
  -27.7312  -32.4867    6.6542 H   0  0  0  0  0
  -28.3206  -34.5690    5.1864 H   0  0  0  0  0
  -28.5250  -33.3533    3.8531 H   0  0  0  0  0
  -30.4939  -33.8568    4.9324 H   0  0  0  0  0
  -26.4051  -34.1576    7.3275 H   0  0  0  0  0
  -23.8767  -34.7048    6.0248 H   0  0  0  0  0
  -24.2774  -35.1653    8.3826 H   0  0  0  0  0
  -25.5043  -36.3794    7.9447 H   0  0  0  0  0
  -23.7976  -36.6412    7.5094 H   0  0  0  0  0
  -23.2411  -36.5857    4.8318 H   0  0  0  0  0
  -25.5064  -38.0273    3.4838 H   0  0  0  0  0
  -23.0575  -36.8909    2.1303 H   0  0  0  0  0
  -23.3175  -39.1681    1.2854 H   0  0  0  0  0
  -25.0444  -38.8835    0.9567 H   0  0  0  0  0
  -23.8047  -38.0017    0.0311 H   0  0  0  0  0
  -26.0385  -36.4612    1.6290 H   0  0  0  0  0
  -24.9028  -35.2886    2.3404 H   0  0  0  0  0
  -24.7248  -35.7805    0.6382 H   0  0  0  0  0
  -25.4188  -40.1245    4.0183 H   0  0  0  0  0
  -22.9096  -41.2533    5.0523 H   0  0  0  0  0
  -24.1832  -43.2481    5.4531 H   0  0  0  0  0
  -25.6020  -42.5036    4.5263 H   0  0  0  0  0
  -25.9456  -40.9422    6.2500 H   0  0  0  0  0
  -26.9754  -43.1310    6.5737 H   0  0  0  0  0
  -25.5268  -43.7015    7.4381 H   0  0  0  0  0
  -26.5302  -42.4080    8.1389 H   0  0  0  0  0
  -23.5056  -42.1162    7.6161 H   0  0  0  0  0
  -23.6264  -40.5045    6.8684 H   0  0  0  0  0
  -24.5987  -40.8929    8.3088 H   0  0  0  0  0
  -21.3457  -41.9358    3.7179 H   0  0  0  0  0
  -21.9291  -42.5500    0.8996 H   0  0  0  0  0
  -19.5493  -43.1642    0.8153 H   0  0  0  0  0
  -19.4573  -42.6660    2.5706 H   0  0  0  0  0
  -21.1221  -40.6869   -0.4505 H   0  0  0  0  0
  -18.1879  -38.2558    1.4556 H   0  0  0  0  0
  -23.2745  -44.1015    2.6756 H   0  0  0  0  0
  1  2  2  0  0  0
  1  3  1  0  0  0
  1  4  1  0  0  0
  4  5  1  0  0  0
  5  6  1  0  0  0
  5  8  1  0  0  0
  6  7  2  0  0  0
  6 10  1  0  0  0
  8  9  1  0  0  0
 10 11  1  0  0  0
 11 12  1  0  0  0
 11 14  1  0  0  0
 12 13  2  0  0  0
 12 15  1  0  0  0
 15 16  1  0  0  0
 16 17  1  0  0  0
 16 19  1  0  0  0
 17 18  2  0  0  0
 17 22  1  0  0  0
 19 20  1  0  0  0
 19 21  1  0  0  0
 22 23  1  0  0  0
 23 24  1  0  0  0
 23 26  1  0  0  0
 24 25  2  0  0  0
 24 30  1  0  0  0
 26 27  1  0  0  0
 27 28  1  0  0  0
 27 29  1  0  0  0
 30 31  1  0  0  0
 31 32  1  0  0  0
 31 38  1  0  0  0
 32 33  1  0  0  0
 33 34  4  0  0  0
 33 35  4  0  0  0
 34 36  4  0  0  0
 35 37  4  0  0  0
 36 37  4  0  0  0
 38 39  2  0  0  0
 38 40  1  0  0  0
  3 41  1  0  0  0
  3 42  1  0  0  0
  3 43  1  0  0  0
  4 44  1  0  0  0
  5 45  1  0  0  0
  8 46  1  0  0  0
  8 47  1  0  0  0
  9 48  1  0  0  0
 10 49  1  0  0  0
 11 50  1  0  0  0
 14 51  1  0  0  0
 14 52  1  0  0  0
 14 53  1  0  0  0
 15 54  1  0  0  0
 16 55  1  0  0  0
 19 56  1  0  0  0
 20 57  1  0  0  0
 20 58  1  0  0  0
 20 59  1  0  0  0
 21 60  1  0  0  0
 21 61  1  0  0  0
 21 62  1  0  0  0
 22 63  1  0  0  0
 23 64  1  0  0  0
 26 65  1  0  0  0
 26 66  1  0  0  0
 27 67  1  0  0  0
 28 68  1  0  0  0
 28 69  1  0  0  0
 28 70  1  0  0  0
 29 71  1  0  0  0
 29 72  1  0  0  0
 29 73  1  0  0  0
 30 74  1  0  0  0
 31 75  1  0  0  0
 32 76  1  0  0  0
 32 77  1  0  0  0
 35 78  1  0  0  0
 36 79  1  0  0  0
 40 80  1  0  0  0
M  END
$$$$
