4m5m_ligand
  -I-interpret- 

 14 15  0  0  0  0  0  0  0  0999 V2000
   75.0730    9.0070   66.4160 C   0  0  0  0  0
   75.6770    8.1250   67.4270 C   0  0  0  0  0
   74.9870    6.8580   67.7480 C   0  0  0  0  0
   76.9310    9.8820   67.1510 C   0  0  0  0  0
   73.8400    6.6510   67.0670 N   0  0  0  0  0
   72.1640    7.1750   65.5280 N   0  0  0  0  0
   73.9170    8.6700   65.8170 N   0  0  0  0  0
   73.3270    7.5040   66.1480 C   0  0  0  0  0
   75.8890   10.0540   66.2980 N   0  0  0  0  0
   76.8150    8.7240   67.8430 N   0  0  0  0  0
   75.5710    5.8250   68.8400 S   0  0  0  0  0
   77.7554   10.5860   67.2643 H   0  0  0  0  0
   71.6937    6.2995   65.7575 H   0  0  0  0  0
   73.4936    9.2866   65.1235 H   0  0  0  0  0
  1  2  4  0  0  0
  1  7  1  0  0  0
  1  9  4  0  0  0
  2  3  1  0  0  0
  2 10  4  0  0  0
  3  5  1  0  0  0
  3 11  2  0  0  0
  9  4  4  0  0  0
  4 10  4  0  0  0
  5  8  4  0  0  0
  8  6  2  0  0  0
  7  8  1  0  0  0
  4 12  1  0  0  0
  6 13  1  0  0  0
  7 14  1  0  0  0
M  END
$$$$
