5alu_ligand
  -I-interpret- 

 65 70  0  0  0  0  0  0  0  0999 V2000
  -19.0990  -61.7650  -12.1500 C   0  0  0  0  0
  -19.4790  -61.6200  -10.8330 C   0  0  0  0  0
  -18.6010  -60.9580   -9.9920 C   0  0  0  0  0
  -17.4410  -60.4840  -10.4670 N   0  0  0  0  0
  -17.1400  -60.6610  -11.7600 C   0  0  0  0  0
  -17.9320  -61.3140  -12.6300 N   0  0  0  0  0
  -15.8840  -60.1420  -12.1340 N   0  0  0  0  0
  -18.8520  -60.7360   -8.5280 C   0  0  0  0  0
  -17.6900  -61.1970   -7.6760 C   0  0  0  0  0
  -17.8790  -60.4960   -6.3620 C   0  0  0  0  0
  -18.6580  -59.2470   -6.6760 C   0  0  0  0  0
  -19.0040  -59.2850   -8.1510 C   0  0  0  0  0
  -20.8040  -62.1170  -10.4110 C   0  0  0  0  0
  -21.5760  -61.3220   -9.8770 O   0  0  0  0  0
  -21.0640  -63.4460  -10.7160 N   0  0  0  0  0
  -22.3940  -64.0010  -10.4930 C   0  0  0  0  0
  -22.3750  -65.1660   -9.5130 C   0  0  0  0  0
  -21.6800  -66.3690  -10.1190 C   0  0  0  0  0
  -22.3800  -66.7590  -11.4140 C   0  0  0  0  0
  -22.3860  -65.6050  -12.4010 C   0  0  0  0  0
  -23.0870  -64.4070  -11.7880 C   0  0  0  0  0
  -24.5320  -64.7710  -11.4490 C   0  0  0  0  0
  -24.5350  -65.9380  -10.4820 C   0  0  0  0  0
  -23.8200  -67.1290  -11.1210 C   0  0  0  0  0
  -23.8080  -65.5500   -9.2000 C   0  0  0  0  0
  -25.8890  -66.2320  -10.1730 O   0  0  0  0  0
  -15.6390  -59.9350  -13.5610 C   0  0  0  0  0
  -14.9190  -58.6350  -13.7950 C   0  0  0  0  0
  -13.4700  -58.9770  -13.5670 C   0  0  0  0  0
  -13.3530  -60.3970  -13.5460 O   0  0  0  0  0
  -14.6010  -60.9460  -13.9570 C   0  0  0  0  0
  -19.7805  -62.2708  -12.8339 H   0  0  0  0  0
  -15.1737  -59.9195  -11.4367 H   0  0  0  0  0
  -19.7694  -61.2972   -8.3505 H   0  0  0  0  0
  -16.7301  -60.9544   -8.1319 H   0  0  0  0  0
  -17.6754  -62.2807   -7.5603 H   0  0  0  0  0
  -16.9224  -60.2614   -5.8950 H   0  0  0  0  0
  -18.4087  -61.1261   -5.6475 H   0  0  0  0  0
  -18.0666  -58.3608   -6.4458 H   0  0  0  0  0
  -19.5647  -59.2014   -6.0727 H   0  0  0  0  0
  -20.0089  -58.9116   -8.3479 H   0  0  0  0  0
  -18.3579  -58.6362   -8.7423 H   0  0  0  0  0
  -20.3236  -64.0353  -11.0967 H   0  0  0  0  0
  -22.9762  -63.1941  -10.0480 H   0  0  0  0  0
  -21.8388  -64.8633   -8.6136 H   0  0  0  0  0
  -21.7197  -67.2032   -9.4185 H   0  0  0  0  0
  -20.6395  -66.1208  -10.3284 H   0  0  0  0  0
  -21.8397  -67.6023  -11.8442 H   0  0  0  0  0
  -22.9141  -65.9074  -13.3053 H   0  0  0  0  0
  -21.3587  -65.3349  -12.6455 H   0  0  0  0  0
  -23.0560  -63.5878  -12.5064 H   0  0  0  0  0
  -25.0639  -65.0475  -12.3593 H   0  0  0  0  0
  -25.0286  -63.9148  -10.9923 H   0  0  0  0  0
  -23.8443  -67.9765  -10.4359 H   0  0  0  0  0
  -24.3218  -67.3967  -12.0508 H   0  0  0  0  0
  -24.3154  -64.7005   -8.7428 H   0  0  0  0  0
  -23.8108  -66.3980   -8.5152 H   0  0  0  0  0
  -25.9232  -66.9700   -9.5599 H   0  0  0  0  0
  -16.5910  -59.9821  -14.0897 H   0  0  0  0  0
  -15.2669  -57.8439  -13.1308 H   0  0  0  0  0
  -15.0980  -58.2367  -14.7937 H   0  0  0  0  0
  -13.1271  -58.5560  -12.6219 H   0  0  0  0  0
  -12.8538  -58.5593  -14.3632 H   0  0  0  0  0
  -14.6185  -61.1346  -15.0304 H   0  0  0  0  0
  -14.7856  -61.9113  -13.4855 H   0  0  0  0  0
  1  2  4  0  0  0
  1  6  4  0  0  0
  2  3  4  0  0  0
  2 13  1  0  0  0
  3  4  4  0  0  0
  3  8  1  0  0  0
  4  5  4  0  0  0
  5  6  4  0  0  0
  5  7  1  0  0  0
  7 27  1  0  0  0
  8  9  1  0  0  0
  8 12  1  0  0  0
  9 10  1  0  0  0
 10 11  1  0  0  0
 11 12  1  0  0  0
 13 14  2  0  0  0
 13 15  1  0  0  0
 15 16  1  0  0  0
 16 17  1  0  0  0
 16 21  1  0  0  0
 17 18  1  0  0  0
 17 25  1  0  0  0
 18 19  1  0  0  0
 19 20  1  0  0  0
 19 24  1  0  0  0
 20 21  1  0  0  0
 21 22  1  0  0  0
 22 23  1  0  0  0
 23 24  1  0  0  0
 23 25  1  0  0  0
 23 26  1  0  0  0
 27 28  1  0  0  0
 27 31  1  0  0  0
 28 29  1  0  0  0
 29 30  1  0  0  0
 30 31  1  0  0  0
  1 32  1  0  0  0
  7 33  1  0  0  0
  8 34  1  0  0  0
  9 35  1  0  0  0
  9 36  1  0  0  0
 10 37  1  0  0  0
 10 38  1  0  0  0
 11 39  1  0  0  0
 11 40  1  0  0  0
 12 41  1  0  0  0
 12 42  1  0  0  0
 15 43  1  0  0  0
 16 44  1  0  0  0
 17 45  1  0  0  0
 18 46  1  0  0  0
 18 47  1  0  0  0
 19 48  1  0  0  0
 20 49  1  0  0  0
 20 50  1  0  0  0
 21 51  1  0  0  0
 22 52  1  0  0  0
 22 53  1  0  0  0
 24 54  1  0  0  0
 24 55  1  0  0  0
 25 56  1  0  0  0
 25 57  1  0  0  0
 26 58  1  0  0  0
 27 59  1  0  0  0
 28 60  1  0  0  0
 28 61  1  0  0  0
 29 62  1  0  0  0
 29 63  1  0  0  0
 31 64  1  0  0  0
 31 65  1  0  0  0
M  END
$$$$
