5edb_ligand
  -I-interpret- 

 33 35  0  0  0  0  0  0  0  0999 V2000
    6.2500    8.0400   19.1300 C   0  0  0  0  0
    5.7890    7.7450   21.4630 C   0  0  0  0  0
    4.6360    7.2330   17.3440 C   0  0  0  0  0
    3.7690    6.6660   22.2030 C   0  0  0  0  0
    2.7900    4.8440   19.5660 C   0  0  0  0  0
    1.6040    4.1590   19.3230 C   0  0  0  0  0
    0.5060    4.8410   18.8260 C   0  0  0  0  0
    5.0240    7.3700   18.7530 C   0  0  0  0  0
    4.1950    6.9250   19.7530 C   0  0  0  0  0
    4.5470    7.0900   21.1210 C   0  0  0  0  0
    6.5950    8.1930   20.4280 N   0  0  0  0  0
    2.9090    6.2500   19.4250 C   0  0  0  0  0
    4.1150    8.0870   16.6380 O   0  0  0  0  0
    6.1470    7.9100   22.8130 C   0  0  0  0  0
    4.1800    6.8400   23.5240 C   0  0  0  0  0
    4.7970    5.9890   16.8560 O   0  0  0  0  0
    5.3910    7.4920   23.8340 C   0  0  0  0  0
    3.2510    6.2730   24.8000 Cl  0  0  0  0  0
    7.1100    8.5310   17.9870 C   0  0  0  0  0
    1.7460    6.9280   18.9590 C   0  0  0  0  0
    0.5750    6.2270   18.6490 C   0  0  0  0  0
    2.8110    6.1843   22.0075 H   0  0  0  0  0
    3.6659    4.2754   19.8784 H   0  0  0  0  0
    1.5391    3.0895   19.5230 H   0  0  0  0  0
   -0.4067    4.3010   18.5742 H   0  0  0  0  0
    7.0913    8.4051   23.0393 H   0  0  0  0  0
    5.2158    5.4374   17.5208 H   0  0  0  0  0
    5.6997    7.6496   24.8674 H   0  0  0  0  0
    7.4032    7.6851   17.3652 H   0  0  0  0  0
    6.5438    9.2446   17.3885 H   0  0  0  0  0
    8.0007    9.0159   18.3865 H   0  0  0  0  0
    1.7685    8.0115   18.8419 H   0  0  0  0  0
   -0.2915    6.7661   18.2660 H   0  0  0  0  0
  8  1  4  0  0  0
  1 11  4  0  0  0
  1 19  1  0  0  0
 10  2  4  0  0  0
  2 11  4  0  0  0
  2 14  4  0  0  0
  8  3  1  0  0  0
  3 13  2  0  0  0
  3 16  1  0  0  0
 10  4  4  0  0  0
  4 15  4  0  0  0
  5  6  4  0  0  0
 12  5  4  0  0  0
  6  7  4  0  0  0
  7 21  4  0  0  0
  9  8  4  0  0  0
  9 10  4  0  0  0
  9 12  1  0  0  0
 12 20  4  0  0  0
 14 17  4  0  0  0
 15 17  4  0  0  0
 15 18  1  0  0  0
 20 21  4  0  0  0
  4 22  1  0  0  0
  5 23  1  0  0  0
  6 24  1  0  0  0
  7 25  1  0  0  0
 14 26  1  0  0  0
 16 27  1  0  0  0
 17 28  1  0  0  0
 19 29  1  0  0  0
 19 30  1  0  0  0
 19 31  1  0  0  0
 20 32  1  0  0  0
 21 33  1  0  0  0
M  END
$$$$
