3ud5_ligand
  -I-interpret- 

 74 79  0  0  0  0  0  0  0  0999 V2000
   20.7030    5.8660    2.4850 C   0  0  0  0  0
   22.6820    5.2950    5.2710 N   0  0  0  0  0
   20.9620    5.6960    3.8640 O   0  0  0  0  0
   18.3160    4.2010    2.4150 S   0  0  0  0  0
   21.7210    4.9290    1.7760 C   0  0  0  0  0
   23.3740    5.4700    7.3970 N   0  0  0  0  0
   22.1950    5.4360    0.5820 O   0  0  0  0  0
   22.9240    4.8700    2.7810 C   0  0  0  0  0
   23.3330    3.2540    9.2810 N   0  0  0  0  0
   24.1230    5.3520    2.2800 O   0  0  0  0  0
   22.3720    5.7400    3.9590 C   0  0  0  0  0
   22.4010    1.8920    7.5190 N   0  0  0  0  0
   11.0710   -1.1910    9.5700 O   0  0  0  0  0
   23.2020    6.1100    6.2580 C   0  0  0  0  0
   22.0050    2.8810    5.2990 N   0  0  0  0  0
   22.9390    4.1990    7.1650 C   0  0  0  0  0
   15.1400    3.7430    5.8120 N   0  3  0  0  0
   22.8830    3.0980    8.0160 C   0  0  0  0  0
   21.9960    1.8780    6.2100 C   0  0  0  0  0
    7.5570    0.9370   10.0510 N   0  0  0  0  0
   22.4920    4.0320    5.8300 C   0  0  0  0  0
    6.8520   -0.7580   11.4980 N   0  0  0  0  0
   19.2000    5.7580    2.1580 C   0  0  0  0  0
    9.0230   -0.9820   10.5180 N   0  0  0  0  0
   17.0630    4.5250    3.7320 C   0  0  0  0  0
   10.7660    1.2710    8.1450 N   0  0  0  0  0
   15.7050    3.9590    3.3030 C   0  0  0  0  0
    8.2540    2.6470    8.5870 N   0  0  0  0  0
   14.6870    4.1590    4.4450 C   0  0  0  0  0
   16.5380    4.1460    6.1430 C   0  0  0  0  0
   17.5400    3.8580    5.0330 C   0  0  0  0  0
   14.8570    2.3250    6.1510 C   0  0  0  0  0
   11.3590    3.2130    6.6130 C   0  0  0  0  0
    7.8330   -0.2550   10.6690 C   0  0  0  0  0
   10.0720   -0.5120    9.6630 C   0  0  0  0  0
   10.4390    2.4710    7.5640 C   0  0  0  0  0
    9.1960    3.1240    7.7840 C   0  0  0  0  0
    8.5550    1.4280    9.2140 C   0  0  0  0  0
    9.7960    0.7610    8.9850 C   0  0  0  0  0
   13.5910    2.3440    7.0300 C   0  0  0  0  0
   12.4520    2.4250    6.0770 N   0  3  0  0  0
   20.8759    6.8694    2.0959 H   0  0  0  0  0
   21.2542    3.9732    1.5380 H   0  0  0  0  0
   21.4761    5.4826   -0.0525 H   0  0  0  0  0
   23.1996    3.8506    3.0511 H   0  0  0  0  0
   23.3298    2.4627    9.9247 H   0  0  0  0  0
   23.6757    4.1630    9.5919 H   0  0  0  0  0
   24.4191    4.7868    1.5627 H   0  0  0  0  0
   22.8358    6.7199    3.8455 H   0  0  0  0  0
   23.4427    7.1629    6.1112 H   0  0  0  0  0
   14.5432    4.2900    6.4325 H   0  0  0  0  0
   21.6117    0.9236    5.8502 H   0  0  0  0  0
    6.6770    1.4323   10.1952 H   0  0  0  0  0
    7.0002   -1.6414   11.9859 H   0  0  0  0  0
   19.1463    5.9233    1.0819 H   0  0  0  0  0
   18.7239    6.4546    2.8480 H   0  0  0  0  0
   16.9506    5.5971    3.8933 H   0  0  0  0  0
   15.8048    2.8958    3.0846 H   0  0  0  0  0
   15.3585    4.4783    2.4095 H   0  0  0  0  0
   14.4959    5.2307    4.4996 H   0  0  0  0  0
   13.8295    3.5311    4.2032 H   0  0  0  0  0
   16.8447    3.5689    7.0154 H   0  0  0  0  0
   16.5354    5.2236    6.3069 H   0  0  0  0  0
   18.5161    4.2559    5.3104 H   0  0  0  0  0
   17.6191    2.7812    4.8832 H   0  0  0  0  0
   15.6962    1.8693    6.6765 H   0  0  0  0  0
   14.7054    1.7266    5.2527 H   0  0  0  0  0
   11.8078    4.0277    7.1812 H   0  0  0  0  0
   10.7496    3.5237    5.7643 H   0  0  0  0  0
    9.0071    4.0646    7.2666 H   0  0  0  0  0
   13.5957    3.1864    7.7217 H   0  0  0  0  0
   13.5257    1.4557    7.6583 H   0  0  0  0  0
   12.7805    2.8717    5.2209 H   0  0  0  0  0
   12.1112    1.4796    5.9025 H   0  0  0  0  0
  1  3  1  0  0  0
  1  5  1  0  0  0
 23  1  1  0  0  0
 11  2  1  0  0  0
  2 14  4  0  0  0
  2 21  4  0  0  0
  3 11  1  0  0  0
  4 23  1  0  0  0
 25  4  1  0  0  0
  5  7  1  0  0  0
  5  8  1  0  0  0
 14  6  4  0  0  0
 16  6  4  0  0  0
  8 10  1  0  0  0
  8 11  1  0  0  0
 18  9  1  0  0  0
 18 12  4  0  0  0
 19 12  4  0  0  0
 35 13  2  0  0  0
 15 19  4  0  0  0
 21 15  4  0  0  0
 16 18  4  0  0  0
 21 16  4  0  0  0
 17 29  1  0  0  0
 17 30  1  0  0  0
 32 17  1  0  0  0
 20 34  1  0  0  0
 38 20  1  0  0  0
 34 22  2  0  0  0
 24 34  4  0  0  0
 35 24  1  0  0  0
 27 25  1  0  0  0
 31 25  1  0  0  0
 36 26  4  0  0  0
 26 39  4  0  0  0
 29 27  1  0  0  0
 37 28  4  0  0  0
 28 38  4  0  0  0
 30 31  1  0  0  0
 40 32  1  0  0  0
 33 36  1  0  0  0
 41 33  1  0  0  0
 39 35  1  0  0  0
 36 37  4  0  0  0
 39 38  4  0  0  0
 40 41  1  0  0  0
  1 42  1  0  0  0
  5 43  1  0  0  0
  7 44  1  0  0  0
  8 45  1  0  0  0
  9 46  1  0  0  0
  9 47  1  0  0  0
 10 48  1  0  0  0
 11 49  1  0  0  0
 14 50  1  0  0  0
 17 51  1  0  0  0
 19 52  1  0  0  0
 20 53  1  0  0  0
 22 54  1  0  0  0
 23 55  1  0  0  0
 23 56  1  0  0  0
 25 57  1  0  0  0
 27 58  1  0  0  0
 27 59  1  0  0  0
 29 60  1  0  0  0
 29 61  1  0  0  0
 30 62  1  0  0  0
 30 63  1  0  0  0
 31 64  1  0  0  0
 31 65  1  0  0  0
 32 66  1  0  0  0
 32 67  1  0  0  0
 33 68  1  0  0  0
 33 69  1  0  0  0
 37 70  1  0  0  0
 40 71  1  0  0  0
 40 72  1  0  0  0
 41 73  1  0  0  0
 41 74  1  0  0  0
M  END
$$$$
