6ehh_ligand
  -I-interpret- 

 31 33  0  0  0  0  0  0  0  0999 V2000
   10.2600   -4.6220   11.7090 C   0  0  0  0  0
    9.1520   -7.7720   12.3360 C   0  0  0  0  0
    8.5260   -1.6820    9.3040 N   0  0  0  0  0
    9.1310   -2.7080   10.1470 C   0  0  0  0  0
   10.4500   -2.7060   10.3140 N   0  0  0  0  0
   11.0300   -3.6340   11.0720 C   0  0  0  0  0
   12.5590   -3.5590   11.2280 C   0  0  0  0  0
   13.1170   -2.3320   11.5970 C   0  0  0  0  0
   14.4960   -2.2070   11.7420 C   0  0  0  0  0
   15.3300   -3.3010   11.5130 C   0  0  0  0  0
   14.7750   -4.5260   11.1410 C   0  0  0  0  0
   15.8380   -5.9330   10.8450 Cl  0  0  0  0  0
   13.3930   -4.6600   10.9940 C   0  0  0  0  0
   12.7330   -6.2500   10.5170 Cl  0  0  0  0  0
    8.8710   -4.5880   11.4950 C   0  0  0  0  0
    7.9630   -5.5650   12.0910 N   0  0  0  0  0
    8.4520   -6.5910   13.0040 C   0  0  0  0  0
    7.7340   -7.9340   12.8950 C   0  0  0  0  0
    8.3620   -3.6300   10.7240 N   0  0  0  0  0
   10.7197   -5.3815   12.3414 H   0  0  0  0  0
   10.1126   -8.2854   12.3793 H   0  0  0  0  0
    9.6996   -7.9866   11.4183 H   0  0  0  0  0
    9.1133   -0.9795    8.8547 H   0  0  0  0  0
    7.5158   -1.6674    9.1640 H   0  0  0  0  0
   12.4714   -1.4713   11.7716 H   0  0  0  0  0
   14.9259   -1.2494   12.0359 H   0  0  0  0  0
   16.4096   -3.1997   11.6240 H   0  0  0  0  0
    6.9692   -5.5287   11.8643 H   0  0  0  0  0
    8.7010   -5.9102   13.8180 H   0  0  0  0  0
    7.1800   -8.6204   13.5354 H   0  0  0  0  0
    6.7670   -8.3216   12.5743 H   0  0  0  0  0
  1  6  4  0  0  0
 15  1  4  0  0  0
 17  2  1  0  0  0
  2 18  1  0  0  0
  4  3  1  0  0  0
  4  5  4  0  0  0
 19  4  4  0  0  0
  6  5  4  0  0  0
  6  7  1  0  0  0
  7  8  4  0  0  0
  7 13  4  0  0  0
  8  9  4  0  0  0
  9 10  4  0  0  0
 11 10  4  0  0  0
 11 12  1  0  0  0
 13 11  4  0  0  0
 13 14  1  0  0  0
 16 15  1  0  0  0
 15 19  4  0  0  0
 16 17  1  0  0  0
 17 18  1  0  0  0
  1 20  1  0  0  0
  2 21  1  0  0  0
  2 22  1  0  0  0
  3 23  1  0  0  0
  3 24  1  0  0  0
  8 25  1  0  0  0
  9 26  1  0  0  0
 10 27  1  0  0  0
 16 28  1  0  0  0
 17 29  1  0  0  0
 18 30  1  0  0  0
 18 31  1  0  0  0
M  END
$$$$
