3oy0_ligand
  -I-interpret- 

 45 45  0  0  0  0  0  0  0  0999 V2000
   -0.7630    9.2030   14.8930 C   0  0  0  0  0
   -0.9660    6.4220   10.6070 C   0  0  0  0  0
   -2.4710    8.1060    9.7820 C   0  0  0  0  0
   -3.3330    5.8950   10.2970 C   0  0  0  0  0
   -5.3370   -0.4290   16.1280 N   0  0  0  0  0
   -4.6840    6.6930   13.0190 O   0  0  0  0  0
   -7.3160    1.2060   16.6320 O   0  0  0  0  0
   -5.3820    1.2190   18.1210 O   0  0  0  0  0
   -3.0910    3.2550   14.8580 C   0  0  0  0  0
   -5.1380    4.4490   14.5580 C   0  0  0  0  0
   -3.7510    2.2800   15.5990 C   0  0  0  0  0
   -5.8180    3.4470   15.2740 C   0  0  0  0  0
   -1.6300    8.1190   14.3540 C   0  0  0  0  0
   -1.4350    7.7540   12.9180 C   0  0  0  0  0
   -2.9380    5.3070   13.6040 N   0  0  0  0  0
   -3.4910    6.4630   12.9350 C   0  0  0  0  0
   -3.7530    4.3630   14.3540 C   0  0  0  0  0
   -5.1150    2.3410   15.8070 C   0  0  0  0  0
   -2.6560    7.4230   12.1320 C   0  0  0  0  0
   -2.3540    6.9510   10.7230 C   0  0  0  0  0
   -5.8580    1.0130   16.7430 S   0  0  0  0  0
    0.2827    8.9096   14.8012 H   0  0  0  0  0
   -0.9356   10.1192   14.3283 H   0  0  0  0  0
   -1.0037    9.3709   15.9427 H   0  0  0  0  0
   -0.2563    7.2075   10.8668 H   0  0  0  0  0
   -0.8418    5.5790   11.2868 H   0  0  0  0  0
   -0.7880    6.0939    9.5829 H   0  0  0  0  0
   -3.4837    8.5068    9.8249 H   0  0  0  0  0
   -1.7598    8.8805   10.0692 H   0  0  0  0  0
   -2.2545    7.7702    8.7679 H   0  0  0  0  0
   -3.2670    5.0450   10.9762 H   0  0  0  0  0
   -4.3425    6.3053   10.3234 H   0  0  0  0  0
   -3.0976    5.5709    9.2833 H   0  0  0  0  0
   -6.0072   -1.0827   15.7230 H   0  0  0  0  0
   -4.3452   -0.6657   16.1533 H   0  0  0  0  0
   -2.0233    3.1442   14.6686 H   0  0  0  0  0
   -5.6917    5.2987   14.1587 H   0  0  0  0  0
   -3.1814    1.4531   16.0231 H   0  0  0  0  0
   -6.8956    3.5234   15.4193 H   0  0  0  0  0
   -2.6533    8.4857   14.4340 H   0  0  0  0  0
   -1.3835    7.2250   14.9268 H   0  0  0  0  0
   -0.8288    6.8482   12.9211 H   0  0  0  0  0
   -1.0054    8.6359   12.4427 H   0  0  0  0  0
   -1.9324    5.1459   13.5479 H   0  0  0  0  0
   -3.2356    8.3312   11.9668 H   0  0  0  0  0
 13  1  1  0  0  0
 20  2  1  0  0  0
 20  3  1  0  0  0
 20  4  1  0  0  0
 21  5  1  0  0  0
 16  6  2  0  0  0
 21  7  2  0  0  0
 21  8  2  0  0  0
  9 11  4  0  0  0
 17  9  4  0  0  0
 10 12  4  0  0  0
 17 10  4  0  0  0
 11 18  4  0  0  0
 12 18  4  0  0  0
 14 13  1  0  0  0
 19 14  1  0  0  0
 16 15  1  0  0  0
 15 17  1  0  0  0
 19 16  1  0  0  0
 18 21  1  0  0  0
 19 20  1  0  0  0
  1 22  1  0  0  0
  1 23  1  0  0  0
  1 24  1  0  0  0
  2 25  1  0  0  0
  2 26  1  0  0  0
  2 27  1  0  0  0
  3 28  1  0  0  0
  3 29  1  0  0  0
  3 30  1  0  0  0
  4 31  1  0  0  0
  4 32  1  0  0  0
  4 33  1  0  0  0
  5 34  1  0  0  0
  5 35  1  0  0  0
  9 36  1  0  0  0
 10 37  1  0  0  0
 11 38  1  0  0  0
 12 39  1  0  0  0
 13 40  1  0  0  0
 13 41  1  0  0  0
 14 42  1  0  0  0
 14 43  1  0  0  0
 15 44  1  0  0  0
 19 45  1  0  0  0
M  END
$$$$
