1e72_ligand
  -I-interpret- 

 27 27  0  0  0  0  0  0  0  0999 V2000
   46.7020  119.7400   53.1760 C   0  0  0  0  0
   46.2750  118.9950   52.1470 N   0  0  0  0  0
   47.7740  119.0850   54.0360 C   0  0  0  0  0
   46.6980  121.0720   52.8070 N   0  0  0  0  0
   45.6150  119.4710   51.1010 O   0  0  0  0  0
   47.1030  117.9310   54.5760 O   0  0  0  0  0
   48.2040  120.2250   54.9390 C   0  0  0  0  0
   49.3070  119.6210   55.6010 O   0  0  0  0  0
   48.6440  121.4580   54.0870 C   0  0  0  0  0
   49.2470  122.4450   54.9200 O   0  0  0  0  0
   47.2400  122.1220   53.6360 C   0  0  0  0  0
   47.2410  123.3410   52.7700 C   0  0  0  0  0
   48.1270  123.2430   51.5990 O   0  0  0  0  0
   46.0142  119.7803   54.0206 H   0  0  0  0  0
   45.5851  118.3852   52.5858 H   0  0  0  0  0
   48.6974  118.6887   53.6136 H   0  0  0  0  0
   45.7041  121.2981   52.7678 H   0  0  0  0  0
   45.4153  118.7528   50.4961 H   0  0  0  0  0
   46.9067  117.3151   53.8662 H   0  0  0  0  0
   47.4352  120.6096   55.6092 H   0  0  0  0  0
   48.9991  118.8695   56.1129 H   0  0  0  0  0
   49.3256  121.1638   53.2889 H   0  0  0  0  0
   49.5121  123.1959   54.3839 H   0  0  0  0  0
   46.7302  122.4556   54.5398 H   0  0  0  0  0
   47.6011  124.1700   53.3793 H   0  0  0  0  0
   46.2255  123.4732   52.3968 H   0  0  0  0  0
   48.0768  124.0567   51.0921 H   0  0  0  0  0
  1  2  1  0  0  0
  1  3  1  0  0  0
  1  4  1  0  0  0
  2  5  1  0  0  0
  3  6  1  0  0  0
  3  7  1  0  0  0
  4 11  1  0  0  0
  7  8  1  0  0  0
  7  9  1  0  0  0
  9 10  1  0  0  0
  9 11  1  0  0  0
 11 12  1  0  0  0
 12 13  1  0  0  0
  1 14  1  0  0  0
  2 15  1  0  0  0
  3 16  1  0  0  0
  4 17  1  0  0  0
  5 18  1  0  0  0
  6 19  1  0  0  0
  7 20  1  0  0  0
  8 21  1  0  0  0
  9 22  1  0  0  0
 10 23  1  0  0  0
 11 24  1  0  0  0
 12 25  1  0  0  0
 12 26  1  0  0  0
 13 27  1  0  0  0
M  END
$$$$
