6nmb_ligand
  -I-interpret- 

 27 27  0  0  0  0  0  0  0  0999 V2000
   56.8140   -4.9740  109.1180 C   0  0  0  0  0
   55.6900   -5.0740  108.0560 C   0  0  0  0  0
   55.6020   -6.4900  107.4480 C   0  0  0  0  0
   56.7940   -7.4510  107.8200 C   0  0  0  0  0
   57.1800   -7.4920  109.3070 C   0  0  0  0  0
   56.8200   -6.1900  110.0720 C   0  0  0  0  0
   56.5450   -8.8720  107.3570 C   0  0  0  0  0
   56.7670   -3.6190  109.8550 C   0  0  0  0  0
   55.4490   -8.9820  106.3750 N   0  3  0  0  0
   56.9120   -2.6010  109.1390 O   0  0  0  0  0
   56.5680   -3.6160  111.0930 O   0  0  0  0  0
   57.7708   -5.0081  108.5969 H   0  0  0  0  0
   55.9118   -4.3696  107.2543 H   0  0  0  0  0
   54.7397   -4.8488  108.5400 H   0  0  0  0  0
   55.6223   -6.3688  106.3650 H   0  0  0  0  0
   54.6950   -6.9464  107.8444 H   0  0  0  0  0
   57.6337   -7.0063  107.2860 H   0  0  0  0  0
   58.2612   -7.6183  109.3630 H   0  0  0  0  0
   56.6253   -8.3089  109.7686 H   0  0  0  0  0
   55.8258   -6.3011  110.5048 H   0  0  0  0  0
   57.5657   -6.0223  110.8491 H   0  0  0  0  0
   56.2642   -9.4591  108.2314 H   0  0  0  0  0
   57.4562   -9.2260  106.8749 H   0  0  0  0  0
   55.3328   -9.9587  106.1050 H   0  0  0  0  0
   54.5842   -8.6382  106.7925 H   0  0  0  0  0
   55.6751   -8.4248  105.5511 H   0  0  0  0  0
   56.4912   -4.5203  111.4058 H   0  0  0  0  0
  1  2  1  0  0  0
  1  6  1  0  0  0
  1  8  1  0  0  0
  2  3  1  0  0  0
  3  4  1  0  0  0
  4  5  1  0  0  0
  4  7  1  0  0  0
  5  6  1  0  0  0
  7  9  1  0  0  0
  8 10  2  0  0  0
  8 11  1  0  0  0
  1 12  1  0  0  0
  2 13  1  0  0  0
  2 14  1  0  0  0
  3 15  1  0  0  0
  3 16  1  0  0  0
  4 17  1  0  0  0
  5 18  1  0  0  0
  5 19  1  0  0  0
  6 20  1  0  0  0
  6 21  1  0  0  0
  7 22  1  0  0  0
  7 23  1  0  0  0
  9 24  1  0  0  0
  9 25  1  0  0  0
  9 26  1  0  0  0
 11 27  1  0  0  0
M  END
$$$$
