4bbh_ligand
  -I-interpret- 

 52 55  0  0  0  0  0  0  0  0999 V2000
   24.8180   49.9600   64.2900 C   0  0  0  0  0
   27.4310   41.0870   68.0210 N   0  3  0  0  0
   25.1070   49.1830   63.1240 O   0  0  0  0  0
   22.4330   41.8270   63.0790 S   0  0  0  0  0
   24.2120   48.2680   62.5730 C   0  0  0  0  0
   24.8340   43.8320   62.8490 O   0  0  0  0  0
   23.1270   48.7210   61.7960 C   0  0  0  0  0
   26.2070   42.0820   63.5580 O   0  0  0  0  0
   22.2120   47.8150   61.2490 C   0  0  0  0  0
   24.9680   40.3950   65.5620 O   0  0  0  0  0
   22.3890   46.4420   61.4870 C   0  0  0  0  0
   23.4690   45.9250   62.2270 C   0  0  0  0  0
   23.5730   44.3960   62.4110 C   0  0  0  0  0
   25.0790   42.4940   63.3910 C   0  0  0  0  0
   23.9600   41.6420   63.8310 C   0  0  0  0  0
   21.6810   40.6300   64.0340 C   0  0  0  0  0
   20.3230   40.2240   63.9960 C   0  0  0  0  0
   19.8460   39.2470   64.9260 C   0  0  0  0  0
   20.7390   38.6940   65.8340 C   0  0  0  0  0
   22.0770   39.0870   65.8940 C   0  0  0  0  0
   22.5590   40.0680   64.9900 C   0  0  0  0  0
   23.8590   40.6740   64.8260 C   0  0  0  0  0
   24.8370   40.5390   66.9870 C   0  0  0  0  0
   25.6540   39.4510   67.6990 C   0  0  0  0  0
   27.1150   39.7770   67.4110 C   0  0  0  0  0
   26.6450   42.2520   67.7150 C   0  0  0  0  0
   25.1820   41.9800   67.4510 C   0  0  0  0  0
   24.3820   46.8690   62.7700 C   0  0  0  0  0
   23.9402   50.5790   64.1042 H   0  0  0  0  0
   24.6229   49.2934   65.1301 H   0  0  0  0  0
   25.6714   50.5975   64.5209 H   0  0  0  0  0
   28.3585   41.3115   67.6609 H   0  0  0  0  0
   27.2788   40.9396   69.0188 H   0  0  0  0  0
   22.9993   49.7890   61.6193 H   0  0  0  0  0
   21.3748   48.1690   60.6475 H   0  0  0  0  0
   21.6565   45.7450   61.0800 H   0  0  0  0  0
   22.8650   44.1574   63.2047 H   0  0  0  0  0
   23.4059   43.9791   61.4178 H   0  0  0  0  0
   19.6442   40.6551   63.2602 H   0  0  0  0  0
   18.7995   38.9421   64.9218 H   0  0  0  0  0
   20.3835   37.9276   66.5227 H   0  0  0  0  0
   22.7468   38.6431   66.6305 H   0  0  0  0  0
   23.7944   40.3917   67.2686 H   0  0  0  0  0
   25.3903   38.4565   67.3391 H   0  0  0  0  0
   25.4529   39.4401   68.7702 H   0  0  0  0  0
   27.7591   39.0049   67.8318 H   0  0  0  0  0
   27.2828   39.8169   66.3347 H   0  0  0  0  0
   27.0568   42.6797   66.8009 H   0  0  0  0  0
   26.6927   42.9034   68.5876 H   0  0  0  0  0
   24.6645   42.1310   68.3984 H   0  0  0  0  0
   24.8865   42.6444   66.6390 H   0  0  0  0  0
   25.2327   46.5130   63.3512 H   0  0  0  0  0
  3  1  1  0  0  0
 25  2  1  0  0  0
  2 26  1  0  0  0
  5  3  1  0  0  0
 15  4  4  0  0  0
 16  4  4  0  0  0
  5  7  4  0  0  0
 28  5  4  0  0  0
  6 13  1  0  0  0
 14  6  1  0  0  0
  9  7  4  0  0  0
 14  8  2  0  0  0
 11  9  4  0  0  0
 10 22  1  0  0  0
 23 10  1  0  0  0
 12 11  4  0  0  0
 13 12  1  0  0  0
 12 28  4  0  0  0
 15 14  1  0  0  0
 22 15  4  0  0  0
 16 17  4  0  0  0
 21 16  4  0  0  0
 17 18  4  0  0  0
 19 18  4  0  0  0
 20 19  4  0  0  0
 21 20  4  0  0  0
 22 21  4  0  0  0
 24 23  1  0  0  0
 23 27  1  0  0  0
 24 25  1  0  0  0
 26 27  1  0  0  0
  1 29  1  0  0  0
  1 30  1  0  0  0
  1 31  1  0  0  0
  2 32  1  0  0  0
  2 33  1  0  0  0
  7 34  1  0  0  0
  9 35  1  0  0  0
 11 36  1  0  0  0
 13 37  1  0  0  0
 13 38  1  0  0  0
 17 39  1  0  0  0
 18 40  1  0  0  0
 19 41  1  0  0  0
 20 42  1  0  0  0
 23 43  1  0  0  0
 24 44  1  0  0  0
 24 45  1  0  0  0
 25 46  1  0  0  0
 25 47  1  0  0  0
 26 48  1  0  0  0
 26 49  1  0  0  0
 27 50  1  0  0  0
 27 51  1  0  0  0
 28 52  1  0  0  0
M  END
$$$$
