4bg1_ligand
  -I-interpret- 

 30 30  0  0  0  0  0  0  0  0999 V2000
   21.9340   33.1590   87.3770 C   0  0  0  0  0
   22.8010   33.1980   86.1520 C   0  0  0  0  0
   23.8190   32.0870   86.2900 C   0  0  0  0  0
   23.9090   31.8790   87.7860 C   0  0  0  0  0
   22.5100   32.5920   89.6990 C   0  0  0  0  0
   21.5730   31.0740   88.0260 C   0  0  0  0  0
   21.8110   29.7500   88.6350 C   0  0  0  0  0
   21.1390   28.7540   87.6630 C   0  0  0  0  0
   21.6300   27.4540   88.1920 C   0  0  0  0  0
   22.5310   32.1420   88.2900 N   0  3  0  0  0
   20.8920   26.5750   88.5800 O   0  0  0  0  0
   22.9340   27.3330   88.2630 O   0  0  0  0  0
   20.9080   32.8960   87.1194 H   0  0  0  0  0
   21.8941   34.1369   87.8568 H   0  0  0  0  0
   23.2969   34.1646   86.0629 H   0  0  0  0  0
   22.2013   33.0600   85.2523 H   0  0  0  0  0
   24.7803   32.3417   85.8438 H   0  0  0  0  0
   23.5262   31.1819   85.7579 H   0  0  0  0  0
   24.6425   32.5421   88.2447 H   0  0  0  0  0
   24.2479   30.8738   88.0365 H   0  0  0  0  0
   21.5161   32.9657   89.9449 H   0  0  0  0  0
   22.7558   31.7535   90.3506 H   0  0  0  0  0
   23.2428   33.3872   89.8361 H   0  0  0  0  0
   20.6330   31.4210   88.4551 H   0  0  0  0  0
   21.6215   30.9064   86.9501 H   0  0  0  0  0
   21.3982   29.6819   89.6415 H   0  0  0  0  0
   22.8735   29.5433   88.7636 H   0  0  0  0  0
   21.3919   28.9248   86.6166 H   0  0  0  0  0
   20.0523   28.8337   87.6361 H   0  0  0  0  0
   23.3474   28.1245   87.9105 H   0  0  0  0  0
  1  2  1  0  0  0
 10  1  1  0  0  0
  3  2  1  0  0  0
  4  3  1  0  0  0
 10  4  1  0  0  0
 10  5  1  0  0  0
  6  7  1  0  0  0
  6 10  1  0  0  0
  7  8  1  0  0  0
  8  9  1  0  0  0
  9 11  2  0  0  0
  9 12  1  0  0  0
  1 13  1  0  0  0
  1 14  1  0  0  0
  2 15  1  0  0  0
  2 16  1  0  0  0
  3 17  1  0  0  0
  3 18  1  0  0  0
  4 19  1  0  0  0
  4 20  1  0  0  0
  5 21  1  0  0  0
  5 22  1  0  0  0
  5 23  1  0  0  0
  6 24  1  0  0  0
  6 25  1  0  0  0
  7 26  1  0  0  0
  7 27  1  0  0  0
  8 28  1  0  0  0
  8 29  1  0  0  0
 12 30  1  0  0  0
M  END
$$$$
