3f39_ligand
  -I-interpret- 

 13 13  0  0  0  0  0  0  0  0999 V2000
   34.5290    0.4680   35.6510 C   0  0  0  0  0
   35.6710   -0.2940   35.8590 C   0  0  0  0  0
   36.5210   -0.5810   34.8000 C   0  0  0  0  0
   36.2290   -0.1060   33.5240 C   0  0  0  0  0
   35.0840    0.6540   33.3100 C   0  0  0  0  0
   34.2310    0.9400   34.3770 C   0  0  0  0  0
   33.6930    0.7410   36.7020 O   0  0  0  0  0
   35.9006   -0.6678   36.8568 H   0  0  0  0  0
   37.4173   -1.1783   34.9672 H   0  0  0  0  0
   36.8978   -0.3298   32.6929 H   0  0  0  0  0
   34.8534    1.0253   32.3115 H   0  0  0  0  0
   33.3315    1.5331   34.2120 H   0  0  0  0  0
   32.9564    1.2738   36.3935 H   0  0  0  0  0
  1  2  4  0  0  0
  1  6  4  0  0  0
  1  7  1  0  0  0
  2  3  4  0  0  0
  3  4  4  0  0  0
  4  5  4  0  0  0
  5  6  4  0  0  0
  2  8  1  0  0  0
  3  9  1  0  0  0
  4 10  1  0  0  0
  5 11  1  0  0  0
  6 12  1  0  0  0
  7 13  1  0  0  0
M  END
$$$$
