6qmk_ligand
  -I-interpret- 

 66 70  0  0  0  0  0  0  0  0999 V2000
   13.6550   65.6600   22.9600 C   0  0  0  0  0
   13.1050   64.5240   23.6290 O   0  0  0  0  0
   13.8690   63.9040   24.5850 C   0  0  0  0  0
   15.0880   64.3680   25.0760 C   0  0  0  0  0
   15.7970   63.6630   26.0540 C   0  0  0  0  0
   15.2520   62.4720   26.5310 C   0  0  0  0  0
   14.0160   62.0020   26.0330 C   0  0  0  0  0
   13.3060   60.8820   26.3500 N   0  0  0  0  0
   12.2070   60.8730   25.6160 N   0  0  0  0  0
   12.2290   61.9920   24.8360 N   0  0  0  0  0
   11.1330   62.2540   23.9120 C   0  0  0  0  0
   13.3470   62.7050   25.0840 C   0  0  0  0  0
   17.1340   64.1560   26.6030 C   0  0  0  0  0
   17.6980   65.3510   25.8450 C   0  0  0  0  0
   18.0010   65.0730   24.3810 C   0  0  0  0  0
   18.5720   64.0040   24.0640 O   0  0  0  0  0
   17.6450   65.9640   23.5730 O   0  0  0  0  0
   17.0750   64.4340   28.0980 C   0  0  0  0  0
   18.1020   64.0040   28.9280 C   0  0  0  0  0
   18.0550   64.2530   30.2890 C   0  0  0  0  0
   16.9860   64.9340   30.8550 C   0  0  0  0  0
   16.9860   65.1780   32.3420 C   0  0  0  0  0
   15.9440   65.3740   30.0310 C   0  0  0  0  0
   14.7590   66.1190   30.5980 C   0  0  0  0  0
   13.7980   65.2330   31.2950 N   0  0  0  0  0
   13.1830   64.1810   30.4460 C   0  0  0  0  0
   12.0720   64.7110   29.5410 C   0  0  0  0  0
   10.9000   65.0900   30.2870 O   0  0  0  0  0
   10.8510   66.3990   30.7340 C   0  0  0  0  0
    9.9160   67.2400   30.1510 C   0  0  0  0  0
    9.8230   68.5510   30.5570 C   0  0  0  0  0
   10.6640   69.0340   31.5510 C   0  0  0  0  0
   11.5990   68.1960   32.1350 C   0  0  0  0  0
   11.6870   66.8780   31.7220 C   0  0  0  0  0
   12.8920   65.8370   32.4910 S   0  0  0  0  0
   12.1970   64.7530   33.1050 O   0  0  0  0  0
   13.7400   66.6590   33.2960 O   0  0  0  0  0
   16.0100   65.1150   28.6690 C   0  0  0  0  0
   13.8790   66.4372   23.6907 H   0  0  0  0  0
   14.5706   65.3688   22.4452 H   0  0  0  0  0
   12.9337   66.0378   22.2354 H   0  0  0  0  0
   15.4979   65.3010   24.6893 H   0  0  0  0  0
   15.7823   61.9000   27.2924 H   0  0  0  0  0
   11.0576   61.4340   23.1979 H   0  0  0  0  0
   10.2008   62.3379   24.4706 H   0  0  0  0  0
   11.3237   63.1854   23.3789 H   0  0  0  0  0
   17.8296   63.3323   26.4428 H   0  0  0  0  0
   18.6398   65.6201   26.3232 H   0  0  0  0  0
   16.9425   66.1362   25.8739 H   0  0  0  0  0
   17.2305   66.6838   24.0543 H   0  0  0  0  0
   18.9509   63.4668   28.5050 H   0  0  0  0  0
   18.8699   63.9090   30.9259 H   0  0  0  0  0
   17.0130   64.2224   32.8657 H   0  0  0  0  0
   17.8626   65.7668   32.6123 H   0  0  0  0  0
   16.0825   65.7207   32.6198 H   0  0  0  0  0
   14.2340   66.5898   29.7668 H   0  0  0  0  0
   15.1358   66.8379   31.3255 H   0  0  0  0  0
   12.7419   63.4372   31.1095 H   0  0  0  0  0
   13.9654   63.7746   29.8051 H   0  0  0  0  0
   11.7917   63.9185   28.8471 H   0  0  0  0  0
   12.4468   65.5947   29.0246 H   0  0  0  0  0
    9.2546   66.8626   29.3711 H   0  0  0  0  0
    9.0879   69.2119   30.0977 H   0  0  0  0  0
   10.5881   70.0730   31.8716 H   0  0  0  0  0
   12.2613   68.5719   32.9148 H   0  0  0  0  0
   15.1985   65.4579   28.0272 H   0  0  0  0  0
  1  2  1  0  0  0
  2  3  1  0  0  0
  3  4  4  0  0  0
  3 12  4  0  0  0
  4  5  4  0  0  0
  5  6  4  0  0  0
  5 13  1  0  0  0
  6  7  4  0  0  0
  7  8  4  0  0  0
  7 12  4  0  0  0
  8  9  4  0  0  0
  9 10  4  0  0  0
 10 11  1  0  0  0
 10 12  4  0  0  0
 13 14  1  0  0  0
 13 18  1  0  0  0
 14 15  1  0  0  0
 15 16  2  0  0  0
 15 17  1  0  0  0
 18 19  4  0  0  0
 18 38  4  0  0  0
 19 20  4  0  0  0
 20 21  4  0  0  0
 21 22  1  0  0  0
 21 23  4  0  0  0
 23 24  1  0  0  0
 23 38  4  0  0  0
 24 25  1  0  0  0
 25 26  1  0  0  0
 25 35  1  0  0  0
 26 27  1  0  0  0
 27 28  1  0  0  0
 28 29  1  0  0  0
 29 30  4  0  0  0
 29 34  4  0  0  0
 30 31  4  0  0  0
 31 32  4  0  0  0
 32 33  4  0  0  0
 33 34  4  0  0  0
 34 35  1  0  0  0
 35 36  2  0  0  0
 35 37  2  0  0  0
  1 39  1  0  0  0
  1 40  1  0  0  0
  1 41  1  0  0  0
  4 42  1  0  0  0
  6 43  1  0  0  0
 11 44  1  0  0  0
 11 45  1  0  0  0
 11 46  1  0  0  0
 13 47  1  0  0  0
 14 48  1  0  0  0
 14 49  1  0  0  0
 17 50  1  0  0  0
 19 51  1  0  0  0
 20 52  1  0  0  0
 22 53  1  0  0  0
 22 54  1  0  0  0
 22 55  1  0  0  0
 24 56  1  0  0  0
 24 57  1  0  0  0
 26 58  1  0  0  0
 26 59  1  0  0  0
 27 60  1  0  0  0
 27 61  1  0  0  0
 30 62  1  0  0  0
 31 63  1  0  0  0
 32 64  1  0  0  0
 33 65  1  0  0  0
 38 66  1  0  0  0
M  END
$$$$
