3t60_ligand
  -I-interpret- 

 63 67  0  0  0  0  0  0  0  0999 V2000
   -5.6520   25.7220   -1.0160 N   0  0  0  0  0
   -9.0410   28.3750    0.5650 O   0  0  0  0  0
   -5.1560   24.5720   -1.6280 C   0  0  0  0  0
   -9.2460   26.9770   -3.9140 N   0  3  0  0  0
   -5.8610   23.5750   -1.6300 O   0  0  0  0  0
   -3.9330   24.5570   -2.1750 N   0  0  0  0  0
   -3.1820   25.6630   -2.1410 C   0  0  0  0  0
   -2.0680   25.6520   -2.6660 O   0  0  0  0  0
   -3.6510   26.8560   -1.5580 C   0  0  0  0  0
   -4.9260   26.8740   -0.9960 C   0  0  0  0  0
   -6.9960   25.7970   -0.5180 C   0  0  0  0  0
   -8.7140   27.4210   -5.1760 C   0  0  0  0  0
   -9.5340   26.4380   -6.0870 C   0  0  0  0  0
  -10.8330   26.0010   -5.7150 C   0  0  0  0  0
   -7.4030   26.5020    0.7230 C   0  0  0  0  0
  -11.6090   25.1370   -6.5420 C   0  0  0  0  0
  -11.1410   24.6460   -7.7600 C   0  0  0  0  0
   -9.8590   25.0720   -8.1510 C   0  0  0  0  0
   -9.1120   25.9460   -7.3370 C   0  0  0  0  0
   -7.2600   27.2370   -5.3730 C   0  0  0  0  0
   -6.2920   28.2180   -5.6750 C   0  0  0  0  0
   -4.9290   27.9200   -5.6980 C   0  0  0  0  0
   -4.5070   26.6340   -5.4300 C   0  0  0  0  0
   -5.4380   25.6500   -5.1130 C   0  0  0  0  0
   -6.7980   25.9400   -5.0600 C   0  0  0  0  0
   -8.1150   27.5720   -0.1510 C   0  0  0  0  0
   -9.1990   28.7660   -5.7100 C   0  0  0  0  0
   -9.3860   29.8140   -4.8000 C   0  0  0  0  0
   -9.8450   31.0780   -5.1940 C   0  0  0  0  0
  -10.1150   31.3640   -6.5390 C   0  0  0  0  0
   -9.9170   30.3790   -7.4980 C   0  0  0  0  0
   -9.4340   29.1210   -7.0620 C   0  0  0  0  0
   -8.8120   26.8910   -1.3450 C   0  0  0  0  0
   -8.0780   25.6840   -1.4460 O   0  0  0  0  0
   -8.7670   27.6680   -2.6810 C   0  0  0  0  0
   -9.4412   29.0104   -0.0331 H   0  0  0  0  0
   -8.9480   26.0063   -3.8174 H   0  0  0  0  0
  -10.2483   27.1609   -3.9593 H   0  0  0  0  0
   -3.5772   23.7080   -2.6143 H   0  0  0  0  0
   -3.0274   27.7499   -1.5465 H   0  0  0  0  0
   -5.3306   27.7841   -0.5531 H   0  0  0  0  0
   -6.7323   24.8379   -0.0721 H   0  0  0  0  0
  -11.2505   26.3372   -4.7659 H   0  0  0  0  0
   -6.6589   26.7962    1.4632 H   0  0  0  0  0
   -7.9467   25.9752    1.5072 H   0  0  0  0  0
  -12.6063   24.8493   -6.2093 H   0  0  0  0  0
  -11.7353   23.9699   -8.3747 H   0  0  0  0  0
   -9.4389   24.7222   -9.0940 H   0  0  0  0  0
   -8.1355   26.2648   -7.7016 H   0  0  0  0  0
   -6.6172   29.2346   -5.8960 H   0  0  0  0  0
   -4.2016   28.6990   -5.9265 H   0  0  0  0  0
   -3.4455   26.3893   -5.4666 H   0  0  0  0  0
   -5.0969   24.6363   -4.9029 H   0  0  0  0  0
   -7.5086   25.1637   -4.7761 H   0  0  0  0  0
   -7.3378   28.2508   -0.5020 H   0  0  0  0  0
   -9.1664   29.6401   -3.7466 H   0  0  0  0  0
   -9.9946   31.8521   -4.4413 H   0  0  0  0  0
  -10.4770   32.3501   -6.8298 H   0  0  0  0  0
  -10.1263   30.5678   -8.5509 H   0  0  0  0  0
   -9.2274   28.3691   -7.8236 H   0  0  0  0  0
   -9.8838   26.7922   -1.1728 H   0  0  0  0  0
   -9.4409   28.5139   -2.5449 H   0  0  0  0  0
   -7.7116   27.8746   -2.8584 H   0  0  0  0  0
  1  3  1  0  0  0
  1 10  1  0  0  0
 11  1  1  0  0  0
 26  2  1  0  0  0
  3  5  2  0  0  0
  3  6  1  0  0  0
  4 12  1  0  0  0
 35  4  1  0  0  0
  6  7  1  0  0  0
  7  8  2  0  0  0
  9  7  1  0  0  0
 10  9  2  0  0  0
 11 15  1  0  0  0
 34 11  1  0  0  0
 12 13  1  0  0  0
 12 20  1  0  0  0
 12 27  1  0  0  0
 13 14  4  0  0  0
 13 19  4  0  0  0
 14 16  4  0  0  0
 26 15  1  0  0  0
 16 17  4  0  0  0
 18 17  4  0  0  0
 19 18  4  0  0  0
 20 21  4  0  0  0
 20 25  4  0  0  0
 21 22  4  0  0  0
 22 23  4  0  0  0
 24 23  4  0  0  0
 25 24  4  0  0  0
 33 26  1  0  0  0
 27 28  4  0  0  0
 27 32  4  0  0  0
 28 29  4  0  0  0
 29 30  4  0  0  0
 31 30  4  0  0  0
 32 31  4  0  0  0
 33 34  1  0  0  0
 33 35  1  0  0  0
  2 36  1  0  0  0
  4 37  1  0  0  0
  4 38  1  0  0  0
  6 39  1  0  0  0
  9 40  1  0  0  0
 10 41  1  0  0  0
 11 42  1  0  0  0
 14 43  1  0  0  0
 15 44  1  0  0  0
 15 45  1  0  0  0
 16 46  1  0  0  0
 17 47  1  0  0  0
 18 48  1  0  0  0
 19 49  1  0  0  0
 21 50  1  0  0  0
 22 51  1  0  0  0
 23 52  1  0  0  0
 24 53  1  0  0  0
 25 54  1  0  0  0
 26 55  1  0  0  0
 28 56  1  0  0  0
 29 57  1  0  0  0
 30 58  1  0  0  0
 31 59  1  0  0  0
 32 60  1  0  0  0
 33 61  1  0  0  0
 35 62  1  0  0  0
 35 63  1  0  0  0
M  END
$$$$
