6b1f_ligand
  -I-interpret- 

 28 28  0  0  0  0  0  0  0  0999 V2000
   -9.1990   -2.9580   -0.9900 O   0  0  0  0  0
   -9.3850   -1.5820   -0.5100 S   0  0  0  0  0
   -9.2980   -0.6150   -1.6110 O   0  0  0  0  0
   -8.3130   -1.3200    0.4250 O   0  0  0  0  0
  -10.7500   -1.3900    0.1890 O   0  0  0  0  0
  -11.2890   -2.2900    1.1720 N   0  3  0  0  0
  -11.8730   -1.9170    2.5010 C   0  0  0  0  0
  -12.9400   -0.8280    2.1490 C   0  0  0  0  0
  -12.4310    0.6350    1.9640 C   0  0  0  0  0
  -11.5710    1.0640    3.1190 C   0  0  0  0  0
  -12.0220    1.0370    4.4910 C   0  0  0  0  0
  -12.3810    1.0170    5.5970 N   0  0  0  0  0
  -10.3750    0.0600    3.0480 N   0  0  0  0  0
   -9.1330    0.5070    2.8880 C   0  0  0  0  0
   -8.7950    1.6110    2.2950 O   0  0  0  0  0
  -10.6440   -1.3890    3.2410 C   0  0  0  0  0
   -9.2611   -3.5653   -0.2491 H   0  0  0  0  0
  -10.4579   -2.8112    1.4514 H   0  0  0  0  0
  -12.1051   -2.6612    0.6856 H   0  0  0  0  0
  -12.3653   -2.6794    3.1047 H   0  0  0  0  0
  -13.6238   -0.7985    2.9973 H   0  0  0  0  0
  -13.3551   -1.1211    1.1847 H   0  0  0  0  0
  -13.2942    1.2983    1.9089 H   0  0  0  0  0
  -11.8361    0.6827    1.0519 H   0  0  0  0  0
  -11.4359    2.1346    2.9655 H   0  0  0  0  0
   -8.3278   -0.1078    3.2902 H   0  0  0  0  0
   -9.7818   -1.9263    2.8460 H   0  0  0  0  0
  -10.8272   -1.5379    4.3051 H   0  0  0  0  0
  1  2  1  0  0  0
  2  3  2  0  0  0
  2  4  2  0  0  0
  2  5  1  0  0  0
  5  6  1  0  0  0
  6  7  1  0  0  0
  7  8  1  0  0  0
  7 16  1  0  0  0
  8  9  1  0  0  0
  9 10  1  0  0  0
 10 11  1  0  0  0
 10 13  1  0  0  0
 11 12  3  0  0  0
 13 14  1  0  0  0
 13 16  1  0  0  0
 14 15  2  0  0  0
  1 17  1  0  0  0
  6 18  1  0  0  0
  6 19  1  0  0  0
  7 20  1  0  0  0
  8 21  1  0  0  0
  8 22  1  0  0  0
  9 23  1  0  0  0
  9 24  1  0  0  0
 10 25  1  0  0  0
 14 26  1  0  0  0
 16 27  1  0  0  0
 16 28  1  0  0  0
M  END
$$$$
