3drf_ligand
  -I-interpret- 

 97 96  0  0  0  0  0  0  0  0999 V2000
   19.3070   45.7990   20.8730 N   0  3  0  0  0
   18.1080   45.5290   21.6420 C   0  0  0  0  0
   18.1600   46.3540   22.9600 C   0  0  0  0  0
   19.1420   46.3510   23.6510 O   0  0  0  0  0
   17.9970   43.9620   21.8380 C   0  0  0  0  0
   17.0640   47.0250   23.2710 N   0  0  0  0  0
   17.0630   47.9510   24.3930 C   0  0  0  0  0
   15.6560   48.0240   25.0170 C   0  0  0  0  0
   14.7150   47.6050   24.4720 O   0  0  0  0  0
   17.5560   49.3200   23.9460 C   0  0  0  0  0
   16.6370   49.8240   23.0160 O   0  0  0  0  0
   15.6010   48.5680   26.2020 N   0  0  0  0  0
   14.3260   48.8350   26.8910 C   0  0  0  0  0
   13.6730   50.0630   26.2760 C   0  0  0  0  0
   14.3260   51.0180   26.0560 O   0  0  0  0  0
   14.5150   49.0830   28.4100 C   0  0  0  0  0
   15.0990   47.8890   29.1540 C   0  0  0  0  0
   14.4820   46.8760   29.2880 O   0  0  0  0  0
   16.3250   48.0330   29.6040 N   0  0  0  0  0
   12.3680   49.9650   26.0100 N   0  0  0  0  0
   11.5750   51.0650   25.4310 C   0  0  0  0  0
   10.2780   51.2400   26.2230 C   0  0  0  0  0
    9.6740   50.3170   26.6070 O   0  0  0  0  0
   11.3010   50.8280   23.9280 C   0  0  0  0  0
   12.5380   50.9600   23.1540 O   0  0  0  0  0
    9.9130   52.4850   26.4270 N   0  0  0  0  0
    8.6790   52.8420   27.1130 C   0  0  0  0  0
    7.4700   52.5930   26.2220 C   0  0  0  0  0
    7.3910   53.0890   25.1220 O   0  0  0  0  0
    8.6820   54.3440   27.4010 C   0  0  0  0  0
    9.8940   54.7700   28.2560 C   0  0  0  0  0
    7.4270   54.7520   28.0670 C   0  0  0  0  0
    9.9940   56.3340   28.4150 C   0  0  0  0  0
    6.5500   51.8030   26.7130 N   0  0  0  0  0
    5.3650   51.4160   25.9590 C   0  0  0  0  0
    4.1590   52.2530   26.4190 C   0  0  0  0  0
    4.0760   52.6160   27.4990 O   0  0  0  0  0
    5.0800   49.8860   26.1400 C   0  0  0  0  0
    3.2610   52.5340   25.4900 N   0  0  0  0  0
    2.0820   53.3590   25.7960 C   0  0  0  0  0
    0.9810   52.6430   26.5560 C   0  0  0  0  0
    0.2770   53.2900   27.2750 O   0  0  0  0  0
    1.5580   53.9880   24.5400 C   0  0  0  0  0
    1.1640   53.0100   23.6040 O   0  0  0  0  0
    0.8950   51.3360   26.4520 N   0  0  0  0  0
   -0.1770   50.6380   27.1320 C   0  0  0  0  0
    0.3210   50.1770   28.4570 C   0  0  0  0  0
    1.0881   49.1775   28.4403 O   0  0  0  0  0
   -0.0048   50.7515   29.5300 O   0  0  0  0  0
   19.4005   46.8051   20.7333 H   0  0  0  0  0
   20.1201   45.4477   21.3788 H   0  0  0  0  0
   19.2409   45.3335   19.9678 H   0  0  0  0  0
   17.1966   45.8442   21.1340 H   0  0  0  0  0
   18.8619   43.6049   22.3969 H   0  0  0  0  0
   17.0856   43.7297   22.3889 H   0  0  0  0  0
   17.9673   43.4763   20.8626 H   0  0  0  0  0
   16.2149   46.8927   22.7215 H   0  0  0  0  0
   17.7476   47.5902   25.1606 H   0  0  0  0  0
   18.5445   49.2371   23.4942 H   0  0  0  0  0
   17.6354   49.9912   24.8012 H   0  0  0  0  0
   16.9268   50.6894   22.7182 H   0  0  0  0  0
   16.4730   48.8177   26.6686 H   0  0  0  0  0
   13.6993   47.9514   26.7701 H   0  0  0  0  0
   13.5308   49.2829   28.8337 H   0  0  0  0  0
   15.2141   49.9118   28.5216 H   0  0  0  0  0
   16.7842   47.2619   30.0887 H   0  0  0  0  0
   16.8176   48.9159   29.4686 H   0  0  0  0  0
   11.8961   49.0849   26.2178 H   0  0  0  0  0
   12.1486   51.9890   25.5037 H   0  0  0  0  0
   10.5831   51.5696   23.5776 H   0  0  0  0  0
   10.9054   49.8211   23.7946 H   0  0  0  0  0
   12.3501   50.8100   22.2246 H   0  0  0  0  0
   10.5192   53.2333   26.0909 H   0  0  0  0  0
    8.6213   52.2421   28.0212 H   0  0  0  0  0
    8.7593   54.8508   26.4391 H   0  0  0  0  0
   10.7986   54.4225   27.7569 H   0  0  0  0  0
    9.7763   54.3362   29.2490 H   0  0  0  0  0
    6.5814   54.5189   27.4199 H   0  0  0  0  0
    7.3250   54.2127   29.0088 H   0  0  0  0  0
    7.4524   55.8242   28.2617 H   0  0  0  0  0
   10.0966   56.7921   27.4313 H   0  0  0  0  0
    9.0913   56.7072   28.8986 H   0  0  0  0  0
   10.8631   56.5811   29.0247 H   0  0  0  0  0
    6.6669   51.4441   27.6606 H   0  0  0  0  0
    5.5383   51.6056   24.8997 H   0  0  0  0  0
    5.9344   49.3134   25.7792 H   0  0  0  0  0
    4.9164   49.6706   27.1959 H   0  0  0  0  0
    4.1916   49.6133   25.5703 H   0  0  0  0  0
    3.3879   52.1725   24.5447 H   0  0  0  0  0
    2.4270   54.1319   26.4829 H   0  0  0  0  0
    2.3499   54.5927   24.0979 H   0  0  0  0  0
    0.6898   54.5967   24.7925 H   0  0  0  0  0
    0.8338   53.4410   22.8123 H   0  0  0  0  0
    1.5766   50.8177   25.8977 H   0  0  0  0  0
   -0.4977   49.7822   26.5381 H   0  0  0  0  0
   -1.0274   51.3062   27.2674 H   0  0  0  0  0
    1.2135   48.8869   27.5340 H   0  0  0  0  0
  1  2  1  0  0  0
  2  3  1  0  0  0
  2  5  1  0  0  0
  3  4  2  0  0  0
  3  6  1  0  0  0
  6  7  1  0  0  0
  7  8  1  0  0  0
  7 10  1  0  0  0
  8  9  2  0  0  0
  8 12  1  0  0  0
 10 11  1  0  0  0
 12 13  1  0  0  0
 13 14  1  0  0  0
 13 16  1  0  0  0
 14 15  2  0  0  0
 14 20  1  0  0  0
 16 17  1  0  0  0
 17 18  2  0  0  0
 17 19  1  0  0  0
 20 21  1  0  0  0
 21 22  1  0  0  0
 21 24  1  0  0  0
 22 23  2  0  0  0
 22 26  1  0  0  0
 24 25  1  0  0  0
 26 27  1  0  0  0
 27 28  1  0  0  0
 27 30  1  0  0  0
 28 29  2  0  0  0
 28 34  1  0  0  0
 30 31  1  0  0  0
 30 32  1  0  0  0
 31 33  1  0  0  0
 34 35  1  0  0  0
 35 36  1  0  0  0
 35 38  1  0  0  0
 36 37  2  0  0  0
 36 39  1  0  0  0
 39 40  1  0  0  0
 40 41  1  0  0  0
 40 43  1  0  0  0
 41 42  2  0  0  0
 41 45  1  0  0  0
 43 44  1  0  0  0
 45 46  1  0  0  0
 46 47  1  0  0  0
 47 48  1  0  0  0
 47 49  2  0  0  0
  1 50  1  0  0  0
  1 51  1  0  0  0
  1 52  1  0  0  0
  2 53  1  0  0  0
  5 54  1  0  0  0
  5 55  1  0  0  0
  5 56  1  0  0  0
  6 57  1  0  0  0
  7 58  1  0  0  0
 10 59  1  0  0  0
 10 60  1  0  0  0
 11 61  1  0  0  0
 12 62  1  0  0  0
 13 63  1  0  0  0
 16 64  1  0  0  0
 16 65  1  0  0  0
 19 66  1  0  0  0
 19 67  1  0  0  0
 20 68  1  0  0  0
 21 69  1  0  0  0
 24 70  1  0  0  0
 24 71  1  0  0  0
 25 72  1  0  0  0
 26 73  1  0  0  0
 27 74  1  0  0  0
 30 75  1  0  0  0
 31 76  1  0  0  0
 31 77  1  0  0  0
 32 78  1  0  0  0
 32 79  1  0  0  0
 32 80  1  0  0  0
 33 81  1  0  0  0
 33 82  1  0  0  0
 33 83  1  0  0  0
 34 84  1  0  0  0
 35 85  1  0  0  0
 38 86  1  0  0  0
 38 87  1  0  0  0
 38 88  1  0  0  0
 39 89  1  0  0  0
 40 90  1  0  0  0
 43 91  1  0  0  0
 43 92  1  0  0  0
 44 93  1  0  0  0
 45 94  1  0  0  0
 46 95  1  0  0  0
 46 96  1  0  0  0
 48 97  1  0  0  0
M  END
$$$$
