5cbm_ligand
  -I-interpret- 

 31 31  0  0  0  0  0  0  0  0999 V2000
  172.1170   12.6210   85.6860 N   0  3  0  0  0
  171.9530   14.6640   84.3600 C   0  0  0  0  0
  171.3130   16.9530   84.7400 C   0  0  0  0  0
  170.2580   15.6830   83.0050 C   0  0  0  0  0
  175.6560   16.1580   84.7710 C   0  0  0  0  0
  175.3610   14.7920   84.1910 C   0  0  0  0  0
  174.4380   13.8050   85.3710 P   0  0  0  0  0
  174.3940   14.5080   86.7780 O   0  0  0  0  0
  175.1090   12.5020   85.5380 O   0  0  0  0  0
  172.7830   13.4400   84.7140 C   0  0  0  0  0
  172.0860   15.8450   85.0700 C   0  0  0  0  0
  170.3910   16.8640   83.7070 C   0  0  0  0  0
  171.0300   14.5850   83.3330 C   0  0  0  0  0
  175.1310   17.1690   83.7960 C   0  0  0  0  0
  174.4830   18.1650   84.2020 O   0  0  0  0  0
  175.3430   16.9850   82.5740 O   0  0  0  0  0
  171.1803   12.3935   85.3526 H   0  0  0  0  0
  172.6478   11.7612   85.8254 H   0  0  0  0  0
  172.0513   13.1282   86.5685 H   0  0  0  0  0
  171.4309   17.8866   85.2901 H   0  0  0  0  0
  169.5401   15.6162   82.1875 H   0  0  0  0  0
  176.7271   16.2894   84.9246 H   0  0  0  0  0
  175.1791   16.2758   85.7440 H   0  0  0  0  0
  176.3014   14.2899   83.9638 H   0  0  0  0  0
  174.7689   14.9097   83.2835 H   0  0  0  0  0
  173.9606   15.3606   86.6951 H   0  0  0  0  0
  172.9006   12.9254   83.7604 H   0  0  0  0  0
  172.7998   15.9067   85.8914 H   0  0  0  0  0
  169.7732   17.7246   83.4505 H   0  0  0  0  0
  170.9111   13.6531   82.7803 H   0  0  0  0  0
  174.4229   18.1375   85.1597 H   0  0  0  0  0
 10  1  1  0  0  0
 10  2  1  0  0  0
  2 11  4  0  0  0
  2 13  4  0  0  0
 11  3  4  0  0  0
  3 12  4  0  0  0
  4 12  4  0  0  0
 13  4  4  0  0  0
  6  5  1  0  0  0
  5 14  1  0  0  0
  7  6  1  0  0  0
  7  8  1  0  0  0
  7  9  2  0  0  0
  7 10  1  0  0  0
 14 15  1  0  0  0
 14 16  2  0  0  0
  1 17  1  0  0  0
  1 18  1  0  0  0
  1 19  1  0  0  0
  3 20  1  0  0  0
  4 21  1  0  0  0
  5 22  1  0  0  0
  5 23  1  0  0  0
  6 24  1  0  0  0
  6 25  1  0  0  0
  8 26  1  0  0  0
 10 27  1  0  0  0
 11 28  1  0  0  0
 12 29  1  0  0  0
 13 30  1  0  0  0
 15 31  1  0  0  0
M  END
$$$$
