5yc1_ligand
  -I-interpret- 

102101  0  0  0  0  0  0  0  0999 V2000
    4.6300  -22.2500   92.7820 N   0  3  0  0  0
    5.9510  -22.7930   93.0700 C   0  0  0  0  0
    6.9510  -21.6300   92.9760 C   0  0  0  0  0
    8.1810  -21.7810   93.1050 O   0  0  0  0  0
    6.3590  -23.8600   92.0610 C   0  0  0  0  0
    5.2970  -24.7230   91.4190 C   0  0  0  0  0
    4.6670  -25.7680   92.2990 C   0  0  0  0  0
    4.0490  -26.7790   91.4380 N   0  0  0  0  0
    2.8150  -26.7170   90.9430 C   0  0  0  0  0
    2.0520  -25.6510   91.1710 N   0  0  0  0  0
    2.3680  -27.6990   90.1660 N   0  0  0  0  0
    6.4000  -20.4540   92.7360 N   0  0  0  0  0
    7.1780  -19.3960   92.1410 C   0  0  0  0  0
    7.8760  -18.5140   93.1620 C   0  0  0  0  0
    7.3180  -18.2230   94.2150 O   0  0  0  0  0
    6.2370  -18.6060   91.2570 C   0  0  0  0  0
    6.8790  -17.7630   90.1750 C   0  0  0  0  0
    7.5860  -16.5540   90.6230 C   0  0  0  0  0
    7.7740  -18.6150   89.3970 C   0  0  0  0  0
    9.0890  -18.0700   92.8150 N   0  0  0  0  0
    9.9930  -17.4960   93.8030 C   0  0  0  0  0
   11.0770  -16.5780   93.2220 C   0  0  0  0  0
   11.3900  -16.6660   92.0430 O   0  0  0  0  0
   10.6070  -18.6660   94.5590 C   0  0  0  0  0
   11.5630  -18.3550   95.6520 C   0  0  0  0  0
   11.8990  -19.6620   96.2940 C   0  0  0  0  0
   10.6660  -20.3210   96.7120 N   0  0  0  0  0
   10.0690  -20.1400   97.8830 C   0  0  0  0  0
   10.5630  -19.2710   98.7520 N   0  0  0  0  0
    8.9540  -20.8020   98.1700 N   0  0  0  0  0
   11.7160  -15.7640   94.0580 N   0  0  0  0  0
   12.7960  -14.8910   93.5910 C   0  0  0  0  0
   14.1940  -15.5460   93.5120 C   0  0  0  0  0
   14.3950  -16.6960   93.9210 O   0  0  0  0  0
   12.8810  -13.6740   94.4960 C   0  0  0  0  0
   15.1040  -14.7780   92.9080 N   0  0  0  0  0
   16.5770  -14.9340   92.8150 C   0  0  0  0  0
   16.9570  -15.1740   91.3650 C   0  0  0  0  0
   17.7470  -14.4100   90.8080 O   0  0  0  0  0
   17.1720  -16.0350   93.7100 C   0  0  0  0  0
   17.3110  -15.6200   95.1600 C   0  0  0  0  0
   17.9870  -16.6670   96.0700 C   0  0  0  0  0
   19.3810  -16.9780   95.7130 N   0  0  0  0  0
   20.1900  -17.7700   96.4370 C   0  0  0  0  0
   19.7520  -18.3320   97.5650 N   0  0  0  0  0
   21.4470  -18.0020   96.0510 N   0  0  0  0  0
   16.4720  -16.1310   90.7590 O   0  0  0  0  0
    4.3957  -21.5419   93.4778 H   0  0  0  0  0
    4.6322  -21.8282   91.8533 H   0  0  0  0  0
    3.9406  -23.0011   92.8140 H   0  0  0  0  0
    5.9384  -23.2537   94.0578 H   0  0  0  0  0
    6.9751  -24.5568   92.6294 H   0  0  0  0  0
    6.8005  -23.3040   91.2340 H   0  0  0  0  0
    5.7915  -25.2633   90.6118 H   0  0  0  0  0
    4.4931  -24.0478   91.1257 H   0  0  0  0  0
    3.9140  -25.3122   92.9419 H   0  0  0  0  0
    5.4235  -26.2285   92.9344 H   0  0  0  0  0
    4.6096  -27.5967   91.1984 H   0  0  0  0  0
    1.1252  -25.5877   90.7499 H   0  0  0  0  0
    2.3940  -24.8971   91.7669 H   0  0  0  0  0
    2.9698  -28.4943   89.9522 H   0  0  0  0  0
    5.4208  -20.2937   92.9724 H   0  0  0  0  0
    7.9938  -19.8246   91.5589 H   0  0  0  0  0
    5.7166  -17.9097   91.9146 H   0  0  0  0  0
    5.6177  -19.3401   90.7415 H   0  0  0  0  0
    6.0556  -17.3722   89.5772 H   0  0  0  0  0
    6.8872  -15.8967   91.1403 H   0  0  0  0  0
    8.3915  -16.8359   91.3011 H   0  0  0  0  0
    8.0016  -16.0363   89.7585 H   0  0  0  0  0
    8.5406  -19.0286   90.0523 H   0  0  0  0  0
    7.2016  -19.4266   88.9478 H   0  0  0  0  0
    8.2456  -18.0235   88.6122 H   0  0  0  0  0
    9.3865  -18.1344   91.8415 H   0  0  0  0  0
    9.4218  -16.8370   94.4569 H   0  0  0  0  0
   11.1811  -19.2231   93.8186 H   0  0  0  0  0
    9.7708  -19.1750   95.0384 H   0  0  0  0  0
   11.1259  -17.6635   96.3723 H   0  0  0  0  0
   12.4567  -17.8650   95.2657 H   0  0  0  0  0
   12.5352  -19.4906   97.1623 H   0  0  0  0  0
   12.4289  -20.2944   95.5817 H   0  0  0  0  0
   10.2308  -20.9688   96.0553 H   0  0  0  0  0
   11.4030  -18.7404   98.5212 H   0  0  0  0  0
    8.4795  -20.6408   99.0584 H   0  0  0  0  0
    8.5721  -21.4716   97.5020 H   0  0  0  0  0
   11.4491  -15.7473   95.0423 H   0  0  0  0  0
   12.5311  -14.6318   92.5660 H   0  0  0  0  0
   11.9346  -13.1340   94.4665 H   0  0  0  0  0
   13.0855  -13.9957   95.5172 H   0  0  0  0  0
   13.6837  -13.0220   94.1515 H   0  0  0  0  0
   14.7280  -13.9553   92.4367 H   0  0  0  0  0
   17.0065  -14.0053   93.1906 H   0  0  0  0  0
   18.1704  -16.2600   93.3350 H   0  0  0  0  0
   16.4951  -16.8886   93.6755 H   0  0  0  0  0
   16.3022  -15.4702   95.5447 H   0  0  0  0  0
   17.9423  -14.7316   95.1761 H   0  0  0  0  0
   17.4183  -17.5914   95.9694 H   0  0  0  0  0
   18.0011  -16.2518   97.0777 H   0  0  0  0  0
   19.7577  -16.5651   94.8598 H   0  0  0  0  0
   18.7978  -18.1616   97.8826 H   0  0  0  0  0
   22.0518  -18.5989   96.6152 H   0  0  0  0  0
   21.8024  -17.5824   95.1919 H   0  0  0  0  0
   15.8830  -16.6134   91.3438 H   0  0  0  0  0
  1  2  1  0  0  0
  2  3  1  0  0  0
  2  5  1  0  0  0
  3  4  2  0  0  0
  3 12  1  0  0  0
  5  6  1  0  0  0
  6  7  1  0  0  0
  7  8  1  0  0  0
  8  9  1  0  0  0
  9 10  1  0  0  0
  9 11  2  0  0  0
 12 13  1  0  0  0
 13 14  1  0  0  0
 13 16  1  0  0  0
 14 15  2  0  0  0
 14 20  1  0  0  0
 16 17  1  0  0  0
 17 18  1  0  0  0
 17 19  1  0  0  0
 20 21  1  0  0  0
 21 22  1  0  0  0
 21 24  1  0  0  0
 22 23  2  0  0  0
 22 31  1  0  0  0
 24 25  1  0  0  0
 25 26  1  0  0  0
 26 27  1  0  0  0
 27 28  1  0  0  0
 28 29  2  0  0  0
 28 30  1  0  0  0
 31 32  1  0  0  0
 32 33  1  0  0  0
 32 35  1  0  0  0
 33 34  2  0  0  0
 33 36  1  0  0  0
 36 37  1  0  0  0
 37 38  1  0  0  0
 37 40  1  0  0  0
 38 39  2  0  0  0
 38 47  1  0  0  0
 40 41  1  0  0  0
 41 42  1  0  0  0
 42 43  1  0  0  0
 43 44  1  0  0  0
 44 45  2  0  0  0
 44 46  1  0  0  0
  1 48  1  0  0  0
  1 49  1  0  0  0
  1 50  1  0  0  0
  2 51  1  0  0  0
  5 52  1  0  0  0
  5 53  1  0  0  0
  6 54  1  0  0  0
  6 55  1  0  0  0
  7 56  1  0  0  0
  7 57  1  0  0  0
  8 58  1  0  0  0
 10 59  1  0  0  0
 10 60  1  0  0  0
 11 61  1  0  0  0
 12 62  1  0  0  0
 13 63  1  0  0  0
 16 64  1  0  0  0
 16 65  1  0  0  0
 17 66  1  0  0  0
 18 67  1  0  0  0
 18 68  1  0  0  0
 18 69  1  0  0  0
 19 70  1  0  0  0
 19 71  1  0  0  0
 19 72  1  0  0  0
 20 73  1  0  0  0
 21 74  1  0  0  0
 24 75  1  0  0  0
 24 76  1  0  0  0
 25 77  1  0  0  0
 25 78  1  0  0  0
 26 79  1  0  0  0
 26 80  1  0  0  0
 27 81  1  0  0  0
 29 82  1  0  0  0
 30 83  1  0  0  0
 30 84  1  0  0  0
 31 85  1  0  0  0
 32 86  1  0  0  0
 35 87  1  0  0  0
 35 88  1  0  0  0
 35 89  1  0  0  0
 36 90  1  0  0  0
 37 91  1  0  0  0
 40 92  1  0  0  0
 40 93  1  0  0  0
 41 94  1  0  0  0
 41 95  1  0  0  0
 42 96  1  0  0  0
 42 97  1  0  0  0
 43 98  1  0  0  0
 45 99  1  0  0  0
 46100  1  0  0  0
 46101  1  0  0  0
 47102  1  0  0  0
M  END
$$$$
