### 
### Created by X-TOOL on Mon Sep 10 21:13:33 2018
### 

@<TRIPOS>MOLECULE
5yc1_ligand
  104   103     1     0     0
SMALL
GAST_HUCK


@<TRIPOS>ATOM
      1 N           4.6300  -22.2500   92.7820 N.4       1 ARG         0.2379
      2 CA          5.9510  -22.7930   93.0700 C.3       1 ARG         0.0651
      3 C           6.9510  -21.6300   92.9760 C.2       1 ARG         0.2267
      4 O           8.1810  -21.7810   93.1050 O.2       1 ARG        -0.3907
      5 CB          6.3590  -23.8600   92.0610 C.3       1 ARG         0.0110
      6 CG          5.2970  -24.7230   91.4190 C.3       1 ARG        -0.0125
      7 CD          4.6670  -25.7680   92.2990 C.3       1 ARG         0.0629
      8 NE          4.0490  -26.7790   91.4380 N.pl3     1 ARG        -0.2723
      9 CZ          2.8150  -26.7170   90.9430 C.cat     1 ARG         0.2882
     10 NH1         2.0520  -25.6510   91.1710 N.pl3     1 ARG        -0.2849
     11 NH2         2.3680  -27.6990   90.1660 N.pl3     1 ARG        -0.2849
     12 N           6.4000  -20.4540   92.7360 N.am      1 LEU        -0.2610
     13 CA          7.1780  -19.3960   92.1410 C.3       1 LEU         0.1313
     14 C           7.8760  -18.5140   93.1620 C.2       1 LEU         0.2039
     15 O           7.3180  -18.2230   94.2150 O.2       1 LEU        -0.3944
     16 CB          6.2370  -18.6060   91.2570 C.3       1 LEU        -0.0101
     17 CG          6.8790  -17.7630   90.1750 C.3       1 LEU        -0.0425
     18 CD1         7.5860  -16.5540   90.6230 C.3       1 LEU        -0.0625
     19 CD2         7.7740  -18.6150   89.3970 C.3       1 LEU        -0.0625
     20 N           9.0890  -18.0700   92.8150 N.am      1 ARG        -0.2637
     21 CA          9.9930  -17.4960   93.8030 C.3       1 ARG         0.1311
     22 C          11.0770  -16.5780   93.2220 C.2       1 ARG         0.2039
     23 O          11.3900  -16.6660   92.0430 O.2       1 ARG        -0.3944
     24 CB         10.6070  -18.6660   94.5590 C.3       1 ARG        -0.0092
     25 CG         11.5630  -18.3550   95.6520 C.3       1 ARG        -0.0156
     26 CD         11.8990  -19.6620   96.2940 C.3       1 ARG         0.0627
     27 NE         10.6660  -20.3210   96.7120 N.pl3     1 ARG        -0.2723
     28 CZ         10.0690  -20.1400   97.8830 C.cat     1 ARG         0.2882
     29 NH1        10.5630  -19.2710   98.7520 N.pl3     1 ARG        -0.2849
     30 NH2         8.9540  -20.8020   98.1700 N.pl3     1 ARG        -0.2849
     31 N          11.7160  -15.7640   94.0580 N.am      1 ALA        -0.2640
     32 CA         12.7960  -14.8910   93.5910 C.3       1 ALA         0.1282
     33 C          14.1940  -15.5460   93.5120 C.2       1 ALA         0.2031
     34 O          14.3950  -16.6960   93.9210 O.2       1 ALA        -0.3944
     35 CB         12.8810  -13.6740   94.4960 C.3       1 ALA        -0.0244
     36 N          15.1040  -14.7780   92.9080 N.am      1 ARG        -0.2695
     37 CA         16.5770  -14.9340   92.8150 C.3       1 ARG         0.0945
     38 C          16.9570  -15.1740   91.3650 C.2       1 ARG         0.0601
     39 O          17.7470  -14.4100   90.8080 O.co2     1 ARG        -0.5666
     40 CB         17.1720  -16.0350   93.7100 C.3       1 ARG        -0.0148
     41 CG         17.3110  -15.6200   95.1600 C.3       1 ARG        -0.0162
     42 CD         17.9870  -16.6670   96.0700 C.3       1 ARG         0.0627
     43 NE         19.3810  -16.9780   95.7130 N.pl3     1 ARG        -0.2723
     44 CZ         20.1900  -17.7700   96.4370 C.cat     1 ARG         0.2882
     45 NH1        19.7520  -18.3320   97.5650 N.pl3     1 ARG        -0.2849
     46 NH2        21.4470  -18.0020   96.0510 N.pl3     1 ARG        -0.2849
     47 OXT        16.4720  -16.1310   90.7590 O.co2     1 ARG        -0.5666
     48 H1          3.9448  -22.9875   92.8346 H         1 ARG         0.2015
     49 H2          4.6248  -21.8521   91.8559 H         1 ARG         0.2015
     50 H3          4.4063  -21.5349   93.4562 H         1 ARG         0.2015
     51 H4          5.9605  -23.2245   94.0818 H         1 ARG         0.1098
     52 H5          7.0540  -24.5389   92.5768 H         1 ARG         0.0347
     53 H6          6.8876  -23.3440   91.2459 H         1 ARG         0.0347
     54 H7          5.7562  -25.2384   90.5625 H         1 ARG         0.0302
     55 H8          4.4964  -24.0590   91.0612 H         1 ARG         0.0302
     56 H9          3.9009  -25.3043   92.9379 H         1 ARG         0.0689
     57 H10         5.4364  -26.2365   92.9302 H         1 ARG         0.0689
     58 H11         4.6151  -27.6047   91.1960 H         1 ARG         0.2642
     59 H12         1.0979  -25.6086   90.7854 H         1 ARG         0.2615
     60 H13         2.4155  -24.8682   91.7331 H         1 ARG         0.2615
     61 H14         2.9578  -28.5246   89.9889 H         1 ARG         0.2615
     62 H15         1.4319  -27.6341   89.7412 H         1 ARG         0.2615
     63 H16         5.4400  -20.2968   92.9677 H         1 LEU         0.1884
     64 H17         7.9570  -19.8494   91.5105 H         1 LEU         0.0800
     65 H18         5.6551  -17.9334   91.9043 H         1 LEU         0.0315
     66 H19         5.5592  -19.3204   90.7668 H         1 LEU         0.0315
     67 H20         6.0693  -17.4237   89.5123 H         1 LEU         0.0298
     68 H21         8.0059  -16.0307   89.7514 H         1 LEU         0.0232
     69 H22         8.3992  -16.8372   91.3074 H         1 LEU         0.0232
     70 H23         6.8818  -15.8897   91.1452 H         1 LEU         0.0232
     71 H24         7.2315  -19.5141   89.0694 H         1 LEU         0.0232
     72 H25         8.6316  -18.9106   90.0191 H         1 LEU         0.0232
     73 H26         8.1330  -18.0622   88.5164 H         1 LEU         0.0232
     74 H27         9.3806  -18.1331   91.8605 H         1 ARG         0.1883
     75 H28         9.3968  -16.8935   94.5041 H         1 ARG         0.0800
     76 H29        11.1386  -19.2892   93.8248 H         1 ARG         0.0313
     77 H30         9.7805  -19.2428   94.9995 H         1 ARG         0.0313
     78 H31        11.0984  -17.6784   96.3844 H         1 ARG         0.0301
     79 H32        12.4703  -17.8861   95.2435 H         1 ARG         0.0301
     80 H33        12.5388  -19.4874   97.1716 H         1 ARG         0.0689
     81 H34        12.4313  -20.3001   95.5733 H         1 ARG         0.0689
     82 H35        10.2265  -20.9752   96.0488 H         1 ARG         0.2642
     83 H36        10.0989  -19.1311   99.6608 H         1 ARG         0.2615
     84 H37        11.4112  -18.7352   98.5189 H         1 ARG         0.2615
     85 H38         8.5684  -21.4781   97.4954 H         1 ARG         0.2615
     86 H39         8.4749  -20.6393   99.0671 H         1 ARG         0.2615
     87 H40        11.4543  -15.7477   95.0230 H         1 ALA         0.1883
     88 H41        12.5313  -14.5575   92.5767 H         1 ALA         0.0797
     89 H42        13.6908  -13.0152   94.1493 H         1 ALA         0.0277
     90 H43        13.0874  -13.9974   95.5269 H         1 ALA         0.0277
     91 H44        11.9265  -13.1281   94.4671 H         1 ALA         0.0277
     92 H45        14.7353  -13.9714   92.4459 H         1 ARG         0.1875
     93 H46        17.0263  -13.9822   93.1347 H         1 ARG         0.0726
     94 H47        18.1686  -16.2970   93.3250 H         1 ARG         0.0307
     95 H48        16.5164  -16.9169   93.6608 H         1 ARG         0.0307
     96 H49        16.3048  -15.4202   95.5569 H         1 ARG         0.0301
     97 H50        17.9093  -14.6977   95.1963 H         1 ARG         0.0301
     98 H51        17.4029  -17.5975   96.0158 H         1 ARG         0.0689
     99 H52        17.9737  -16.2853   97.1015 H         1 ARG         0.0689
    100 H53        19.7613  -16.5610   94.8514 H         1 ARG         0.2642
    101 H54        20.3774  -18.9380   98.1151 H         1 ARG         0.2615
    102 H55        18.7885  -18.1599   97.8858 H         1 ARG         0.2615
    103 H56        21.8059  -17.5782   95.1835 H         1 ARG         0.2615
    104 H57        22.0578  -18.6047   96.6207 H         1 ARG         0.2615
@<TRIPOS>BOND
     1    1    2 1  
     2    2    3 1  
     3    2    5 1  
     4    3    4 2  
     5    3   12 am 
     6    5    6 1  
     7    6    7 1  
     8    7    8 1  
     9    8    9 ar 
    10    9   10 ar 
    11    9   11 ar 
    12   12   13 1  
    13   13   14 1  
    14   13   16 1  
    15   14   15 2  
    16   14   20 am 
    17   16   17 1  
    18   17   18 1  
    19   17   19 1  
    20   20   21 1  
    21   21   22 1  
    22   21   24 1  
    23   22   23 2  
    24   22   31 am 
    25   24   25 1  
    26   25   26 1  
    27   26   27 1  
    28   27   28 ar 
    29   28   29 ar 
    30   28   30 ar 
    31   31   32 1  
    32   32   33 1  
    33   32   35 1  
    34   33   34 2  
    35   33   36 am 
    36   36   37 1  
    37   37   38 1  
    38   37   40 1  
    39   38   39 ar 
    40   38   47 ar 
    41   40   41 1  
    42   41   42 1  
    43   42   43 1  
    44   43   44 ar 
    45   44   45 ar 
    46   44   46 ar 
    47    1   48 1  
    48    1   49 1  
    49    1   50 1  
    50    2   51 1  
    51    5   52 1  
    52    5   53 1  
    53    6   54 1  
    54    6   55 1  
    55    7   56 1  
    56    7   57 1  
    57    8   58 1  
    58   10   59 1  
    59   10   60 1  
    60   11   61 1  
    61   11   62 1  
    62   12   63 1  
    63   13   64 1  
    64   16   65 1  
    65   16   66 1  
    66   17   67 1  
    67   18   68 1  
    68   18   69 1  
    69   18   70 1  
    70   19   71 1  
    71   19   72 1  
    72   19   73 1  
    73   20   74 1  
    74   21   75 1  
    75   24   76 1  
    76   24   77 1  
    77   25   78 1  
    78   25   79 1  
    79   26   80 1  
    80   26   81 1  
    81   27   82 1  
    82   29   83 1  
    83   29   84 1  
    84   30   85 1  
    85   30   86 1  
    86   31   87 1  
    87   32   88 1  
    88   35   89 1  
    89   35   90 1  
    90   35   91 1  
    91   36   92 1  
    92   37   93 1  
    93   40   94 1  
    94   40   95 1  
    95   41   96 1  
    96   41   97 1  
    97   42   98 1  
    98   42   99 1  
    99   43  100 1  
   100   45  101 1  
   101   45  102 1  
   102   46  103 1  
   103   46  104 1  
@<TRIPOS>SUBSTRUCTURE
     1 ARG         1

