6huv_ligand
  -I-interpret- 

 96 98  0  0  0  0  0  0  0  0999 V2000
   64.2570 -130.9660   43.1310 C   0  0  0  0  0
   64.1430 -129.4790   42.8420 C   0  0  0  0  0
   65.4070 -129.0570   42.1000 C   0  0  0  0  0
   63.6540 -134.0120   42.6830 C   0  0  0  0  0
   63.6290 -135.4450   42.0990 C   0  0  0  0  0
   64.2200 -138.2340   41.2660 C   0  0  0  0  0
   61.3340 -135.4810   39.0100 C   0  0  0  0  0
   61.1420 -134.2560   36.8360 C   0  0  0  0  0
   65.4540 -131.1130   40.8720 C   0  0  0  0  0
   65.3170 -129.6390   40.7110 C   0  0  0  0  0
   64.3490 -131.7220   41.7500 C   0  0  0  0  0
   64.7160 -133.2020   41.9200 C   0  0  0  0  0
   63.5800 -136.5440   43.2080 C   0  0  0  0  0
   62.4240 -136.2690   44.0400 O   0  0  0  0  0
   63.9410 -139.2520   43.5730 C   0  0  0  0  0
   63.4540 -138.0480   42.6220 C   0  0  0  0  0
   62.0550 -138.2840   42.3330 O   0  0  0  0  0
   62.4870 -135.4790   41.1590 N   0  0  0  0  0
   62.6520 -135.4920   39.8150 C   0  0  0  0  0
   63.7490 -135.5520   39.2420 O   0  0  0  0  0
   60.6190 -136.8330   39.2020 C   0  0  0  0  0
   59.2660 -136.7700   38.8440 C   0  0  0  0  0
   58.8990 -136.9870   37.5130 C   0  0  0  0  0
   57.5550 -136.9430   37.1450 C   0  0  0  0  0
   56.5500 -136.6870   38.0900 C   0  0  0  0  0
   55.2530 -136.6540   37.6130 O   0  0  0  0  0
   54.0670 -136.8440   38.4110 C   0  0  0  0  0
   56.9250 -136.4630   39.4300 C   0  0  0  0  0
   58.2740 -136.5140   39.8030 C   0  0  0  0  0
   61.6640 -135.2490   37.5860 N   0  0  0  0  0
   60.2910 -133.4490   37.2260 O   0  0  0  0  0
   61.6740 -134.2080   35.3810 C   0  0  0  0  0
   62.8340 -133.2070   35.2420 C   0  0  0  0  0
   60.5430 -133.8520   34.5010 N   0  0  0  0  0
   59.8310 -134.8020   33.8670 C   0  0  0  0  0
   60.0460 -136.0130   33.9540 O   0  0  0  0  0
   58.6300 -134.2940   33.0580 C   0  0  0  0  0
   57.4640 -134.2440   33.9810 N   0  3  0  0  0
   56.5300 -135.3480   33.7220 C   0  0  0  0  0
   55.4420 -135.1930   34.8020 C   0  0  0  0  0
   54.7070 -133.9570   34.5990 O   0  0  0  0  0
   55.5390 -132.7880   34.7910 C   0  0  0  0  0
   56.8400 -132.9120   34.0400 C   0  0  0  0  0
   63.3880 -131.3093   43.6924 H   0  0  0  0  0
   65.1442 -131.1671   43.7315 H   0  0  0  0  0
   64.0410 -128.9173   43.7705 H   0  0  0  0  0
   63.2599 -129.2753   42.2364 H   0  0  0  0  0
   66.2963 -129.4213   42.6143 H   0  0  0  0  0
   65.4860 -127.9706   42.0590 H   0  0  0  0  0
   63.8978 -134.0438   43.7449 H   0  0  0  0  0
   62.6753 -133.5449   42.5731 H   0  0  0  0  0
   64.5522 -135.6789   41.5689 H   0  0  0  0  0
   63.8115 -137.5495   40.5226 H   0  0  0  0  0
   65.2783 -138.0204   41.4158 H   0  0  0  0  0
   64.1006 -139.2609   40.9206 H   0  0  0  0  0
   60.6679 -134.6898   39.3541 H   0  0  0  0  0
   66.4107 -131.3082   41.3565 H   0  0  0  0  0
   65.3812 -131.5649   39.8828 H   0  0  0  0  0
   66.0981 -129.2388   40.0646 H   0  0  0  0  0
   64.3706 -129.3807   40.2360 H   0  0  0  0  0
   63.3633 -131.6244   41.2950 H   0  0  0  0  0
   64.8054 -133.6346   40.9235 H   0  0  0  0  0
   65.6399 -133.2469   42.4966 H   0  0  0  0  0
   64.5178 -136.5042   43.7621 H   0  0  0  0  0
   62.4895 -135.3785   44.3926 H   0  0  0  0  0
   64.9961 -139.1200   43.8127 H   0  0  0  0  0
   63.3550 -139.2472   44.4920 H   0  0  0  0  0
   63.8006 -140.2012   43.0560 H   0  0  0  0  0
   61.9470 -139.1712   41.9825 H   0  0  0  0  0
   61.5399 -135.4932   41.5375 H   0  0  0  0  0
   60.6792 -137.1024   40.2565 H   0  0  0  0  0
   61.1059 -137.5687   38.5618 H   0  0  0  0  0
   59.6633 -137.1906   36.7630 H   0  0  0  0  0
   57.2798 -137.1106   36.1037 H   0  0  0  0  0
   54.0961 -137.8305   38.8737 H   0  0  0  0  0
   54.0258 -136.0788   39.1862 H   0  0  0  0  0
   53.1858 -136.7658   37.7742 H   0  0  0  0  0
   56.1623 -136.2493   40.1788 H   0  0  0  0  0
   58.5549 -136.3540   40.8439 H   0  0  0  0  0
   62.3299 -135.8814   37.1422 H   0  0  0  0  0
   62.0753 -135.1805   35.0958 H   0  0  0  0  0
   62.4878 -132.2110   35.5181 H   0  0  0  0  0
   63.6501 -133.5048   35.9004 H   0  0  0  0  0
   63.1831 -133.1985   34.2095 H   0  0  0  0  0
   60.2974 -132.8705   34.3715 H   0  0  0  0  0
   58.4254 -134.9582   32.2183 H   0  0  0  0  0
   58.8357 -133.3056   32.6470 H   0  0  0  0  0
   57.8098 -134.3940   34.9288 H   0  0  0  0  0
   57.0213 -136.3197   33.7730 H   0  0  0  0  0
   56.1154 -135.3051   32.7148 H   0  0  0  0  0
   55.9145 -135.1702   35.7840 H   0  0  0  0  0
   54.7515 -136.0338   34.7364 H   0  0  0  0  0
   55.7600 -132.6903   35.8539 H   0  0  0  0  0
   55.0037 -131.9158   34.4158 H   0  0  0  0  0
   56.6099 -132.6490   33.0075 H   0  0  0  0  0
   57.5489 -132.2784   34.5731 H   0  0  0  0  0
  1  2  1  0  0  0
 11  1  1  0  0  0
  2  3  1  0  0  0
 10  3  1  0  0  0
  5  4  1  0  0  0
  4 12  1  0  0  0
  5 13  1  0  0  0
 18  5  1  0  0  0
 16  6  1  0  0  0
 19  7  1  0  0  0
  7 21  1  0  0  0
  7 30  1  0  0  0
 30  8  1  0  0  0
  8 31  2  0  0  0
  8 32  1  0  0  0
  9 10  1  0  0  0
 11  9  1  0  0  0
 12 11  1  0  0  0
 13 14  1  0  0  0
 13 16  1  0  0  0
 16 15  1  0  0  0
 16 17  1  0  0  0
 18 19  1  0  0  0
 19 20  2  0  0  0
 21 22  1  0  0  0
 22 23  4  0  0  0
 22 29  4  0  0  0
 23 24  4  0  0  0
 24 25  4  0  0  0
 25 26  1  0  0  0
 25 28  4  0  0  0
 26 27  1  0  0  0
 28 29  4  0  0  0
 32 33  1  0  0  0
 32 34  1  0  0  0
 34 35  1  0  0  0
 35 36  2  0  0  0
 35 37  1  0  0  0
 37 38  1  0  0  0
 38 39  1  0  0  0
 38 43  1  0  0  0
 39 40  1  0  0  0
 40 41  1  0  0  0
 41 42  1  0  0  0
 42 43  1  0  0  0
  1 44  1  0  0  0
  1 45  1  0  0  0
  2 46  1  0  0  0
  2 47  1  0  0  0
  3 48  1  0  0  0
  3 49  1  0  0  0
  4 50  1  0  0  0
  4 51  1  0  0  0
  5 52  1  0  0  0
  6 53  1  0  0  0
  6 54  1  0  0  0
  6 55  1  0  0  0
  7 56  1  0  0  0
  9 57  1  0  0  0
  9 58  1  0  0  0
 10 59  1  0  0  0
 10 60  1  0  0  0
 11 61  1  0  0  0
 12 62  1  0  0  0
 12 63  1  0  0  0
 13 64  1  0  0  0
 14 65  1  0  0  0
 15 66  1  0  0  0
 15 67  1  0  0  0
 15 68  1  0  0  0
 17 69  1  0  0  0
 18 70  1  0  0  0
 21 71  1  0  0  0
 21 72  1  0  0  0
 23 73  1  0  0  0
 24 74  1  0  0  0
 27 75  1  0  0  0
 27 76  1  0  0  0
 27 77  1  0  0  0
 28 78  1  0  0  0
 29 79  1  0  0  0
 30 80  1  0  0  0
 32 81  1  0  0  0
 33 82  1  0  0  0
 33 83  1  0  0  0
 33 84  1  0  0  0
 34 85  1  0  0  0
 37 86  1  0  0  0
 37 87  1  0  0  0
 38 88  1  0  0  0
 39 89  1  0  0  0
 39 90  1  0  0  0
 40 91  1  0  0  0
 40 92  1  0  0  0
 42 93  1  0  0  0
 42 94  1  0  0  0
 43 95  1  0  0  0
 43 96  1  0  0  0
M  END
$$$$
