### 
### Created by X-TOOL on Mon Sep 10 21:13:02 2018
### 

@<TRIPOS>MOLECULE
2kbs_ligand
  132   132     1     0     0
SMALL
GAST_HUCK


@<TRIPOS>ATOM
      1 N          -4.4240  -13.1550   12.5840 N.4       1 THR         0.2398
      2 CA         -4.3630  -11.8180   13.1620 C.3       1 THR         0.0912
      3 C          -4.1580  -10.7640   12.0770 C.2       1 THR         0.2318
      4 O          -3.5330  -11.0300   11.0500 O.2       1 THR        -0.3904
      5 CB         -3.2310  -11.7340   14.1890 C.3       1 THR         0.1120
      6 OG1        -2.0020  -12.1410   13.6150 O.3       1 THR        -0.3840
      7 CG2        -3.4730  -12.5870   15.4150 C.3       1 THR        -0.0314
      8 N          -4.6840   -9.5450   12.2900 N.am      1 PRO        -0.2471
      9 CA         -4.5560   -8.4490   11.3250 C.3       1 PRO         0.1339
     10 C          -3.1030   -8.1770   10.9480 C.2       1 PRO         0.2041
     11 O          -2.1910   -8.4080   11.7430 O.2       1 PRO        -0.3944
     12 CB         -5.1470   -7.2460   12.0630 C.3       1 PRO        -0.0104
     13 CG         -6.0670   -7.8360   13.0770 C.3       1 PRO        -0.0281
     14 CD         -5.4440   -9.1410   13.4870 C.3       1 PRO         0.0371
     15 N          -2.8940   -7.6830    9.7320 N.am      1 LEU        -0.2637
     16 CA         -1.5530   -7.3770    9.2510 C.3       1 LEU         0.1312
     17 C          -1.1040   -6.0010    9.7300 C.2       1 LEU         0.2039
     18 O          -1.9280   -5.1270   10.0010 O.2       1 LEU        -0.3944
     19 CB         -1.5100   -7.4390    7.7230 C.3       1 LEU        -0.0101
     20 CG         -1.9830   -8.7600    7.1140 C.3       1 LEU        -0.0425
     21 CD1        -2.6680   -8.5140    5.7770 C.3       1 LEU        -0.0625
     22 CD2        -0.8130   -9.7180    6.9470 C.3       1 LEU        -0.0625
     23 N           0.2080   -5.8120    9.8310 N.am      1 GLU        -0.2636
     24 CA          0.7650   -4.5400   10.2770 C.3       1 GLU         0.1325
     25 C           0.3840   -3.4140    9.3220 C.2       1 GLU         0.2040
     26 O           0.2170   -3.6340    8.1230 O.2       1 GLU        -0.3944
     27 CB          2.2880   -4.6370   10.3890 C.3       1 GLU        -0.0008
     28 CG          2.7610   -5.7590   11.3010 C.3       1 GLU         0.0044
     29 CD          3.7130   -5.2760   12.3760 C.2       1 GLU         0.0350
     30 OE1         4.9280   -5.1980   12.1020 O.co2     1 GLU        -0.5690
     31 OE2         3.2430   -4.9740   13.4940 O.co2     1 GLU        -0.5690
     32 N           0.2500   -2.2080    9.8620 N.am      1 ILE        -0.2635
     33 CA         -0.1090   -1.0470    9.0580 C.3       1 ILE         0.1335
     34 C           0.7460    0.1620    9.4240 C.2       1 ILE         0.2042
     35 O           1.2140    0.2830   10.5560 O.2       1 ILE        -0.3944
     36 CB         -1.5960   -0.6810    9.2310 C.3       1 ILE        -0.0037
     37 CG1        -2.4710   -1.9230    9.0580 C.3       1 ILE        -0.0491
     38 CG2        -1.9950    0.3980    8.2350 C.3       1 ILE        -0.0582
     39 CD1        -3.9250   -1.6920    9.4140 C.3       1 ILE        -0.0648
     40 N           0.9450    1.0540    8.4600 N.am      1 THR        -0.2613
     41 CA          1.7440    2.2540    8.6820 C.3       1 THR         0.1565
     42 C           1.0520    3.4840    8.1040 C.2       1 THR         0.2065
     43 O           0.3440    3.3950    7.1020 O.2       1 THR        -0.3943
     44 CB          3.1290    2.0910    8.0550 C.3       1 THR         0.0924
     45 OG1         3.7360    0.8870    8.4850 O.3       1 THR        -0.3874
     46 CG2         4.0730    3.2260    8.3880 C.3       1 THR        -0.0346
     47 N           1.2620    4.6300    8.7420 N.am      1 GLU        -0.2635
     48 CA          0.6570    5.8770    8.2900 C.3       1 GLU         0.1324
     49 C           1.6730    6.7340    7.5400 C.2       1 GLU         0.2034
     50 O           2.7670    6.9990    8.0380 O.2       1 GLU        -0.3944
     51 CB          0.0930    6.6560    9.4840 C.3       1 GLU        -0.0008
     52 CG         -1.4190    6.8010    9.4540 C.3       1 GLU         0.0044
     53 CD         -1.8810    8.1800    9.8780 C.2       1 GLU         0.0350
     54 OE1        -1.4190    8.6630   10.9320 O.co2     1 GLU        -0.5690
     55 OE2        -2.7060    8.7780    9.1550 O.co2     1 GLU        -0.5690
     56 N           1.3030    7.1620    6.3370 N.am      1 LEU        -0.2695
     57 CA          2.1800    7.9870    5.5160 C.3       1 LEU         0.0946
     58 C           1.5320    9.3340    5.2120 C.2       1 LEU         0.0601
     59 O           0.4140    9.5780    5.7120 O.co2     1 LEU        -0.5666
     60 CB          2.5220    7.2660    4.2110 C.3       1 LEU        -0.0156
     61 CG          2.8470    5.7790    4.3590 C.3       1 LEU        -0.0431
     62 CD1         3.0080    5.1280    2.9940 C.3       1 LEU        -0.0625
     63 CD2         4.1050    5.5900    5.1930 C.3       1 LEU        -0.0625
     64 OXT         2.1470   10.1330    4.4740 O.co2     1 LEU        -0.5666
     65 H1         -5.1728  -13.1960   11.9104 H         1 THR         0.2016
     66 H2         -4.5917  -13.8294   13.3141 H         1 THR         0.2016
     67 H3         -3.5498  -13.3640   12.1277 H         1 THR         0.2016
     68 H4         -5.3165  -11.6149   13.6715 H         1 THR         0.1125
     69 H5         -3.1443  -10.6850   14.5084 H         1 THR         0.0674
     70 H6         -1.7937  -11.5749   12.8811 H         1 THR         0.2102
     71 H7         -2.6258  -12.4808   16.1086 H         1 THR         0.0258
     72 H8         -3.5714  -13.6407   15.1150 H         1 THR         0.0258
     73 H9         -4.3976  -12.2596   15.9128 H         1 THR         0.0258
     74 H10        -5.1303   -8.6703   10.4133 H         1 PRO         0.0802
     75 H11        -5.7010   -6.5985   11.3674 H         1 PRO         0.0313
     76 H12        -4.3529   -6.6634   12.5528 H         1 PRO         0.0313
     77 H13        -7.0610   -8.0075   12.6382 H         1 PRO         0.0287
     78 H14        -6.1599   -7.1668   13.9450 H         1 PRO         0.0287
     79 H15        -4.7762   -9.0047   14.3504 H         1 PRO         0.0524
     80 H16        -6.2153   -9.8854   13.7339 H         1 PRO         0.0524
     81 H17        -3.6767   -7.5171    9.1321 H         1 LEU         0.1883
     82 H18        -0.8590   -8.1300    9.6527 H         1 LEU         0.0800
     83 H19        -0.4710   -7.2694    7.4041 H         1 LEU         0.0315
     84 H20        -2.1498   -6.6346    7.3311 H         1 LEU         0.0315
     85 H21        -2.7119   -9.2178    7.7990 H         1 LEU         0.0298
     86 H22        -3.0013   -9.4731    5.3538 H         1 LEU         0.0232
     87 H23        -1.9601   -8.0342    5.0851 H         1 LEU         0.0232
     88 H24        -3.5376   -7.8570    5.9259 H         1 LEU         0.0232
     89 H25        -0.3319   -9.8828    7.9224 H         1 LEU         0.0232
     90 H26        -0.0829   -9.2866    6.2464 H         1 LEU         0.0232
     91 H27        -1.1781  -10.6773    6.5516 H         1 LEU         0.0232
     92 H28         0.8282   -6.5603    9.5954 H         1 GLU         0.1883
     93 H29         0.3536   -4.3093   11.2707 H         1 GLU         0.0801
     94 H30         2.6692   -3.6837   10.7840 H         1 GLU         0.0330
     95 H31         2.7005   -4.8086    9.3838 H         1 GLU         0.0330
     96 H32         3.2746   -6.5161   10.6903 H         1 GLU         0.0433
     97 H33         1.8837   -6.2122   11.7856 H         1 GLU         0.0433
     98 H34         0.3991   -2.0940   10.8442 H         1 ILE         0.1883
     99 H35         0.0691   -1.2950    8.0012 H         1 ILE         0.0803
    100 H36        -1.7438   -0.2887   10.2480 H         1 ILE         0.0345
    101 H37        -2.0764   -2.7199    9.7055 H         1 ILE         0.0267
    102 H38        -2.4166   -2.2437    8.0072 H         1 ILE         0.0267
    103 H39        -1.3549    1.2815    8.3755 H         1 ILE         0.0235
    104 H40        -3.0463    0.6772    8.3984 H         1 ILE         0.0235
    105 H41        -1.8721    0.0154    7.2110 H         1 ILE         0.0235
    106 H42        -4.4911   -2.6235    9.2662 H         1 ILE         0.0230
    107 H43        -4.3400   -0.9043    8.7680 H         1 ILE         0.0230
    108 H44        -3.9999   -1.3805   10.4663 H         1 ILE         0.0230
    109 H45         0.5371    0.8991    7.5602 H         1 THR         0.1884
    110 H46         1.8633    2.3974    9.7660 H         1 THR         0.0826
    111 H47         3.0013    2.0552    6.9630 H         1 THR         0.0639
    112 H48         3.1938    0.1507    8.2274 H         1 THR         0.2101
    113 H49         5.0462    3.0464    7.9077 H         1 THR         0.0257
    114 H50         4.2073    3.2834    9.4783 H         1 THR         0.0257
    115 H51         3.6518    4.1732    8.0200 H         1 THR         0.0257
    116 H52         1.8490    4.6375    9.5515 H         1 GLU         0.1883
    117 H53        -0.1695    5.6355    7.6055 H         1 GLU         0.0801
    118 H54         0.5391    7.6615    9.4857 H         1 GLU         0.0330
    119 H55         0.3738    6.1287   10.4076 H         1 GLU         0.0330
    120 H56        -1.8577    6.0575   10.1357 H         1 GLU         0.0433
    121 H57        -1.7708    6.6114    8.4292 H         1 GLU         0.0433
    122 H58         0.4004    6.9116    5.9867 H         1 LEU         0.1875
    123 H59         3.1116    8.1653    6.0731 H         1 LEU         0.0726
    124 H60         3.3961    7.7634    3.7655 H         1 LEU         0.0308
    125 H61         1.6610    7.3610    3.5331 H         1 LEU         0.0308
    126 H62         2.0095    5.2910    4.8790 H         1 LEU         0.0297
    127 H63         3.2410    4.0606    3.1221 H         1 LEU         0.0232
    128 H64         3.8269    5.6191    2.4478 H         1 LEU         0.0232
    129 H65         2.0726    5.2334    2.4249 H         1 LEU         0.0232
    130 H66         3.9691    6.0670    6.1748 H         1 LEU         0.0232
    131 H67         4.9599    6.0510    4.6767 H         1 LEU         0.0232
    132 H68         4.2957    4.5154    5.3307 H         1 LEU         0.0232
@<TRIPOS>BOND
     1    1    2 1  
     2    2    3 1  
     3    2    5 1  
     4    3    4 2  
     5    3    8 am 
     6    5    6 1  
     7    5    7 1  
     8    8    9 1  
     9    8   14 1  
    10    9   10 1  
    11    9   12 1  
    12   10   11 2  
    13   10   15 am 
    14   12   13 1  
    15   13   14 1  
    16   15   16 1  
    17   16   17 1  
    18   16   19 1  
    19   17   18 2  
    20   17   23 am 
    21   19   20 1  
    22   20   21 1  
    23   20   22 1  
    24   23   24 1  
    25   24   25 1  
    26   24   27 1  
    27   25   26 2  
    28   25   32 am 
    29   27   28 1  
    30   28   29 1  
    31   29   30 ar 
    32   29   31 ar 
    33   32   33 1  
    34   33   34 1  
    35   33   36 1  
    36   34   35 2  
    37   34   40 am 
    38   36   37 1  
    39   36   38 1  
    40   37   39 1  
    41   40   41 1  
    42   41   42 1  
    43   41   44 1  
    44   42   43 2  
    45   42   47 am 
    46   44   45 1  
    47   44   46 1  
    48   47   48 1  
    49   48   49 1  
    50   48   51 1  
    51   49   50 2  
    52   49   56 am 
    53   51   52 1  
    54   52   53 1  
    55   53   54 ar 
    56   53   55 ar 
    57   56   57 1  
    58   57   58 1  
    59   57   60 1  
    60   58   59 ar 
    61   58   64 ar 
    62   60   61 1  
    63   61   62 1  
    64   61   63 1  
    65    1   65 1  
    66    1   66 1  
    67    1   67 1  
    68    2   68 1  
    69    5   69 1  
    70    6   70 1  
    71    7   71 1  
    72    7   72 1  
    73    7   73 1  
    74    9   74 1  
    75   12   75 1  
    76   12   76 1  
    77   13   77 1  
    78   13   78 1  
    79   14   79 1  
    80   14   80 1  
    81   15   81 1  
    82   16   82 1  
    83   19   83 1  
    84   19   84 1  
    85   20   85 1  
    86   21   86 1  
    87   21   87 1  
    88   21   88 1  
    89   22   89 1  
    90   22   90 1  
    91   22   91 1  
    92   23   92 1  
    93   24   93 1  
    94   27   94 1  
    95   27   95 1  
    96   28   96 1  
    97   28   97 1  
    98   32   98 1  
    99   33   99 1  
   100   36  100 1  
   101   37  101 1  
   102   37  102 1  
   103   38  103 1  
   104   38  104 1  
   105   38  105 1  
   106   39  106 1  
   107   39  107 1  
   108   39  108 1  
   109   40  109 1  
   110   41  110 1  
   111   44  111 1  
   112   45  112 1  
   113   46  113 1  
   114   46  114 1  
   115   46  115 1  
   116   47  116 1  
   117   48  117 1  
   118   51  118 1  
   119   51  119 1  
   120   52  120 1  
   121   52  121 1  
   122   56  122 1  
   123   57  123 1  
   124   60  124 1  
   125   60  125 1  
   126   61  126 1  
   127   62  127 1  
   128   62  128 1  
   129   62  129 1  
   130   63  130 1  
   131   63  131 1  
   132   63  132 1  
@<TRIPOS>SUBSTRUCTURE
     1 THR         1

