2kbs_ligand
  -I-interpret- 

135135  0  0  0  0  0  0  0  0999 V2000
   -4.4240  -13.1550   12.5840 N   0  3  0  0  0
   -4.3630  -11.8180   13.1620 C   0  0  0  0  0
   -4.1580  -10.7640   12.0770 C   0  0  0  0  0
   -3.5330  -11.0300   11.0500 O   0  0  0  0  0
   -3.2310  -11.7340   14.1890 C   0  0  0  0  0
   -2.0020  -12.1410   13.6150 O   0  0  0  0  0
   -3.4730  -12.5870   15.4150 C   0  0  0  0  0
   -4.6840   -9.5450   12.2900 N   0  0  0  0  0
   -4.5560   -8.4490   11.3250 C   0  0  0  0  0
   -3.1030   -8.1770   10.9480 C   0  0  0  0  0
   -2.1910   -8.4080   11.7430 O   0  0  0  0  0
   -5.1470   -7.2460   12.0630 C   0  0  0  0  0
   -6.0670   -7.8360   13.0770 C   0  0  0  0  0
   -5.4440   -9.1410   13.4870 C   0  0  0  0  0
   -2.8940   -7.6830    9.7320 N   0  0  0  0  0
   -1.5530   -7.3770    9.2510 C   0  0  0  0  0
   -1.1040   -6.0010    9.7300 C   0  0  0  0  0
   -1.9280   -5.1270   10.0010 O   0  0  0  0  0
   -1.5100   -7.4390    7.7230 C   0  0  0  0  0
   -1.9830   -8.7600    7.1140 C   0  0  0  0  0
   -2.6680   -8.5140    5.7770 C   0  0  0  0  0
   -0.8130   -9.7180    6.9470 C   0  0  0  0  0
    0.2080   -5.8120    9.8310 N   0  0  0  0  0
    0.7650   -4.5400   10.2770 C   0  0  0  0  0
    0.3840   -3.4140    9.3220 C   0  0  0  0  0
    0.2170   -3.6340    8.1230 O   0  0  0  0  0
    2.2880   -4.6370   10.3890 C   0  0  0  0  0
    2.7610   -5.7590   11.3010 C   0  0  0  0  0
    3.7130   -5.2760   12.3760 C   0  0  0  0  0
    4.9280   -5.1980   12.1020 O   0  0  0  0  0
    3.2430   -4.9740   13.4940 O   0  0  0  0  0
    0.2500   -2.2080    9.8620 N   0  0  0  0  0
   -0.1090   -1.0470    9.0580 C   0  0  0  0  0
    0.7460    0.1620    9.4240 C   0  0  0  0  0
    1.2140    0.2830   10.5560 O   0  0  0  0  0
   -1.5960   -0.6810    9.2310 C   0  0  0  0  0
   -2.4710   -1.9230    9.0580 C   0  0  0  0  0
   -1.9950    0.3980    8.2350 C   0  0  0  0  0
   -3.9250   -1.6920    9.4140 C   0  0  0  0  0
    0.9450    1.0540    8.4600 N   0  0  0  0  0
    1.7440    2.2540    8.6820 C   0  0  0  0  0
    1.0520    3.4840    8.1040 C   0  0  0  0  0
    0.3440    3.3950    7.1020 O   0  0  0  0  0
    3.1290    2.0910    8.0550 C   0  0  0  0  0
    3.7360    0.8870    8.4850 O   0  0  0  0  0
    4.0730    3.2260    8.3880 C   0  0  0  0  0
    1.2620    4.6300    8.7420 N   0  0  0  0  0
    0.6570    5.8770    8.2900 C   0  0  0  0  0
    1.6730    6.7340    7.5400 C   0  0  0  0  0
    2.7670    6.9990    8.0380 O   0  0  0  0  0
    0.0930    6.6560    9.4840 C   0  0  0  0  0
   -1.4190    6.8010    9.4540 C   0  0  0  0  0
   -1.8810    8.1800    9.8780 C   0  0  0  0  0
   -1.4190    8.6630   10.9320 O   0  0  0  0  0
   -2.7060    8.7780    9.1550 O   0  0  0  0  0
    1.3030    7.1620    6.3370 N   0  0  0  0  0
    2.1800    7.9870    5.5160 C   0  0  0  0  0
    1.5320    9.3340    5.2120 C   0  0  0  0  0
    0.4140    9.5780    5.7120 O   0  0  0  0  0
    2.5220    7.2660    4.2110 C   0  0  0  0  0
    2.8470    5.7790    4.3590 C   0  0  0  0  0
    3.0080    5.1280    2.9940 C   0  0  0  0  0
    4.1050    5.5900    5.1930 C   0  0  0  0  0
    2.1470   10.1330    4.4740 O   0  0  0  0  0
   -5.1820  -13.1953   11.9026 H   0  0  0  0  0
   -3.5389  -13.3654   12.1227 H   0  0  0  0  0
   -4.5936  -13.8365   13.3237 H   0  0  0  0  0
   -5.3126  -11.6220   13.6600 H   0  0  0  0  0
   -3.1945  -10.6887   14.4958 H   0  0  0  0  0
   -1.8250  -11.6132   12.8329 H   0  0  0  0  0
   -3.5202  -13.6360   15.1227 H   0  0  0  0  0
   -2.6574  -12.4423   16.1235 H   0  0  0  0  0
   -4.4151  -12.2951   15.8790 H   0  0  0  0  0
   -5.0595   -8.6770   10.3855 H   0  0  0  0  0
   -5.6693   -6.5706   11.3854 H   0  0  0  0  0
   -4.3731   -6.6330   12.5250 H   0  0  0  0  0
   -7.0655   -7.9856   12.6663 H   0  0  0  0  0
   -6.1929   -7.1714   13.9317 H   0  0  0  0  0
   -4.8142   -9.0457   14.3715 H   0  0  0  0  0
   -6.1839   -9.8839   13.7848 H   0  0  0  0  0
   -3.6923   -7.5138    9.1201 H   0  0  0  0  0
   -0.8693   -8.1228    9.6565 H   0  0  0  0  0
   -0.4666   -7.3154    7.4330 H   0  0  0  0  0
   -2.1857   -6.6654    7.3583 H   0  0  0  0  0
   -2.7052   -9.2147    7.7921 H   0  0  0  0  0
   -3.5294   -7.8629    5.9259 H   0  0  0  0  0
   -1.9656   -8.0386    5.0924 H   0  0  0  0  0
   -2.9978   -9.4650    5.3587 H   0  0  0  0  0
   -0.0691   -9.2697    6.2884 H   0  0  0  0  0
   -0.3655   -9.9162    7.9209 H   0  0  0  0  0
   -1.1691  -10.6521    6.5125 H   0  0  0  0  0
    0.8406   -6.5752    9.5907 H   0  0  0  0  0
    0.3493   -4.3146   11.2591 H   0  0  0  0  0
    2.6451   -3.6985   10.8130 H   0  0  0  0  0
    2.6769   -4.8407    9.3913 H   0  0  0  0  0
    3.2905   -6.4882   10.6878 H   0  0  0  0  0
    1.8854   -6.1812   11.7942 H   0  0  0  0  0
    2.2924   -5.1077   13.4870 H   0  0  0  0  0
    0.4021   -2.0917   10.8639 H   0  0  0  0  0
    0.0729   -1.3156    8.0174 H   0  0  0  0  0
   -1.7453   -0.2912   10.2379 H   0  0  0  0  0
   -2.0871   -2.6905    9.7301 H   0  0  0  0  0
   -2.4323   -2.2071    8.0064 H   0  0  0  0  0
   -1.3877    1.2875    8.4022 H   0  0  0  0  0
   -1.8341    0.0320    7.2210 H   0  0  0  0  0
   -3.0480    0.6446    8.3709 H   0  0  0  0  0
   -3.9978   -1.3834   10.4569 H   0  0  0  0  0
   -4.3350   -0.9113    8.7733 H   0  0  0  0  0
   -4.4849   -2.6156    9.2671 H   0  0  0  0  0
    0.5290    0.8960    7.5422 H   0  0  0  0  0
    1.8533    2.3943    9.7574 H   0  0  0  0  0
    2.9597    2.0842    6.9783 H   0  0  0  0  0
    4.6027    0.8046    8.0804 H   0  0  0  0  0
    3.6545    4.1639    8.0229 H   0  0  0  0  0
    4.2051    3.2818    9.4685 H   0  0  0  0  0
    5.0369    3.0469    7.9116 H   0  0  0  0  0
    1.8607    4.6377    9.5677 H   0  0  0  0  0
   -0.1571    5.6323    7.6077 H   0  0  0  0  0
    0.5188    7.6589    9.4513 H   0  0  0  0  0
    0.3510    6.1029   10.3871 H   0  0  0  0  0
   -1.8391    6.0772   10.1524 H   0  0  0  0  0
   -1.7513    6.6366    8.4290 H   0  0  0  0  0
   -2.9256    8.2279    8.3995 H   0  0  0  0  0
    0.3824    6.9066    5.9797 H   0  0  0  0  0
    3.0986    8.1636    6.0755 H   0  0  0  0  0
    3.4162    7.7450    3.8123 H   0  0  0  0  0
    1.6398    7.3331    3.5743 H   0  0  0  0  0
    2.0167    5.2948    4.8731 H   0  0  0  0  0
    2.0805    5.2331    2.4311 H   0  0  0  0  0
    3.8196    5.6155    2.4538 H   0  0  0  0  0
    3.2388    4.0705    3.1222 H   0  0  0  0  0
    4.9417    6.0894    4.7045 H   0  0  0  0  0
    3.9513    6.0200    6.1827 H   0  0  0  0  0
    4.3203    4.5257    5.2873 H   0  0  0  0  0
    2.9811    9.7412    4.2050 H   0  0  0  0  0
  1  2  1  0  0  0
  2  3  1  0  0  0
  2  5  1  0  0  0
  3  4  2  0  0  0
  3  8  1  0  0  0
  5  6  1  0  0  0
  5  7  1  0  0  0
  8  9  1  0  0  0
  8 14  1  0  0  0
  9 10  1  0  0  0
  9 12  1  0  0  0
 10 11  2  0  0  0
 10 15  1  0  0  0
 12 13  1  0  0  0
 13 14  1  0  0  0
 15 16  1  0  0  0
 16 17  1  0  0  0
 16 19  1  0  0  0
 17 18  2  0  0  0
 17 23  1  0  0  0
 19 20  1  0  0  0
 20 21  1  0  0  0
 20 22  1  0  0  0
 23 24  1  0  0  0
 24 25  1  0  0  0
 24 27  1  0  0  0
 25 26  2  0  0  0
 25 32  1  0  0  0
 27 28  1  0  0  0
 28 29  1  0  0  0
 29 30  2  0  0  0
 29 31  1  0  0  0
 32 33  1  0  0  0
 33 34  1  0  0  0
 33 36  1  0  0  0
 34 35  2  0  0  0
 34 40  1  0  0  0
 36 37  1  0  0  0
 36 38  1  0  0  0
 37 39  1  0  0  0
 40 41  1  0  0  0
 41 42  1  0  0  0
 41 44  1  0  0  0
 42 43  2  0  0  0
 42 47  1  0  0  0
 44 45  1  0  0  0
 44 46  1  0  0  0
 47 48  1  0  0  0
 48 49  1  0  0  0
 48 51  1  0  0  0
 49 50  2  0  0  0
 49 56  1  0  0  0
 51 52  1  0  0  0
 52 53  1  0  0  0
 53 54  2  0  0  0
 53 55  1  0  0  0
 56 57  1  0  0  0
 57 58  1  0  0  0
 57 60  1  0  0  0
 58 59  2  0  0  0
 58 64  1  0  0  0
 60 61  1  0  0  0
 61 62  1  0  0  0
 61 63  1  0  0  0
  1 65  1  0  0  0
  1 66  1  0  0  0
  1 67  1  0  0  0
  2 68  1  0  0  0
  5 69  1  0  0  0
  6 70  1  0  0  0
  7 71  1  0  0  0
  7 72  1  0  0  0
  7 73  1  0  0  0
  9 74  1  0  0  0
 12 75  1  0  0  0
 12 76  1  0  0  0
 13 77  1  0  0  0
 13 78  1  0  0  0
 14 79  1  0  0  0
 14 80  1  0  0  0
 15 81  1  0  0  0
 16 82  1  0  0  0
 19 83  1  0  0  0
 19 84  1  0  0  0
 20 85  1  0  0  0
 21 86  1  0  0  0
 21 87  1  0  0  0
 21 88  1  0  0  0
 22 89  1  0  0  0
 22 90  1  0  0  0
 22 91  1  0  0  0
 23 92  1  0  0  0
 24 93  1  0  0  0
 27 94  1  0  0  0
 27 95  1  0  0  0
 28 96  1  0  0  0
 28 97  1  0  0  0
 31 98  1  0  0  0
 32 99  1  0  0  0
 33100  1  0  0  0
 36101  1  0  0  0
 37102  1  0  0  0
 37103  1  0  0  0
 38104  1  0  0  0
 38105  1  0  0  0
 38106  1  0  0  0
 39107  1  0  0  0
 39108  1  0  0  0
 39109  1  0  0  0
 40110  1  0  0  0
 41111  1  0  0  0
 44112  1  0  0  0
 45113  1  0  0  0
 46114  1  0  0  0
 46115  1  0  0  0
 46116  1  0  0  0
 47117  1  0  0  0
 48118  1  0  0  0
 51119  1  0  0  0
 51120  1  0  0  0
 52121  1  0  0  0
 52122  1  0  0  0
 55123  1  0  0  0
 56124  1  0  0  0
 57125  1  0  0  0
 60126  1  0  0  0
 60127  1  0  0  0
 61128  1  0  0  0
 62129  1  0  0  0
 62130  1  0  0  0
 62131  1  0  0  0
 63132  1  0  0  0
 63133  1  0  0  0
 63134  1  0  0  0
 64135  1  0  0  0
M  END
$$$$
