6k1q_ligand
  -I-interpret- 

 77 81  0  0  0  0  0  0  0  0999 V2000
   36.2380   33.1440   23.8560 C   0  0  0  0  0
   36.4890   34.4890   23.6500 C   0  0  0  0  0
   37.5170   35.1300   24.3310 C   0  0  0  0  0
   38.3100   34.4040   25.2010 C   0  0  0  0  0
   38.0580   33.0550   25.4070 C   0  0  0  0  0
   37.0240   32.4230   24.7350 C   0  0  0  0  0
   35.0950   32.4690   23.1080 C   0  0  0  0  0
   38.9240   32.2600   26.3710 C   0  0  0  0  0
   37.8000   36.6210   24.0880 C   0  0  0  0  0
   36.8130   37.6790   24.2950 N   0  0  0  0  0
   37.1750   39.0540   23.9980 C   0  0  0  0  0
   36.8040   40.1010   25.0540 C   0  0  0  0  0
   37.2480   39.7000   26.4690 C   0  0  0  0  0
   38.4990   39.1400   26.6820 C   0  0  0  0  0
   38.8740   38.7820   27.9670 C   0  0  0  0  0
   38.0020   38.9800   29.0290 C   0  0  0  0  0
   36.7530   39.5340   28.8080 C   0  0  0  0  0
   36.3760   39.8920   27.5250 C   0  0  0  0  0
   38.4050   38.5760   30.4540 C   0  0  0  0  0
   37.4330   38.1280   31.3350 C   0  0  0  0  0
   37.7800   37.7550   32.6230 C   0  0  0  0  0
   39.1010   37.8280   33.0310 C   0  0  0  0  0
   40.0740   38.2740   32.1560 C   0  0  0  0  0
   39.7290   38.6490   30.8640 C   0  0  0  0  0
   35.4590   37.4110   24.7440 C   0  0  0  0  0
   38.8810   36.9280   23.7070 O   0  0  0  0  0
   36.6940   39.3930   22.5860 C   0  0  0  0  0
   35.9900   40.3280   22.3850 O   0  0  0  0  0
   37.1280   38.5080   21.5140 N   0  0  0  0  0
   36.7080   38.7140   20.1350 C   0  0  0  0  0
   35.7950   37.5420   19.7720 C   0  0  0  0  0
   37.9150   38.8310   19.1960 C   0  0  0  0  0
   38.6370   40.1750   19.3550 C   0  0  0  0  0
   38.2510   41.2690   20.1250 C   0  0  0  0  0
   39.1540   42.2250   19.9930 N   0  0  0  0  0
   40.1340   41.8230   19.1720 C   0  0  0  0  0
   39.8510   40.5390   18.7470 C   0  0  0  0  0
   41.2990   42.4640   18.7200 C   0  0  0  0  0
   42.1630   41.8060   17.8540 C   0  0  0  0  0
   41.8690   40.5120   17.4280 C   0  0  0  0  0
   40.7190   39.8700   17.8730 C   0  0  0  0  0
   34.8000   37.7500   19.0320 O   0  0  0  0  0
   36.0280   36.3860   20.2180 O   0  0  0  0  0
   35.8745   35.0512   22.9468 H   0  0  0  0  0
   39.1325   34.8912   25.7246 H   0  0  0  0  0
   36.8315   31.3627   24.8988 H   0  0  0  0  0
   34.1557   32.9594   23.3633 H   0  0  0  0  0
   35.2678   32.5484   22.0347 H   0  0  0  0  0
   35.0467   31.4180   23.3927 H   0  0  0  0  0
   39.9601   32.2873   26.0337 H   0  0  0  0  0
   38.8530   32.6977   27.3667 H   0  0  0  0  0
   38.5776   31.2270   26.4013 H   0  0  0  0  0
   38.2628   39.1105   24.0379 H   0  0  0  0  0
   35.7185   40.2003   25.0596 H   0  0  0  0  0
   37.3106   41.0309   24.7954 H   0  0  0  0  0
   39.1808   38.9830   25.8462 H   0  0  0  0  0
   39.8561   38.3438   28.1445 H   0  0  0  0  0
   36.0681   39.6880   29.6419 H   0  0  0  0  0
   35.3918   40.3253   27.3471 H   0  0  0  0  0
   36.3932   38.0691   31.0134 H   0  0  0  0  0
   37.0139   37.4044   33.3146 H   0  0  0  0  0
   39.3744   37.5332   34.0441 H   0  0  0  0  0
   41.1130   38.3314   32.4805 H   0  0  0  0  0
   40.4961   38.9998   30.1737 H   0  0  0  0  0
   34.9614   36.7599   24.0253 H   0  0  0  0  0
   35.4905   36.9223   25.7178 H   0  0  0  0  0
   34.9118   38.3502   24.8249 H   0  0  0  0  0
   37.7418   37.7238   21.7347 H   0  0  0  0  0
   36.1672   39.6539   20.0249 H   0  0  0  0  0
   37.5572   38.7552   18.1692 H   0  0  0  0  0
   38.6176   38.0349   19.4425 H   0  0  0  0  0
   37.3508   41.3275   20.7369 H   0  0  0  0  0
   41.5253   43.4783   19.0489 H   0  0  0  0  0
   43.0702   42.3013   17.5079 H   0  0  0  0  0
   42.5444   40.0005   16.7422 H   0  0  0  0  0
   40.4942   38.8551   17.5451 H   0  0  0  0  0
   36.8196   36.4072   20.7607 H   0  0  0  0  0
  1  2  4  0  0  0
  1  6  4  0  0  0
  1  7  1  0  0  0
  2  3  4  0  0  0
  3  4  4  0  0  0
  3  9  1  0  0  0
  4  5  4  0  0  0
  5  6  4  0  0  0
  5  8  1  0  0  0
  9 10  1  0  0  0
  9 26  2  0  0  0
 10 11  1  0  0  0
 10 25  1  0  0  0
 11 12  1  0  0  0
 11 27  1  0  0  0
 12 13  1  0  0  0
 13 14  4  0  0  0
 13 18  4  0  0  0
 14 15  4  0  0  0
 15 16  4  0  0  0
 16 17  4  0  0  0
 16 19  1  0  0  0
 17 18  4  0  0  0
 19 20  4  0  0  0
 19 24  4  0  0  0
 20 21  4  0  0  0
 21 22  4  0  0  0
 22 23  4  0  0  0
 23 24  4  0  0  0
 27 28  2  0  0  0
 27 29  1  0  0  0
 29 30  1  0  0  0
 30 31  1  0  0  0
 30 32  1  0  0  0
 31 42  2  0  0  0
 31 43  1  0  0  0
 32 33  1  0  0  0
 33 34  4  0  0  0
 33 37  4  0  0  0
 34 35  4  0  0  0
 35 36  4  0  0  0
 36 37  4  0  0  0
 36 38  4  0  0  0
 37 41  4  0  0  0
 38 39  4  0  0  0
 39 40  4  0  0  0
 40 41  4  0  0  0
  2 44  1  0  0  0
  4 45  1  0  0  0
  6 46  1  0  0  0
  7 47  1  0  0  0
  7 48  1  0  0  0
  7 49  1  0  0  0
  8 50  1  0  0  0
  8 51  1  0  0  0
  8 52  1  0  0  0
 11 53  1  0  0  0
 12 54  1  0  0  0
 12 55  1  0  0  0
 14 56  1  0  0  0
 15 57  1  0  0  0
 17 58  1  0  0  0
 18 59  1  0  0  0
 20 60  1  0  0  0
 21 61  1  0  0  0
 22 62  1  0  0  0
 23 63  1  0  0  0
 24 64  1  0  0  0
 25 65  1  0  0  0
 25 66  1  0  0  0
 25 67  1  0  0  0
 29 68  1  0  0  0
 30 69  1  0  0  0
 32 70  1  0  0  0
 32 71  1  0  0  0
 34 72  1  0  0  0
 38 73  1  0  0  0
 39 74  1  0  0  0
 40 75  1  0  0  0
 41 76  1  0  0  0
 43 77  1  0  0  0
M  END
$$$$
