4xg9_ligand
  -I-interpret- 

 56 60  0  0  0  0  0  0  0  0999 V2000
    4.1180    6.4280    4.1420 C   0  0  0  0  0
    5.2660    5.7010    3.8020 C   0  0  0  0  0
    5.2220    4.8700    2.6910 C   0  0  0  0  0
    4.0400    4.7660    1.9390 N   0  0  0  0  0
    3.0080    6.2600    3.3800 N   0  0  0  0  0
    1.0720    8.1800    9.7520 C   0  0  0  0  0
    0.2580    6.9410    9.3400 C   0  0  0  0  0
   -1.1640    7.2420    9.2780 O   0  0  0  0  0
    0.8990    7.0210    7.9770 C   0  0  0  0  0
    1.1560    8.4540    8.2860 N   0  3  0  0  0
    2.3470    9.1850    7.7940 C   0  0  0  0  0
    3.3220    8.3980    6.8720 C   0  0  0  0  0
    2.9730    7.7160    5.7880 C   0  0  0  0  0
    4.6470    8.3260    6.9400 C   0  0  0  0  0
    5.5720    8.9620    7.9860 C   0  0  0  0  0
    5.0710    7.5780    5.9260 N   0  0  0  0  0
    4.0870    7.2200    5.2310 N   0  0  0  0  0
    2.9380    5.4580    2.2910 C   0  0  0  0  0
    1.8380    5.3080    1.5180 N   0  0  0  0  0
    0.5870    5.7560    1.8270 C   0  0  0  0  0
    0.1840    6.6230    2.8770 C   0  0  0  0  0
   -1.1050    6.9890    3.0370 C   0  0  0  0  0
   -1.7250    7.7730    3.9240 C   0  0  0  0  0
   -0.9820    8.6210    5.2280 Cl  0  0  0  0  0
   -3.0200    7.8080    3.6460 C   0  0  0  0  0
   -4.0960    8.5830    4.4130 C   0  0  0  0  0
   -3.2450    7.0500    2.5840 N   0  0  0  0  0
   -4.5540    6.7890    1.9270 C   0  0  0  0  0
   -2.0660    6.5450    2.2050 C   0  0  0  0  0
   -1.7490    5.7270    1.1980 C   0  0  0  0  0
   -0.4310    5.3200    0.9800 C   0  0  0  0  0
    6.1750    5.7860    4.3975 H   0  0  0  0  0
    6.1041    4.2985    2.4022 H   0  0  0  0  0
    1.9507    8.1236   10.3945 H   0  0  0  0  0
    0.7087    8.9142   10.4711 H   0  0  0  0  0
    0.2782    6.0218    9.9255 H   0  0  0  0  0
   -1.5412    7.1827   10.1588 H   0  0  0  0  0
    0.3779    6.7078    7.0723 H   0  0  0  0  0
    1.6951    6.3426    7.6704 H   0  0  0  0  0
    0.5549    9.1365    7.8242 H   0  0  0  0  0
    2.9225    9.4505    8.6808 H   0  0  0  0  0
    1.9646   10.0087    7.1913 H   0  0  0  0  0
    1.9574    7.5825    5.4155 H   0  0  0  0  0
    5.4475   10.0447    7.9689 H   0  0  0  0  0
    5.3163    8.5812    8.9748 H   0  0  0  0  0
    6.6070    8.7103    7.7548 H   0  0  0  0  0
    1.9535    4.8193    0.6302 H   0  0  0  0  0
    0.9343    7.0022    3.5708 H   0  0  0  0  0
   -4.1247    8.2364    5.4460 H   0  0  0  0  0
   -3.8602    9.6470    4.3918 H   0  0  0  0  0
   -5.0660    8.4151    3.9450 H   0  0  0  0  0
   -5.2312    6.3217    2.6420 H   0  0  0  0  0
   -4.9806    7.7312    1.5829 H   0  0  0  0  0
   -4.4059    6.1236    1.0765 H   0  0  0  0  0
   -2.5350    5.3698    0.5327 H   0  0  0  0  0
   -0.1974    4.6594    0.1450 H   0  0  0  0  0
  1  2  4  0  0  0
  1  5  4  0  0  0
 17  1  1  0  0  0
  2  3  4  0  0  0
  3  4  4  0  0  0
 18  4  4  0  0  0
  5 18  4  0  0  0
  6  7  1  0  0  0
 10  6  1  0  0  0
  7  8  1  0  0  0
  9  7  1  0  0  0
 10  9  1  0  0  0
 11 10  1  0  0  0
 12 11  1  0  0  0
 13 12  4  0  0  0
 12 14  4  0  0  0
 13 17  4  0  0  0
 14 15  1  0  0  0
 14 16  4  0  0  0
 16 17  4  0  0  0
 18 19  1  0  0  0
 19 20  1  0  0  0
 20 21  4  0  0  0
 20 31  4  0  0  0
 21 22  4  0  0  0
 22 23  4  0  0  0
 22 29  4  0  0  0
 23 24  1  0  0  0
 23 25  4  0  0  0
 25 26  1  0  0  0
 25 27  4  0  0  0
 27 28  1  0  0  0
 27 29  4  0  0  0
 29 30  4  0  0  0
 30 31  4  0  0  0
  2 32  1  0  0  0
  3 33  1  0  0  0
  6 34  1  0  0  0
  6 35  1  0  0  0
  7 36  1  0  0  0
  8 37  1  0  0  0
  9 38  1  0  0  0
  9 39  1  0  0  0
 10 40  1  0  0  0
 11 41  1  0  0  0
 11 42  1  0  0  0
 13 43  1  0  0  0
 15 44  1  0  0  0
 15 45  1  0  0  0
 15 46  1  0  0  0
 19 47  1  0  0  0
 21 48  1  0  0  0
 26 49  1  0  0  0
 26 50  1  0  0  0
 26 51  1  0  0  0
 28 52  1  0  0  0
 28 53  1  0  0  0
 28 54  1  0  0  0
 30 55  1  0  0  0
 31 56  1  0  0  0
M  END
$$$$
