5mql_ligand
  -I-interpret- 

 68 72  0  0  0  0  0  0  0  0999 V2000
   37.9010   90.2680    6.4840 C   0  0  0  0  0
   39.4060   90.3760    6.7460 C   0  0  0  0  0
   40.2420   90.1540    5.5380 N   0  3  0  0  0
   41.6080   89.8650    5.9840 C   0  0  0  0  0
   39.8470   89.0170    4.6870 C   0  0  0  0  0
   38.3480   89.0140    4.4360 C   0  0  0  0  0
   37.5990   89.0460    5.7090 N   0  3  0  0  0
   36.1570   88.9580    5.3990 C   0  0  0  0  0
   35.5440   87.8730    6.0270 C   0  0  0  0  0
   34.7600   88.1050    7.1640 C   0  0  0  0  0
   34.1460   87.0360    7.8100 C   0  0  0  0  0
   35.7050   86.5750    5.5160 C   0  0  0  0  0
   35.1030   85.4970    6.1690 C   0  0  0  0  0
   34.3260   85.7380    7.3130 C   0  0  0  0  0
   33.7250   84.6720    7.9690 C   0  0  0  0  0
   32.9190   83.9490    7.3780 O   0  0  0  0  0
   34.1160   84.5310    9.2590 N   0  0  0  0  0
   33.6390   83.5320   10.0110 C   0  0  0  0  0
   34.0140   82.2050    9.7560 C   0  0  0  0  0
   32.8320   83.8190   11.1090 C   0  0  0  0  0
   32.3680   82.7650   11.8940 C   0  0  0  0  0
   32.7230   81.4370   11.6450 C   0  0  0  0  0
   32.1980   80.4980   12.5200 C   0  0  0  0  0
   33.5000   81.1430   10.5000 C   0  0  0  0  0
   33.9740   79.9030   10.2380 N   0  0  0  0  0
   33.2250   78.8500    9.8700 C   0  0  0  0  0
   33.6980   77.5920    9.8900 N   0  0  0  0  0
   31.5970   78.8040    9.4040 S   0  0  0  0  0
   31.5590   77.1090    9.2560 C   0  0  0  0  0
   32.7910   76.6310    9.5560 C   0  0  0  0  0
   33.1070   75.3120    9.5410 C   0  0  0  0  0
   32.1290   74.3100    9.6530 C   0  0  0  0  0
   32.4850   72.9560    9.6490 C   0  0  0  0  0
   33.8200   72.5590    9.5480 C   0  0  0  0  0
   34.8160   73.5390    9.4360 N   0  0  0  0  0
   34.4430   74.9020    9.4430 C   0  0  0  0  0
   37.5765   91.1388    5.9143 H   0  0  0  0  0
   37.3770   90.2214    7.4386 H   0  0  0  0  0
   39.6666   89.6026    7.4685 H   0  0  0  0  0
   39.6032   91.3892    7.0962 H   0  0  0  0  0
   40.1372   91.0011    4.9795 H   0  0  0  0  0
   41.6157   88.9301    6.5444 H   0  0  0  0  0
   42.2609   89.7751    5.1158 H   0  0  0  0  0
   41.9596   90.6756    6.6223 H   0  0  0  0  0
   40.1167   88.0913    5.1954 H   0  0  0  0  0
   40.3602   89.1041    3.7293 H   0  0  0  0  0
   38.0850   88.1033    3.8979 H   0  0  0  0  0
   38.0886   89.8989    3.8549 H   0  0  0  0  0
   37.8796   88.2555    6.2893 H   0  0  0  0  0
   36.0505   88.8289    4.3219 H   0  0  0  0  0
   35.6785   89.8696    5.7569 H   0  0  0  0  0
   34.6311   89.1193    7.5417 H   0  0  0  0  0
   33.5312   87.2066    8.6938 H   0  0  0  0  0
   36.2961   86.4097    4.6153 H   0  0  0  0  0
   35.2348   84.4817    5.7951 H   0  0  0  0  0
   34.7803   85.1927    9.6606 H   0  0  0  0  0
   34.7251   81.9982    8.9562 H   0  0  0  0  0
   32.5681   84.8488   11.3500 H   0  0  0  0  0
   31.7053   82.9844   12.7311 H   0  0  0  0  0
   32.5343   80.7192   13.5330 H   0  0  0  0  0
   31.1093   80.5355   12.4809 H   0  0  0  0  0
   32.5391   79.5038   12.2315 H   0  0  0  0  0
   34.9794   79.7560   10.3269 H   0  0  0  0  0
   30.6936   76.5114    8.9695 H   0  0  0  0  0
   31.0796   74.5902    9.7442 H   0  0  0  0  0
   31.7058   72.1977    9.7261 H   0  0  0  0  0
   34.0840   71.5015    9.5561 H   0  0  0  0  0
   35.2220   75.6609    9.3696 H   0  0  0  0  0
  1  2  1  0  0  0
  1  7  1  0  0  0
  2  3  1  0  0  0
  3  4  1  0  0  0
  3  5  1  0  0  0
  5  6  1  0  0  0
  6  7  1  0  0  0
  7  8  1  0  0  0
  8  9  1  0  0  0
  9 10  4  0  0  0
  9 12  4  0  0  0
 10 11  4  0  0  0
 11 14  4  0  0  0
 12 13  4  0  0  0
 13 14  4  0  0  0
 14 15  1  0  0  0
 15 16  2  0  0  0
 15 17  1  0  0  0
 17 18  1  0  0  0
 18 19  4  0  0  0
 18 20  4  0  0  0
 19 24  4  0  0  0
 20 21  4  0  0  0
 21 22  4  0  0  0
 22 23  1  0  0  0
 22 24  4  0  0  0
 24 25  1  0  0  0
 25 26  1  0  0  0
 26 27  4  0  0  0
 26 28  4  0  0  0
 27 30  4  0  0  0
 28 29  4  0  0  0
 29 30  4  0  0  0
 30 31  1  0  0  0
 31 32  4  0  0  0
 31 36  4  0  0  0
 32 33  4  0  0  0
 33 34  4  0  0  0
 34 35  4  0  0  0
 35 36  4  0  0  0
  1 37  1  0  0  0
  1 38  1  0  0  0
  2 39  1  0  0  0
  2 40  1  0  0  0
  3 41  1  0  0  0
  4 42  1  0  0  0
  4 43  1  0  0  0
  4 44  1  0  0  0
  5 45  1  0  0  0
  5 46  1  0  0  0
  6 47  1  0  0  0
  6 48  1  0  0  0
  7 49  1  0  0  0
  8 50  1  0  0  0
  8 51  1  0  0  0
 10 52  1  0  0  0
 11 53  1  0  0  0
 12 54  1  0  0  0
 13 55  1  0  0  0
 17 56  1  0  0  0
 19 57  1  0  0  0
 20 58  1  0  0  0
 21 59  1  0  0  0
 23 60  1  0  0  0
 23 61  1  0  0  0
 23 62  1  0  0  0
 25 63  1  0  0  0
 29 64  1  0  0  0
 32 65  1  0  0  0
 33 66  1  0  0  0
 34 67  1  0  0  0
 36 68  1  0  0  0
M  END
$$$$
