2bet_ligand
  -I-interpret- 

 22 21  0  0  0  0  0  0  0  0999 V2000
   24.1070   -8.3050   13.5310 O   0  0  0  0  0
   25.0340   -7.6120   14.0020 C   0  0  0  0  0
   24.8490   -6.4650   14.4670 O   0  0  0  0  0
   26.4250   -8.1840   14.0110 C   0  0  0  0  0
   26.7170   -8.7520   12.7400 O   0  0  0  0  0
   26.5450   -9.2500   15.1010 C   0  0  0  0  0
   26.3880   -8.6390   16.3760 O   0  0  0  0  0
   27.8900   -9.9740   15.0320 C   0  0  0  0  0
   28.0860  -10.7870   16.1950 O   0  0  0  0  0
   29.0650  -12.0680   16.1970 P   0  0  0  0  0
   30.4360  -11.5360   16.5150 O   0  0  0  0  0
   28.9700  -12.6380   14.8070 O   0  0  0  0  0
   28.4780  -12.9540   17.2640 O   0  0  0  0  0
   25.6848   -6.1073   14.7755 H   0  0  0  0  0
   27.1387   -7.3868   14.2190 H   0  0  0  0  0
   26.6391   -8.0758   12.0630 H   0  0  0  0  0
   25.7612   -9.9910   14.9439 H   0  0  0  0  0
   25.5418   -8.1870   16.4110 H   0  0  0  0  0
   28.6876   -9.2328   14.9810 H   0  0  0  0  0
   27.9021  -10.6127   14.1488 H   0  0  0  0  0
   28.0792  -12.9622   14.6555 H   0  0  0  0  0
   27.6078  -13.2513   16.9884 H   0  0  0  0  0
  1  2  2  0  0  0
  2  3  1  0  0  0
  2  4  1  0  0  0
  4  5  1  0  0  0
  4  6  1  0  0  0
  6  7  1  0  0  0
  6  8  1  0  0  0
  8  9  1  0  0  0
  9 10  1  0  0  0
 10 11  2  0  0  0
 10 12  1  0  0  0
 10 13  1  0  0  0
  3 14  1  0  0  0
  4 15  1  0  0  0
  5 16  1  0  0  0
  6 17  1  0  0  0
  7 18  1  0  0  0
  8 19  1  0  0  0
  8 20  1  0  0  0
 12 21  1  0  0  0
 13 22  1  0  0  0
M  END
$$$$
