6fs1_ligand
  -I-interpret- 

 77 82  0  0  0  0  0  0  0  0999 V2000
    9.2420    3.3240   28.3930 C   0  0  0  0  0
   10.3830    2.5910   28.5340 C   0  0  0  0  0
   11.2370    3.3470   29.3510 C   0  0  0  0  0
   12.6380   -0.1170   31.5300 C   0  0  0  0  0
   12.8280   -0.9480   30.3850 C   0  0  0  0  0
   13.8980   -1.7700   30.6900 C   0  0  0  0  0
   15.3900   -1.8870   32.8170 C   0  0  0  0  0
   14.5480   -2.8340   29.8670 C   0  0  0  0  0
   12.0670   -0.9120   29.1110 C   0  0  0  0  0
   10.7160   -1.2590   29.1060 C   0  0  0  0  0
    9.9990   -1.2910   27.9170 C   0  0  0  0  0
   10.6090   -0.9660   26.7130 C   0  0  0  0  0
   11.9480   -0.5800   26.6910 C   0  0  0  0  0
   12.8480   -0.1450   25.6510 C   0  0  0  0  0
   12.5180   -0.0840   24.1780 C   0  0  0  0  0
   12.0610    1.2880   23.6680 C   0  0  0  0  0
   10.6580    1.6410   24.0780 C   0  0  0  0  0
    7.8100    1.9120   24.4090 C   0  0  0  0  0
    6.1810   -0.1910   23.5020 C   0  0  0  0  0
    7.2870   -2.2940   22.0250 C   0  0  0  0  0
    5.9250   -2.2590   22.2720 C   0  0  0  0  0
    5.3710   -1.2390   22.9960 C   0  0  0  0  0
   15.3430    0.6150   25.7520 C   0  0  0  0  0
   16.3640    0.5480   26.4250 O   0  0  0  0  0
   15.3360    1.0590   24.5300 O   0  0  0  0  0
   14.0630    0.1080   26.2550 C   0  0  0  0  0
    9.7310    0.6740   23.5330 O   0  0  0  0  0
    8.3870    0.8430   23.7480 C   0  0  0  0  0
    7.5860   -0.2310   23.2610 C   0  0  0  0  0
    8.1110   -1.3170   22.5130 C   0  0  0  0  0
    5.6340    0.9150   24.2010 C   0  0  0  0  0
    6.4370    1.9350   24.6240 C   0  0  0  0  0
   13.9770   -0.1450   27.6090 N   0  0  0  0  0
   12.6860   -0.5590   27.8930 C   0  0  0  0  0
   14.2940   -1.3970   31.9880 N   0  0  0  0  0
   13.5110   -0.3970   32.4690 N   0  0  0  0  0
   11.6670    0.9990   31.7030 C   0  0  0  0  0
   12.5330    2.5960   31.6760 S   0  0  0  0  0
   12.5540    2.8970   29.8880 C   0  0  0  0  0
   10.6810    4.4970   29.6880 N   0  0  0  0  0
    9.4450    4.4680   29.0950 N   0  0  0  0  0
    8.5430    5.5930   29.3050 C   0  0  0  0  0
    7.9650    3.0180   27.6850 C   0  0  0  0  0
   10.5902    1.6133   28.0990 H   0  0  0  0  0
   15.2624   -2.9554   32.9914 H   0  0  0  0  0
   16.3368   -1.7115   32.3062 H   0  0  0  0  0
   15.3868   -1.3589   33.7705 H   0  0  0  0  0
   13.8142   -3.6024   29.6237 H   0  0  0  0  0
   14.9347   -2.3948   28.9474 H   0  0  0  0  0
   15.3677   -3.2783   30.4316 H   0  0  0  0  0
   10.2186   -1.5072   30.0436 H   0  0  0  0  0
    8.9465   -1.5742   27.9293 H   0  0  0  0  0
   10.0403   -1.0127   25.7843 H   0  0  0  0  0
   11.6879   -0.7712   24.0144 H   0  0  0  0  0
   13.4348   -0.3280   23.6414 H   0  0  0  0  0
   12.0873    1.2589   22.5787 H   0  0  0  0  0
   12.7268    2.0365   24.0976 H   0  0  0  0  0
   10.4099    2.6321   23.6983 H   0  0  0  0  0
   10.5878    1.6346   25.1657 H   0  0  0  0  0
    8.4313    2.7356   24.7610 H   0  0  0  0  0
    7.7072   -3.1088   21.4354 H   0  0  0  0  0
    5.2868   -3.0534   21.8851 H   0  0  0  0  0
    4.2976   -1.2319   23.1855 H   0  0  0  0  0
   14.4407    1.0285   24.1848 H   0  0  0  0  0
    9.1832   -1.3733   22.3252 H   0  0  0  0  0
    4.5634    0.9511   24.4023 H   0  0  0  0  0
    5.9920    2.7851   25.1411 H   0  0  0  0  0
   11.1598    0.8848   32.6610 H   0  0  0  0  0
   10.9440    0.9719   30.8878 H   0  0  0  0  0
   13.2770    3.6897   29.6954 H   0  0  0  0  0
   12.8060    1.9564   29.3981 H   0  0  0  0  0
    8.2791    6.0301   28.3420 H   0  0  0  0  0
    7.6403    5.2445   29.8069 H   0  0  0  0  0
    9.0372    6.3429   29.9226 H   0  0  0  0  0
    8.1686    2.8502   26.6274 H   0  0  0  0  0
    7.5173    2.1228   28.1166 H   0  0  0  0  0
    7.2794    3.8582   27.7955 H   0  0  0  0  0
  2  1  4  0  0  0
  1 41  4  0  0  0
  1 43  1  0  0  0
  3  2  4  0  0  0
 39  3  1  0  0  0
  3 40  4  0  0  0
  4  5  4  0  0  0
  4 36  4  0  0  0
 37  4  1  0  0  0
  5  6  4  0  0  0
  5  9  1  0  0  0
  6  8  1  0  0  0
 35  6  4  0  0  0
 35  7  1  0  0  0
  9 10  4  0  0  0
  9 34  4  0  0  0
 10 11  4  0  0  0
 11 12  4  0  0  0
 13 12  4  0  0  0
 13 14  4  0  0  0
 34 13  4  0  0  0
 14 15  1  0  0  0
 26 14  4  0  0  0
 15 16  1  0  0  0
 16 17  1  0  0  0
 17 27  1  0  0  0
 28 18  4  0  0  0
 18 32  4  0  0  0
 19 22  4  0  0  0
 29 19  4  0  0  0
 19 31  4  0  0  0
 20 21  4  0  0  0
 30 20  4  0  0  0
 22 21  4  0  0  0
 23 24  2  0  0  0
 23 25  1  0  0  0
 26 23  1  0  0  0
 33 26  4  0  0  0
 27 28  1  0  0  0
 28 29  4  0  0  0
 29 30  4  0  0  0
 32 31  4  0  0  0
 34 33  4  0  0  0
 36 35  4  0  0  0
 38 37  1  0  0  0
 38 39  1  0  0  0
 40 41  4  0  0  0
 41 42  1  0  0  0
  2 44  1  0  0  0
  7 45  1  0  0  0
  7 46  1  0  0  0
  7 47  1  0  0  0
  8 48  1  0  0  0
  8 49  1  0  0  0
  8 50  1  0  0  0
 10 51  1  0  0  0
 11 52  1  0  0  0
 12 53  1  0  0  0
 15 54  1  0  0  0
 15 55  1  0  0  0
 16 56  1  0  0  0
 16 57  1  0  0  0
 17 58  1  0  0  0
 17 59  1  0  0  0
 18 60  1  0  0  0
 20 61  1  0  0  0
 21 62  1  0  0  0
 22 63  1  0  0  0
 25 64  1  0  0  0
 30 65  1  0  0  0
 31 66  1  0  0  0
 32 67  1  0  0  0
 37 68  1  0  0  0
 37 69  1  0  0  0
 39 70  1  0  0  0
 39 71  1  0  0  0
 42 72  1  0  0  0
 42 73  1  0  0  0
 42 74  1  0  0  0
 43 75  1  0  0  0
 43 76  1  0  0  0
 43 77  1  0  0  0
M  END
$$$$
