1mui_ligand
  -I-interpret- 

 94 97  0  0  0  0  0  0  0  0999 V2000
  -12.8260   12.8350   34.8630 C   0  0  0  0  0
  -10.6950   13.4560   33.6930 C   0  0  0  0  0
  -11.3120   14.7950   33.3690 N   0  0  0  0  0
  -12.6020   15.1110   33.7730 C   0  0  0  0  0
  -13.3030   14.1780   34.4780 N   0  0  0  0  0
   -6.2280   18.1490   27.5220 C   0  0  0  0  0
   -5.5330   18.8920   26.5370 C   0  0  0  0  0
   -4.2180   18.5350   26.1490 C   0  0  0  0  0
   -3.5830   17.4290   26.7450 C   0  0  0  0  0
   -4.2660   16.6810   27.7290 C   0  0  0  0  0
   -5.5790   17.0370   28.1160 C   0  0  0  0  0
  -13.1160   16.1860   33.5160 O   0  0  0  0  0
  -10.5260   15.8120   32.5870 C   0  0  0  0  0
  -10.3560   15.3130   31.1260 C   0  0  0  0  0
  -11.2180   15.9240   30.2550 N   0  0  0  0  0
  -11.2830   15.6520   28.8020 C   0  0  0  0  0
   -9.1410   16.1410   33.2720 C   0  0  0  0  0
   -8.3090   17.1860   32.5040 C   0  0  0  0  0
   -9.3490   16.6480   34.7180 C   0  0  0  0  0
   -9.5230   14.4560   30.8260 O   0  0  0  0  0
  -12.7040   11.1390   29.1350 C   0  0  0  0  0
  -13.3650   11.1000   30.3860 C   0  0  0  0  0
  -13.7730   12.3060   31.0020 C   0  0  0  0  0
  -13.5190   13.5420   30.3650 C   0  0  0  0  0
  -12.8550   13.5900   29.1090 C   0  0  0  0  0
  -12.4510   12.3790   28.5010 C   0  0  0  0  0
  -12.5910   14.9100   28.4420 C   0  0  0  0  0
  -11.2870   16.9600   27.9810 C   0  0  0  0  0
  -10.1160   17.9510   28.1120 C   0  0  0  0  0
   -8.7120   17.4430   27.6950 C   0  0  0  0  0
   -8.7530   17.0970   26.2550 N   0  0  0  0  0
   -8.2660   15.9270   25.7320 C   0  0  0  0  0
   -8.3990   15.8070   24.2010 C   0  0  0  0  0
   -8.7210   17.0700   23.5900 O   0  0  0  0  0
   -8.2970   17.1830   22.2520 C   0  0  0  0  0
  -10.4330   19.0340   27.2710 O   0  0  0  0  0
   -7.6370   18.5480   27.9160 C   0  0  0  0  0
   -7.7420   15.0210   26.3890 O   0  0  0  0  0
   -9.0670   16.6400   21.1650 C   0  0  0  0  0
   -8.5870   16.7880   19.8360 C   0  0  0  0  0
   -7.3740   17.4590   19.5740 C   0  0  0  0  0
   -6.6140   17.9970   20.6320 C   0  0  0  0  0
   -7.0610   17.8680   21.9690 C   0  0  0  0  0
   -6.2340   18.4510   23.0640 C   0  0  0  0  0
  -10.3740   15.9150   21.3830 C   0  0  0  0  0
  -11.2960   12.7740   34.9400 C   0  0  0  0  0
  -13.1594   12.1236   34.1075 H   0  0  0  0  0
  -13.2281   12.5982   35.8480 H   0  0  0  0  0
   -9.6379   13.6274   33.8958 H   0  0  0  0  0
  -10.8821   12.7994   32.8433 H   0  0  0  0  0
  -14.2475   14.4323   34.7671 H   0  0  0  0  0
   -6.0165   19.7505   26.0708 H   0  0  0  0  0
   -3.6976   19.1171   25.3885 H   0  0  0  0  0
   -2.5712   17.1519   26.4490 H   0  0  0  0  0
   -3.7782   15.8239   28.1932 H   0  0  0  0  0
   -6.0960   16.4520   28.8767 H   0  0  0  0  0
  -11.0783   16.7516   32.5718 H   0  0  0  0  0
  -11.8623   16.6172   30.6356 H   0  0  0  0  0
  -10.4052   15.0509   28.5647 H   0  0  0  0  0
   -8.5867   15.2025   33.2684 H   0  0  0  0  0
   -8.0980   16.8148   31.5011 H   0  0  0  0  0
   -8.8705   18.1178   32.4372 H   0  0  0  0  0
   -7.3720   17.3620   33.0323 H   0  0  0  0  0
   -9.9564   17.5529   34.7005 H   0  0  0  0  0
   -9.8562   15.8797   35.3016 H   0  0  0  0  0
   -8.3806   16.8675   35.1675 H   0  0  0  0  0
  -12.3887   10.2109   28.6582 H   0  0  0  0  0
  -13.5588   10.1442   30.8728 H   0  0  0  0  0
  -14.2820   12.2824   31.9655 H   0  0  0  0  0
  -13.8360   14.4692   30.8425 H   0  0  0  0  0
  -11.9414   12.4005   27.5377 H   0  0  0  0  0
  -12.5154   14.6877   27.3776 H   0  0  0  0  0
  -13.3971   15.5670   28.7687 H   0  0  0  0  0
  -12.1535   17.5104   28.3474 H   0  0  0  0  0
  -11.2523   16.6312   26.9423 H   0  0  0  0  0
  -10.0265   18.1764   29.1747 H   0  0  0  0  0
   -8.4496   16.5755   28.3006 H   0  0  0  0  0
   -9.1694   17.7712   25.6128 H   0  0  0  0  0
   -9.2042   15.1059   23.9816 H   0  0  0  0  0
   -7.4440   15.4669   23.8004 H   0  0  0  0  0
   -9.7310   19.6874   27.3142 H   0  0  0  0  0
   -7.9157   19.3924   27.2856 H   0  0  0  0  0
   -7.6187   18.7638   28.9843 H   0  0  0  0  0
   -9.1639   16.3774   19.0073 H   0  0  0  0  0
   -7.0225   17.5620   18.5474 H   0  0  0  0  0
   -5.6784   18.5144   20.4199 H   0  0  0  0  0
   -6.8191   19.1973   23.6015 H   0  0  0  0  0
   -5.9329   17.6599   23.7507 H   0  0  0  0  0
   -5.3476   18.9206   22.6375 H   0  0  0  0  0
  -10.2037   15.0439   22.0156 H   0  0  0  0  0
  -11.0832   16.5853   21.8687 H   0  0  0  0  0
  -10.7750   15.5945   20.4215 H   0  0  0  0  0
  -10.9738   11.7334   34.9777 H   0  0  0  0  0
  -10.9550   13.2895   35.8378 H   0  0  0  0  0
  5  1  1  0  0  0
 46  1  1  0  0  0
  3  2  1  0  0  0
  2 46  1  0  0  0
  3  4  1  0  0  0
 13  3  1  0  0  0
  4  5  1  0  0  0
  4 12  2  0  0  0
  6  7  4  0  0  0
  6 11  4  0  0  0
 37  6  1  0  0  0
  7  8  4  0  0  0
  8  9  4  0  0  0
 10  9  4  0  0  0
 11 10  4  0  0  0
 14 13  1  0  0  0
 13 17  1  0  0  0
 15 14  1  0  0  0
 14 20  2  0  0  0
 16 15  1  0  0  0
 16 27  1  0  0  0
 28 16  1  0  0  0
 17 18  1  0  0  0
 17 19  1  0  0  0
 21 22  4  0  0  0
 26 21  4  0  0  0
 23 22  4  0  0  0
 24 23  4  0  0  0
 25 24  4  0  0  0
 25 26  4  0  0  0
 27 25  1  0  0  0
 29 28  1  0  0  0
 30 29  1  0  0  0
 29 36  1  0  0  0
 30 31  1  0  0  0
 30 37  1  0  0  0
 31 32  1  0  0  0
 32 33  1  0  0  0
 32 38  2  0  0  0
 33 34  1  0  0  0
 34 35  1  0  0  0
 35 39  4  0  0  0
 35 43  4  0  0  0
 39 40  4  0  0  0
 39 45  1  0  0  0
 40 41  4  0  0  0
 41 42  4  0  0  0
 42 43  4  0  0  0
 43 44  1  0  0  0
  1 47  1  0  0  0
  1 48  1  0  0  0
  2 49  1  0  0  0
  2 50  1  0  0  0
  5 51  1  0  0  0
  7 52  1  0  0  0
  8 53  1  0  0  0
  9 54  1  0  0  0
 10 55  1  0  0  0
 11 56  1  0  0  0
 13 57  1  0  0  0
 15 58  1  0  0  0
 16 59  1  0  0  0
 17 60  1  0  0  0
 18 61  1  0  0  0
 18 62  1  0  0  0
 18 63  1  0  0  0
 19 64  1  0  0  0
 19 65  1  0  0  0
 19 66  1  0  0  0
 21 67  1  0  0  0
 22 68  1  0  0  0
 23 69  1  0  0  0
 24 70  1  0  0  0
 26 71  1  0  0  0
 27 72  1  0  0  0
 27 73  1  0  0  0
 28 74  1  0  0  0
 28 75  1  0  0  0
 29 76  1  0  0  0
 30 77  1  0  0  0
 31 78  1  0  0  0
 33 79  1  0  0  0
 33 80  1  0  0  0
 36 81  1  0  0  0
 37 82  1  0  0  0
 37 83  1  0  0  0
 40 84  1  0  0  0
 41 85  1  0  0  0
 42 86  1  0  0  0
 44 87  1  0  0  0
 44 88  1  0  0  0
 44 89  1  0  0  0
 45 90  1  0  0  0
 45 91  1  0  0  0
 45 92  1  0  0  0
 46 93  1  0  0  0
 46 94  1  0  0  0
M  END
$$$$
