6qlp_ligand
  -I-interpret- 

 52 55  0  0  0  0  0  0  0  0999 V2000
  -20.1730    5.6700    0.0450 C   0  0  0  0  0
  -13.9270    8.3500   -0.5310 C   0  0  0  0  0
  -10.4150    9.0620    0.4430 C   0  0  0  0  0
  -10.5100    9.0980    1.8110 C   0  0  0  0  0
  -11.7530    8.9170    2.3840 C   0  0  0  0  0
  -12.8570    8.6640    1.6410 C   0  0  0  0  0
  -24.5570    9.1300   -6.1980 C   0  0  0  0  0
  -23.5810    9.3560   -5.1090 C   0  0  0  0  0
  -23.1250    8.3120   -4.3060 C   0  0  0  0  0
  -22.2260    8.5620   -3.2900 C   0  0  0  0  0
  -21.7490    9.8670   -3.0230 C   0  0  0  0  0
  -19.5740    8.8590   -1.6760 C   0  0  0  0  0
  -19.4690    6.6440   -0.8840 C   0  0  0  0  0
  -17.9660    6.7950   -0.5880 C   0  0  0  0  0
  -17.3450    7.8400   -1.5490 C   0  0  0  0  0
  -15.2600    8.4050   -0.2320 C   0  0  0  0  0
  -12.7790    8.6310    0.2580 C   0  0  0  0  0
  -11.5330    8.7930   -0.3270 C   0  0  0  0  0
  -18.1060    9.1670   -1.4960 C   0  0  0  0  0
  -22.1730   10.8860   -3.8310 C   0  0  0  0  0
  -23.0940   10.6630   -4.8550 C   0  0  0  0  0
   -9.2190    9.2400   -0.1110 F   0  0  0  0  0
   -9.4380    9.3340    2.5640 F   0  0  0  0  0
  -11.7990    8.9160    3.7100 F   0  0  0  0  0
  -15.9400    7.9730   -1.3320 N   0  0  0  0  0
  -13.8250    7.8830   -1.8320 N   0  0  0  0  0
  -15.0180    7.6430   -2.3050 N   0  0  0  0  0
  -20.1120    7.8960   -0.8110 O   0  0  0  0  0
  -21.5070    5.4380   -0.4390 O   0  0  0  0  0
  -17.7810    7.1610    0.7230 O   0  0  0  0  0
  -17.6140   10.0430   -2.4600 O   0  0  0  0  0
  -20.5870   10.3000   -1.7590 S   0  0  0  0  0
  -20.2156    6.0884    1.0506 H   0  0  0  0  0
  -19.6244    4.7286    0.0729 H   0  0  0  0  0
  -13.8125    8.4853    2.1341 H   0  0  0  0  0
  -24.1386    8.4280   -6.9193 H   0  0  0  0  0
  -25.4764    8.7194   -5.7807 H   0  0  0  0  0
  -24.7724   10.0767   -6.6934 H   0  0  0  0  0
  -23.4794    7.2962   -4.4811 H   0  0  0  0  0
  -21.8739    7.7324   -2.6768 H   0  0  0  0  0
  -19.5932    8.3836   -2.6567 H   0  0  0  0  0
  -19.5359    6.2369   -1.8929 H   0  0  0  0  0
  -17.4662    5.8398   -0.7489 H   0  0  0  0  0
  -17.4540    7.4779   -2.5713 H   0  0  0  0  0
  -15.6978    8.7333    0.7107 H   0  0  0  0  0
  -11.4322    8.7073   -1.4089 H   0  0  0  0  0
  -17.9687    9.6674   -0.5374 H   0  0  0  0  0
  -21.7838   11.8916   -3.6718 H   0  0  0  0  0
  -23.4411   11.4983   -5.4631 H   0  0  0  0  0
  -21.9558    4.8227    0.1455 H   0  0  0  0  0
  -16.8417    7.2529    0.8989 H   0  0  0  0  0
  -16.6813   10.2034   -2.2988 H   0  0  0  0  0
 13  1  1  0  0  0
  1 29  1  0  0  0
 16  2  4  0  0  0
  2 17  1  0  0  0
  2 26  4  0  0  0
  4  3  4  0  0  0
  3 18  4  0  0  0
  3 22  1  0  0  0
  5  4  4  0  0  0
  4 23  1  0  0  0
  6  5  4  0  0  0
  5 24  1  0  0  0
 17  6  4  0  0  0
  8  7  1  0  0  0
  9  8  4  0  0  0
  8 21  4  0  0  0
 10  9  4  0  0  0
 11 10  4  0  0  0
 11 20  4  0  0  0
 32 11  1  0  0  0
 19 12  1  0  0  0
 12 28  1  0  0  0
 12 32  1  0  0  0
 14 13  1  0  0  0
 13 28  1  0  0  0
 15 14  1  0  0  0
 14 30  1  0  0  0
 15 19  1  0  0  0
 25 15  1  0  0  0
 16 25  4  0  0  0
 17 18  4  0  0  0
 19 31  1  0  0  0
 20 21  4  0  0  0
 25 27  4  0  0  0
 26 27  4  0  0  0
  1 33  1  0  0  0
  1 34  1  0  0  0
  6 35  1  0  0  0
  7 36  1  0  0  0
  7 37  1  0  0  0
  7 38  1  0  0  0
  9 39  1  0  0  0
 10 40  1  0  0  0
 12 41  1  0  0  0
 13 42  1  0  0  0
 14 43  1  0  0  0
 15 44  1  0  0  0
 16 45  1  0  0  0
 18 46  1  0  0  0
 19 47  1  0  0  0
 20 48  1  0  0  0
 21 49  1  0  0  0
 29 50  1  0  0  0
 30 51  1  0  0  0
 31 52  1  0  0  0
M  END
$$$$
