5a5p_ligand
  -I-interpret- 

 38 39  0  0  0  0  0  0  0  0999 V2000
  -31.5890   42.1200   16.5490 C   0  0  0  0  0
  -30.7080   42.1660   15.3850 N   0  3  0  0  0
  -29.3150   42.0880   15.8140 C   0  0  0  0  0
  -30.9580   43.3760   14.5980 C   0  0  0  0  0
  -30.3610   43.2990   13.2070 C   0  0  0  0  0
  -29.0510   43.9300   13.1850 N   0  0  0  0  0
  -28.6960   44.9820   12.3760 C   0  0  0  0  0
  -29.5250   46.0820   12.1440 C   0  0  0  0  0
  -29.1220   47.1250   11.3260 C   0  0  0  0  0
  -27.8770   47.1040   10.7270 C   0  0  0  0  0
  -27.0080   46.0300   10.9350 C   0  0  0  0  0
  -25.7010   45.9270   10.3500 C   0  0  0  0  0
  -24.8810   44.8750   10.5700 C   0  0  0  0  0
  -23.5150   44.7970    9.9440 C   0  0  0  0  0
  -25.3240   43.7840   11.4380 C   0  0  0  0  0
  -24.6550   42.7850   11.7010 O   0  0  0  0  0
  -26.5670   43.9080   11.9670 N   0  0  0  0  0
  -27.4270   44.9750   11.7640 C   0  0  0  0  0
  -31.4075   42.9935   17.1752 H   0  0  0  0  0
  -32.6273   42.1185   16.2174 H   0  0  0  0  0
  -31.3874   41.2138   17.1201 H   0  0  0  0  0
  -30.9033   41.3640   14.7858 H   0  0  0  0  0
  -28.6667   42.0716   14.9379 H   0  0  0  0  0
  -29.0761   42.9563   16.4281 H   0  0  0  0  0
  -29.1656   41.1781   16.3952 H   0  0  0  0  0
  -30.4945   44.2154   15.1163 H   0  0  0  0  0
  -32.0368   43.4923   14.4944 H   0  0  0  0  0
  -31.0177   43.8175   12.5085 H   0  0  0  0  0
  -30.2568   42.2522   12.9217 H   0  0  0  0  0
  -28.3411   43.5633   13.8190 H   0  0  0  0  0
  -30.5071   46.1205   12.6152 H   0  0  0  0  0
  -29.7915   47.9678   11.1538 H   0  0  0  0  0
  -27.5705   47.9317   10.0873 H   0  0  0  0  0
  -25.3551   46.7313    9.7008 H   0  0  0  0  0
  -23.6127   44.8133    8.8585 H   0  0  0  0  0
  -22.9185   45.6494   10.2692 H   0  0  0  0  0
  -23.0277   43.8721   10.2524 H   0  0  0  0  0
  -26.8967   43.1507   12.5655 H   0  0  0  0  0
  1  2  1  0  0  0
  2  3  1  0  0  0
  2  4  1  0  0  0
  4  5  1  0  0  0
  5  6  1  0  0  0
  6  7  1  0  0  0
  7  8  4  0  0  0
  7 18  4  0  0  0
  8  9  4  0  0  0
  9 10  4  0  0  0
 10 11  4  0  0  0
 11 12  1  0  0  0
 11 18  4  0  0  0
 12 13  2  0  0  0
 13 14  1  0  0  0
 13 15  1  0  0  0
 15 16  2  0  0  0
 15 17  1  0  0  0
 17 18  1  0  0  0
  1 19  1  0  0  0
  1 20  1  0  0  0
  1 21  1  0  0  0
  2 22  1  0  0  0
  3 23  1  0  0  0
  3 24  1  0  0  0
  3 25  1  0  0  0
  4 26  1  0  0  0
  4 27  1  0  0  0
  5 28  1  0  0  0
  5 29  1  0  0  0
  6 30  1  0  0  0
  8 31  1  0  0  0
  9 32  1  0  0  0
 10 33  1  0  0  0
 12 34  1  0  0  0
 14 35  1  0  0  0
 14 36  1  0  0  0
 14 37  1  0  0  0
 17 38  1  0  0  0
M  END
$$$$
