5n0f_ligand
  -I-interpret- 

 45 46  0  0  0  0  0  0  0  0999 V2000
    4.1020  -33.5750   -4.8190 O   0  0  0  0  0
    3.2090  -32.8280   -5.6760 C   0  0  0  0  0
    2.4420  -31.8330   -4.8330 C   0  0  0  0  0
    1.6560  -32.5100   -3.8260 O   0  0  0  0  0
    3.3980  -30.7890   -4.2600 C   0  0  0  0  0
    2.6680  -29.7110   -3.6390 O   0  0  0  0  0
    4.2690  -30.1970   -5.3830 C   0  0  0  0  0
    5.2700  -29.1680   -4.8620 C   0  0  0  0  0
    4.9180  -31.1830   -6.2160 O   0  0  0  0  0
    4.0100  -32.1270   -6.8090 C   0  0  0  0  0
    2.9010  -31.4060   -8.0260 S   0  0  0  0  0
    4.0160  -30.7440   -9.2450 C   0  0  0  0  0
    4.1370  -31.5840  -10.5250 C   0  0  0  0  0
    2.8280  -31.4480  -11.3170 C   0  0  0  0  0
    2.9670  -32.2400  -12.5580 N   0  3  0  0  0
    4.0930  -31.9050  -13.4960 C   0  0  0  0  0
    5.3890  -32.0030  -12.6990 C   0  0  0  0  0
    6.4830  -31.6390  -13.5950 O   0  0  0  0  0
    5.3200  -31.1610  -11.4160 C   0  0  0  0  0
    6.5910  -31.2960  -10.6820 O   0  0  0  0  0
    6.0930  -29.8050   -3.8910 O   0  0  0  0  0
    3.5947  -34.0021   -4.1248 H   0  0  0  0  0
    2.4974  -33.5008   -6.1547 H   0  0  0  0  0
    1.7273  -31.2965   -5.4571 H   0  0  0  0  0
    1.0787  -33.1499   -4.2490 H   0  0  0  0  0
    4.0228  -31.2835   -3.5163 H   0  0  0  0  0
    2.1183  -30.0623   -2.9347 H   0  0  0  0  0
    3.5614  -29.6807   -6.0317 H   0  0  0  0  0
    4.7439  -28.3250   -4.4141 H   0  0  0  0  0
    5.8803  -28.7888   -5.6816 H   0  0  0  0  0
    4.6075  -32.8511   -7.3629 H   0  0  0  0  0
    5.0055  -30.7157   -8.7887 H   0  0  0  0  0
    3.6235  -29.7707   -9.5395 H   0  0  0  0  0
    4.3219  -32.6167  -10.2292 H   0  0  0  0  0
    2.6364  -30.4017  -11.5550 H   0  0  0  0  0
    1.9882  -31.8140  -10.7263 H   0  0  0  0  0
    2.1143  -32.0596  -13.0878 H   0  0  0  0  0
    3.1516  -33.1940  -12.2477 H   0  0  0  0  0
    3.9678  -30.9015  -13.9027 H   0  0  0  0  0
    4.1081  -32.5955  -14.3392 H   0  0  0  0  0
    5.5609  -33.0191  -12.3438 H   0  0  0  0  0
    7.3154  -31.6915  -13.1197 H   0  0  0  0  0
    5.1613  -30.1183  -11.6912 H   0  0  0  0  0
    7.3173  -31.0289  -11.2502 H   0  0  0  0  0
    6.7309  -29.1737   -3.5501 H   0  0  0  0  0
  1  2  1  0  0  0
  2  3  1  0  0  0
  2 10  1  0  0  0
  3  4  1  0  0  0
  3  5  1  0  0  0
  5  6  1  0  0  0
  5  7  1  0  0  0
  7  8  1  0  0  0
  7  9  1  0  0  0
  8 21  1  0  0  0
  9 10  1  0  0  0
 10 11  1  0  0  0
 11 12  1  0  0  0
 12 13  1  0  0  0
 13 14  1  0  0  0
 13 19  1  0  0  0
 14 15  1  0  0  0
 15 16  1  0  0  0
 16 17  1  0  0  0
 17 18  1  0  0  0
 17 19  1  0  0  0
 19 20  1  0  0  0
  1 22  1  0  0  0
  2 23  1  0  0  0
  3 24  1  0  0  0
  4 25  1  0  0  0
  5 26  1  0  0  0
  6 27  1  0  0  0
  7 28  1  0  0  0
  8 29  1  0  0  0
  8 30  1  0  0  0
 10 31  1  0  0  0
 12 32  1  0  0  0
 12 33  1  0  0  0
 13 34  1  0  0  0
 14 35  1  0  0  0
 14 36  1  0  0  0
 15 37  1  0  0  0
 15 38  1  0  0  0
 16 39  1  0  0  0
 16 40  1  0  0  0
 17 41  1  0  0  0
 18 42  1  0  0  0
 19 43  1  0  0  0
 20 44  1  0  0  0
 21 45  1  0  0  0
M  END
$$$$
