6nfg_ligand
  -I-interpret- 

 32 34  0  0  0  0  0  0  0  0999 V2000
  -30.0670   20.7030  -23.9970 C   0  0  0  0  0
  -30.1200   15.6700  -24.8220 C   0  0  0  0  0
  -28.5580   15.9310  -20.5080 O   0  0  0  0  0
  -29.1100   16.6130  -21.5970 C   0  0  0  0  0
  -29.2620   17.9740  -21.5620 C   0  0  0  0  0
  -29.7940   18.6280  -22.6580 C   0  0  0  0  0
  -29.9480   20.1300  -22.7350 C   0  0  0  0  0
  -29.9020   20.9140  -21.5890 C   0  0  0  0  0
  -30.0330   22.2800  -21.6910 C   0  0  0  0  0
  -30.1000   22.8360  -22.9380 C   0  0  0  0  0
  -30.1450   22.0720  -24.1020 C   0  0  0  0  0
  -30.0550   17.9470  -23.7650 N   0  0  0  0  0
  -29.8880   16.5890  -23.7970 C   0  0  0  0  0
  -30.7090   16.0280  -26.1790 C   0  0  0  0  0
  -31.3560   17.3220  -26.3610 N   0  0  0  0  0
  -31.9350   17.6570  -27.6350 C   0  0  0  0  0
  -30.6610   15.2240  -27.0520 O   0  0  0  0  0
  -29.8050   14.4300  -24.3340 C   0  0  0  0  0
  -29.4330   15.9370  -22.7290 N   0  0  0  0  0
  -29.3670   14.5930  -23.0280 N   0  0  0  0  0
  -30.0979   20.0768  -24.8886 H   0  0  0  0  0
  -28.9658   18.5371  -20.6769 H   0  0  0  0  0
  -29.7627   20.4490  -20.6131 H   0  0  0  0  0
  -30.0822   22.9039  -20.7986 H   0  0  0  0  0
  -30.1190   23.9223  -23.0252 H   0  0  0  0  0
  -30.2402   22.5500  -25.0770 H   0  0  0  0  0
  -31.3980   17.9868  -25.5886 H   0  0  0  0  0
  -31.1604   17.6356  -28.4016 H   0  0  0  0  0
  -32.7118   16.9331  -27.8813 H   0  0  0  0  0
  -32.3698   18.6552  -27.5838 H   0  0  0  0  0
  -29.8841   13.4863  -24.8737 H   0  0  0  0  0
  -29.0527   13.8518  -22.4017 H   0  0  0  0  0
  7  1  4  0  0  0
  1 11  4  0  0  0
 13  2  1  0  0  0
  2 14  1  0  0  0
  2 18  2  0  0  0
  4  3  2  0  0  0
  5  4  1  0  0  0
  4 19  1  0  0  0
  6  5  2  0  0  0
  6  7  1  0  0  0
 12  6  1  0  0  0
  7  8  4  0  0  0
  8  9  4  0  0  0
  9 10  4  0  0  0
 11 10  4  0  0  0
 12 13  2  0  0  0
 13 19  1  0  0  0
 14 15  1  0  0  0
 14 17  2  0  0  0
 15 16  1  0  0  0
 18 20  1  0  0  0
 19 20  1  0  0  0
  1 21  1  0  0  0
  5 22  1  0  0  0
  8 23  1  0  0  0
  9 24  1  0  0  0
 10 25  1  0  0  0
 11 26  1  0  0  0
 15 27  1  0  0  0
 16 28  1  0  0  0
 16 29  1  0  0  0
 16 30  1  0  0  0
 18 31  1  0  0  0
 20 32  1  0  0  0
M  END
$$$$
