1c5x_ligand
  -I-interpret- 

 20 21  0  0  0  0  0  0  0  0999 V2000
    7.9510   -0.9830   25.9110 C   0  0  0  0  0
    8.2930    0.2880   25.5050 C   0  0  0  0  0
    7.3070   -1.1620   27.0290 N   0  0  0  0  0
    8.3420   -1.9500   25.1290 N   0  0  0  0  0
    9.0260    0.6610   23.8540 S   0  0  0  0  0
    9.1720    2.3800   24.1510 C   0  0  0  0  0
    8.6640    2.6270   25.4550 C   0  0  0  0  0
    8.2290    1.5180   26.1370 C   0  0  0  0  0
    9.6550    3.3990   23.3520 C   0  0  0  0  0
    9.6440    4.6920   23.8400 C   0  0  0  0  0
    9.1550    4.9540   25.1360 C   0  0  0  0  0
    8.6720    3.9300   25.9340 C   0  0  0  0  0
    8.0320    4.5270   27.8120 I   0  0  0  0  0
    7.0788   -2.1061   27.3406 H   0  0  0  0  0
    8.1469   -2.9192   25.3798 H   0  0  0  0  0
    8.8430   -1.7374   24.2663 H   0  0  0  0  0
    7.8422    1.6038   27.1524 H   0  0  0  0  0
   10.0381    3.1865   22.3539 H   0  0  0  0  0
   10.0139    5.5102   23.2221 H   0  0  0  0  0
    9.1570    5.9759   25.5151 H   0  0  0  0  0
  2  5  4  0  0  0
  6  5  4  0  0  0
  7  6  4  0  0  0
 12  7  4  0  0  0
 11 10  4  0  0  0
 12 13  1  0  0  0
  8  2  4  0  0  0
  7  8  4  0  0  0
 12 11  4  0  0  0
 10  9  4  0  0  0
  6  9  4  0  0  0
  2  1  1  0  0  0
  1  3  2  0  0  0
  1  4  1  0  0  0
  3 14  1  0  0  0
  4 15  1  0  0  0
  4 16  1  0  0  0
  8 17  1  0  0  0
  9 18  1  0  0  0
 10 19  1  0  0  0
 11 20  1  0  0  0
M  END
$$$$
