1w70_ligand
  -I-interpret- 

  8  7  0  0  0  0  0  0  0  0999 V2000
    8.1320   38.8100    3.3060 C   0  0  0  0  0
    8.4100   39.5350    4.6390 C   0  0  0  0  0
    7.0310   38.1840    3.1760 O   0  0  0  0  0
    9.4550   40.3200    4.6980 F   0  0  0  0  0
    7.3740   40.3210    4.9090 F   0  0  0  0  0
    8.5430   38.7650    5.8080 F   0  0  0  0  0
    9.0010   38.8700    2.4660 O   0  0  0  0  0
    6.5104   38.2849    3.9763 H   0  0  0  0  0
  1  2  1  0  0  0
  1  3  1  0  0  0
  1  7  2  0  0  0
  2  4  1  0  0  0
  2  5  1  0  0  0
  2  6  1  0  0  0
  3  8  1  0  0  0
M  END
$$$$
