5hn8_ligand
  -I-interpret- 

 55 56  0  0  0  0  0  0  0  0999 V2000
   -5.7500  -62.9740  -82.5440 C   0  0  0  0  0
    3.1960  -51.7530  -74.8090 O   0  0  0  0  0
    4.6420  -53.3470  -74.2730 O   0  0  0  0  0
    4.6240  -60.3810  -76.1600 O   0  0  0  0  0
    0.4530  -54.2850  -71.3690 C   0  0  0  0  0
    0.5560  -52.9580  -71.7370 C   0  0  0  0  0
    1.3420  -55.1780  -71.9210 C   0  0  0  0  0
    1.5110  -52.5320  -72.6160 C   0  0  0  0  0
    3.5450  -58.9580  -74.5640 C   0  0  0  0  0
    2.2490  -60.5100  -75.9120 C   0  0  0  0  0
    1.1420  -59.0670  -74.3070 C   0  0  0  0  0
   -4.5910  -63.8550  -82.0750 C   0  0  0  0  0
   -4.3020  -63.5810  -80.5940 C   0  0  0  0  0
   -2.9650  -62.8090  -80.4210 C   0  0  0  0  0
   -2.2520  -63.0620  -79.0700 C   0  0  0  0  0
   -0.9240  -62.3020  -79.0000 C   0  0  0  0  0
   -0.4280  -62.2040  -77.5640 C   0  0  0  0  0
   -0.4270  -60.7460  -77.0690 C   0  0  0  0  0
    2.4300  -57.4380  -72.8670 C   0  0  0  0  0
   -0.1670  -60.6050  -75.6240 O   0  0  0  0  0
    3.3720  -55.9630  -73.4410 S   0  0  0  0  0
    3.4910  -52.8100  -74.1770 C   0  0  0  0  0
    3.4820  -59.9540  -75.5500 C   0  0  0  0  0
    2.3680  -58.5130  -73.9440 C   0  0  0  0  0
    1.0650  -60.0680  -75.2920 C   0  0  0  0  0
    2.3040  -54.7430  -72.8150 C   0  0  0  0  0
    2.3970  -53.4040  -73.1780 C   0  0  0  0  0
   -6.6381  -63.1994  -81.9536 H   0  0  0  0  0
   -5.4828  -61.9252  -82.4148 H   0  0  0  0  0
   -5.9521  -63.1717  -83.5967 H   0  0  0  0  0
    4.6735  -54.1340  -73.7241 H   0  0  0  0  0
    4.4072  -61.0594  -76.8037 H   0  0  0  0  0
   -0.3092  -54.6147  -70.6630 H   0  0  0  0  0
   -0.1411  -52.2334  -71.3162 H   0  0  0  0  0
    1.2882  -56.2331  -71.6528 H   0  0  0  0  0
    1.5662  -51.4743  -72.8735 H   0  0  0  0  0
    4.5068  -58.5307  -74.2802 H   0  0  0  0  0
    2.2058  -61.2867  -76.6755 H   0  0  0  0  0
    0.2302  -58.7198  -73.8209 H   0  0  0  0  0
   -3.7028  -63.6288  -82.6649 H   0  0  0  0  0
   -4.8587  -64.9038  -82.2035 H   0  0  0  0  0
   -4.2257  -64.5340  -80.0705 H   0  0  0  0  0
   -5.1110  -62.9749  -80.1862 H   0  0  0  0  0
   -3.2011  -61.7458  -80.4644 H   0  0  0  0  0
   -2.2927  -63.1525  -81.2072 H   0  0  0  0  0
   -2.0499  -64.1289  -78.9755 H   0  0  0  0  0
   -2.8972  -62.7140  -78.2633 H   0  0  0  0  0
   -1.0762  -61.2946  -79.3874 H   0  0  0  0  0
   -0.1818  -62.8387  -79.5909 H   0  0  0  0  0
    0.5927  -62.5843  -77.5234 H   0  0  0  0  0
   -1.0943  -62.7857  -76.9269 H   0  0  0  0  0
   -1.4194  -60.3380  -77.2609 H   0  0  0  0  0
    0.3740  -60.2260  -77.5945 H   0  0  0  0  0
    1.4125  -57.1275  -72.6296 H   0  0  0  0  0
    2.9344  -57.8520  -71.9939 H   0  0  0  0  0
 12  1  1  0  0  0
 22  2  2  0  0  0
 22  3  1  0  0  0
 23  4  1  0  0  0
  6  5  4  0  0  0
  5  7  4  0  0  0
  8  6  4  0  0  0
  7 26  4  0  0  0
 27  8  4  0  0  0
  9 23  4  0  0  0
 24  9  4  0  0  0
 23 10  4  0  0  0
 25 10  4  0  0  0
 24 11  4  0  0  0
 11 25  4  0  0  0
 13 12  1  0  0  0
 14 13  1  0  0  0
 15 14  1  0  0  0
 16 15  1  0  0  0
 17 16  1  0  0  0
 18 17  1  0  0  0
 20 18  1  0  0  0
 21 19  1  0  0  0
 19 24  1  0  0  0
 25 20  1  0  0  0
 26 21  1  0  0  0
 22 27  1  0  0  0
 26 27  4  0  0  0
  1 28  1  0  0  0
  1 29  1  0  0  0
  1 30  1  0  0  0
  3 31  1  0  0  0
  4 32  1  0  0  0
  5 33  1  0  0  0
  6 34  1  0  0  0
  7 35  1  0  0  0
  8 36  1  0  0  0
  9 37  1  0  0  0
 10 38  1  0  0  0
 11 39  1  0  0  0
 12 40  1  0  0  0
 12 41  1  0  0  0
 13 42  1  0  0  0
 13 43  1  0  0  0
 14 44  1  0  0  0
 14 45  1  0  0  0
 15 46  1  0  0  0
 15 47  1  0  0  0
 16 48  1  0  0  0
 16 49  1  0  0  0
 17 50  1  0  0  0
 17 51  1  0  0  0
 18 52  1  0  0  0
 18 53  1  0  0  0
 19 54  1  0  0  0
 19 55  1  0  0  0
M  END
$$$$
