1b3f_ligand
  -I-interpret- 

 64 64  0  0  0  0  0  0  0  0999 V2000
    6.9140   16.6450   15.2960 N   0  3  0  0  0
    6.4130   17.9440   14.7500 C   0  0  0  0  0
    5.1480   18.4300   15.4470 C   0  0  0  0  0
    4.3320   17.5910   15.8510 O   0  0  0  0  0
    6.2200   17.9060   13.2230 C   0  0  0  0  0
    5.2860   16.7890   12.7530 C   0  0  0  0  0
    5.2800   16.7040   11.2170 C   0  0  0  0  0
    6.5930   16.0980   10.6610 C   0  0  0  0  0
    6.6160   14.6150   10.9480 N   0  3  0  0  0
    5.0070   19.7440   15.6040 N   0  0  0  0  0
    3.8060   20.2520   16.2970 C   0  0  0  0  0
    2.5570   20.1930   15.4230 C   0  0  0  0  0
    2.6300   20.5190   14.2370 O   0  0  0  0  0
    3.9920   21.7460   16.6740 C   0  0  0  0  0
    4.9770   21.8690   17.8130 C   0  0  0  0  0
    4.8140   21.3600   19.0710 N   0  0  0  0  0
    6.1940   22.4580   17.7740 C   0  0  0  0  0
    5.8910   21.6470   19.7900 C   0  0  0  0  0
    6.7560   22.3220   19.0340 N   0  0  0  0  0
    1.4200   19.8270   16.0570 N   0  0  0  0  0
    0.1640   19.8440   15.3010 C   0  0  0  0  0
   -0.8520   20.7630   16.0080 C   0  0  0  0  0
   -1.8330   21.1520   15.3540 O   0  0  0  0  0
   -0.4780   18.4580   15.1660 C   0  0  0  0  0
   -1.5920   18.4640   14.1110 C   0  0  0  0  0
   -2.4430   17.2120   14.2930 C   0  0  0  0  0
   -3.6670   17.2530   13.4280 C   0  0  0  0  0
   -3.3780   17.5310   11.9980 N   0  3  0  0  0
   -0.6730   21.1220   17.1810 O   0  0  0  0  0
    7.0245   16.7225   16.3070 H   0  0  0  0  0
    6.2439   15.9064   15.0817 H   0  0  0  0  0
    7.8140   16.4232   14.8704 H   0  0  0  0  0
    7.1973   18.6700   14.9640 H   0  0  0  0  0
    7.1968   17.7267   12.7739 H   0  0  0  0  0
    5.7719   18.8542   12.9259 H   0  0  0  0  0
    4.2751   17.0025   13.1002 H   0  0  0  0  0
    5.6358   15.8399   13.1593 H   0  0  0  0  0
    5.1779   17.7145   10.8212 H   0  0  0  0  0
    4.4541   16.0597   10.9156 H   0  0  0  0  0
    7.4479   16.5764   11.1389 H   0  0  0  0  0
    6.6453   16.2632    9.5849 H   0  0  0  0  0
    7.4794   14.2127   10.5832 H   0  0  0  0  0
    6.5684   14.4641   11.9557 H   0  0  0  0  0
    5.8157   14.1704   10.4983 H   0  0  0  0  0
    5.7153   20.3882   15.2522 H   0  0  0  0  0
    3.6805   19.6161   17.1734 H   0  0  0  0  0
    3.0325   22.1617   16.9815 H   0  0  0  0  0
    4.3715   22.2908   15.8095 H   0  0  0  0  0
    6.6481   22.9481   16.9127 H   0  0  0  0  0
    6.0442   21.3739   20.8341 H   0  0  0  0  0
    1.4358   19.5459   17.0374 H   0  0  0  0  0
    0.4130   20.2037   14.3026 H   0  0  0  0  0
   -1.8006   20.7710   14.4734 H   0  0  0  0  0
   -0.9100   18.1792   16.1271 H   0  0  0  0  0
    0.2891   17.7473   14.8584 H   0  0  0  0  0
   -1.1563   18.4740   13.1119 H   0  0  0  0  0
   -2.2108   19.3533   14.2305 H   0  0  0  0  0
   -2.7571   17.1550   15.3352 H   0  0  0  0  0
   -1.8475   16.3441   14.0097 H   0  0  0  0  0
   -4.2993   18.0610   13.7959 H   0  0  0  0  0
   -4.1366   16.2708   13.4808 H   0  0  0  0  0
   -4.2519   17.5441   11.4721 H   0  0  0  0  0
   -2.9165   18.4369   11.9155 H   0  0  0  0  0
   -2.7679   16.8023   11.6278 H   0  0  0  0  0
  3  2  1  0  0  0
  2  5  1  0  0  0
  2  1  1  0  0  0
  5  6  1  0  0  0
  6  7  1  0  0  0
  7  8  1  0  0  0
  8  9  1  0  0  0
  3  4  2  0  0  0
 12 11  1  0  0  0
 11 14  1  0  0  0
 11 10  1  0  0  0
 14 15  1  0  0  0
 15 17  4  0  0  0
 15 16  4  0  0  0
 16 18  4  0  0  0
 18 19  4  0  0  0
 17 19  4  0  0  0
 12 13  2  0  0  0
 21 22  1  0  0  0
 21 24  1  0  0  0
 20 21  1  0  0  0
 24 25  1  0  0  0
 25 26  1  0  0  0
 26 27  1  0  0  0
 27 28  1  0  0  0
 22 29  2  0  0  0
 22 23  1  0  0  0
 10  3  1  0  0  0
 12 20  1  0  0  0
  1 30  1  0  0  0
  1 31  1  0  0  0
  1 32  1  0  0  0
  2 33  1  0  0  0
  5 34  1  0  0  0
  5 35  1  0  0  0
  6 36  1  0  0  0
  6 37  1  0  0  0
  7 38  1  0  0  0
  7 39  1  0  0  0
  8 40  1  0  0  0
  8 41  1  0  0  0
  9 42  1  0  0  0
  9 43  1  0  0  0
  9 44  1  0  0  0
 10 45  1  0  0  0
 11 46  1  0  0  0
 14 47  1  0  0  0
 14 48  1  0  0  0
 17 49  1  0  0  0
 18 50  1  0  0  0
 20 51  1  0  0  0
 21 52  1  0  0  0
 23 53  1  0  0  0
 24 54  1  0  0  0
 24 55  1  0  0  0
 25 56  1  0  0  0
 25 57  1  0  0  0
 26 58  1  0  0  0
 26 59  1  0  0  0
 27 60  1  0  0  0
 27 61  1  0  0  0
 28 62  1  0  0  0
 28 63  1  0  0  0
 28 64  1  0  0  0
M  END
$$$$
