1rgk_ligand
  -I-interpret- 

 37 39  0  0  0  0  0  0  0  0999 V2000
   19.7920   13.7520    1.2250 P   0  0  0  0  0
   20.8270   14.5940    1.8960 O   0  0  0  0  0
   19.7170   12.3620    1.7990 O   0  0  0  0  0
   18.4580   14.4390    1.1070 O   0  0  0  0  0
   24.9700   13.4850   -0.9810 O   0  0  0  0  0
   24.5220   14.2450   -2.1090 C   0  0  0  0  0
   23.1270   13.8080   -2.5000 C   0  0  0  0  0
   22.9760   12.3730   -2.2650 O   0  0  0  0  0
   22.0030   14.4660   -1.7040 C   0  0  0  0  0
   20.9330   14.7360   -2.5910 O   0  0  0  0  0
   21.5990   13.3690   -0.7050 C   0  0  0  0  0
   20.2570   13.5510   -0.2960 O   0  0  0  0  0
   21.7400   12.1560   -1.6280 C   0  0  0  0  0
   21.8020   10.8520   -0.9780 N   0  0  0  0  0
   22.5210   10.6580    0.1690 C   0  0  0  0  0
   22.4930    9.4040    0.6080 N   0  0  0  0  0
   21.6930    8.7420   -0.3220 C   0  0  0  0  0
   21.2660    7.3980   -0.4120 C   0  0  0  0  0
   21.6000    6.4780    0.5070 N   0  0  0  0  0
   20.4860    7.0540   -1.4610 N   0  0  0  0  0
   20.1470    7.9990   -2.3500 C   0  0  0  0  0
   20.4790    9.2980   -2.3670 N   0  0  0  0  0
   21.2690    9.6090   -1.3200 C   0  0  0  0  0
   19.0403   11.8621    1.3366 H   0  0  0  0  0
   17.8353   13.8534    0.6700 H   0  0  0  0  0
   25.8550   13.7667   -0.7379 H   0  0  0  0  0
   25.1995   14.0800   -2.9468 H   0  0  0  0  0
   24.5084   15.3032   -1.8482 H   0  0  0  0  0
   23.0355   14.0992   -3.5464 H   0  0  0  0  0
   22.2794   15.4005   -1.2157 H   0  0  0  0  0
   20.2149   15.1509   -2.1075 H   0  0  0  0  0
   22.1703   13.3213    0.2221 H   0  0  0  0  0
   20.8563   12.1001   -2.2636 H   0  0  0  0  0
   23.0650   11.4557    0.6748 H   0  0  0  0  0
   22.1808    6.7402    1.3035 H   0  0  0  0  0
   21.2730    5.5169    0.4087 H   0  0  0  0  0
   19.5142    7.6651   -3.1723 H   0  0  0  0  0
  1  2  2  0  0  0
  1  3  1  0  0  0
  1  4  1  0  0  0
 12  1  1  0  0  0
  6  5  1  0  0  0
  7  6  1  0  0  0
  8  7  1  0  0  0
  7  9  1  0  0  0
  9 10  1  0  0  0
 11  9  1  0  0  0
 11 12  1  0  0  0
 13 11  1  0  0  0
 13  8  1  0  0  0
 14 13  1  0  0  0
 14 15  4  0  0  0
 23 14  4  0  0  0
 16 15  4  0  0  0
 17 16  4  0  0  0
 18 17  4  0  0  0
 17 23  4  0  0  0
 18 19  1  0  0  0
 20 18  4  0  0  0
 20 21  4  0  0  0
 21 22  4  0  0  0
 22 23  4  0  0  0
  3 24  1  0  0  0
  4 25  1  0  0  0
  5 26  1  0  0  0
  6 27  1  0  0  0
  6 28  1  0  0  0
  7 29  1  0  0  0
  9 30  1  0  0  0
 10 31  1  0  0  0
 11 32  1  0  0  0
 13 33  1  0  0  0
 15 34  1  0  0  0
 19 35  1  0  0  0
 19 36  1  0  0  0
 21 37  1  0  0  0
M  END
$$$$
