#	Name:			1k2v_ligand
#	Creating user name:	wangrx
#	Creation time:		Wed Aug  4 16:22:22 2021

#	Modifying user name:	wangrx
#	Modification time:	Wed Aug  4 16:22:53 2021

@<TRIPOS>MOLECULE
1k2v_ligand
   71    75     1     0     0
SMALL
GAST_HUCK


@<TRIPOS>ATOM
      1 FE         24.8950   -7.1950  -29.6650 Fe        1 DEF         0.0000 
      2 O11        24.9780   -5.2650  -30.0300 O.3       1 DEF         0.1647 
      3 O12        24.4400   -6.5410  -27.8780 O.2       1 DEF        -0.2723 
      4 O21        23.0230   -7.7500  -29.8750 O.3       1 DEF         0.1650 
      5 O22        24.8780   -7.2720  -31.6130 O.2       1 DEF        -0.2723 
      6 O31        26.7340   -6.9720  -30.2790 O.3       1 DEF         0.1649 
      7 O32        25.5220   -9.0530  -29.2860 O.2       1 DEF        -0.2727 
      8 N11        24.6820   -4.5800  -28.8940 N.am      1 DEF         0.0596 
      9 C11        24.4020   -5.2860  -27.7960 C.2       1 DEF         0.3891 
     10 C12        24.0290   -4.6080  -26.4230 C.3       1 DEF         0.1017 
     11 C13        22.5590   -4.0590  -26.3770 C.3       1 DEF         0.0582 
     12 C14        21.4560   -5.1600  -26.3910 C.2       1 DEF         0.1784 
     13 O13        21.4410   -6.0510  -25.4830 O.2       1 DEF        -0.3969 
     14 N12        20.4960   -5.1380  -27.3900 N.am      1 DEF        -0.2868 
     15 C15        19.5600   -6.1420  -27.2930 C.3       1 DEF         0.0309 
     16 C16        19.9880   -7.3670  -28.1550 C.3       1 DEF        -0.0326 
     17 C18        20.4430   -8.3620  -30.4260 C.3       1 DEF         0.0019 
     18 C17        20.0000   -7.0800  -29.6760 C.3       1 DEF        -0.0463 
     19 C19        21.4250   -8.0490  -31.5830 C.3       1 DEF         0.1724 
     20 N21        22.7050   -7.7460  -31.1710 N.am      1 DEF         0.0627 
     21 C21        23.6930   -7.4970  -32.0460 C.2       1 DEF         0.3894 
     22 C22        23.3280   -7.5600  -33.5900 C.3       1 DEF         0.1017 
     23 C23        24.5260   -7.2960  -34.5910 C.3       1 DEF         0.0582 
     24 C24        25.4240   -6.0690  -34.2480 C.2       1 DEF         0.1784 
     25 O23        24.9020   -4.9770  -33.9540 O.2       1 DEF        -0.3969 
     26 N22        26.7890   -6.2240  -34.2790 N.am      1 DEF        -0.2868 
     27 C25        27.5330   -5.1140  -33.9580 C.3       1 DEF         0.0309 
     28 C26        28.9040   -5.5720  -33.3510 C.3       1 DEF        -0.0326 
     29 C27        28.6690   -6.8770  -32.5510 C.3       1 DEF        -0.0463 
     30 C28        29.2310   -6.8650  -31.1150 C.3       1 DEF         0.0019 
     31 C29        28.8010   -8.2000  -30.4200 C.3       1 DEF         0.1723 
     32 N31        27.4460   -8.1340  -30.0740 N.am      1 DEF         0.0622 
     33 C31        26.7700   -9.1850  -29.5580 C.2       1 DEF         0.3842 
     34 C32        27.5220  -10.5310  -29.3250 C.3       1 DEF         0.0736 
     35 C39        24.6810   -3.2170  -28.9060 C.3       1 DEF         0.1625 
     36 H4         24.7197   -3.7697  -26.2492 H         1 DEF         0.0572 
     37 H5         24.1479   -5.3531  -25.6226 H         1 DEF         0.0572 
     38 H6         22.4073   -3.4099  -27.2520 H         1 DEF         0.0529 
     39 H7         22.4420   -3.4675  -25.4570 H         1 DEF         0.0529 
     40 H8         20.4844   -4.4524  -28.1179 H         1 DEF         0.1851 
     41 H9         18.5891   -5.7685  -27.6506 H         1 DEF         0.0520 
     42 H10        19.4688   -6.4525  -26.2417 H         1 DEF         0.0520 
     43 H11        19.2850   -8.1908  -27.9620 H         1 DEF         0.0285 
     44 H12        21.0006   -7.6700  -27.8503 H         1 DEF         0.0285 
     45 H13        19.5521   -8.8564  -30.8406 H         1 DEF         0.0318 
     46 H14        20.9385   -9.0371  -29.7128 H         1 DEF         0.0318 
     47 H15        20.7050   -6.2638  -29.8921 H         1 DEF         0.0268 
     48 H16        18.9912   -6.7900  -30.0049 H         1 DEF         0.0268 
     49 H17        21.0316   -7.1902  -32.1466 H         1 DEF         0.0955 
     50 H18        21.4738   -8.9286  -32.2417 H         1 DEF         0.0955 
     51 H19        22.5524   -6.8047  -33.7849 H         1 DEF         0.0572 
     52 H20        22.9257   -8.5617  -33.8014 H         1 DEF         0.0572 
     53 H21        24.1022   -7.1369  -35.5935 H         1 DEF         0.0529 
     54 H22        25.1643   -8.1918  -34.6006 H         1 DEF         0.0529 
     55 H23        27.2166   -7.0949  -34.5213 H         1 DEF         0.1851 
     56 H24        26.9884   -4.5065  -33.2202 H         1 DEF         0.0520 
     57 H25        27.7127   -4.5166  -34.8640 H         1 DEF         0.0520 
     58 H26        29.2944   -4.7908  -32.6822 H         1 DEF         0.0285 
     59 H27        29.6261   -5.7565  -34.1600 H         1 DEF         0.0285 
     60 H28        29.1451   -7.7042  -33.0979 H         1 DEF         0.0268 
     61 H29        27.5846   -7.0521  -32.4926 H         1 DEF         0.0268 
     62 H30        28.8230   -6.0068  -30.5609 H         1 DEF         0.0318 
     63 H31        30.3284   -6.7949  -31.1435 H         1 DEF         0.0318 
     64 H32        29.4037   -8.3508  -29.5122 H         1 DEF         0.0955 
     65 H33        28.9619   -9.0407  -31.1108 H         1 DEF         0.0955 
     66 H34        28.5746  -10.4195  -29.6243 H         1 DEF         0.0511 
     67 H35        27.0517  -11.3227  -29.9267 H         1 DEF         0.0511 
     68 H36        27.4703  -10.8003  -28.2597 H         1 DEF         0.0511 
     69 H37        24.4209   -2.8417  -27.9052 H         1 DEF         0.0919 
     70 H38        23.9411   -2.8573  -29.6362 H         1 DEF         0.0919 
     71 H39        25.6801   -2.8520  -29.1862 H         1 DEF         0.0919 
@<TRIPOS>BOND
     1    1    2 1    
     2    1    3 1    
     3    1    4 1    
     4    1    5 1    
     5    1    6 1    
     6    1    7 1    
     7    2    8 1    
     8    3    9 2    
     9    4   20 1    
    10    5   21 2    
    11    6   32 1    
    12    7   33 2    
    13    8    9 am   
    14    8   35 1    
    15    9   10 1    
    16   10   11 1    
    17   11   12 1    
    18   12   13 2    
    19   12   14 am   
    20   14   15 1    
    21   15   16 1    
    22   16   18 1    
    23   18   17 1    
    24   17   19 1    
    25   19   20 1    
    26   20   21 am   
    27   21   22 1    
    28   22   23 1    
    29   23   24 1    
    30   24   25 2    
    31   24   26 am   
    32   26   27 1    
    33   27   28 1    
    34   28   29 1    
    35   29   30 1    
    36   30   31 1    
    37   31   32 1    
    38   32   33 am   
    39   33   34 1    
    40   10   36 1    
    41   10   37 1    
    42   11   38 1    
    43   11   39 1    
    44   14   40 1    
    45   15   41 1    
    46   15   42 1    
    47   16   43 1    
    48   16   44 1    
    49   17   45 1    
    50   17   46 1    
    51   18   47 1    
    52   18   48 1    
    53   19   49 1    
    54   19   50 1    
    55   22   51 1    
    56   22   52 1    
    57   23   53 1    
    58   23   54 1    
    59   26   55 1    
    60   27   56 1    
    61   27   57 1    
    62   28   58 1    
    63   28   59 1    
    64   29   60 1    
    65   29   61 1    
    66   30   62 1    
    67   30   63 1    
    68   31   64 1    
    69   31   65 1    
    70   34   66 1    
    71   34   67 1    
    72   34   68 1    
    73   35   69 1    
    74   35   70 1    
    75   35   71 1    
@<TRIPOS>SUBSTRUCTURE
     1 DEF         1 PERM              0 ****  ****    0 ROOT 
