1k2v_ligand
  -I-interpret- 

 71 75  0  0  0  0  0  0  0  0999 V2000
   24.8950   -7.1950  -29.6650 Fe  0  0  0  0  0
   24.9780   -5.2650  -30.0300 O   0  0  0  0  0
   24.4400   -6.5410  -27.8780 O   0  0  0  0  0
   23.0230   -7.7500  -29.8750 O   0  0  0  0  0
   24.8780   -7.2720  -31.6130 O   0  0  0  0  0
   26.7340   -6.9720  -30.2790 O   0  0  0  0  0
   25.5220   -9.0530  -29.2860 O   0  0  0  0  0
   24.6820   -4.5800  -28.8940 N   0  0  0  0  0
   24.4020   -5.2860  -27.7960 C   0  0  0  0  0
   24.0290   -4.6080  -26.4230 C   0  0  0  0  0
   22.5590   -4.0590  -26.3770 C   0  0  0  0  0
   21.4560   -5.1600  -26.3910 C   0  0  0  0  0
   21.4410   -6.0510  -25.4830 O   0  0  0  0  0
   20.4960   -5.1380  -27.3900 N   0  0  0  0  0
   19.5600   -6.1420  -27.2930 C   0  0  0  0  0
   19.9880   -7.3670  -28.1550 C   0  0  0  0  0
   20.4430   -8.3620  -30.4260 C   0  0  0  0  0
   20.0000   -7.0800  -29.6760 C   0  0  0  0  0
   21.4250   -8.0490  -31.5830 C   0  0  0  0  0
   22.7050   -7.7460  -31.1710 N   0  0  0  0  0
   23.6930   -7.4970  -32.0460 C   0  0  0  0  0
   23.3280   -7.5600  -33.5900 C   0  0  0  0  0
   24.5260   -7.2960  -34.5910 C   0  0  0  0  0
   25.4240   -6.0690  -34.2480 C   0  0  0  0  0
   24.9020   -4.9770  -33.9540 O   0  0  0  0  0
   26.7890   -6.2240  -34.2790 N   0  0  0  0  0
   27.5330   -5.1140  -33.9580 C   0  0  0  0  0
   28.9040   -5.5720  -33.3510 C   0  0  0  0  0
   28.6690   -6.8770  -32.5510 C   0  0  0  0  0
   29.2310   -6.8650  -31.1150 C   0  0  0  0  0
   28.8010   -8.2000  -30.4200 C   0  0  0  0  0
   27.4460   -8.1340  -30.0740 N   0  0  0  0  0
   26.7700   -9.1850  -29.5580 C   0  0  0  0  0
   27.5220  -10.5310  -29.3250 C   0  0  0  0  0
   24.6810   -3.2170  -28.9060 C   0  0  0  0  0
   24.7197   -3.7697  -26.2492 H   0  0  0  0  0
   24.1479   -5.3531  -25.6226 H   0  0  0  0  0
   22.4073   -3.4099  -27.2520 H   0  0  0  0  0
   22.4420   -3.4675  -25.4570 H   0  0  0  0  0
   20.4844   -4.4524  -28.1179 H   0  0  0  0  0
   18.5891   -5.7685  -27.6506 H   0  0  0  0  0
   19.4688   -6.4525  -26.2417 H   0  0  0  0  0
   19.2850   -8.1908  -27.9620 H   0  0  0  0  0
   21.0006   -7.6700  -27.8503 H   0  0  0  0  0
   19.5521   -8.8564  -30.8406 H   0  0  0  0  0
   20.9385   -9.0371  -29.7128 H   0  0  0  0  0
   20.7050   -6.2638  -29.8921 H   0  0  0  0  0
   18.9912   -6.7900  -30.0049 H   0  0  0  0  0
   21.0316   -7.1902  -32.1466 H   0  0  0  0  0
   21.4738   -8.9286  -32.2417 H   0  0  0  0  0
   22.5524   -6.8047  -33.7849 H   0  0  0  0  0
   22.9257   -8.5617  -33.8014 H   0  0  0  0  0
   24.1022   -7.1369  -35.5935 H   0  0  0  0  0
   25.1643   -8.1918  -34.6006 H   0  0  0  0  0
   27.2166   -7.0949  -34.5213 H   0  0  0  0  0
   26.9884   -4.5065  -33.2202 H   0  0  0  0  0
   27.7127   -4.5166  -34.8640 H   0  0  0  0  0
   29.2944   -4.7908  -32.6822 H   0  0  0  0  0
   29.6261   -5.7565  -34.1600 H   0  0  0  0  0
   29.1451   -7.7042  -33.0979 H   0  0  0  0  0
   27.5846   -7.0521  -32.4926 H   0  0  0  0  0
   28.8230   -6.0068  -30.5609 H   0  0  0  0  0
   30.3284   -6.7949  -31.1435 H   0  0  0  0  0
   29.4037   -8.3508  -29.5122 H   0  0  0  0  0
   28.9619   -9.0407  -31.1108 H   0  0  0  0  0
   28.5746  -10.4195  -29.6243 H   0  0  0  0  0
   27.0517  -11.3227  -29.9267 H   0  0  0  0  0
   27.4703  -10.8003  -28.2597 H   0  0  0  0  0
   24.4209   -2.8417  -27.9052 H   0  0  0  0  0
   23.9411   -2.8573  -29.6362 H   0  0  0  0  0
   25.6801   -2.8520  -29.1862 H   0  0  0  0  0
  1  2  1  0  0  0
  1  3  1  0  0  0
  1  4  1  0  0  0
  1  5  1  0  0  0
  1  6  1  0  0  0
  1  7  1  0  0  0
  2  8  1  0  0  0
  3  9  2  0  0  0
  4 20  1  0  0  0
  5 21  2  0  0  0
  6 32  1  0  0  0
  7 33  2  0  0  0
  8  9  1  0  0  0
  8 35  1  0  0  0
  9 10  1  0  0  0
 10 11  1  0  0  0
 11 12  1  0  0  0
 12 13  2  0  0  0
 12 14  1  0  0  0
 14 15  1  0  0  0
 15 16  1  0  0  0
 16 18  1  0  0  0
 18 17  1  0  0  0
 17 19  1  0  0  0
 19 20  1  0  0  0
 20 21  1  0  0  0
 21 22  1  0  0  0
 22 23  1  0  0  0
 23 24  1  0  0  0
 24 25  2  0  0  0
 24 26  1  0  0  0
 26 27  1  0  0  0
 27 28  1  0  0  0
 28 29  1  0  0  0
 29 30  1  0  0  0
 30 31  1  0  0  0
 31 32  1  0  0  0
 32 33  1  0  0  0
 33 34  1  0  0  0
 10 36  1  0  0  0
 10 37  1  0  0  0
 11 38  1  0  0  0
 11 39  1  0  0  0
 14 40  1  0  0  0
 15 41  1  0  0  0
 15 42  1  0  0  0
 16 43  1  0  0  0
 16 44  1  0  0  0
 17 45  1  0  0  0
 17 46  1  0  0  0
 18 47  1  0  0  0
 18 48  1  0  0  0
 19 49  1  0  0  0
 19 50  1  0  0  0
 22 51  1  0  0  0
 22 52  1  0  0  0
 23 53  1  0  0  0
 23 54  1  0  0  0
 26 55  1  0  0  0
 27 56  1  0  0  0
 27 57  1  0  0  0
 28 58  1  0  0  0
 28 59  1  0  0  0
 29 60  1  0  0  0
 29 61  1  0  0  0
 30 62  1  0  0  0
 30 63  1  0  0  0
 31 64  1  0  0  0
 31 65  1  0  0  0
 34 66  1  0  0  0
 34 67  1  0  0  0
 34 68  1  0  0  0
 35 69  1  0  0  0
 35 70  1  0  0  0
 35 71  1  0  0  0
M  END
$$$$
