1a09_ligand
  -I-interpret- 

 85 85  0  0  0  0  0  0  0  0999 V2000
   41.5690    7.6580   23.9860 C   0  0  0  0  0
   41.1850    8.8370   24.0740 O   0  0  0  0  0
   41.6080    6.7520   25.1990 C   0  0  0  0  0
   41.9470    7.1470   22.8190 N   0  0  0  0  0
   42.0200    7.9800   21.6280 C   0  0  0  0  0
   40.9030    7.5910   20.6760 C   0  0  0  0  0
   40.4140    6.4590   20.6570 O   0  0  0  0  0
   43.4150    7.8260   20.9730 C   0  0  0  0  0
   44.5820    8.2860   21.8500 C   0  0  0  0  0
   45.3280    9.4170   21.5490 C   0  0  0  0  0
   44.9450    7.5470   22.9810 C   0  0  0  0  0
   46.3990    9.8200   22.3110 C   0  0  0  0  0
   46.0060    7.9400   23.7790 C   0  0  0  0  0
   46.7240    9.0770   23.4160 C   0  0  0  0  0
   47.3460   11.0080   22.0440 C   0  0  0  0  0
   47.8280    9.5570   24.1510 O   0  0  0  0  0
   47.4170   10.2450   25.7320 P   0  0  0  0  0
   47.5280    8.9350   26.4310 O   0  0  0  0  0
   46.0720   10.8710   25.5970 O   0  0  0  0  0
   48.5930   11.1150   25.9320 O   0  0  0  0  0
   47.5820   11.1630   20.6750 O   0  0  0  0  0
   40.4140    8.5720   19.9380 N   0  0  0  0  0
   39.3000    8.4030   19.0260 C   0  0  0  0  0
   39.6240    7.6770   17.7320 C   0  0  0  0  0
   40.7900    7.7110   17.3230 O   0  0  0  0  0
   38.7290    9.7400   18.6680 C   0  0  0  0  0
   38.1620   10.5010   19.8320 C   0  0  0  0  0
   36.9900    9.8410   20.5210 C   0  0  0  0  0
   35.9880    9.5130   19.8810 O   0  0  0  0  0
   37.0870    9.6910   21.7320 O   0  0  0  0  0
   38.6700    6.9840   17.0660 N   0  0  0  0  0
   37.3700    6.6720   17.6660 C   0  0  0  0  0
   37.6030    5.4210   18.5170 C   0  0  0  0  0
   36.2730    5.0170   19.0110 C   0  0  0  0  0
   36.4210    3.9430   20.0280 C   0  0  0  0  0
   34.9920    3.5810   20.4620 C   0  0  0  0  0
   38.9310    6.4700   15.7140 C   0  0  0  0  0
   38.2520    7.3850   14.6720 C   0  0  0  0  0
   39.0020    8.6740   14.3820 C   0  0  0  0  0
   38.2860    9.4370   13.2880 C   0  0  0  0  0
   38.9860   10.7990   13.0860 C   0  0  0  0  0
   42.2748    7.1787   25.9483 H   0  0  0  0  0
   40.6045    6.6596   25.6143 H   0  0  0  0  0
   41.9727    5.7680   24.9044 H   0  0  0  0  0
   42.1891    6.1581   22.7572 H   0  0  0  0  0
   41.8900    9.0301   21.8899 H   0  0  0  0  0
   43.4197    8.4527   20.0812 H   0  0  0  0  0
   43.5610    6.7633   20.7793 H   0  0  0  0  0
   45.0543   10.0083   20.6752 H   0  0  0  0  0
   44.3841    6.6483   23.2378 H   0  0  0  0  0
   46.2732    7.3728   24.6706 H   0  0  0  0  0
   48.2960   10.8168   22.5431 H   0  0  0  0  0
   46.8812   11.9178   22.4238 H   0  0  0  0  0
   46.7375    8.4165   26.2641 H   0  0  0  0  0
   45.4119   10.1850   25.4733 H   0  0  0  0  0
   48.1726   11.9068   20.5354 H   0  0  0  0  0
   40.8420    9.4947   20.0139 H   0  0  0  0  0
   38.5928    7.7770   19.5701 H   0  0  0  0  0
   37.9101    9.5630   17.9708 H   0  0  0  0  0
   39.5437   10.3381   18.2598 H   0  0  0  0  0
   37.8001   11.4511   19.4390 H   0  0  0  0  0
   38.9577   10.5792   20.5729 H   0  0  0  0  0
   36.1217    9.7171   18.9525 H   0  0  0  0  0
   36.6089    6.5014   16.9046 H   0  0  0  0  0
   36.9982    7.5013   18.2678 H   0  0  0  0  0
   38.2870    5.6239   19.3410 H   0  0  0  0  0
   38.0676    4.6258   17.9339 H   0  0  0  0  0
   35.6757    4.6460   18.1781 H   0  0  0  0  0
   35.7790    5.8770   19.4632 H   0  0  0  0  0
   37.0208    4.2773   20.8746 H   0  0  0  0  0
   36.9434    3.0780   19.6193 H   0  0  0  0  0
   34.5073    4.4619   20.8829 H   0  0  0  0  0
   34.4280    3.2330   19.5966 H   0  0  0  0  0
   35.0306    2.7922   21.2133 H   0  0  0  0  0
   38.5289    5.4607   15.6264 H   0  0  0  0  0
   40.0060    6.4522   15.5346 H   0  0  0  0  0
   37.2805    7.6657   15.0787 H   0  0  0  0  0
   38.2061    6.8254   13.7377 H   0  0  0  0  0
   40.0163    8.4401   14.0587 H   0  0  0  0  0
   39.0413    9.2833   15.2849 H   0  0  0  0  0
   37.2454    9.5963   13.5708 H   0  0  0  0  0
   38.3170    8.8660   12.3601 H   0  0  0  0  0
   38.9493   11.3664   14.0160 H   0  0  0  0  0
   40.0249   10.6334   12.8007 H   0  0  0  0  0
   38.4761   11.3550   12.2993 H   0  0  0  0  0
  1  2  2  0  0  0
  1  3  1  0  0  0
  1  4  1  0  0  0
  4  5  1  0  0  0
  5  6  1  0  0  0
  5  8  1  0  0  0
  6  7  2  0  0  0
  6 22  1  0  0  0
  8  9  1  0  0  0
  9 10  4  0  0  0
  9 11  4  0  0  0
 10 12  4  0  0  0
 11 13  4  0  0  0
 12 14  4  0  0  0
 12 15  1  0  0  0
 13 14  4  0  0  0
 14 16  1  0  0  0
 15 21  1  0  0  0
 16 17  1  0  0  0
 17 18  1  0  0  0
 17 19  1  0  0  0
 17 20  2  0  0  0
 22 23  1  0  0  0
 23 24  1  0  0  0
 23 26  1  0  0  0
 24 25  2  0  0  0
 24 31  1  0  0  0
 26 27  1  0  0  0
 27 28  1  0  0  0
 28 29  1  0  0  0
 28 30  2  0  0  0
 31 32  1  0  0  0
 31 37  1  0  0  0
 32 33  1  0  0  0
 33 34  1  0  0  0
 34 35  1  0  0  0
 35 36  1  0  0  0
 37 38  1  0  0  0
 38 39  1  0  0  0
 39 40  1  0  0  0
 40 41  1  0  0  0
  3 42  1  0  0  0
  3 43  1  0  0  0
  3 44  1  0  0  0
  4 45  1  0  0  0
  5 46  1  0  0  0
  8 47  1  0  0  0
  8 48  1  0  0  0
 10 49  1  0  0  0
 11 50  1  0  0  0
 13 51  1  0  0  0
 15 52  1  0  0  0
 15 53  1  0  0  0
 18 54  1  0  0  0
 19 55  1  0  0  0
 21 56  1  0  0  0
 22 57  1  0  0  0
 23 58  1  0  0  0
 26 59  1  0  0  0
 26 60  1  0  0  0
 27 61  1  0  0  0
 27 62  1  0  0  0
 29 63  1  0  0  0
 32 64  1  0  0  0
 32 65  1  0  0  0
 33 66  1  0  0  0
 33 67  1  0  0  0
 34 68  1  0  0  0
 34 69  1  0  0  0
 35 70  1  0  0  0
 35 71  1  0  0  0
 36 72  1  0  0  0
 36 73  1  0  0  0
 36 74  1  0  0  0
 37 75  1  0  0  0
 37 76  1  0  0  0
 38 77  1  0  0  0
 38 78  1  0  0  0
 39 79  1  0  0  0
 39 80  1  0  0  0
 40 81  1  0  0  0
 40 82  1  0  0  0
 41 83  1  0  0  0
 41 84  1  0  0  0
 41 85  1  0  0  0
M  END
$$$$
