3hac_ligand
  -I-interpret- 

 37 40  0  0  0  0  0  0  0  0999 V2000
   35.5330   47.0310   35.3050 F   0  0  0  0  0
   35.7440   48.2950   35.7150 C   0  0  0  0  0
   34.6640   49.0760   36.0980 C   0  0  0  0  0
   33.4300   48.5580   36.0550 F   0  0  0  0  0
   37.0430   48.8110   35.7300 C   0  0  0  0  0
   37.2560   50.1180   36.1550 C   0  0  0  0  0
   36.1590   50.8970   36.5270 C   0  0  0  0  0
   36.3530   52.1490   36.9320 F   0  0  0  0  0
   34.8610   50.3940   36.5070 C   0  0  0  0  0
   38.6360   50.7130   36.1890 C   0  0  0  0  0
   39.0680   51.0870   34.7600 C   0  0  0  0  0
   38.0330   51.8460   34.0540 N   0  3  0  0  0
   40.3780   51.8800   34.7850 C   0  0  0  0  0
   41.3700   51.1810   35.6120 N   0  0  0  0  0
   42.6930   51.3930   35.5820 C   0  0  0  0  0
   43.2710   50.4880   36.5960 C   0  0  0  0  0
   42.2170   49.8260   37.1720 N   0  0  0  0  0
   41.0790   50.2480   36.5620 C   0  0  0  0  0
   39.6670   49.7810   36.8800 C   0  0  0  0  0
   44.6580   50.4990   36.7790 C   0  0  0  0  0
   45.4220   51.3090   36.0240 N   0  0  0  0  0
   44.9190   52.1480   35.0790 C   0  0  0  0  0
   43.5380   52.2200   34.8370 C   0  0  0  0  0
   37.8828   48.1936   35.4110 H   0  0  0  0  0
   34.0175   51.0169   36.8046 H   0  0  0  0  0
   38.6037   51.6175   36.7965 H   0  0  0  0  0
   39.2230   50.1552   34.2161 H   0  0  0  0  0
   38.3600   52.0721   33.1147 H   0  0  0  0  0
   37.1833   51.2850   33.9937 H   0  0  0  0  0
   37.8376   52.7076   34.5638 H   0  0  0  0  0
   40.1919   52.8683   35.2054 H   0  0  0  0  0
   40.7601   51.9749   33.7686 H   0  0  0  0  0
   39.5336   48.7628   36.5146 H   0  0  0  0  0
   39.5124   49.8100   37.9586 H   0  0  0  0  0
   45.1170   49.8549   37.5291 H   0  0  0  0  0
   45.5985   52.7741   34.5007 H   0  0  0  0  0
   43.1357   52.9025   34.0883 H   0  0  0  0  0
  1  2  1  0  0  0
  2  3  4  0  0  0
  2  5  4  0  0  0
  3  4  1  0  0  0
  3  9  4  0  0  0
  5  6  4  0  0  0
  6  7  4  0  0  0
  6 10  1  0  0  0
  7  8  1  0  0  0
  7  9  4  0  0  0
 10 11  1  0  0  0
 10 19  1  0  0  0
 11 12  1  0  0  0
 11 13  1  0  0  0
 13 14  1  0  0  0
 14 15  4  0  0  0
 14 18  4  0  0  0
 15 16  4  0  0  0
 15 23  4  0  0  0
 16 17  4  0  0  0
 16 20  4  0  0  0
 17 18  4  0  0  0
 18 19  1  0  0  0
 20 21  4  0  0  0
 21 22  4  0  0  0
 22 23  4  0  0  0
  5 24  1  0  0  0
  9 25  1  0  0  0
 10 26  1  0  0  0
 11 27  1  0  0  0
 12 28  1  0  0  0
 12 29  1  0  0  0
 12 30  1  0  0  0
 13 31  1  0  0  0
 13 32  1  0  0  0
 19 33  1  0  0  0
 19 34  1  0  0  0
 20 35  1  0  0  0
 22 36  1  0  0  0
 23 37  1  0  0  0
M  END
$$$$
