### 
### Created by X-TOOL on Mon Sep 10 21:13:18 2018
### 

@<TRIPOS>MOLECULE
4qht_ligand
   44    46     1     0     0
SMALL
GAST_HUCK


@<TRIPOS>ATOM
      1 PG        -24.6710   43.7710   36.0210 P.3       1 ANP         0.1803
      2 O1G       -23.8390   42.5310   35.8830 O.co2     1 ANP        -0.5454
      3 O2G       -24.1840   44.7940   34.9260 O.co2     1 ANP        -0.5454
      4 O3G       -26.1900   43.4300   35.7530 O.co2     1 ANP        -0.5454
      5 PB        -24.5440   43.4280   38.8410 P.3       1 ANP         0.2543
      6 O1B       -23.4550   42.4080   38.8040 O.co2     1 ANP        -0.6257
      7 O2B       -25.9010   42.6960   38.8900 O.co2     1 ANP        -0.6257
      8 N3B       -24.4780   44.4940   37.5420 N.am      1 ANP        -0.1803
      9 PA        -23.2010   44.8550   40.7910 P.3       1 ANP         0.2949
     10 O1A       -22.3050   45.4830   39.7960 O.co2     1 ANP        -0.6129
     11 O2A       -22.5770   43.7400   41.6560 O.co2     1 ANP        -0.6129
     12 O3A       -24.5040   44.2500   40.1570 O.3       1 ANP        -0.1431
     13 O5'       -23.7850   45.9960   41.6820 O.3       1 ANP        -0.2478
     14 C5'       -24.1610   47.2840   41.1900 C.3       1 ANP         0.1128
     15 C4'       -23.7130   48.3150   42.1980 C.3       1 ANP         0.1189
     16 O4'       -24.4320   48.1570   43.4410 O.3       1 ANP        -0.3364
     17 C3'       -22.2400   48.2520   42.5680 C.3       1 ANP         0.1149
     18 O3'       -21.7990   49.5740   42.8370 O.3       1 ANP        -0.3864
     19 C2'       -22.2450   47.3750   43.8190 C.3       1 ANP         0.1385
     20 O2'       -21.1010   47.6270   44.6200 O.3       1 ANP        -0.3836
     21 C1'       -23.5420   47.8140   44.4890 C.3       1 ANP         0.2010
     22 N9        -24.1910   46.7730   45.2840 N.pl3     1 ANP        -0.1919
     23 C8        -25.1260   45.8950   44.8190 C.2       1 ANP         0.1123
     24 N7        -25.5690   45.0590   45.7270 N.2       1 ANP        -0.2958
     25 C5        -24.8870   45.4240   46.8690 C.ar      1 ANP         0.1045
     26 C6        -24.9070   44.9200   48.1810 C.ar      1 ANP         0.1298
     27 N6        -25.6850   43.9080   48.5690 N.pl3     1 ANP        -0.3152
     28 N1        -24.0930   45.5000   49.0870 N.ar      1 ANP        -0.2698
     29 C2        -23.3220   46.5190   48.7000 C.ar      1 ANP         0.0533
     30 N3        -23.2180   47.0790   47.4940 N.ar      1 ANP        -0.2714
     31 C4        -24.0310   46.4840   46.6190 C.ar      1 ANP         0.1613
     32 H1        -24.3361   45.4771   37.6577 H         1 ANP         0.2132
     33 H2        -25.2529   47.3325   41.0660 H         1 ANP         0.0648
     34 H3        -23.6733   47.4713   40.2220 H         1 ANP         0.0648
     35 H4        -23.9258   49.3079   41.7752 H         1 ANP         0.0651
     36 H5        -21.6306   47.8034   41.7696 H         1 ANP         0.0648
     37 H6        -21.9209   50.1110   42.0628 H         1 ANP         0.2100
     38 H7        -22.2764   46.3063   43.5602 H         1 ANP         0.0676
     39 H8        -21.0968   48.5389   44.8861 H         1 ANP         0.2101
     40 H9        -23.3424   48.6847   45.1309 H         1 ANP         0.0996
     41 H10       -25.4731   45.8890   43.7868 H         1 ANP         0.1349
     42 H11       -25.6564   43.5815   49.5455 H         1 ANP         0.1820
     43 H12       -26.3142   43.4532   47.8921 H         1 ANP         0.1820
     44 H13       -22.6946   46.9503   49.4717 H         1 ANP         0.0996
@<TRIPOS>BOND
     1    1    2 ar 
     2    1    3 ar 
     3    1    4 ar 
     4    8    1 am 
     5    5    6 ar 
     6    5    7 ar 
     7    5    8 1  
     8   12    5 1  
     9    9   10 ar 
    10    9   11 ar 
    11    9   12 1  
    12    9   13 1  
    13   13   14 1  
    14   14   15 1  
    15   15   16 1  
    16   15   17 1  
    17   16   21 1  
    18   17   18 1  
    19   17   19 1  
    20   19   20 1  
    21   19   21 1  
    22   21   22 1  
    23   22   23 1  
    24   22   31 1  
    25   23   24 2  
    26   24   25 1  
    27   25   26 ar 
    28   25   31 ar 
    29   26   27 1  
    30   26   28 ar 
    31   28   29 ar 
    32   29   30 ar 
    33   30   31 ar 
    34    8   32 1  
    35   14   33 1  
    36   14   34 1  
    37   15   35 1  
    38   17   36 1  
    39   18   37 1  
    40   19   38 1  
    41   20   39 1  
    42   21   40 1  
    43   23   41 1  
    44   27   42 1  
    45   27   43 1  
    46   29   44 1  
@<TRIPOS>SUBSTRUCTURE
     1 ANP         1

