4qht_ligand
  -I-interpret- 

 48 50  0  0  0  0  0  0  0  0999 V2000
  -24.6710   43.7710   36.0210 P   0  0  0  0  0
  -23.8390   42.5310   35.8830 O   0  0  0  0  0
  -24.1840   44.7940   34.9260 O   0  0  0  0  0
  -26.1900   43.4300   35.7530 O   0  0  0  0  0
  -24.5440   43.4280   38.8410 P   0  0  0  0  0
  -23.4550   42.4080   38.8040 O   0  0  0  0  0
  -25.9010   42.6960   38.8900 O   0  0  0  0  0
  -24.4780   44.4940   37.5420 N   0  0  0  0  0
  -23.2010   44.8550   40.7910 P   0  0  0  0  0
  -22.3050   45.4830   39.7960 O   0  0  0  0  0
  -22.5770   43.7400   41.6560 O   0  0  0  0  0
  -24.5040   44.2500   40.1570 O   0  0  0  0  0
  -23.7850   45.9960   41.6820 O   0  0  0  0  0
  -24.1610   47.2840   41.1900 C   0  0  0  0  0
  -23.7130   48.3150   42.1980 C   0  0  0  0  0
  -24.4320   48.1570   43.4410 O   0  0  0  0  0
  -22.2400   48.2520   42.5680 C   0  0  0  0  0
  -21.7990   49.5740   42.8370 O   0  0  0  0  0
  -22.2450   47.3750   43.8190 C   0  0  0  0  0
  -21.1010   47.6270   44.6200 O   0  0  0  0  0
  -23.5420   47.8140   44.4890 C   0  0  0  0  0
  -24.1910   46.7730   45.2840 N   0  0  0  0  0
  -25.1260   45.8950   44.8190 C   0  0  0  0  0
  -25.5690   45.0590   45.7270 N   0  0  0  0  0
  -24.8870   45.4240   46.8690 C   0  0  0  0  0
  -24.9070   44.9200   48.1810 C   0  0  0  0  0
  -25.6850   43.9080   48.5690 N   0  0  0  0  0
  -24.0930   45.5000   49.0870 N   0  0  0  0  0
  -23.3220   46.5190   48.7000 C   0  0  0  0  0
  -23.2180   47.0790   47.4940 N   0  0  0  0  0
  -24.0310   46.4840   46.6190 C   0  0  0  0  0
  -24.7008   45.6004   34.9907 H   0  0  0  0  0
  -26.7165   44.2277   35.8429 H   0  0  0  0  0
  -26.6110   43.3417   38.9141 H   0  0  0  0  0
  -24.3332   45.4967   37.6601 H   0  0  0  0  0
  -23.2375   43.4013   42.2648 H   0  0  0  0  0
  -25.2411   47.3350   41.0526 H   0  0  0  0  0
  -23.6911   47.4711   40.2245 H   0  0  0  0  0
  -23.9119   49.2646   41.7011 H   0  0  0  0  0
  -21.5767   47.8521   41.8011 H   0  0  0  0  0
  -20.8687   49.5579   43.0735 H   0  0  0  0  0
  -22.2023   46.3027   43.6280 H   0  0  0  0  0
  -21.1266   47.0655   45.3982 H   0  0  0  0  0
  -23.3041   48.6293   45.1722 H   0  0  0  0  0
  -25.4735   45.8890   43.7859 H   0  0  0  0  0
  -26.3081   43.4577   47.8987 H   0  0  0  0  0
  -25.6567   43.5846   49.5360 H   0  0  0  0  0
  -22.6911   46.9526   49.4759 H   0  0  0  0  0
  1  2  2  0  0  0
  1  3  1  0  0  0
  1  4  1  0  0  0
  8  1  1  0  0  0
  5  6  2  0  0  0
  5  7  1  0  0  0
  5  8  1  0  0  0
 12  5  1  0  0  0
  9 10  2  0  0  0
  9 11  1  0  0  0
  9 12  1  0  0  0
  9 13  1  0  0  0
 13 14  1  0  0  0
 14 15  1  0  0  0
 15 16  1  0  0  0
 15 17  1  0  0  0
 16 21  1  0  0  0
 17 18  1  0  0  0
 17 19  1  0  0  0
 19 20  1  0  0  0
 19 21  1  0  0  0
 21 22  1  0  0  0
 22 23  4  0  0  0
 22 31  4  0  0  0
 23 24  4  0  0  0
 24 25  4  0  0  0
 25 26  4  0  0  0
 25 31  4  0  0  0
 26 27  1  0  0  0
 26 28  4  0  0  0
 28 29  4  0  0  0
 29 30  4  0  0  0
 30 31  4  0  0  0
  3 32  1  0  0  0
  4 33  1  0  0  0
  7 34  1  0  0  0
  8 35  1  0  0  0
 11 36  1  0  0  0
 14 37  1  0  0  0
 14 38  1  0  0  0
 15 39  1  0  0  0
 17 40  1  0  0  0
 18 41  1  0  0  0
 19 42  1  0  0  0
 20 43  1  0  0  0
 21 44  1  0  0  0
 23 45  1  0  0  0
 27 46  1  0  0  0
 27 47  1  0  0  0
 29 48  1  0  0  0
M  END
$$$$
