5iaw_ligand
  -I-interpret- 

183183  0  0  0  0  0  0  0  0999 V2000
   -3.7380   54.3640    4.6350 N   0  3  0  0  0
   -3.2770   52.9850    5.0580 C   0  0  0  0  0
   -3.4510   51.9230    3.9710 C   0  0  0  0  0
   -4.1060   50.9110    4.1860 O   0  0  0  0  0
   -4.0580   52.4830    6.2660 C   0  0  0  0  0
   -3.7730   53.2600    7.5130 C   0  0  0  0  0
   -2.6660   53.2260    8.0390 O   0  0  0  0  0
   -4.7960   53.9180    8.0370 N   0  0  0  0  0
   -2.8550   52.1430    2.8100 N   0  0  0  0  0
   -3.1490   51.3120    1.6530 C   0  0  0  0  0
   -2.8450   49.8130    1.8820 C   0  0  0  0  0
   -3.5900   48.9900    1.4150 O   0  0  0  0  0
   -2.4190   51.8390    0.4540 C   0  0  0  0  0
   -1.8020   49.4870    2.6520 N   0  0  0  0  0
   -1.2980   48.1070    2.8170 C   0  0  0  0  0
   -2.1620   47.2090    3.6760 C   0  0  0  0  0
   -2.4950   46.0940    3.2620 O   0  0  0  0  0
    0.1220   48.1170    3.3730 C   0  0  0  0  0
    1.2990   47.9310    2.4080 C   0  0  0  0  0
    1.2320   48.8530    1.2190 C   0  0  0  0  0
    2.6240   48.1740    3.0970 C   0  0  0  0  0
   -2.5370   47.6530    4.8710 N   0  0  0  0  0
   -3.5090   46.8790    5.6590 C   0  0  0  0  0
   -4.8250   46.7720    4.9240 C   0  0  0  0  0
   -5.5740   45.8160    5.1070 O   0  0  0  0  0
   -3.7850   47.5110    7.0170 C   0  0  0  0  0
   -2.5970   47.5320    7.9850 C   0  0  0  0  0
   -2.5960   48.7750    8.8540 C   0  0  0  0  0
   -2.5930   46.2730    8.8370 C   0  0  0  0  0
   -5.1390   47.7710    4.1140 N   0  0  0  0  0
   -6.4240   47.7360    3.4350 C   0  0  0  0  0
   -6.3750   46.6000    2.3740 C   0  0  0  0  0
   -7.3260   45.8090    2.1920 O   0  0  0  0  0
   -6.7530   49.1250    2.8910 C   0  0  0  0  0
   -8.0190   49.2210    2.0570 C   0  0  0  0  0
   -9.2260   48.4700    2.6360 C   0  0  0  0  0
   -9.8330   49.0500    3.8460 N   0  0  0  0  0
  -10.6330   48.3730    4.6820 C   0  0  0  0  0
  -11.1430   49.0000    5.7210 N   0  0  0  0  0
  -10.9430   47.0860    4.4940 N   0  0  0  0  0
   -5.2270   46.4500    1.7610 N   0  0  0  0  0
   -5.0420   45.3810    0.8250 C   0  0  0  0  0
   -5.0750   44.0430    1.5080 C   0  0  0  0  0
   -5.7400   43.1600    1.0330 O   0  0  0  0  0
   -3.7400   45.5620    0.0680 C   0  0  0  0  0
   -3.3620   44.3750   -0.8150 C   0  0  0  0  0
   -4.0080   44.1330   -2.0370 C   0  0  0  0  0
   -2.3210   43.5000   -0.4390 C   0  0  0  0  0
   -3.6320   43.0600   -2.8250 C   0  0  0  0  0
   -1.9740   42.4300   -1.2260 C   0  0  0  0  0
   -2.6150   42.2150   -2.4110 C   0  0  0  0  0
   -2.2090   41.1310   -3.1960 O   0  0  0  0  0
   -4.3750   43.8850    2.6300 N   0  0  0  0  0
   -4.3970   42.6050    3.3410 C   0  0  0  0  0
   -5.7660   42.2550    3.9800 C   0  0  0  0  0
   -6.0640   41.0900    4.1600 O   0  0  0  0  0
   -3.3070   42.5530    4.3950 C   0  0  0  0  0
   -1.8610   42.6350    3.9100 C   0  0  0  0  0
   -0.9210   42.8610    5.0970 C   0  0  0  0  0
   -1.5230   41.3740    3.1410 C   0  0  0  0  0
   -6.5890   43.2410    4.3190 N   0  0  0  0  0
   -7.9890   42.9500    4.7200 C   0  0  0  0  0
   -8.9580   42.5320    3.5980 C   0  0  0  0  0
   -9.9010   41.8090    3.8810 O   0  0  0  0  0
   -8.6360   44.1460    5.3440 C   0  0  0  0  0
   -8.1860   44.4030    6.7380 C   0  0  0  0  0
   -8.6350   45.8000    7.1100 C   0  0  0  0  0
   -8.7290   43.3590    7.6880 C   0  0  0  0  0
   -8.7510   42.9990    2.3630 N   0  0  0  0  0
   -9.7290   42.7860    1.3030 C   0  0  0  0  0
   -9.2410   41.7580    0.2650 C   0  0  0  0  0
  -10.0500   41.2210   -0.4430 O   0  0  0  0  0
  -10.0620   44.1050    0.6080 C   0  0  0  0  0
  -10.5470   45.1900    1.5700 C   0  0  0  0  0
  -10.9920   44.8900    2.7120 O   0  0  0  0  0
  -10.4730   46.3650    1.1780 O   0  0  0  0  0
   -7.9340   41.5560    0.1210 N   0  0  0  0  0
   -7.4090   40.2340   -0.1510 C   0  0  0  0  0
   -5.9560   40.2100   -0.6750 C   0  0  0  0  0
   -4.9960   39.7940    0.0520 O   0  0  0  0  0
   -8.3590   39.4390   -1.0390 C   0  0  0  0  0
   -8.6110   37.9980   -0.6170 C   0  0  0  0  0
   -9.2550   37.2310   -1.7650 C   0  0  0  0  0
  -10.3880   38.0850   -2.3610 C   0  0  0  0  0
  -11.3140   37.4380   -3.3420 N   0  3  0  0  0
   -5.7154   40.6100   -1.8453 O   0  0  0  0  0
   -3.1963   54.6691    3.8264 H   0  0  0  0  0
   -4.7275   54.3300    4.3897 H   0  0  0  0  0
   -3.5996   55.0185    5.4050 H   0  0  0  0  0
   -2.2181   53.1137    5.2822 H   0  0  0  0  0
   -3.7629   51.4491    6.4451 H   0  0  0  0  0
   -5.1194   52.5919    6.0430 H   0  0  0  0  0
   -4.6807   54.4249    8.9146 H   0  0  0  0  0
   -5.6992   53.9179    7.5630 H   0  0  0  0  0
   -2.1815   52.9043    2.7256 H   0  0  0  0  0
   -4.2235   51.3684    1.4784 H   0  0  0  0  0
   -2.7392   52.8619    0.2558 H   0  0  0  0  0
   -1.3464   51.8238    0.6476 H   0  0  0  0  0
   -2.6425   51.2131   -0.4100 H   0  0  0  0  0
   -1.3255   50.2350    3.1558 H   0  0  0  0  0
   -1.3217   47.6829    1.8132 H   0  0  0  0  0
    0.1681   47.2572    4.0413 H   0  0  0  0  0
    0.2542   49.1162    3.7880 H   0  0  0  0  0
    1.2255   46.8983    2.0670 H   0  0  0  0  0
    0.3132   48.6624    0.6643 H   0  0  0  0  0
    1.2428   49.8876    1.5620 H   0  0  0  0  0
    2.0916   48.6740    0.5731 H   0  0  0  0  0
    2.6503   49.1934    3.4820 H   0  0  0  0  0
    2.7380   47.4699    3.9212 H   0  0  0  0  0
    3.4349   48.0332    2.3824 H   0  0  0  0  0
   -2.1539   48.5237    5.2392 H   0  0  0  0  0
   -3.0659   45.8941    5.8065 H   0  0  0  0  0
   -4.5609   46.9084    7.4891 H   0  0  0  0  0
   -4.0515   48.5509    6.8283 H   0  0  0  0  0
   -1.6834   47.5584    7.3911 H   0  0  0  0  0
   -2.5359   49.6598    8.2202 H   0  0  0  0  0
   -3.5146   48.8079    9.4399 H   0  0  0  0  0
   -1.7369   48.7475    9.5242 H   0  0  0  0  0
   -3.5195   46.2198    9.4088 H   0  0  0  0  0
   -2.5126   45.3988    8.1909 H   0  0  0  0  0
   -1.7441   46.3008    9.5201 H   0  0  0  0  0
   -4.4939   48.5478    3.9696 H   0  0  0  0  0
   -7.2480   47.4972    4.1074 H   0  0  0  0  0
   -5.9284   49.4034    2.2347 H   0  0  0  0  0
   -6.9039   49.7688    3.7575 H   0  0  0  0  0
   -7.7975   48.7687    1.0903 H   0  0  0  0  0
   -8.2918   50.2754    2.0141 H   0  0  0  0  0
   -8.8622   47.4828    2.9211 H   0  0  0  0  0
   -9.9976   48.4946    1.8665 H   0  0  0  0  0
   -9.6324   50.0267    4.0612 H   0  0  0  0  0
  -10.9274   49.9843    5.8790 H   0  0  0  0  0
  -11.5632   46.6099    5.1490 H   0  0  0  0  0
  -10.5593   46.5803    3.6956 H   0  0  0  0  0
   -4.4616   47.0969    1.9508 H   0  0  0  0  0
   -5.8678   45.4103    0.1142 H   0  0  0  0  0
   -2.9493   45.6771    0.8094 H   0  0  0  0  0
   -3.8650   46.4243   -0.5870 H   0  0  0  0  0
   -4.8098   44.7936   -2.3668 H   0  0  0  0  0
   -1.7830   43.6766    0.4924 H   0  0  0  0  0
   -4.1370   42.8789   -3.7738 H   0  0  0  0  0
   -1.1848   41.7509   -0.9035 H   0  0  0  0  0
   -1.4986   40.6633   -2.7508 H   0  0  0  0  0
   -3.8209   44.6593    2.9958 H   0  0  0  0  0
   -4.2134   41.8497    2.5769 H   0  0  0  0  0
   -3.4038   41.5779    4.8724 H   0  0  0  0  0
   -3.4591   43.4322    5.0210 H   0  0  0  0  0
   -1.7350   43.4834    3.2374 H   0  0  0  0  0
   -1.1854   43.7934    5.5958 H   0  0  0  0  0
   -1.0176   42.0322    5.7983 H   0  0  0  0  0
    0.1070   42.9178    4.7391 H   0  0  0  0  0
   -1.6428   40.5090    3.7933 H   0  0  0  0  0
   -2.1923   41.2812    2.2857 H   0  0  0  0  0
   -0.4916   41.4279    2.7927 H   0  0  0  0  0
   -6.2569   44.2053    4.3038 H   0  0  0  0  0
   -7.8506   42.1070    5.3970 H   0  0  0  0  0
   -9.7095   43.9594    5.3750 H   0  0  0  0  0
   -8.3637   45.0156    4.7459 H   0  0  0  0  0
   -7.1005   44.3353    6.8099 H   0  0  0  0  0
   -8.1857   46.5191    6.4251 H   0  0  0  0  0
   -9.7212   45.8613    7.0421 H   0  0  0  0  0
   -8.3203   46.0219    8.1297 H   0  0  0  0  0
   -9.8185   43.3793    7.6639 H   0  0  0  0  0
   -8.3758   42.3738    7.3835 H   0  0  0  0  0
   -8.3826   43.5742    8.6988 H   0  0  0  0  0
   -7.8941   43.5132    2.1586 H   0  0  0  0  0
  -10.6280   42.3864    1.7723 H   0  0  0  0  0
  -10.8665   43.9098   -0.1010 H   0  0  0  0  0
   -9.1493   44.4679    0.1353 H   0  0  0  0  0
  -10.9676   43.9368    2.8235 H   0  0  0  0  0
   -7.2919   42.3442    0.2034 H   0  0  0  0  0
   -7.3493   39.7381    0.8178 H   0  0  0  0  0
   -5.3374   39.5263    0.9084 H   0  0  0  0  0
   -7.8946   39.3944   -2.0241 H   0  0  0  0  0
   -9.3224   39.9467   -0.9911 H   0  0  0  0  0
   -9.2784   37.9856    0.2447 H   0  0  0  0  0
   -7.6633   37.5275   -0.3552 H   0  0  0  0  0
   -9.6588   36.2877   -1.3974 H   0  0  0  0  0
   -8.5095   37.0207   -2.5319 H   0  0  0  0  0
   -9.8896   38.8803   -2.9152 H   0  0  0  0  0
  -11.0143   38.3659   -1.5143 H   0  0  0  0  0
  -12.0092   38.1175   -3.6506 H   0  0  0  0  0
  -10.7795   37.1078   -4.1455 H   0  0  0  0  0
  -11.7824   36.6491   -2.8963 H   0  0  0  0  0
  1  2  1  0  0  0
  2  3  1  0  0  0
  2  5  1  0  0  0
  3  4  2  0  0  0
  3  9  1  0  0  0
  5  6  1  0  0  0
  6  7  2  0  0  0
  6  8  1  0  0  0
  9 10  1  0  0  0
 10 11  1  0  0  0
 10 13  1  0  0  0
 11 12  2  0  0  0
 11 14  1  0  0  0
 14 15  1  0  0  0
 15 16  1  0  0  0
 15 18  1  0  0  0
 16 17  2  0  0  0
 16 22  1  0  0  0
 18 19  1  0  0  0
 19 20  1  0  0  0
 19 21  1  0  0  0
 22 23  1  0  0  0
 23 24  1  0  0  0
 23 26  1  0  0  0
 24 25  2  0  0  0
 24 30  1  0  0  0
 26 27  1  0  0  0
 27 28  1  0  0  0
 27 29  1  0  0  0
 30 31  1  0  0  0
 31 32  1  0  0  0
 31 34  1  0  0  0
 32 33  2  0  0  0
 32 41  1  0  0  0
 34 35  1  0  0  0
 35 36  1  0  0  0
 36 37  1  0  0  0
 37 38  1  0  0  0
 38 39  2  0  0  0
 38 40  1  0  0  0
 41 42  1  0  0  0
 42 43  1  0  0  0
 42 45  1  0  0  0
 43 44  2  0  0  0
 43 53  1  0  0  0
 45 46  1  0  0  0
 46 47  4  0  0  0
 46 48  4  0  0  0
 47 49  4  0  0  0
 48 50  4  0  0  0
 49 51  4  0  0  0
 50 51  4  0  0  0
 51 52  1  0  0  0
 53 54  1  0  0  0
 54 55  1  0  0  0
 54 57  1  0  0  0
 55 56  2  0  0  0
 55 61  1  0  0  0
 57 58  1  0  0  0
 58 59  1  0  0  0
 58 60  1  0  0  0
 61 62  1  0  0  0
 62 63  1  0  0  0
 62 65  1  0  0  0
 63 64  2  0  0  0
 63 69  1  0  0  0
 65 66  1  0  0  0
 66 67  1  0  0  0
 66 68  1  0  0  0
 69 70  1  0  0  0
 70 71  1  0  0  0
 70 73  1  0  0  0
 71 72  2  0  0  0
 71 77  1  0  0  0
 73 74  1  0  0  0
 74 75  1  0  0  0
 74 76  2  0  0  0
 77 78  1  0  0  0
 78 79  1  0  0  0
 78 81  1  0  0  0
 79 80  1  0  0  0
 81 82  1  0  0  0
 82 83  1  0  0  0
 83 84  1  0  0  0
 84 85  1  0  0  0
 79 86  2  0  0  0
  1 87  1  0  0  0
  1 88  1  0  0  0
  1 89  1  0  0  0
  2 90  1  0  0  0
  5 91  1  0  0  0
  5 92  1  0  0  0
  8 93  1  0  0  0
  8 94  1  0  0  0
  9 95  1  0  0  0
 10 96  1  0  0  0
 13 97  1  0  0  0
 13 98  1  0  0  0
 13 99  1  0  0  0
 14100  1  0  0  0
 15101  1  0  0  0
 18102  1  0  0  0
 18103  1  0  0  0
 19104  1  0  0  0
 20105  1  0  0  0
 20106  1  0  0  0
 20107  1  0  0  0
 21108  1  0  0  0
 21109  1  0  0  0
 21110  1  0  0  0
 22111  1  0  0  0
 23112  1  0  0  0
 26113  1  0  0  0
 26114  1  0  0  0
 27115  1  0  0  0
 28116  1  0  0  0
 28117  1  0  0  0
 28118  1  0  0  0
 29119  1  0  0  0
 29120  1  0  0  0
 29121  1  0  0  0
 30122  1  0  0  0
 31123  1  0  0  0
 34124  1  0  0  0
 34125  1  0  0  0
 35126  1  0  0  0
 35127  1  0  0  0
 36128  1  0  0  0
 36129  1  0  0  0
 37130  1  0  0  0
 39131  1  0  0  0
 40132  1  0  0  0
 40133  1  0  0  0
 41134  1  0  0  0
 42135  1  0  0  0
 45136  1  0  0  0
 45137  1  0  0  0
 47138  1  0  0  0
 48139  1  0  0  0
 49140  1  0  0  0
 50141  1  0  0  0
 52142  1  0  0  0
 53143  1  0  0  0
 54144  1  0  0  0
 57145  1  0  0  0
 57146  1  0  0  0
 58147  1  0  0  0
 59148  1  0  0  0
 59149  1  0  0  0
 59150  1  0  0  0
 60151  1  0  0  0
 60152  1  0  0  0
 60153  1  0  0  0
 61154  1  0  0  0
 62155  1  0  0  0
 65156  1  0  0  0
 65157  1  0  0  0
 66158  1  0  0  0
 67159  1  0  0  0
 67160  1  0  0  0
 67161  1  0  0  0
 68162  1  0  0  0
 68163  1  0  0  0
 68164  1  0  0  0
 69165  1  0  0  0
 70166  1  0  0  0
 73167  1  0  0  0
 73168  1  0  0  0
 75169  1  0  0  0
 77170  1  0  0  0
 78171  1  0  0  0
 80172  1  0  0  0
 81173  1  0  0  0
 81174  1  0  0  0
 82175  1  0  0  0
 82176  1  0  0  0
 83177  1  0  0  0
 83178  1  0  0  0
 84179  1  0  0  0
 84180  1  0  0  0
 85181  1  0  0  0
 85182  1  0  0  0
 85183  1  0  0  0
M  END
$$$$
