### 
### Created by X-TOOL on Mon Sep 10 21:13:33 2018
### 

@<TRIPOS>MOLECULE
5iaw_ligand
  182   182     1     0     0
SMALL
GAST_HUCK


@<TRIPOS>ATOM
      1 N          -3.7380   54.3640    4.6350 N.4       1 ASN         0.2396
      2 CA         -3.2770   52.9850    5.0580 C.3       1 ASN         0.0818
      3 C          -3.4510   51.9230    3.9710 C.2       1 ASN         0.2291
      4 O          -4.1060   50.9110    4.1860 O.2       1 ASN        -0.3905
      5 CB         -4.0580   52.4830    6.2660 C.3       1 ASN         0.0972
      6 CG         -3.7730   53.2600    7.5130 C.2       1 ASN         0.1813
      7 OD1        -2.6660   53.2260    8.0390 O.2       1 ASN        -0.3969
      8 ND2        -4.7960   53.9180    8.0370 N.am      1 ASN        -0.3006
      9 N          -2.8550   52.1430    2.8100 N.am      1 ALA        -0.2612
     10 CA         -3.1490   51.3120    1.6530 C.3       1 ALA         0.1283
     11 C          -2.8450   49.8130    1.8820 C.2       1 ALA         0.2036
     12 O          -3.5900   48.9900    1.4150 O.2       1 ALA        -0.3944
     13 CB         -2.4190   51.8390    0.4540 C.3       1 ALA        -0.0244
     14 N          -1.8020   49.4870    2.6520 N.am      1 LEU        -0.2637
     15 CA         -1.2980   48.1070    2.8170 C.3       1 LEU         0.1312
     16 C          -2.1620   47.2090    3.6760 C.2       1 LEU         0.2039
     17 O          -2.4950   46.0940    3.2620 O.2       1 LEU        -0.3944
     18 CB          0.1220   48.1170    3.3730 C.3       1 LEU        -0.0101
     19 CG          1.2990   47.9310    2.4080 C.3       1 LEU        -0.0425
     20 CD1         1.2320   48.8530    1.2190 C.3       1 LEU        -0.0625
     21 CD2         2.6240   48.1740    3.0970 C.3       1 LEU        -0.0625
     22 N          -2.5370   47.6530    4.8710 N.am      1 LEU        -0.2637
     23 CA         -3.5090   46.8790    5.6590 C.3       1 LEU         0.1312
     24 C          -4.8250   46.7720    4.9240 C.2       1 LEU         0.2039
     25 O          -5.5740   45.8160    5.1070 O.2       1 LEU        -0.3944
     26 CB         -3.7850   47.5110    7.0170 C.3       1 LEU        -0.0101
     27 CG         -2.5970   47.5320    7.9850 C.3       1 LEU        -0.0425
     28 CD1        -2.5960   48.7750    8.8540 C.3       1 LEU        -0.0625
     29 CD2        -2.5930   46.2730    8.8370 C.3       1 LEU        -0.0625
     30 N          -5.1390   47.7710    4.1140 N.am      1 ARG        -0.2637
     31 CA         -6.4240   47.7360    3.4350 C.3       1 ARG         0.1311
     32 C          -6.3750   46.6000    2.3740 C.2       1 ARG         0.2040
     33 O          -7.3260   45.8090    2.1920 O.2       1 ARG        -0.3944
     34 CB         -6.7530   49.1250    2.8910 C.3       1 ARG        -0.0092
     35 CG         -8.0190   49.2210    2.0570 C.3       1 ARG        -0.0156
     36 CD         -9.2260   48.4700    2.6360 C.3       1 ARG         0.0627
     37 NE         -9.8330   49.0500    3.8460 N.pl3     1 ARG        -0.2723
     38 CZ        -10.6330   48.3730    4.6820 C.cat     1 ARG         0.2882
     39 NH1       -11.1430   49.0000    5.7210 N.pl3     1 ARG        -0.2849
     40 NH2       -10.9430   47.0860    4.4940 N.pl3     1 ARG        -0.2849
     41 N          -5.2270   46.4500    1.7610 N.am      1 TYR        -0.2621
     42 CA         -5.0420   45.3810    0.8250 C.3       1 TYR         0.1390
     43 C          -5.0750   44.0430    1.5080 C.2       1 TYR         0.2057
     44 O          -5.7400   43.1600    1.0330 O.2       1 TYR        -0.3942
     45 CB         -3.7400   45.5620    0.0680 C.3       1 TYR         0.0163
     46 CG         -3.3620   44.3750   -0.8150 C.ar      1 TYR        -0.0493
     47 CD1        -4.0080   44.1330   -2.0370 C.ar      1 TYR        -0.0685
     48 CD2        -2.3210   43.5000   -0.4390 C.ar      1 TYR        -0.0685
     49 CE1        -3.6320   43.0600   -2.8250 C.ar      1 TYR        -0.0398
     50 CE2        -1.9740   42.4300   -1.2260 C.ar      1 TYR        -0.0398
     51 CZ         -2.6150   42.2150   -2.4110 C.ar      1 TYR         0.0805
     52 OH         -2.2090   41.1310   -3.1960 O.3       1 TYR        -0.3376
     53 N          -4.3750   43.8850    2.6300 N.am      1 LEU        -0.2636
     54 CA         -4.3970   42.6050    3.3410 C.3       1 LEU         0.1312
     55 C          -5.7660   42.2550    3.9800 C.2       1 LEU         0.2039
     56 O          -6.0640   41.0900    4.1600 O.2       1 LEU        -0.3944
     57 CB         -3.3070   42.5530    4.3950 C.3       1 LEU        -0.0101
     58 CG         -1.8610   42.6350    3.9100 C.3       1 LEU        -0.0425
     59 CD1        -0.9210   42.8610    5.0970 C.3       1 LEU        -0.0625
     60 CD2        -1.5230   41.3740    3.1410 C.3       1 LEU        -0.0625
     61 N          -6.5890   43.2410    4.3190 N.am      1 LEU        -0.2637
     62 CA         -7.9890   42.9500    4.7200 C.3       1 LEU         0.1312
     63 C          -8.9580   42.5320    3.5980 C.2       1 LEU         0.2040
     64 O          -9.9010   41.8090    3.8810 O.2       1 LEU        -0.3944
     65 CB         -8.6360   44.1460    5.3440 C.3       1 LEU        -0.0101
     66 CG         -8.1860   44.4030    6.7380 C.3       1 LEU        -0.0425
     67 CD1        -8.6350   45.8000    7.1100 C.3       1 LEU        -0.0625
     68 CD2        -8.7290   43.3590    7.6880 C.3       1 LEU        -0.0625
     69 N          -8.7510   42.9990    2.3630 N.am      1 ASP        -0.2622
     70 CA         -9.7290   42.7860    1.3030 C.3       1 ASP         0.1423
     71 C          -9.2410   41.7580    0.2650 C.2       1 ASP         0.2050
     72 O         -10.0500   41.2210   -0.4430 O.2       1 ASP        -0.3943
     73 CB        -10.0620   44.1050    0.6080 C.3       1 ASP         0.0406
     74 CG        -10.5470   45.1900    1.5700 C.2       1 ASP         0.0393
     75 OD1       -10.9920   44.8900    2.7120 O.co2     1 ASP        -0.5688
     76 OD2       -10.4730   46.3650    1.1780 O.co2     1 ASP        -0.5688
     77 N          -7.9340   41.5560    0.1210 N.am      1 LYS        -0.2694
     78 CA         -7.4090   40.2340   -0.1510 C.3       1 LYS         0.0944
     79 C          -5.9560   40.2100   -0.6750 C.2       1 LYS         0.0601
     80 O          -4.9960   39.7940    0.0520 O.co2     1 LYS        -0.5666
     81 CB         -8.3590   39.4390   -1.0390 C.3       1 LYS        -0.0177
     82 CG         -8.6110   37.9980   -0.6170 C.3       1 LYS        -0.0446
     83 CD         -9.2550   37.2310   -1.7650 C.3       1 LYS        -0.0125
     84 CE        -10.3880   38.0850   -2.3610 C.3       1 LYS        -0.0354
     85 NZ        -11.3140   37.4380   -3.3420 N.4       1 LYS         0.2185
     86 O1         -5.7154   40.6100   -1.8453 O.co2     1 LYS        -0.5666
     87 H1         -3.5964   55.0129    5.3933 H         1 ASN         0.2017
     88 H2         -4.7172   54.3329    4.3978 H         1 ASN         0.2017
     89 H3         -3.2072   54.6642    3.8324 H         1 ASN         0.2017
     90 H4         -2.2107   53.0534    5.3192 H         1 ASN         0.1125
     91 H5         -3.7930   51.4299    6.4414 H         1 ASN         0.0585
     92 H6         -5.1327   52.5587    6.0443 H         1 ASN         0.0585
     93 H7         -4.6703   54.4561    8.8704 H         1 ASN         0.1814
     94 H8         -5.6941   53.8767    7.5992 H         1 ASN         0.1814
     95 H9         -2.1947   52.8894    2.7272 H         1 ALA         0.1884
     96 H10        -4.2275   51.3960    1.4535 H         1 ALA         0.0797
     97 H11        -2.6438   51.2081   -0.4186 H         1 ALA         0.0277
     98 H12        -1.3364   51.8241    0.6480 H         1 ALA         0.0277
     99 H13        -2.7413   52.8713    0.2529 H         1 ALA         0.0277
    100 H14        -1.3348   50.2204    3.1459 H         1 LEU         0.1883
    101 H15        -1.2653   47.6588    1.8130 H         1 LEU         0.0800
    102 H16         0.1832   47.3080    4.1158 H         1 LEU         0.0315
    103 H17         0.2655   49.0860    3.8735 H         1 LEU         0.0315
    104 H18         1.2738   46.8926    2.0459 H         1 LEU         0.0298
    105 H19         2.0991   48.6733    0.5664 H         1 LEU         0.0232
    106 H20         1.2429   49.8975    1.5638 H         1 LEU         0.0232
    107 H21         0.3052   48.6616    0.6583 H         1 LEU         0.0232
    108 H22         2.7077   47.5149    3.9737 H         1 LEU         0.0232
    109 H23         2.6819   49.2237    3.4206 H         1 LEU         0.0232
    110 H24         3.4456   47.9600    2.3977 H         1 LEU         0.0232
    111 H25        -2.1615   48.5066    5.2319 H         1 LEU         0.1883
    112 H26        -3.1001   45.8698    5.8146 H         1 LEU         0.0800
    113 H27        -4.6014   46.9486    7.4936 H         1 LEU         0.0315
    114 H28        -4.1047   48.5501    6.8493 H         1 LEU         0.0315
    115 H29        -1.6742   47.5415    7.3864 H         1 LEU         0.0298
    116 H30        -1.7293   48.7484    9.5309 H         1 LEU         0.0232
    117 H31        -3.5225   48.8094    9.4459 H         1 LEU         0.0232
    118 H32        -2.5353   49.6687    8.2156 H         1 LEU         0.0232
    119 H33        -2.5938   45.3881    8.1836 H         1 LEU         0.0232
    120 H34        -3.4893   46.2588    9.4745 H         1 LEU         0.0232
    121 H35        -1.6930   46.2610    9.4693 H         1 LEU         0.0232
    122 H36        -4.5065   48.5325    3.9724 H         1 ARG         0.1883
    123 H37        -7.2044   47.4767    4.1655 H         1 ARG         0.0800
    124 H38        -5.9098   49.4515    2.2647 H         1 ARG         0.0313
    125 H39        -6.8595   49.8072    3.7473 H         1 ARG         0.0313
    126 H40        -7.8048   48.8086    1.0600 H         1 ARG         0.0301
    127 H41        -8.2887   50.2834    1.9642 H         1 ARG         0.0301
    128 H42        -8.8998   47.4484    2.8808 H         1 ARG         0.0689
    129 H43       -10.0019   48.4305    1.8573 H         1 ARG         0.0689
    130 H44        -9.6305   50.0362    4.0633 H         1 ARG         0.2642
    131 H45       -11.7598   48.4966    6.3745 H         1 ARG         0.2615
    132 H46       -10.9252   49.9940    5.8805 H         1 ARG         0.2615
    133 H47       -10.5555   46.5754    3.6878 H         1 ARG         0.2615
    134 H48       -11.5693   46.6052    5.1554 H         1 ARG         0.2615
    135 H49        -4.4766   47.0843    1.9471 H         1 TYR         0.1885
    136 H50        -5.8691   45.4142    0.1005 H         1 TYR         0.0821
    137 H51        -2.9338   45.7186    0.7998 H         1 TYR         0.0453
    138 H52        -3.8330   46.4523   -0.5713 H         1 TYR         0.0453
    139 H53        -4.8054   44.7900   -2.3650 H         1 TYR         0.0530
    140 H54        -1.7860   43.6756    0.4873 H         1 TYR         0.0530
    141 H55        -4.1342   42.8799   -3.7686 H         1 TYR         0.0525
    142 H56        -1.1891   41.7546   -0.9052 H         1 TYR         0.0525
    143 H57        -2.7351   41.0992   -3.9865 H         1 TYR         0.2458
    144 H58        -3.8318   44.6441    2.9886 H         1 LEU         0.1883
    145 H59        -4.1800   41.8241    2.5973 H         1 LEU         0.0800
    146 H60        -3.4195   41.6045    4.9406 H         1 LEU         0.0315
    147 H61        -3.4728   43.3942    5.0840 H         1 LEU         0.0315
    148 H62        -1.7642   43.4926    3.2280 H         1 LEU         0.0298
    149 H63         0.1168   42.9185    4.7370 H         1 LEU         0.0232
    150 H64        -1.0175   42.0251    5.8055 H         1 LEU         0.0232
    151 H65        -1.1868   43.8018    5.6013 H         1 LEU         0.0232
    152 H66        -2.2243   41.2573    2.3017 H         1 LEU         0.0232
    153 H67        -1.6034   40.5042    3.8095 H         1 LEU         0.0232
    154 H68        -0.4960   41.4450    2.7535 H         1 LEU         0.0232
    155 H69        -6.2634   44.1864    4.3041 H         1 LEU         0.1883
    156 H70        -7.9463   42.1347    5.4571 H         1 LEU         0.0800
    157 H71        -9.7246   43.9883    5.3529 H         1 LEU         0.0315
    158 H72        -8.3984   45.0292    4.7329 H         1 LEU         0.0315
    159 H73        -7.0874   44.3609    6.7744 H         1 LEU         0.0298
    160 H74        -8.3180   46.0252    8.1390 H         1 LEU         0.0232
    161 H75        -9.7311   45.8632    7.0419 H         1 LEU         0.0232
    162 H76        -8.1822   46.5268    6.4195 H         1 LEU         0.0232
    163 H77        -8.3775   42.3636    7.3787 H         1 LEU         0.0232
    164 H78        -9.8286   43.3819    7.6684 H         1 LEU         0.0232
    165 H79        -8.3759   43.5720    8.7077 H         1 LEU         0.0232
    166 H80        -7.9109   43.5031    2.1626 H         1 ASP         0.1884
    167 H81       -10.6482   42.3955    1.7639 H         1 ASP         0.0819
    168 H82       -10.8517   43.9186   -0.1348 H         1 ASP         0.0478
    169 H83        -9.1578   44.4691    0.0984 H         1 ASP         0.0478
    170 H84        -7.3045   42.3288    0.2018 H         1 LYS         0.1875
    171 H85        -7.3834   39.7147    0.8184 H         1 LYS         0.0726
    172 H86        -7.9382   39.4243   -2.0552 H         1 LYS         0.0305
    173 H87        -9.3269   39.9614   -1.0504 H         1 LYS         0.0305
    174 H88        -9.2828   37.9843    0.2539 H         1 LYS         0.0269
    175 H89        -7.6554   37.5227   -0.3506 H         1 LYS         0.0269
    176 H90        -9.6659   36.2818   -1.3905 H         1 LYS         0.0317
    177 H91        -8.5018   37.0243   -2.5396 H         1 LYS         0.0317
    178 H92        -9.9198   38.9411   -2.8688 H         1 LYS         0.0813
    179 H93       -11.0009   38.4466   -1.5222 H         1 LYS         0.0813
    180 H94       -12.0016   38.1087   -3.6477 H         1 LYS         0.1994
    181 H95       -11.7775   36.6582   -2.9026 H         1 LYS         0.1994
    182 H96       -10.7868   37.1113   -4.1366 H         1 LYS         0.1994
@<TRIPOS>BOND
     1    1    2 1  
     2    2    3 1  
     3    2    5 1  
     4    3    4 2  
     5    3    9 am 
     6    5    6 1  
     7    6    7 2  
     8    6    8 am 
     9    9   10 1  
    10   10   11 1  
    11   10   13 1  
    12   11   12 2  
    13   11   14 am 
    14   14   15 1  
    15   15   16 1  
    16   15   18 1  
    17   16   17 2  
    18   16   22 am 
    19   18   19 1  
    20   19   20 1  
    21   19   21 1  
    22   22   23 1  
    23   23   24 1  
    24   23   26 1  
    25   24   25 2  
    26   24   30 am 
    27   26   27 1  
    28   27   28 1  
    29   27   29 1  
    30   30   31 1  
    31   31   32 1  
    32   31   34 1  
    33   32   33 2  
    34   32   41 am 
    35   34   35 1  
    36   35   36 1  
    37   36   37 1  
    38   37   38 ar 
    39   38   39 ar 
    40   38   40 ar 
    41   41   42 1  
    42   42   43 1  
    43   42   45 1  
    44   43   44 2  
    45   43   53 am 
    46   45   46 1  
    47   46   47 ar 
    48   46   48 ar 
    49   47   49 ar 
    50   48   50 ar 
    51   49   51 ar 
    52   50   51 ar 
    53   51   52 1  
    54   53   54 1  
    55   54   55 1  
    56   54   57 1  
    57   55   56 2  
    58   55   61 am 
    59   57   58 1  
    60   58   59 1  
    61   58   60 1  
    62   61   62 1  
    63   62   63 1  
    64   62   65 1  
    65   63   64 2  
    66   63   69 am 
    67   65   66 1  
    68   66   67 1  
    69   66   68 1  
    70   69   70 1  
    71   70   71 1  
    72   70   73 1  
    73   71   72 2  
    74   71   77 am 
    75   73   74 1  
    76   74   75 ar 
    77   74   76 ar 
    78   77   78 1  
    79   78   79 1  
    80   78   81 1  
    81   79   80 ar 
    82   81   82 1  
    83   82   83 1  
    84   83   84 1  
    85   84   85 1  
    86   79   86 ar 
    87    1   87 1  
    88    1   88 1  
    89    1   89 1  
    90    2   90 1  
    91    5   91 1  
    92    5   92 1  
    93    8   93 1  
    94    8   94 1  
    95    9   95 1  
    96   10   96 1  
    97   13   97 1  
    98   13   98 1  
    99   13   99 1  
   100   14  100 1  
   101   15  101 1  
   102   18  102 1  
   103   18  103 1  
   104   19  104 1  
   105   20  105 1  
   106   20  106 1  
   107   20  107 1  
   108   21  108 1  
   109   21  109 1  
   110   21  110 1  
   111   22  111 1  
   112   23  112 1  
   113   26  113 1  
   114   26  114 1  
   115   27  115 1  
   116   28  116 1  
   117   28  117 1  
   118   28  118 1  
   119   29  119 1  
   120   29  120 1  
   121   29  121 1  
   122   30  122 1  
   123   31  123 1  
   124   34  124 1  
   125   34  125 1  
   126   35  126 1  
   127   35  127 1  
   128   36  128 1  
   129   36  129 1  
   130   37  130 1  
   131   39  131 1  
   132   39  132 1  
   133   40  133 1  
   134   40  134 1  
   135   41  135 1  
   136   42  136 1  
   137   45  137 1  
   138   45  138 1  
   139   47  139 1  
   140   48  140 1  
   141   49  141 1  
   142   50  142 1  
   143   52  143 1  
   144   53  144 1  
   145   54  145 1  
   146   57  146 1  
   147   57  147 1  
   148   58  148 1  
   149   59  149 1  
   150   59  150 1  
   151   59  151 1  
   152   60  152 1  
   153   60  153 1  
   154   60  154 1  
   155   61  155 1  
   156   62  156 1  
   157   65  157 1  
   158   65  158 1  
   159   66  159 1  
   160   67  160 1  
   161   67  161 1  
   162   67  162 1  
   163   68  163 1  
   164   68  164 1  
   165   68  165 1  
   166   69  166 1  
   167   70  167 1  
   168   73  168 1  
   169   73  169 1  
   170   77  170 1  
   171   78  171 1  
   172   81  172 1  
   173   81  173 1  
   174   82  174 1  
   175   82  175 1  
   176   83  176 1  
   177   83  177 1  
   178   84  178 1  
   179   84  179 1  
   180   85  180 1  
   181   85  181 1  
   182   85  182 1  
@<TRIPOS>SUBSTRUCTURE
     1 ASN         1

