5vl2_ligand
  -I-interpret- 

 28 29  0  0  0  0  0  0  0  0999 V2000
  -41.1590   22.7060    1.1270 C   0  0  0  0  0
  -39.9270   23.0610    0.6250 C   0  0  0  0  0
  -43.7860   23.1060    1.7530 Cl  0  0  0  0  0
  -31.6950   19.1250   -1.4470 Cl  0  0  0  0  0
  -37.8040   22.0090    0.0350 C   0  0  0  0  0
  -38.9740   22.0850    0.6940 N   0  0  0  0  0
  -35.8910   20.4520   -0.1510 C   0  0  0  0  0
  -35.3330   20.8930   -1.3520 C   0  0  0  0  0
  -34.0770   20.4810   -1.7280 C   0  0  0  0  0
  -33.3470   19.6130   -0.9270 C   0  0  0  0  0
  -33.8780   19.1800    0.2910 C   0  0  0  0  0
  -35.1530   19.5900    0.6630 C   0  0  0  0  0
  -37.1000   20.8680    0.3180 N   0  0  0  0  0
  -37.4150   22.8750   -0.7340 O   0  0  0  0  0
  -42.2100   23.6000    1.0850 C   0  0  0  0  0
  -42.0650   24.8480    0.5480 C   0  0  0  0  0
  -40.8530   25.2310    0.0210 C   0  0  0  0  0
  -39.7910   24.3500    0.0420 C   0  0  0  0  0
  -43.4860   25.9650    0.5400 Cl  0  0  0  0  0
  -41.3049   21.7159    1.5589 H   0  0  0  0  0
  -39.1761   21.3124    1.3285 H   0  0  0  0  0
  -35.8969   21.5683   -1.9956 H   0  0  0  0  0
  -33.6496   20.8393   -2.6645 H   0  0  0  0  0
  -33.2979   18.5270    0.9431 H   0  0  0  0  0
  -35.5815   19.2349    1.6002 H   0  0  0  0  0
  -37.5491   20.2348    0.9796 H   0  0  0  0  0
  -40.7324   26.2246   -0.4106 H   0  0  0  0  0
  -38.8367   24.6462   -0.3936 H   0  0  0  0  0
  2  1  4  0  0  0
  1 15  4  0  0  0
  6  2  1  0  0  0
  2 18  4  0  0  0
 15  3  1  0  0  0
 10  4  1  0  0  0
  5  6  1  0  0  0
 13  5  1  0  0  0
  5 14  2  0  0  0
  8  7  4  0  0  0
  7 12  4  0  0  0
  7 13  1  0  0  0
  9  8  4  0  0  0
  9 10  4  0  0  0
 10 11  4  0  0  0
 11 12  4  0  0  0
 15 16  4  0  0  0
 16 17  4  0  0  0
 16 19  1  0  0  0
 17 18  4  0  0  0
  1 20  1  0  0  0
  6 21  1  0  0  0
  8 22  1  0  0  0
  9 23  1  0  0  0
 11 24  1  0  0  0
 12 25  1  0  0  0
 13 26  1  0  0  0
 17 27  1  0  0  0
 18 28  1  0  0  0
M  END
$$$$
