5zjf_ligand
  -I-interpret- 

 46 49  0  0  0  0  0  0  0  0999 V2000
   32.4460  -45.9510  -46.5260 O   0  0  0  0  0
   26.4780  -43.4440  -51.9430 O   0  0  0  0  0
   32.7010  -47.2830  -44.6580 O   0  0  0  0  0
   25.9910  -43.2780  -49.7010 O   0  0  0  0  0
   30.7010  -49.2850  -50.7640 C   0  0  0  0  0
   29.2550  -49.1300  -51.5550 C   0  0  0  0  0
   31.4870  -49.9740  -49.5740 C   0  0  0  0  0
   27.7690  -48.5120  -51.3740 C   0  0  0  0  0
   31.4120  -50.3660  -51.5730 C   0  0  0  0  0
   28.8450  -50.4560  -52.1230 C   0  0  0  0  0
   31.8970  -49.2360  -48.2750 C   0  0  0  0  0
   27.2910  -47.0480  -51.1260 C   0  0  0  0  0
   32.0140  -47.8280  -48.1590 C   0  0  0  0  0
   27.1350  -45.9420  -52.0100 C   0  0  0  0  0
   32.0500  -50.0230  -47.0890 C   0  0  0  0  0
   26.9220  -46.7770  -49.8040 C   0  0  0  0  0
   32.2850  -47.2620  -46.9100 C   0  0  0  0  0
   26.7090  -44.7040  -51.4180 C   0  0  0  0  0
   32.4510  -48.1010  -45.7270 C   0  0  0  0  0
   26.3830  -44.5520  -49.9880 C   0  0  0  0  0
   32.3150  -49.4890  -45.8100 C   0  0  0  0  0
   26.5070  -45.6230  -49.1440 C   0  0  0  0  0
   32.5460  -45.9060  -45.0760 C   0  0  0  0  0
   26.2270  -42.4810  -50.8840 C   0  0  0  0  0
   30.6118  -48.2297  -50.5060 H   0  0  0  0  0
   29.7440  -48.2116  -51.8797 H   0  0  0  0  0
   32.4473  -50.2199  -50.0272 H   0  0  0  0  0
   30.7791  -50.7215  -49.2158 H   0  0  0  0  0
   27.4941  -48.9624  -50.4202 H   0  0  0  0  0
   27.3777  -48.6686  -52.3792 H   0  0  0  0  0
   32.4903  -50.2450  -51.4699 H   0  0  0  0  0
   31.1181  -51.3479  -51.2021 H   0  0  0  0  0
   31.1336  -50.2745  -52.6229 H   0  0  0  0  0
   28.2111  -50.9769  -51.4054 H   0  0  0  0  0
   28.2932  -50.2979  -53.0496 H   0  0  0  0  0
   29.7338  -51.0536  -52.3254 H   0  0  0  0  0
   31.8937  -47.1923  -49.0362 H   0  0  0  0  0
   27.3286  -46.0302  -53.0790 H   0  0  0  0  0
   31.9557  -51.1051  -47.1798 H   0  0  0  0  0
   26.9692  -47.6516  -49.1552 H   0  0  0  0  0
   32.4088  -50.1271  -44.9313 H   0  0  0  0  0
   26.3035  -45.5774  -48.0741 H   0  0  0  0  0
   31.6637  -45.4488  -44.6281 H   0  0  0  0  0
   33.3865  -45.2924  -44.7518 H   0  0  0  0  0
   25.3766  -41.8395  -51.1149 H   0  0  0  0  0
   27.0671  -41.7994  -50.7507 H   0  0  0  0  0
 17  1  1  0  0  0
  1 23  1  0  0  0
 18  2  1  0  0  0
  2 24  1  0  0  0
  3 19  1  0  0  0
 23  3  1  0  0  0
  4 20  1  0  0  0
 24  4  1  0  0  0
  6  5  1  0  0  0
  5  7  1  0  0  0
  5  9  1  0  0  0
  8  6  1  0  0  0
  6 10  1  0  0  0
  7 11  1  0  0  0
 12  8  1  0  0  0
 11 13  4  0  0  0
 11 15  4  0  0  0
 14 12  4  0  0  0
 12 16  4  0  0  0
 13 17  4  0  0  0
 14 18  4  0  0  0
 15 21  4  0  0  0
 16 22  4  0  0  0
 17 19  4  0  0  0
 18 20  4  0  0  0
 19 21  4  0  0  0
 20 22  4  0  0  0
  5 25  1  0  0  0
  6 26  1  0  0  0
  7 27  1  0  0  0
  7 28  1  0  0  0
  8 29  1  0  0  0
  8 30  1  0  0  0
  9 31  1  0  0  0
  9 32  1  0  0  0
  9 33  1  0  0  0
 10 34  1  0  0  0
 10 35  1  0  0  0
 10 36  1  0  0  0
 13 37  1  0  0  0
 14 38  1  0  0  0
 15 39  1  0  0  0
 16 40  1  0  0  0
 21 41  1  0  0  0
 22 42  1  0  0  0
 23 43  1  0  0  0
 23 44  1  0  0  0
 24 45  1  0  0  0
 24 46  1  0  0  0
M  END
$$$$
