4q1y_ligand
  -I-interpret- 

 75 78  0  0  0  0  0  0  0  0999 V2000
   14.2420   34.9950   18.0240 N   0  0  0  0  0
   15.1890   34.4520   17.2070 C   0  0  0  0  0
   15.0180   33.1430   16.7880 C   0  0  0  0  0
   15.9820   32.5760   15.9500 C   0  0  0  0  0
   17.1030   33.2920   15.5100 C   0  0  0  0  0
   17.2580   34.6150   15.9270 C   0  0  0  0  0
   16.2820   35.2020   16.7770 C   0  0  0  0  0
   18.1920   32.5390   14.5510 S   0  0  0  0  0
   17.5110   31.4580   13.9340 O   0  0  0  0  0
   18.8450   33.4870   13.6920 O   0  0  0  0  0
   19.4320   31.9370   15.4220 N   0  0  0  0  0
   20.2190   32.9130   16.2250 C   0  0  0  0  0
   21.6980   32.5360   16.2890 C   0  0  0  0  0
   22.3930   33.5330   17.2170 C   0  0  0  0  0
   22.3290   32.5620   14.9000 C   0  0  0  0  0
   19.1180   30.6680   16.1330 C   0  0  0  0  0
   20.0520   29.5620   15.6240 C   0  0  0  0  0
   19.9790   28.4060   16.4980 O   0  0  0  0  0
   19.7020   29.1080   14.2090 C   0  0  0  0  0
   20.8050   28.2910   13.7280 N   0  0  0  0  0
   21.6900   28.6610   12.8270 C   0  0  0  0  0
   21.7760   29.6980   12.2240 O   0  0  0  0  0
   22.6590   27.6520   12.6160 O   0  0  0  0  0
   23.4950   27.8180   11.4680 C   0  0  0  0  0
   24.8210   27.2000   11.8460 C   0  0  0  0  0
   24.5770   25.8070   11.7410 O   0  0  0  0  0
   23.6880   25.5800   10.6590 C   0  0  0  0  0
   22.6770   24.6860   11.0720 O   0  0  0  0  0
   21.4020   25.3420   11.1580 C   0  0  0  0  0
   21.5220   26.5950   10.2950 C   0  0  0  0  0
   23.0100   26.9110   10.3570 C   0  0  0  0  0
   18.4180   28.3030   14.0580 C   0  0  0  0  0
   17.8850   28.8480   11.6300 C   0  0  0  0  0
   17.6750   28.4690   10.3100 C   0  0  0  0  0
   17.7200   27.1330    9.9540 C   0  0  0  0  0
   17.9970   26.1890   10.9310 C   0  0  0  0  0
   18.1930   26.5760   12.2600 C   0  0  0  0  0
   18.1690   27.9070   12.6050 C   0  0  0  0  0
   13.4357   34.4395   18.3098 H   0  0  0  0  0
   14.3399   35.9567   18.3494 H   0  0  0  0  0
   14.1490   32.5667   17.1055 H   0  0  0  0  0
   15.8576   31.5421   15.6279 H   0  0  0  0  0
   18.1224   35.1944   15.6027 H   0  0  0  0  0
   16.3884   36.2398   17.0929 H   0  0  0  0  0
   19.8232   32.9182   17.2406 H   0  0  0  0  0
   20.1357   33.8913   15.7516 H   0  0  0  0  0
   21.8089   31.5214   16.6716 H   0  0  0  0  0
   22.2753   34.5409   16.8189 H   0  0  0  0  0
   21.9442   33.4780   18.2088 H   0  0  0  0  0
   23.4532   33.2883   17.2824 H   0  0  0  0  0
   21.8137   31.8504   14.2549 H   0  0  0  0  0
   22.2408   33.5644   14.4810 H   0  0  0  0  0
   23.3817   32.2897   14.9754 H   0  0  0  0  0
   18.0817   30.3885   15.9433 H   0  0  0  0  0
   19.2609   30.8036   17.2050 H   0  0  0  0  0
   21.0568   29.9843   15.6159 H   0  0  0  0  0
   20.5666   27.7211   16.1705 H   0  0  0  0  0
   19.5356   30.0208   13.6369 H   0  0  0  0  0
   20.9004   27.3547   14.1212 H   0  0  0  0  0
   23.5206   28.8662   11.1703 H   0  0  0  0  0
   25.1503   27.4932   12.8429 H   0  0  0  0  0
   25.6358   27.5317   11.2025 H   0  0  0  0  0
   24.2243   25.1787    9.7991 H   0  0  0  0  0
   21.1529   25.5924   12.1892 H   0  0  0  0  0
   20.5979   24.6945   10.8084 H   0  0  0  0  0
   20.9002   27.4158   10.6525 H   0  0  0  0  0
   21.1641   26.4429    9.2767 H   0  0  0  0  0
   23.2334   27.4184    9.4185 H   0  0  0  0  0
   17.5842   28.9193   14.3942 H   0  0  0  0  0
   18.5107   27.3933   14.6513 H   0  0  0  0  0
   17.8253   29.9018   11.9020 H   0  0  0  0  0
   17.4742   29.2267    9.5526 H   0  0  0  0  0
   17.5408   26.8277    8.9231 H   0  0  0  0  0
   18.0626   25.1352   10.6603 H   0  0  0  0  0
   18.3655   25.8198   13.0258 H   0  0  0  0  0
  2  1  1  0  0  0
  3  2  4  0  0  0
  7  2  4  0  0  0
  4  3  4  0  0  0
  5  4  4  0  0  0
  5  6  4  0  0  0
  8  5  1  0  0  0
  6  7  4  0  0  0
  8  9  2  0  0  0
  8 10  2  0  0  0
 11  8  1  0  0  0
 11 12  1  0  0  0
 16 11  1  0  0  0
 12 13  1  0  0  0
 13 14  1  0  0  0
 13 15  1  0  0  0
 17 16  1  0  0  0
 17 18  1  0  0  0
 19 17  1  0  0  0
 19 20  1  0  0  0
 32 19  1  0  0  0
 20 21  1  0  0  0
 21 22  2  0  0  0
 21 23  1  0  0  0
 23 24  1  0  0  0
 24 25  1  0  0  0
 24 31  1  0  0  0
 25 26  1  0  0  0
 27 26  1  0  0  0
 27 28  1  0  0  0
 31 27  1  0  0  0
 29 28  1  0  0  0
 30 29  1  0  0  0
 31 30  1  0  0  0
 38 32  1  0  0  0
 33 34  4  0  0  0
 33 38  4  0  0  0
 34 35  4  0  0  0
 35 36  4  0  0  0
 36 37  4  0  0  0
 37 38  4  0  0  0
  1 39  1  0  0  0
  1 40  1  0  0  0
  3 41  1  0  0  0
  4 42  1  0  0  0
  6 43  1  0  0  0
  7 44  1  0  0  0
 12 45  1  0  0  0
 12 46  1  0  0  0
 13 47  1  0  0  0
 14 48  1  0  0  0
 14 49  1  0  0  0
 14 50  1  0  0  0
 15 51  1  0  0  0
 15 52  1  0  0  0
 15 53  1  0  0  0
 16 54  1  0  0  0
 16 55  1  0  0  0
 17 56  1  0  0  0
 18 57  1  0  0  0
 19 58  1  0  0  0
 20 59  1  0  0  0
 24 60  1  0  0  0
 25 61  1  0  0  0
 25 62  1  0  0  0
 27 63  1  0  0  0
 29 64  1  0  0  0
 29 65  1  0  0  0
 30 66  1  0  0  0
 30 67  1  0  0  0
 31 68  1  0  0  0
 32 69  1  0  0  0
 32 70  1  0  0  0
 33 71  1  0  0  0
 34 72  1  0  0  0
 35 73  1  0  0  0
 36 74  1  0  0  0
 37 75  1  0  0  0
M  END
$$$$
