2xp4_ligand
  -I-interpret- 

 21 22  0  0  0  0  0  0  0  0999 V2000
  -38.6610   28.5810   25.6620 O   0  0  0  0  0
  -37.7740   28.0390   26.2790 C   0  0  0  0  0
  -37.6260   28.2960   27.4920 O   0  0  0  0  0
  -36.8670   27.0210   25.5030 C   0  0  0  0  0
  -37.1270   26.5820   24.2410 C   0  0  0  0  0
  -36.0910   25.8040   23.9480 N   0  0  0  0  0
  -35.1990   25.8180   24.9580 C   0  0  0  0  0
  -35.6660   26.6290   25.9470 N   0  0  0  0  0
  -34.0090   25.1070   24.9580 C   0  0  0  0  0
  -33.4000   24.8210   23.7310 C   0  0  0  0  0
  -32.2040   24.0690   23.6920 C   0  0  0  0  0
  -31.5920   23.6850   24.9060 C   0  0  0  0  0
  -32.1840   24.0120   26.1460 C   0  0  0  0  0
  -33.4090   24.7170   26.1750 C   0  0  0  0  0
  -36.8862   27.7908   27.8370 H   0  0  0  0  0
  -37.9879   26.8154   23.6145 H   0  0  0  0  0
  -33.8486   25.1786   22.8042 H   0  0  0  0  0
  -31.7593   23.7888   22.7371 H   0  0  0  0  0
  -30.6536   23.1308   24.8855 H   0  0  0  0  0
  -31.6980   23.7217   27.0775 H   0  0  0  0  0
  -33.8848   24.9567   27.1259 H   0  0  0  0  0
  1  2  2  0  0  0
  2  3  1  0  0  0
  2  4  1  0  0  0
  4  5  4  0  0  0
  4  8  4  0  0  0
  5  6  4  0  0  0
  6  7  4  0  0  0
  7  8  4  0  0  0
  7  9  1  0  0  0
  9 10  4  0  0  0
  9 14  4  0  0  0
 10 11  4  0  0  0
 11 12  4  0  0  0
 12 13  4  0  0  0
 13 14  4  0  0  0
  3 15  1  0  0  0
  5 16  1  0  0  0
 10 17  1  0  0  0
 11 18  1  0  0  0
 12 19  1  0  0  0
 13 20  1  0  0  0
 14 21  1  0  0  0
M  END
$$$$
