6t6a_ligand
  -I-interpret- 

 23 25  0  0  0  0  0  0  0  0999 V2000
    5.6510   10.5020   27.1810 C   0  0  0  0  0
    4.5780   11.5310   27.0240 C   0  0  0  0  0
    4.5010   12.2240   25.8580 C   0  0  0  0  0
    5.7790    9.7610   28.3240 C   0  0  0  0  0
    5.0670    9.7630   29.4930 C   0  0  0  0  0
    5.4360    8.8930   30.4990 C   0  0  0  0  0
    6.5180    8.0410   30.3290 C   0  0  0  0  0
    7.2390    8.0540   29.1460 C   0  0  0  0  0
    6.8790    8.9230   28.1260 C   0  0  0  0  0
    3.7380   11.7770   27.9360 O   0  0  0  0  0
    5.2620   12.1730   24.7390 C   0  0  0  0  0
    6.3510   11.4530   24.3450 C   0  0  0  0  0
    7.0390   10.5180   24.9790 C   0  0  0  0  0
    6.6710   10.0940   26.3330 C   0  0  0  0  0
    7.4170    9.1370   26.8960 N   0  0  0  0  0
    8.6480    6.9410   28.9540 Cl  0  0  0  0  0
    3.6855   12.9460   25.8159 H   0  0  0  0  0
    4.2232   10.4399   29.6271 H   0  0  0  0  0
    4.8740    8.8751   31.4328 H   0  0  0  0  0
    6.8020    7.3584   31.1299 H   0  0  0  0  0
    4.9248   12.8717   23.9733 H   0  0  0  0  0
    6.7138   11.6861   23.3439 H   0  0  0  0  0
    7.8940   10.0550   24.4863 H   0  0  0  0  0
  1  2  1  0  0  0
  1  4  4  0  0  0
  1 14  4  0  0  0
  2  3  1  0  0  0
  2 10  2  0  0  0
  3 11  2  0  0  0
  4  5  4  0  0  0
  4  9  4  0  0  0
  5  6  4  0  0  0
  6  7  4  0  0  0
  7  8  4  0  0  0
  8  9  4  0  0  0
  8 16  1  0  0  0
  9 15  4  0  0  0
 11 12  1  0  0  0
 12 13  2  0  0  0
 13 14  1  0  0  0
 14 15  4  0  0  0
  3 17  1  0  0  0
  5 18  1  0  0  0
  6 19  1  0  0  0
  7 20  1  0  0  0
 11 21  1  0  0  0
 12 22  1  0  0  0
 13 23  1  0  0  0
M  END
$$$$
