2pwr_ligand
  -I-interpret- 

 79 83  0  0  0  0  0  0  0  0999 V2000
    8.8740  -15.2670  -14.3570 C   0  0  0  0  0
   16.8530  -24.0050  -21.6940 O   0  0  0  0  0
    5.3670  -14.6590  -15.4520 N   0  0  0  0  0
   14.2270  -23.5980  -20.9400 C   0  0  0  0  0
    6.9170  -13.2870  -14.6390 O   0  0  0  0  0
   17.2880  -25.3340  -19.9340 N   0  0  0  0  0
    7.2730  -16.8000  -15.4750 C   0  0  0  0  0
    7.5960  -15.5100  -14.9760 C   0  0  0  0  0
   15.0940  -23.8330  -18.6320 C   0  0  0  0  0
   15.2280  -23.9790  -20.0310 C   0  0  0  0  0
   13.2420  -18.3190  -14.8840 C   0  0  0  0  0
   16.5390  -24.4700  -20.6080 C   0  0  0  0  0
   10.6330  -18.9330  -14.7480 S   0  0  0  0  0
    6.6180  -14.4160  -15.0120 C   0  0  0  0  0
   11.3540  -22.3180  -18.3090 S   0  0  0  0  0
   10.0430  -20.1460  -15.3530 O   0  0  0  0  0
   11.4240  -22.6110  -16.8830 O   0  0  0  0  0
   14.0820  -19.5970  -14.7870 C   0  0  0  0  0
   13.4530  -20.7730  -14.2410 C   0  0  0  0  0
   15.4180  -19.6380  -15.2590 C   0  0  0  0  0
    9.8490  -16.2950  -14.3120 C   0  0  0  0  0
   12.9930  -23.1350  -20.4170 C   0  0  0  0  0
    8.2700  -17.8010  -15.4400 C   0  0  0  0  0
   13.8670  -23.3320  -18.1250 C   0  0  0  0  0
   12.5410  -17.4910  -17.8800 C   0  0  0  0  0
   13.8470  -18.0760  -18.3150 N   0  3  0  0  0
   11.7810  -18.6080  -17.1530 C   0  0  0  0  0
   12.4750  -19.9660  -17.6010 C   0  0  0  0  0
   13.8070  -19.5310  -18.3050 C   0  0  0  0  0
    9.5370  -17.5910  -14.8040 C   0  0  0  0  0
   12.8450  -22.9610  -19.0320 C   0  0  0  0  0
   11.9980  -18.5700  -15.6760 N   0  0  0  0  0
   14.3100  -21.9180  -14.2280 C   0  0  0  0  0
   16.2950  -20.7760  -15.1760 C   0  0  0  0  0
   15.6750  -21.9540  -14.6100 C   0  0  0  0  0
   11.6470  -20.6720  -18.6130 N   0  0  0  0  0
   11.1550  -20.1270  -19.8950 C   0  0  0  0  0
    9.8860  -19.3250  -19.8370 C   0  0  0  0  0
    8.8950  -19.6160  -18.8780 C   0  0  0  0  0
    7.7540  -18.8090  -18.9050 C   0  0  0  0  0
    7.5820  -17.7950  -19.8720 C   0  0  0  0  0
    9.7700  -18.2630  -20.7570 C   0  0  0  0  0
    8.5840  -17.5070  -20.8320 C   0  0  0  0  0
   10.2810  -22.7110  -19.1800 O   0  0  0  0  0
   11.1670  -19.0580  -13.3730 O   0  0  0  0  0
    9.0915  -14.2912  -13.9226 H   0  0  0  0  0
    4.6785  -13.9067  -15.4726 H   0  0  0  0  0
    5.1091  -15.5951  -15.7643 H   0  0  0  0  0
   14.3940  -23.6566  -22.0155 H   0  0  0  0  0
   18.1798  -25.6449  -20.3192 H   0  0  0  0  0
   16.9717  -25.6871  -19.0308 H   0  0  0  0  0
    6.2815  -17.0125  -15.8747 H   0  0  0  0  0
   15.9108  -24.0980  -17.9606 H   0  0  0  0  0
   13.8285  -17.5460  -15.3806 H   0  0  0  0  0
   12.9644  -18.0001  -13.8794 H   0  0  0  0  0
   12.4266  -20.7884  -13.8745 H   0  0  0  0  0
   15.8132  -18.7341  -15.7225 H   0  0  0  0  0
   10.8375  -16.0914  -13.9002 H   0  0  0  0  0
   12.1625  -22.9150  -21.0879 H   0  0  0  0  0
    8.0690  -18.7630  -15.9115 H   0  0  0  0  0
   13.7131  -23.2340  -17.0504 H   0  0  0  0  0
   11.9730  -17.1270  -18.7361 H   0  0  0  0  0
   12.6972  -16.6351  -17.2234 H   0  0  0  0  0
   14.5719  -17.7675  -17.6671 H   0  0  0  0  0
   14.0408  -17.7639  -19.2665 H   0  0  0  0  0
   10.7201  -18.5087  -17.3828 H   0  0  0  0  0
   12.6204  -20.6273  -16.7468 H   0  0  0  0  0
   14.6677  -19.9306  -17.7687 H   0  0  0  0  0
   13.8422  -19.9186  -19.3232 H   0  0  0  0  0
   13.8699  -22.8565  -13.8908 H   0  0  0  0  0
   17.3325  -20.7524  -15.5094 H   0  0  0  0  0
   16.2556  -22.8669  -14.4775 H   0  0  0  0  0
   10.9400  -20.9884  -20.5274 H   0  0  0  0  0
   11.9278  -19.4454  -20.2505 H   0  0  0  0  0
    9.0117  -20.4244  -18.1563 H   0  0  0  0  0
    6.9754  -18.9670  -18.1587 H   0  0  0  0  0
    6.6562  -17.2197  -19.8805 H   0  0  0  0  0
   10.6052  -18.0250  -21.4158 H   0  0  0  0  0
    8.4436  -16.7378  -21.5915 H   0  0  0  0  0
  1  8  4  0  0  0
 21  1  4  0  0  0
 12  2  2  0  0  0
 14  3  1  0  0  0
  4 10  4  0  0  0
 22  4  4  0  0  0
 14  5  2  0  0  0
 12  6  1  0  0  0
  7  8  4  0  0  0
 23  7  4  0  0  0
  8 14  1  0  0  0
  9 10  4  0  0  0
 24  9  4  0  0  0
 10 12  1  0  0  0
 11 18  1  0  0  0
 32 11  1  0  0  0
 13 16  2  0  0  0
 13 30  1  0  0  0
 32 13  1  0  0  0
 13 45  2  0  0  0
 15 17  2  0  0  0
 15 31  1  0  0  0
 36 15  1  0  0  0
 15 44  2  0  0  0
 18 19  4  0  0  0
 18 20  4  0  0  0
 19 33  4  0  0  0
 20 34  4  0  0  0
 30 21  4  0  0  0
 31 22  4  0  0  0
 30 23  4  0  0  0
 31 24  4  0  0  0
 26 25  1  0  0  0
 27 25  1  0  0  0
 29 26  1  0  0  0
 28 27  1  0  0  0
 27 32  1  0  0  0
 28 29  1  0  0  0
 28 36  1  0  0  0
 33 35  4  0  0  0
 34 35  4  0  0  0
 36 37  1  0  0  0
 37 38  1  0  0  0
 38 39  4  0  0  0
 38 42  4  0  0  0
 39 40  4  0  0  0
 40 41  4  0  0  0
 41 43  4  0  0  0
 42 43  4  0  0  0
  1 46  1  0  0  0
  3 47  1  0  0  0
  3 48  1  0  0  0
  4 49  1  0  0  0
  6 50  1  0  0  0
  6 51  1  0  0  0
  7 52  1  0  0  0
  9 53  1  0  0  0
 11 54  1  0  0  0
 11 55  1  0  0  0
 19 56  1  0  0  0
 20 57  1  0  0  0
 21 58  1  0  0  0
 22 59  1  0  0  0
 23 60  1  0  0  0
 24 61  1  0  0  0
 25 62  1  0  0  0
 25 63  1  0  0  0
 26 64  1  0  0  0
 26 65  1  0  0  0
 27 66  1  0  0  0
 28 67  1  0  0  0
 29 68  1  0  0  0
 29 69  1  0  0  0
 33 70  1  0  0  0
 34 71  1  0  0  0
 35 72  1  0  0  0
 37 73  1  0  0  0
 37 74  1  0  0  0
 39 75  1  0  0  0
 40 76  1  0  0  0
 41 77  1  0  0  0
 42 78  1  0  0  0
 43 79  1  0  0  0
M  END
$$$$
