4j1e_ligand
  -I-interpret- 

 45 47  0  0  0  0  0  0  0  0999 V2000
  -16.1320  -41.1170   -9.4690 C   0  0  0  0  0
  -16.2600  -39.7310  -10.0900 C   0  0  0  0  0
  -15.2620  -39.9600   -7.5490 C   0  0  0  0  0
  -16.9130  -38.8110   -8.9850 C   0  0  0  0  0
  -19.4300  -38.9290   -9.5330 C   0  0  0  0  0
  -16.8240  -37.2760   -9.2550 C   0  0  0  0  0
  -21.3020  -41.2030   -5.3160 C   0  0  0  0  0
  -21.1560  -41.8800   -4.0310 C   0  0  0  0  0
  -15.2530  -41.0500   -8.2990 O   0  0  0  0  0
  -16.0390  -38.9300   -7.8270 N   0  0  0  0  0
  -18.3370  -39.1850   -8.6060 C   0  0  0  0  0
  -18.6380  -39.6700   -7.3270 C   0  0  0  0  0
  -19.9900  -39.9360   -7.0290 C   0  0  0  0  0
  -21.0820  -39.7360   -7.9760 C   0  0  0  0  0
  -20.7720  -39.2150   -9.2570 C   0  0  0  0  0
  -19.0980  -38.4810  -10.7620 F   0  0  0  0  0
  -14.4550  -40.0600   -6.4130 N   0  0  0  0  0
  -20.1830  -40.5810   -5.8010 N   0  0  0  0  0
  -22.3570  -41.2570   -5.9370 O   0  0  0  0  0
  -20.0690  -41.5830   -3.2800 N   0  0  0  0  0
  -19.7810  -42.2300   -2.1360 C   0  0  0  0  0
  -20.6940  -43.1190   -1.6220 C   0  0  0  0  0
  -21.8860  -43.4430   -2.3710 C   0  0  0  0  0
  -22.1550  -42.7850   -3.5810 C   0  0  0  0  0
  -20.4660  -43.7460   -0.3510 C   0  0  0  0  0
  -20.2930  -44.2550    0.6620 N   0  0  0  0  0
  -15.4650  -42.0660  -10.5340 C   0  0  0  0  0
  -14.2530  -41.5840  -10.8790 F   0  0  0  0  0
  -15.3230  -43.2360   -9.8920 F   0  0  0  0  0
  -16.3650  -42.1530  -11.5690 F   0  0  0  0  0
  -15.4720  -36.9680   -9.6680 F   0  0  0  0  0
  -17.1137  -41.4852   -9.1711 H   0  0  0  0  0
  -16.8737  -39.7592  -10.9904 H   0  0  0  0  0
  -15.2872  -39.3466  -10.3964 H   0  0  0  0  0
  -17.0756  -36.7211   -8.3512 H   0  0  0  0  0
  -17.5288  -36.9912  -10.0362 H   0  0  0  0  0
  -16.0259  -38.1479   -7.1723 H   0  0  0  0  0
  -17.8543  -39.8360   -6.5878 H   0  0  0  0  0
  -22.1091  -39.9809   -7.7053 H   0  0  0  0  0
  -21.5505  -39.0432  -10.0003 H   0  0  0  0  0
  -13.9325  -40.9172   -6.2325 H   0  0  0  0  0
  -19.3745  -40.5884   -5.1792 H   0  0  0  0  0
  -18.8357  -42.0513   -1.6236 H   0  0  0  0  0
  -22.5765  -44.1986   -1.9963 H   0  0  0  0  0
  -23.0739  -42.9575   -4.1413 H   0  0  0  0  0
  2  1  1  0  0  0
  1  9  1  0  0  0
  1 27  1  0  0  0
  4  2  1  0  0  0
  3  9  1  0  0  0
 10  3  1  0  0  0
  3 17  2  0  0  0
  4  6  1  0  0  0
  4 10  1  0  0  0
 11  4  1  0  0  0
 11  5  4  0  0  0
  5 15  4  0  0  0
  5 16  1  0  0  0
  6 31  1  0  0  0
  7  8  1  0  0  0
 18  7  1  0  0  0
  7 19  2  0  0  0
  8 20  4  0  0  0
  8 24  4  0  0  0
 12 11  4  0  0  0
 13 12  4  0  0  0
 13 14  4  0  0  0
 13 18  1  0  0  0
 14 15  4  0  0  0
 20 21  4  0  0  0
 21 22  4  0  0  0
 22 23  4  0  0  0
 22 25  1  0  0  0
 23 24  4  0  0  0
 25 26  3  0  0  0
 27 28  1  0  0  0
 27 29  1  0  0  0
 27 30  1  0  0  0
  1 32  1  0  0  0
  2 33  1  0  0  0
  2 34  1  0  0  0
  6 35  1  0  0  0
  6 36  1  0  0  0
 10 37  1  0  0  0
 12 38  1  0  0  0
 14 39  1  0  0  0
 15 40  1  0  0  0
 17 41  1  0  0  0
 18 42  1  0  0  0
 21 43  1  0  0  0
 23 44  1  0  0  0
 24 45  1  0  0  0
M  END
$$$$
