3mt8_ligand
  -I-interpret- 

 42 43  0  0  0  0  0  0  0  0999 V2000
   19.2280   15.2390   56.0780 C   0  0  0  0  0
   18.7520   13.9380   55.5770 N   0  0  0  0  0
   18.3770   13.0950   58.1280 S   0  0  0  0  0
   17.3450    9.7220   48.2320 Cl  0  0  0  0  0
   20.5900   15.5880   55.4290 C   0  0  0  0  0
   17.9410   11.7950   55.8330 N   0  0  0  0  0
   21.6030   14.6850   55.8860 O   0  0  0  0  0
   20.9820   17.0450   55.7320 C   0  0  0  0  0
   17.9190   11.6680   54.6080 N   0  0  0  0  0
   22.1570   17.4110   54.9960 O   0  0  0  0  0
   19.8270   17.9890   55.3710 C   0  0  0  0  0
   20.1660   19.3410   55.7000 O   0  0  0  0  0
   18.5500   17.5660   56.1170 C   0  0  0  0  0
   18.2130   16.2090   55.7120 O   0  0  0  0  0
   17.3400   18.4770   55.8600 C   0  0  0  0  0
   16.9610   18.3970   54.4830 O   0  0  0  0  0
   18.3570   12.9380   56.3760 C   0  0  0  0  0
   17.5070   10.5430   54.0620 C   0  0  0  0  0
   17.4810   10.3770   52.6820 C   0  0  0  0  0
   16.6920    9.3610   52.1450 C   0  0  0  0  0
   16.6600    9.1660   50.7700 C   0  0  0  0  0
   17.4090    9.9870   49.9350 C   0  0  0  0  0
   18.2000   11.0100   50.4620 C   0  0  0  0  0
   18.2350   11.2020   51.8410 C   0  0  0  0  0
   19.3807   15.2275   57.1572 H   0  0  0  0  0
   18.7216   13.7908   54.5681 H   0  0  0  0  0
   18.8224   14.3039   58.4582 H   0  0  0  0  0
   20.4945   15.4831   54.3483 H   0  0  0  0  0
   21.3395   13.7834   55.6878 H   0  0  0  0  0
   21.1938   17.1312   56.7977 H   0  0  0  0  0
   22.8753   16.8171   55.2262 H   0  0  0  0  0
   19.6472   17.9280   54.2977 H   0  0  0  0  0
   19.4348   19.9184   55.4687 H   0  0  0  0  0
   18.7664   17.6395   57.1828 H   0  0  0  0  0
   17.6042   19.5062   56.1031 H   0  0  0  0  0
   16.5061   18.1551   56.4838 H   0  0  0  0  0
   16.2049   18.9675   54.3267 H   0  0  0  0  0
   17.1798    9.7257   54.7047 H   0  0  0  0  0
   16.1021    8.7217   52.8018 H   0  0  0  0  0
   16.0480    8.3698   50.3462 H   0  0  0  0  0
   18.7836   11.6512   49.8014 H   0  0  0  0  0
   18.8503   11.9955   52.2651 H   0  0  0  0  0
  2  1  1  0  0  0
  1  5  1  0  0  0
  1 14  1  0  0  0
 17  2  1  0  0  0
 17  3  1  0  0  0
 22  4  1  0  0  0
  5  7  1  0  0  0
  5  8  1  0  0  0
  9  6  1  0  0  0
  6 17  2  0  0  0
  8 10  1  0  0  0
  8 11  1  0  0  0
 18  9  2  0  0  0
 11 12  1  0  0  0
 13 11  1  0  0  0
 14 13  1  0  0  0
 13 15  1  0  0  0
 15 16  1  0  0  0
 19 18  1  0  0  0
 20 19  4  0  0  0
 19 24  4  0  0  0
 21 20  4  0  0  0
 21 22  4  0  0  0
 22 23  4  0  0  0
 23 24  4  0  0  0
  1 25  1  0  0  0
  2 26  1  0  0  0
  3 27  1  0  0  0
  5 28  1  0  0  0
  7 29  1  0  0  0
  8 30  1  0  0  0
 10 31  1  0  0  0
 11 32  1  0  0  0
 12 33  1  0  0  0
 13 34  1  0  0  0
 15 35  1  0  0  0
 15 36  1  0  0  0
 16 37  1  0  0  0
 18 38  1  0  0  0
 20 39  1  0  0  0
 21 40  1  0  0  0
 23 41  1  0  0  0
 24 42  1  0  0  0
M  END
$$$$
