6mr5_ligand
  -I-interpret- 

 39 40  0  0  0  0  0  0  0  0999 V2000
  175.9880   -5.7180   21.5270 C   0  0  0  0  0
  177.3010   -6.1460   20.9070 C   0  0  0  0  0
  174.1210   -6.3320   23.0530 C   0  0  0  0  0
  173.1130   -7.4430   22.6680 C   0  0  0  0  0
  171.6600   -7.0460   22.7570 C   0  0  0  0  0
  170.6890   -8.2390   22.7650 C   0  0  0  0  0
  169.3500   -7.9140   23.4370 C   0  0  0  0  0
  169.1560   -5.4970   24.1500 C   0  0  0  0  0
  168.6680   -4.3150   23.6240 C   0  0  0  0  0
  168.1310   -4.6150   22.3330 C   0  0  0  0  0
  167.5160   -3.8190   21.3730 C   0  0  0  0  0
  167.1120   -4.4350   20.2110 C   0  0  0  0  0
  167.3050   -5.8070   19.9950 C   0  0  0  0  0
  167.9070   -6.6150   20.9210 C   0  0  0  0  0
  168.3230   -6.0050   22.1050 C   0  0  0  0  0
  175.3930   -6.6210   22.4040 N   0  0  0  0  0
  168.9450   -6.5370   23.2190 N   0  0  0  0  0
  175.4660   -4.6380   21.2950 O   0  0  0  0  0
  178.5690   -4.9370   21.3250 S   0  0  0  0  0
  166.3540   -3.5050   19.0090 Cl  0  0  0  0  0
  166.7740   -6.5080   18.5230 Cl  0  0  0  0  0
  177.1936   -6.2063   19.8240 H   0  0  0  0  0
  177.5865   -7.1255   21.2906 H   0  0  0  0  0
  174.2516   -6.3051   24.1348 H   0  0  0  0  0
  173.7482   -5.3608   22.7277 H   0  0  0  0  0
  173.2597   -8.2593   23.3753 H   0  0  0  0  0
  173.3065   -7.6954   21.6254 H   0  0  0  0  0
  171.4322   -6.4477   21.8748 H   0  0  0  0  0
  171.5263   -6.5121   23.6978 H   0  0  0  0  0
  171.1574   -9.0456   23.3290 H   0  0  0  0  0
  170.4846   -8.5088   21.7289 H   0  0  0  0  0
  169.4638   -8.0675   24.5101 H   0  0  0  0  0
  168.5883   -8.5633   23.0054 H   0  0  0  0  0
  169.6277   -5.6079   25.1264 H   0  0  0  0  0
  168.6888   -3.3366   24.1040 H   0  0  0  0  0
  167.3606   -2.7523   21.5342 H   0  0  0  0  0
  168.0540   -7.6803   20.7428 H   0  0  0  0  0
  175.8595   -7.5073   22.5970 H   0  0  0  0  0
  179.7266   -5.3058   20.7838 H   0  0  0  0  0
  1  2  1  0  0  0
 16  1  1  0  0  0
  1 18  2  0  0  0
  2 19  1  0  0  0
  4  3  1  0  0  0
  3 16  1  0  0  0
  5  4  1  0  0  0
  6  5  1  0  0  0
  7  6  1  0  0  0
 17  7  1  0  0  0
  8  9  4  0  0  0
  8 17  4  0  0  0
  9 10  4  0  0  0
 10 11  4  0  0  0
 10 15  4  0  0  0
 11 12  4  0  0  0
 12 13  4  0  0  0
 12 20  1  0  0  0
 13 14  4  0  0  0
 13 21  1  0  0  0
 14 15  4  0  0  0
 15 17  4  0  0  0
  2 22  1  0  0  0
  2 23  1  0  0  0
  3 24  1  0  0  0
  3 25  1  0  0  0
  4 26  1  0  0  0
  4 27  1  0  0  0
  5 28  1  0  0  0
  5 29  1  0  0  0
  6 30  1  0  0  0
  6 31  1  0  0  0
  7 32  1  0  0  0
  7 33  1  0  0  0
  8 34  1  0  0  0
  9 35  1  0  0  0
 11 36  1  0  0  0
 14 37  1  0  0  0
 16 38  1  0  0  0
 19 39  1  0  0  0
M  END
$$$$
