### 
### Created by X-TOOL on Mon Sep 10 21:12:51 2018
### 

@<TRIPOS>MOLECULE
1u8t_ligand
  198   197     1     0     0
SMALL
GAST_HUCK


@<TRIPOS>ATOM
      1 N          30.0510   16.2790   36.2560 N.4       1 SER         0.2396
      2 CA         29.6060   16.2910   34.8760 C.3       1 SER         0.0885
      3 C          28.1560   16.7200   34.7610 C.2       1 SER         0.2290
      4 O          27.2490   16.0320   35.2140 O.2       1 SER        -0.3906
      5 CB         29.8230   14.9560   34.1720 C.3       1 SER         0.1041
      6 OG         31.2010   14.6580   34.0630 O.3       1 SER        -0.3870
      7 N          27.9520   17.8730   34.1400 N.am      1 ILE        -0.2607
      8 CA         26.6260   18.4200   33.9630 C.3       1 ILE         0.1336
      9 C          25.8180   17.6890   32.9060 C.2       1 ILE         0.2042
     10 O          26.2400   17.5610   31.7550 O.2       1 ILE        -0.3944
     11 CB         26.6640   19.9130   33.6180 C.3       1 ILE        -0.0037
     12 CG1        27.2050   20.7430   34.7730 C.3       1 ILE        -0.0491
     13 CG2        25.2710   20.4080   33.2350 C.3       1 ILE        -0.0582
     14 CD1        27.5510   22.1740   34.3640 C.3       1 ILE        -0.0648
     15 N          24.6330   17.2340   33.2990 N.am      1 LEU        -0.2637
     16 CA         23.7340   16.5670   32.3780 C.3       1 LEU         0.1312
     17 C          22.7090   17.5720   31.8850 C.2       1 LEU         0.2040
     18 O          22.2630   18.4370   32.6400 O.2       1 LEU        -0.3944
     19 CB         22.9950   15.3800   33.0220 C.3       1 LEU        -0.0101
     20 CG         23.7520   14.0670   32.9430 C.3       1 LEU        -0.0425
     21 CD1        25.0870   14.2210   33.6550 C.3       1 LEU        -0.0625
     22 CD2        22.9340   12.9610   33.5980 C.3       1 LEU        -0.0625
     23 N          22.3370   17.4560   30.6180 N.am      1 SER        -0.2616
     24 CA         21.3500   18.3400   30.0360 C.3       1 SER         0.1539
     25 C          19.9630   17.8010   30.3440 C.2       1 SER         0.2062
     26 O          19.8100   16.6320   30.6920 O.2       1 SER        -0.3943
     27 CB         21.5230   18.4060   28.5310 C.3       1 SER         0.0843
     28 OG         21.1660   17.1530   27.9810 O.3       1 SER        -0.3903
     29 N          18.9450   18.6380   30.2030 N.am      1 GLN        -0.2635
     30 CA         17.5980   18.1740   30.4580 C.3       1 GLN         0.1330
     31 C          17.3360   16.8860   29.6910 C.2       1 GLN         0.2040
     32 O          16.7960   15.9130   30.2220 O.2       1 GLN        -0.3944
     33 CB         16.5420   19.2410   30.1090 C.3       1 GLN         0.0045
     34 CG         15.1090   18.8080   30.4690 C.3       1 GLN         0.0412
     35 CD         14.8950   18.7110   31.9690 C.2       1 GLN         0.1737
     36 OE1        15.0450   19.7030   32.6940 O.2       1 GLN        -0.3973
     37 NE2        14.5600   17.5120   32.4440 N.am      1 GLN        -0.3009
     38 N          17.7410   16.8990   28.4210 N.am      1 ALA        -0.2640
     39 CA         17.5910   15.7550   27.5390 C.3       1 ALA         0.1282
     40 C          18.2740   14.5270   28.1230 C.2       1 ALA         0.2036
     41 O          17.6890   13.4480   28.2200 O.2       1 ALA        -0.3944
     42 CB         18.1520   16.0790   26.1640 C.3       1 ALA        -0.0244
     43 N          19.5320   14.6930   28.5180 N.am      1 GLU        -0.2636
     44 CA         20.2580   13.5890   29.1030 C.3       1 GLU         0.1325
     45 C          19.5670   13.1020   30.3690 C.2       1 GLU         0.2040
     46 O          19.3020   11.9120   30.5350 O.2       1 GLU        -0.3944
     47 CB         21.7270   13.9500   29.3830 C.3       1 GLU        -0.0008
     48 CG         22.6450   13.7070   28.1710 C.3       1 GLU         0.0044
     49 CD         23.6220   14.8250   27.9500 C.2       1 GLU         0.0350
     50 OE1        23.9560   15.2170   26.8470 O.co2     1 GLU        -0.5690
     51 OE2        24.0630   15.3360   29.0710 O.co2     1 GLU        -0.5690
     52 N          19.2690   14.0360   31.2700 N.am      1 ILE        -0.2635
     53 CA         18.5990   13.6890   32.5160 C.3       1 ILE         0.1335
     54 C          17.3050   12.9580   32.2240 C.2       1 ILE         0.2042
     55 O          16.9330   12.0050   32.9080 O.2       1 ILE        -0.3944
     56 CB         18.2930   14.9230   33.3550 C.3       1 ILE        -0.0037
     57 CG1        19.5650   15.4540   33.9920 C.3       1 ILE        -0.0491
     58 CG2        17.2620   14.5920   34.4280 C.3       1 ILE        -0.0582
     59 CD1        19.4270   16.9080   34.4220 C.3       1 ILE        -0.0648
     60 N          16.6250   13.4460   31.1930 N.am      1 ASP        -0.2622
     61 CA         15.3720   12.8810   30.7590 C.3       1 ASP         0.1423
     62 C          15.4960   11.3760   30.5490 C.2       1 ASP         0.2056
     63 O          14.5850   10.6140   30.8590 O.2       1 ASP        -0.3943
     64 CB         14.8810   13.5800   29.4770 C.3       1 ASP         0.0406
     65 CG         14.2070   14.9020   29.7330 C.2       1 ASP         0.0393
     66 OD1        14.0070   15.3590   30.8420 O.co2     1 ASP        -0.5688
     67 OD2        13.8440   15.5060   28.6340 O.co2     1 ASP        -0.5688
     68 N          16.6500   10.9600   30.0290 N.am      1 ALA        -0.2639
     69 CA         16.9360    9.5640   29.7460 C.3       1 ALA         0.1282
     70 C          17.0300    8.6610   30.9670 C.2       1 ALA         0.2036
     71 O          17.0110    7.4410   30.8300 O.2       1 ALA        -0.3944
     72 CB         18.1860    9.4310   28.8920 C.3       1 ALA        -0.0244
     73 N          17.1370    9.2360   32.1630 N.am      1 LEU        -0.2637
     74 CA         17.2450    8.4100   33.3530 C.3       1 LEU         0.1312
     75 C          16.2730    8.7440   34.4710 C.2       1 LEU         0.2039
     76 O          16.0770    7.9370   35.3760 O.2       1 LEU        -0.3944
     77 CB         18.6730    8.3990   33.9230 C.3       1 LEU        -0.0101
     78 CG         19.7620    8.4330   32.8590 C.3       1 LEU        -0.0425
     79 CD1        20.7230    9.5770   33.1550 C.3       1 LEU        -0.0625
     80 CD2        20.5240    7.1130   32.8580 C.3       1 LEU        -0.0625
     81 N          15.6840    9.9320   34.4320 N.am      1 LEU        -0.2637
     82 CA         14.7700   10.3320   35.4880 C.3       1 LEU         0.1312
     83 C          13.3840   10.7550   35.0160 C.2       1 LEU         0.2035
     84 O          12.4410   10.7970   35.8040 O.2       1 LEU        -0.3944
     85 CB         15.3910   11.4390   36.3610 C.3       1 LEU        -0.0101
     86 CG         15.3670   11.1150   37.8470 C.3       1 LEU        -0.0425
     87 CD1        16.4050   11.9590   38.5720 C.3       1 LEU        -0.0625
     88 CD2        13.9810   11.3850   38.4210 C.3       1 LEU        -0.0625
     89 N          13.2530   11.0800   33.7340 N.am      1 ASN        -0.2674
     90 CA         11.9690   11.5150   33.2170 C.3       1 ASN         0.1110
     91 C          11.4180   10.6310   32.1080 C.2       1 ASN         0.0624
     92 O          10.5880   11.1320   31.3200 O.co2     1 ASN        -0.5665
     93 CB         12.0130   12.9900   32.7820 C.3       1 ASN         0.0718
     94 CG         12.6690   13.8780   33.8160 C.2       1 ASN         0.1774
     95 OD1        12.5650   13.6290   35.0260 O.2       1 ASN        -0.3971
     96 ND2        13.3570   14.9110   33.3420 N.am      1 ASN        -0.3007
     97 OXT        11.8130    9.4460   32.0450 O.co2     1 ASN        -0.5665
     98 H1         31.0159   15.9902   36.2953 H         1 SER         0.2016
     99 H2         29.4855   15.6344   36.7858 H         1 SER         0.2016
    100 H3         29.9610   17.2041   36.6461 H         1 SER         0.2016
    101 H4         30.2148   17.0400   34.3485 H         1 SER         0.1122
    102 H5         29.3850   15.0055   33.1642 H         1 SER         0.0640
    103 H6         29.3277   14.1608   34.7484 H         1 SER         0.0640
    104 H7         31.3095   13.8236   33.6220 H         1 SER         0.2099
    105 H8         28.7378   18.3787   33.7839 H         1 ILE         0.1885
    106 H9         26.0994   18.3082   34.9223 H         1 ILE         0.0803
    107 H10        27.3318   20.0476   32.7544 H         1 ILE         0.0345
    108 H11        28.1142   20.2583   35.1583 H         1 ILE         0.0267
    109 H12        26.4441   20.7788   35.5665 H         1 ILE         0.0267
    110 H13        24.8844   19.8052   32.4001 H         1 ILE         0.0235
    111 H14        25.3279   21.4633   32.9297 H         1 ILE         0.0235
    112 H15        24.5973   20.3121   34.0992 H         1 ILE         0.0235
    113 H16        27.9352   22.7221   35.2369 H         1 ILE         0.0230
    114 H17        26.6484   22.6753   33.9845 H         1 ILE         0.0230
    115 H18        28.3185   22.1548   33.5763 H         1 ILE         0.0230
    116 H19        24.3550   17.3545   34.2520 H         1 LEU         0.1883
    117 H20        24.3194   16.1939   31.5247 H         1 LEU         0.0800
    118 H21        22.0296   15.2543   32.5099 H         1 LEU         0.0315
    119 H22        22.8199   15.6153   34.0822 H         1 LEU         0.0315
    120 H23        23.9290   13.8098   31.8883 H         1 LEU         0.0298
    121 H24        25.6422   13.2729   33.6022 H         1 LEU         0.0232
    122 H25        24.9124   14.4854   34.7084 H         1 LEU         0.0232
    123 H26        25.6720   15.0160   33.1694 H         1 LEU         0.0232
    124 H27        21.9715   12.8584   33.0755 H         1 LEU         0.0232
    125 H28        22.7533   13.2143   34.6531 H         1 LEU         0.0232
    126 H29        23.4866   12.0118   33.5382 H         1 LEU         0.0232
    127 H30        22.7477   16.7415   30.0515 H         1 SER         0.1884
    128 H31        21.4621   19.3473   30.4635 H         1 SER         0.0823
    129 H32        22.5717   18.6322   28.2880 H         1 SER         0.0606
    130 H33        20.8731   19.1911   28.1172 H         1 SER         0.0606
    131 H34        21.2702   17.1814   27.0371 H         1 SER         0.2097
    132 H35        19.1066   19.5841   29.9222 H         1 GLN         0.1883
    133 H36        17.5130   17.9566   31.5329 H         1 GLN         0.0801
    134 H37        16.5874   19.4389   29.0279 H         1 GLN         0.0337
    135 H38        16.7789   20.1626   30.6608 H         1 GLN         0.0337
    136 H39        14.9138   17.8231   30.0196 H         1 GLN         0.0504
    137 H40        14.4032   19.5449   30.0581 H         1 GLN         0.0504
    138 H41        14.4062   17.3877   33.4242 H         1 GLN         0.1814
    139 H42        14.4624   16.7365   31.8202 H         1 GLN         0.1814
    140 H43        18.1652   17.7300   28.0611 H         1 ALA         0.1883
    141 H44        16.5182   15.5358   27.4340 H         1 ALA         0.0797
    142 H45        18.0333   15.2065   25.5047 H         1 ALA         0.0277
    143 H46        19.2196   16.3287   26.2530 H         1 ALA         0.0277
    144 H47        17.6091   16.9361   25.7391 H         1 ALA         0.0277
    145 H48        19.9764   15.5823   28.4103 H         1 GLU         0.1883
    146 H49        20.2514   12.7632   28.3763 H         1 GLU         0.0801
    147 H50        22.0852   13.3369   30.2231 H         1 GLU         0.0330
    148 H51        21.7810   15.0141   29.6564 H         1 GLU         0.0330
    149 H52        22.0202   13.6030   27.2717 H         1 GLU         0.0433
    150 H53        23.2072   12.7762   28.3366 H         1 GLU         0.0433
    151 H54        19.5087   14.9898   31.0886 H         1 ILE         0.1883
    152 H55        19.2609   13.0270   33.0936 H         1 ILE         0.0803
    153 H56        17.8779   15.7010   32.6974 H         1 ILE         0.0345
    154 H57        20.3856   15.3760   33.2637 H         1 ILE         0.0267
    155 H58        19.8003   14.8436   34.8763 H         1 ILE         0.0267
    156 H59        16.3473   14.2090   33.9519 H         1 ILE         0.0235
    157 H60        17.0243   15.5005   35.0009 H         1 ILE         0.0235
    158 H61        17.6703   13.8276   35.1055 H         1 ILE         0.0235
    159 H62        20.3698   17.2471   34.8761 H         1 ILE         0.0230
    160 H63        18.6132   16.9975   35.1566 H         1 ILE         0.0230
    161 H64        19.1985   17.5300   33.5440 H         1 ILE         0.0230
    162 H65        16.9954   14.2334   30.7002 H         1 ASP         0.1884
    163 H66        14.6267   13.0538   31.5493 H         1 ASP         0.0819
    164 H67        14.1643   12.9162   28.9714 H         1 ASP         0.0478
    165 H68        15.7470   13.7522   28.8210 H         1 ASP         0.0478
    166 H69        17.3528   11.6411   29.8237 H         1 ALA         0.1883
    167 H70        16.0913    9.1908   29.1484 H         1 ALA         0.0797
    168 H71        18.3816    8.3673   28.6915 H         1 ALA         0.0277
    169 H72        19.0431    9.8670   29.4261 H         1 ALA         0.0277
    170 H73        18.0381    9.9623   27.9403 H         1 ALA         0.0277
    171 H74        17.1430   10.2329   32.2418 H         1 LEU         0.1883
    172 H75        17.0137    7.3838   33.0314 H         1 LEU         0.0800
    173 H76        18.8006    7.4841   34.5201 H         1 LEU         0.0315
    174 H77        18.7942    9.2796   34.5709 H         1 LEU         0.0315
    175 H78        19.3023    8.5883   31.8718 H         1 LEU         0.0298
    176 H79        21.5101    9.6026   32.3871 H         1 LEU         0.0232
    177 H80        21.1803    9.4252   34.1438 H         1 LEU         0.0232
    178 H81        20.1727   10.5294   33.1478 H         1 LEU         0.0232
    179 H82        19.8283    6.2882   32.6441 H         1 LEU         0.0232
    180 H83        20.9868    6.9560   33.8435 H         1 LEU         0.0232
    181 H84        21.3068    7.1420   32.0857 H         1 LEU         0.0232
    182 H85        15.8700   10.5550   33.6722 H         1 LEU         0.1883
    183 H86        14.6280    9.4486   36.1279 H         1 LEU         0.0800
    184 H87        14.8287   12.3701   36.1972 H         1 LEU         0.0315
    185 H88        16.4367   11.5829   36.0515 H         1 LEU         0.0315
    186 H89        15.6095   10.0511   37.9856 H         1 LEU         0.0298
    187 H90        16.3849   11.7222   39.6460 H         1 LEU         0.0232
    188 H91        16.1766   13.0253   38.4273 H         1 LEU         0.0232
    189 H92        17.4039   11.7397   38.1669 H         1 LEU         0.0232
    190 H93        13.2385   10.7707   37.8907 H         1 LEU         0.0232
    191 H94        13.7331   12.4493   38.2956 H         1 LEU         0.0232
    192 H95        13.9711   11.1298   39.4909 H         1 LEU         0.0232
    193 H96        14.0428   11.0245   33.1231 H         1 ASN         0.1877
    194 H97        11.2572   11.4472   34.0529 H         1 ASN         0.0752
    195 H98        10.9834   13.3405   32.6178 H         1 ASN         0.0544
    196 H99        12.5799   13.0642   31.8423 H         1 ASN         0.0544
    197 H100       13.8155   15.5378   33.9720 H         1 ASN         0.1814
    198 H101       13.4163   15.0618   32.3552 H         1 ASN         0.1814
@<TRIPOS>BOND
     1    1    2 1  
     2    2    3 1  
     3    2    5 1  
     4    3    4 2  
     5    3    7 am 
     6    5    6 1  
     7    7    8 1  
     8    8    9 1  
     9    8   11 1  
    10    9   10 2  
    11    9   15 am 
    12   11   12 1  
    13   11   13 1  
    14   12   14 1  
    15   15   16 1  
    16   16   17 1  
    17   16   19 1  
    18   17   18 2  
    19   17   23 am 
    20   19   20 1  
    21   20   21 1  
    22   20   22 1  
    23   23   24 1  
    24   24   25 1  
    25   24   27 1  
    26   25   26 2  
    27   25   29 am 
    28   27   28 1  
    29   29   30 1  
    30   30   31 1  
    31   30   33 1  
    32   31   32 2  
    33   31   38 am 
    34   33   34 1  
    35   34   35 1  
    36   35   36 2  
    37   35   37 am 
    38   38   39 1  
    39   39   40 1  
    40   39   42 1  
    41   40   41 2  
    42   40   43 am 
    43   43   44 1  
    44   44   45 1  
    45   44   47 1  
    46   45   46 2  
    47   45   52 am 
    48   47   48 1  
    49   48   49 1  
    50   49   50 ar 
    51   49   51 ar 
    52   52   53 1  
    53   53   54 1  
    54   53   56 1  
    55   54   55 2  
    56   54   60 am 
    57   56   57 1  
    58   56   58 1  
    59   57   59 1  
    60   60   61 1  
    61   61   62 1  
    62   61   64 1  
    63   62   63 2  
    64   62   68 am 
    65   64   65 1  
    66   65   66 ar 
    67   65   67 ar 
    68   68   69 1  
    69   69   70 1  
    70   69   72 1  
    71   70   71 2  
    72   70   73 am 
    73   73   74 1  
    74   74   75 1  
    75   74   77 1  
    76   75   76 2  
    77   75   81 am 
    78   77   78 1  
    79   78   79 1  
    80   78   80 1  
    81   81   82 1  
    82   82   83 1  
    83   82   85 1  
    84   83   84 2  
    85   83   89 am 
    86   85   86 1  
    87   86   87 1  
    88   86   88 1  
    89   89   90 1  
    90   90   91 1  
    91   90   93 1  
    92   91   92 ar 
    93   91   97 ar 
    94   93   94 1  
    95   94   95 2  
    96   94   96 am 
    97    1   98 1  
    98    1   99 1  
    99    1  100 1  
   100    2  101 1  
   101    5  102 1  
   102    5  103 1  
   103    6  104 1  
   104    7  105 1  
   105    8  106 1  
   106   11  107 1  
   107   12  108 1  
   108   12  109 1  
   109   13  110 1  
   110   13  111 1  
   111   13  112 1  
   112   14  113 1  
   113   14  114 1  
   114   14  115 1  
   115   15  116 1  
   116   16  117 1  
   117   19  118 1  
   118   19  119 1  
   119   20  120 1  
   120   21  121 1  
   121   21  122 1  
   122   21  123 1  
   123   22  124 1  
   124   22  125 1  
   125   22  126 1  
   126   23  127 1  
   127   24  128 1  
   128   27  129 1  
   129   27  130 1  
   130   28  131 1  
   131   29  132 1  
   132   30  133 1  
   133   33  134 1  
   134   33  135 1  
   135   34  136 1  
   136   34  137 1  
   137   37  138 1  
   138   37  139 1  
   139   38  140 1  
   140   39  141 1  
   141   42  142 1  
   142   42  143 1  
   143   42  144 1  
   144   43  145 1  
   145   44  146 1  
   146   47  147 1  
   147   47  148 1  
   148   48  149 1  
   149   48  150 1  
   150   52  151 1  
   151   53  152 1  
   152   56  153 1  
   153   57  154 1  
   154   57  155 1  
   155   58  156 1  
   156   58  157 1  
   157   58  158 1  
   158   59  159 1  
   159   59  160 1  
   160   59  161 1  
   161   60  162 1  
   162   61  163 1  
   163   64  164 1  
   164   64  165 1  
   165   68  166 1  
   166   69  167 1  
   167   72  168 1  
   168   72  169 1  
   169   72  170 1  
   170   73  171 1  
   171   74  172 1  
   172   77  173 1  
   173   77  174 1  
   174   78  175 1  
   175   79  176 1  
   176   79  177 1  
   177   79  178 1  
   178   80  179 1  
   179   80  180 1  
   180   80  181 1  
   181   81  182 1  
   182   82  183 1  
   183   85  184 1  
   184   85  185 1  
   185   86  186 1  
   186   87  187 1  
   187   87  188 1  
   188   87  189 1  
   189   88  190 1  
   190   88  191 1  
   191   88  192 1  
   192   89  193 1  
   193   90  194 1  
   194   93  195 1  
   195   93  196 1  
   196   96  197 1  
   197   96  198 1  
@<TRIPOS>SUBSTRUCTURE
     1 SER         1

