1u8t_ligand
  -I-interpret- 

201200  0  0  0  0  0  0  0  0999 V2000
   30.0510   16.2790   36.2560 N   0  3  0  0  0
   29.6060   16.2910   34.8760 C   0  0  0  0  0
   28.1560   16.7200   34.7610 C   0  0  0  0  0
   27.2490   16.0320   35.2140 O   0  0  0  0  0
   29.8230   14.9560   34.1720 C   0  0  0  0  0
   31.2010   14.6580   34.0630 O   0  0  0  0  0
   27.9520   17.8730   34.1400 N   0  0  0  0  0
   26.6260   18.4200   33.9630 C   0  0  0  0  0
   25.8180   17.6890   32.9060 C   0  0  0  0  0
   26.2400   17.5610   31.7550 O   0  0  0  0  0
   26.6640   19.9130   33.6180 C   0  0  0  0  0
   27.2050   20.7430   34.7730 C   0  0  0  0  0
   25.2710   20.4080   33.2350 C   0  0  0  0  0
   27.5510   22.1740   34.3640 C   0  0  0  0  0
   24.6330   17.2340   33.2990 N   0  0  0  0  0
   23.7340   16.5670   32.3780 C   0  0  0  0  0
   22.7090   17.5720   31.8850 C   0  0  0  0  0
   22.2630   18.4370   32.6400 O   0  0  0  0  0
   22.9950   15.3800   33.0220 C   0  0  0  0  0
   23.7520   14.0670   32.9430 C   0  0  0  0  0
   25.0870   14.2210   33.6550 C   0  0  0  0  0
   22.9340   12.9610   33.5980 C   0  0  0  0  0
   22.3370   17.4560   30.6180 N   0  0  0  0  0
   21.3500   18.3400   30.0360 C   0  0  0  0  0
   19.9630   17.8010   30.3440 C   0  0  0  0  0
   19.8100   16.6320   30.6920 O   0  0  0  0  0
   21.5230   18.4060   28.5310 C   0  0  0  0  0
   21.1660   17.1530   27.9810 O   0  0  0  0  0
   18.9450   18.6380   30.2030 N   0  0  0  0  0
   17.5980   18.1740   30.4580 C   0  0  0  0  0
   17.3360   16.8860   29.6910 C   0  0  0  0  0
   16.7960   15.9130   30.2220 O   0  0  0  0  0
   16.5420   19.2410   30.1090 C   0  0  0  0  0
   15.1090   18.8080   30.4690 C   0  0  0  0  0
   14.8950   18.7110   31.9690 C   0  0  0  0  0
   15.0450   19.7030   32.6940 O   0  0  0  0  0
   14.5600   17.5120   32.4440 N   0  0  0  0  0
   17.7410   16.8990   28.4210 N   0  0  0  0  0
   17.5910   15.7550   27.5390 C   0  0  0  0  0
   18.2740   14.5270   28.1230 C   0  0  0  0  0
   17.6890   13.4480   28.2200 O   0  0  0  0  0
   18.1520   16.0790   26.1640 C   0  0  0  0  0
   19.5320   14.6930   28.5180 N   0  0  0  0  0
   20.2580   13.5890   29.1030 C   0  0  0  0  0
   19.5670   13.1020   30.3690 C   0  0  0  0  0
   19.3020   11.9120   30.5350 O   0  0  0  0  0
   21.7270   13.9500   29.3830 C   0  0  0  0  0
   22.6450   13.7070   28.1710 C   0  0  0  0  0
   23.6220   14.8250   27.9500 C   0  0  0  0  0
   23.9560   15.2170   26.8470 O   0  0  0  0  0
   24.0630   15.3360   29.0710 O   0  0  0  0  0
   19.2690   14.0360   31.2700 N   0  0  0  0  0
   18.5990   13.6890   32.5160 C   0  0  0  0  0
   17.3050   12.9580   32.2240 C   0  0  0  0  0
   16.9330   12.0050   32.9080 O   0  0  0  0  0
   18.2930   14.9230   33.3550 C   0  0  0  0  0
   19.5650   15.4540   33.9920 C   0  0  0  0  0
   17.2620   14.5920   34.4280 C   0  0  0  0  0
   19.4270   16.9080   34.4220 C   0  0  0  0  0
   16.6250   13.4460   31.1930 N   0  0  0  0  0
   15.3720   12.8810   30.7590 C   0  0  0  0  0
   15.4960   11.3760   30.5490 C   0  0  0  0  0
   14.5850   10.6140   30.8590 O   0  0  0  0  0
   14.8810   13.5800   29.4770 C   0  0  0  0  0
   14.2070   14.9020   29.7330 C   0  0  0  0  0
   14.0070   15.3590   30.8420 O   0  0  0  0  0
   13.8440   15.5060   28.6340 O   0  0  0  0  0
   16.6500   10.9600   30.0290 N   0  0  0  0  0
   16.9360    9.5640   29.7460 C   0  0  0  0  0
   17.0300    8.6610   30.9670 C   0  0  0  0  0
   17.0110    7.4410   30.8300 O   0  0  0  0  0
   18.1860    9.4310   28.8920 C   0  0  0  0  0
   17.1370    9.2360   32.1630 N   0  0  0  0  0
   17.2450    8.4100   33.3530 C   0  0  0  0  0
   16.2730    8.7440   34.4710 C   0  0  0  0  0
   16.0770    7.9370   35.3760 O   0  0  0  0  0
   18.6730    8.3990   33.9230 C   0  0  0  0  0
   19.7620    8.4330   32.8590 C   0  0  0  0  0
   20.7230    9.5770   33.1550 C   0  0  0  0  0
   20.5240    7.1130   32.8580 C   0  0  0  0  0
   15.6840    9.9320   34.4320 N   0  0  0  0  0
   14.7700   10.3320   35.4880 C   0  0  0  0  0
   13.3840   10.7550   35.0160 C   0  0  0  0  0
   12.4410   10.7970   35.8040 O   0  0  0  0  0
   15.3910   11.4390   36.3610 C   0  0  0  0  0
   15.3670   11.1150   37.8470 C   0  0  0  0  0
   16.4050   11.9590   38.5720 C   0  0  0  0  0
   13.9810   11.3850   38.4210 C   0  0  0  0  0
   13.2530   11.0800   33.7340 N   0  0  0  0  0
   11.9690   11.5150   33.2170 C   0  0  0  0  0
   11.4180   10.6310   32.1080 C   0  0  0  0  0
   10.5880   11.1320   31.3200 O   0  0  0  0  0
   12.0130   12.9900   32.7820 C   0  0  0  0  0
   12.6690   13.8780   33.8160 C   0  0  0  0  0
   12.5650   13.6290   35.0260 O   0  0  0  0  0
   13.3570   14.9110   33.3420 N   0  0  0  0  0
   11.8130    9.4460   32.0450 O   0  0  0  0  0
   29.8819   17.1937   36.6745 H   0  0  0  0  0
   29.5346   15.5669   36.7723 H   0  0  0  0  0
   31.0484   16.0680   36.2885 H   0  0  0  0  0
   30.2278   17.0281   34.3680 H   0  0  0  0  0
   29.3982   15.0162   33.1700 H   0  0  0  0  0
   29.3408   14.1712   34.7547 H   0  0  0  0  0
   31.3106   13.8148   33.6174 H   0  0  0  0  0
   28.7535   18.3889   33.7767 H   0  0  0  0  0
   26.1323   18.2827   34.9250 H   0  0  0  0  0
   27.3370   20.0339   32.7692 H   0  0  0  0  0
   28.1196   20.2667   35.1262 H   0  0  0  0  0
   26.4311   20.7930   35.5389 H   0  0  0  0  0
   24.9150   19.8521   32.3676 H   0  0  0  0  0
   24.5894   20.2541   34.0716 H   0  0  0  0  0
   25.3178   21.4699   32.9934 H   0  0  0  0  0
   28.3115   22.1536   33.5834 H   0  0  0  0  0
   26.6559   22.6696   33.9881 H   0  0  0  0  0
   27.9315   22.7160   35.2297 H   0  0  0  0  0
   24.3494   17.3569   34.2711 H   0  0  0  0  0
   24.3354   16.1724   31.5590 H   0  0  0  0  0
   22.0595   15.2476   32.4785 H   0  0  0  0  0
   22.8636   15.6149   34.0782 H   0  0  0  0  0
   23.9253   13.8029   31.8998 H   0  0  0  0  0
   25.6656   15.0090   33.1730 H   0  0  0  0  0
   24.9127   14.4831   34.6986 H   0  0  0  0  0
   25.6362   13.2809   33.6020 H   0  0  0  0  0
   22.7557   13.2132   34.6433 H   0  0  0  0  0
   21.9805   12.8603   33.0795 H   0  0  0  0  0
   23.4826   12.0210   33.5381 H   0  0  0  0  0
   22.7559   16.7272   30.0402 H   0  0  0  0  0
   21.4763   19.3380   30.4556 H   0  0  0  0  0
   22.5597   18.6372   28.2862 H   0  0  0  0  0
   20.8858   19.1880   28.1179 H   0  0  0  0  0
   21.2713   17.1817   27.0272 H   0  0  0  0  0
   19.1098   19.6030   29.9166 H   0  0  0  0  0
   17.5115   17.9777   31.5267 H   0  0  0  0  0
   16.5789   19.4055   29.0321 H   0  0  0  0  0
   16.7727   20.1377   30.6842 H   0  0  0  0  0
   14.9359   17.8216   30.0386 H   0  0  0  0  0
   14.4212   19.5575   30.0774 H   0  0  0  0  0
   14.4157   17.3823   33.4454 H   0  0  0  0  0
   14.4479   16.7239   31.8062 H   0  0  0  0  0
   18.1737   17.7466   28.0539 H   0  0  0  0  0
   16.5288   15.5315   27.4393 H   0  0  0  0  0
   17.6133   16.9285   25.7441 H   0  0  0  0  0
   19.2098   16.3263   26.2536 H   0  0  0  0  0
   18.0338   15.2138   25.5117 H   0  0  0  0  0
   19.9853   15.6001   28.4082 H   0  0  0  0  0
   20.2597   12.7776   28.3752 H   0  0  0  0  0
   22.0763   13.3157   30.1977 H   0  0  0  0  0
   21.7687   15.0121   29.6246 H   0  0  0  0  0
   22.0155   13.6328   27.2842 H   0  0  0  0  0
   23.2149   12.7973   28.3602 H   0  0  0  0  0
   23.6659   14.8714   29.8113 H   0  0  0  0  0
   19.5135   15.0088   31.0850 H   0  0  0  0  0
   19.2748   13.0468   33.0807 H   0  0  0  0  0
   17.8809   15.6937   32.7037 H   0  0  0  0  0
   20.3656   15.3922   33.2549 H   0  0  0  0  0
   19.7763   14.8561   34.8785 H   0  0  0  0  0
   16.3433   14.2473   33.9533 H   0  0  0  0  0
   17.6534   13.8084   35.0767 H   0  0  0  0  0
   17.0547   15.4844   35.0185 H   0  0  0  0  0
   19.2005   17.5232   33.5511 H   0  0  0  0  0
   18.6203   16.9953   35.1498 H   0  0  0  0  0
   20.3617   17.2428   34.8718 H   0  0  0  0  0
   17.0028   14.2492   30.6904 H   0  0  0  0  0
   14.6321   13.0466   31.5421 H   0  0  0  0  0
   14.1478   12.9244   29.0071 H   0  0  0  0  0
   15.7546   13.7732   28.8545 H   0  0  0  0  0
   14.0984   14.9721   27.8778 H   0  0  0  0  0
   17.3668   11.6548   29.8196 H   0  0  0  0  0
   16.0652    9.2095   29.1946 H   0  0  0  0  0
   18.0382    9.9579   27.9493 H   0  0  0  0  0
   19.0345    9.8634   29.4223 H   0  0  0  0  0
   18.3787    8.3766   28.6940 H   0  0  0  0  0
   17.1431   10.2528   32.2434 H   0  0  0  0  0
   16.9733    7.4194   32.9883 H   0  0  0  0  0
   18.7927    7.4697   34.4800 H   0  0  0  0  0
   18.7862    9.2961   34.5316 H   0  0  0  0  0
   19.3060    8.5835   31.8805 H   0  0  0  0  0
   20.1765   10.5201   33.1476 H   0  0  0  0  0
   21.1754    9.4254   34.1350 H   0  0  0  0  0
   21.5024    9.6013   32.3934 H   0  0  0  0  0
   20.9794    6.9571   33.8360 H   0  0  0  0  0
   19.8342    6.2969   32.6428 H   0  0  0  0  0
   21.3014    7.1443   32.0946 H   0  0  0  0  0
   15.8737   10.5675   33.6571 H   0  0  0  0  0
   14.6160    9.4281   36.0773 H   0  0  0  0  0
   14.8046   12.3455   36.2112 H   0  0  0  0  0
   16.4340   11.5479   36.0636 H   0  0  0  0  0
   15.6030   10.0599   37.9854 H   0  0  0  0  0
   17.3942   11.7408   38.1696 H   0  0  0  0  0
   16.1776   13.0152   38.4278 H   0  0  0  0  0
   16.3841   11.7234   39.6360 H   0  0  0  0  0
   13.7291   12.4360   38.2798 H   0  0  0  0  0
   13.2487   10.7623   37.9071 H   0  0  0  0  0
   13.9776   11.1490   39.4851 H   0  0  0  0  0
   14.0586   11.0234   33.1109 H   0  0  0  0  0
   11.2701   11.4162   34.0476 H   0  0  0  0  0
   10.9869   13.3320   32.6465 H   0  0  0  0  0
   12.5975   13.0532   31.8642 H   0  0  0  0  0
   13.8321   15.5452   33.9842 H   0  0  0  0  0
   13.4101   15.0699   32.3358 H   0  0  0  0  0
   12.4463    9.2832   32.7478 H   0  0  0  0  0
  1  2  1  0  0  0
  2  3  1  0  0  0
  2  5  1  0  0  0
  3  4  2  0  0  0
  3  7  1  0  0  0
  5  6  1  0  0  0
  7  8  1  0  0  0
  8  9  1  0  0  0
  8 11  1  0  0  0
  9 10  2  0  0  0
  9 15  1  0  0  0
 11 12  1  0  0  0
 11 13  1  0  0  0
 12 14  1  0  0  0
 15 16  1  0  0  0
 16 17  1  0  0  0
 16 19  1  0  0  0
 17 18  2  0  0  0
 17 23  1  0  0  0
 19 20  1  0  0  0
 20 21  1  0  0  0
 20 22  1  0  0  0
 23 24  1  0  0  0
 24 25  1  0  0  0
 24 27  1  0  0  0
 25 26  2  0  0  0
 25 29  1  0  0  0
 27 28  1  0  0  0
 29 30  1  0  0  0
 30 31  1  0  0  0
 30 33  1  0  0  0
 31 32  2  0  0  0
 31 38  1  0  0  0
 33 34  1  0  0  0
 34 35  1  0  0  0
 35 36  2  0  0  0
 35 37  1  0  0  0
 38 39  1  0  0  0
 39 40  1  0  0  0
 39 42  1  0  0  0
 40 41  2  0  0  0
 40 43  1  0  0  0
 43 44  1  0  0  0
 44 45  1  0  0  0
 44 47  1  0  0  0
 45 46  2  0  0  0
 45 52  1  0  0  0
 47 48  1  0  0  0
 48 49  1  0  0  0
 49 50  2  0  0  0
 49 51  1  0  0  0
 52 53  1  0  0  0
 53 54  1  0  0  0
 53 56  1  0  0  0
 54 55  2  0  0  0
 54 60  1  0  0  0
 56 57  1  0  0  0
 56 58  1  0  0  0
 57 59  1  0  0  0
 60 61  1  0  0  0
 61 62  1  0  0  0
 61 64  1  0  0  0
 62 63  2  0  0  0
 62 68  1  0  0  0
 64 65  1  0  0  0
 65 66  2  0  0  0
 65 67  1  0  0  0
 68 69  1  0  0  0
 69 70  1  0  0  0
 69 72  1  0  0  0
 70 71  2  0  0  0
 70 73  1  0  0  0
 73 74  1  0  0  0
 74 75  1  0  0  0
 74 77  1  0  0  0
 75 76  2  0  0  0
 75 81  1  0  0  0
 77 78  1  0  0  0
 78 79  1  0  0  0
 78 80  1  0  0  0
 81 82  1  0  0  0
 82 83  1  0  0  0
 82 85  1  0  0  0
 83 84  2  0  0  0
 83 89  1  0  0  0
 85 86  1  0  0  0
 86 87  1  0  0  0
 86 88  1  0  0  0
 89 90  1  0  0  0
 90 91  1  0  0  0
 90 93  1  0  0  0
 91 92  2  0  0  0
 91 97  1  0  0  0
 93 94  1  0  0  0
 94 95  2  0  0  0
 94 96  1  0  0  0
  1 98  1  0  0  0
  1 99  1  0  0  0
  1100  1  0  0  0
  2101  1  0  0  0
  5102  1  0  0  0
  5103  1  0  0  0
  6104  1  0  0  0
  7105  1  0  0  0
  8106  1  0  0  0
 11107  1  0  0  0
 12108  1  0  0  0
 12109  1  0  0  0
 13110  1  0  0  0
 13111  1  0  0  0
 13112  1  0  0  0
 14113  1  0  0  0
 14114  1  0  0  0
 14115  1  0  0  0
 15116  1  0  0  0
 16117  1  0  0  0
 19118  1  0  0  0
 19119  1  0  0  0
 20120  1  0  0  0
 21121  1  0  0  0
 21122  1  0  0  0
 21123  1  0  0  0
 22124  1  0  0  0
 22125  1  0  0  0
 22126  1  0  0  0
 23127  1  0  0  0
 24128  1  0  0  0
 27129  1  0  0  0
 27130  1  0  0  0
 28131  1  0  0  0
 29132  1  0  0  0
 30133  1  0  0  0
 33134  1  0  0  0
 33135  1  0  0  0
 34136  1  0  0  0
 34137  1  0  0  0
 37138  1  0  0  0
 37139  1  0  0  0
 38140  1  0  0  0
 39141  1  0  0  0
 42142  1  0  0  0
 42143  1  0  0  0
 42144  1  0  0  0
 43145  1  0  0  0
 44146  1  0  0  0
 47147  1  0  0  0
 47148  1  0  0  0
 48149  1  0  0  0
 48150  1  0  0  0
 51151  1  0  0  0
 52152  1  0  0  0
 53153  1  0  0  0
 56154  1  0  0  0
 57155  1  0  0  0
 57156  1  0  0  0
 58157  1  0  0  0
 58158  1  0  0  0
 58159  1  0  0  0
 59160  1  0  0  0
 59161  1  0  0  0
 59162  1  0  0  0
 60163  1  0  0  0
 61164  1  0  0  0
 64165  1  0  0  0
 64166  1  0  0  0
 67167  1  0  0  0
 68168  1  0  0  0
 69169  1  0  0  0
 72170  1  0  0  0
 72171  1  0  0  0
 72172  1  0  0  0
 73173  1  0  0  0
 74174  1  0  0  0
 77175  1  0  0  0
 77176  1  0  0  0
 78177  1  0  0  0
 79178  1  0  0  0
 79179  1  0  0  0
 79180  1  0  0  0
 80181  1  0  0  0
 80182  1  0  0  0
 80183  1  0  0  0
 81184  1  0  0  0
 82185  1  0  0  0
 85186  1  0  0  0
 85187  1  0  0  0
 86188  1  0  0  0
 87189  1  0  0  0
 87190  1  0  0  0
 87191  1  0  0  0
 88192  1  0  0  0
 88193  1  0  0  0
 88194  1  0  0  0
 89195  1  0  0  0
 90196  1  0  0  0
 93197  1  0  0  0
 93198  1  0  0  0
 96199  1  0  0  0
 96200  1  0  0  0
 97201  1  0  0  0
M  END
$$$$
