3wig_ligand
  -I-interpret- 

 51 54  0  0  0  0  0  0  0  0999 V2000
   66.5810  -12.2740   12.0470 C   0  0  0  0  0
   65.6560  -11.2770   12.4060 C   0  0  0  0  0
   64.3640  -11.1670   11.8020 C   0  0  0  0  0
   63.4530  -10.0650   12.2550 C   0  0  0  0  0
   63.8810   -9.2030   13.2370 C   0  0  0  0  0
   63.0850   -8.0390   13.8120 C   0  0  0  0  0
   68.0370  -17.4460   11.7880 C   0  0  0  0  0
   60.9480   -7.4810   15.0540 C   0  0  0  0  0
   62.0420   -9.5950   15.6090 C   0  0  0  0  0
   66.2170  -13.2070   11.0450 C   0  0  0  0  0
   64.9540  -13.1400   10.4200 C   0  0  0  0  0
   64.0350  -12.1270   10.7950 C   0  0  0  0  0
   65.2490   -9.3450   13.8610 C   0  0  0  0  0
   66.0680  -10.3840   13.4060 O   0  0  0  0  0
   65.6470   -8.5890   14.7400 O   0  0  0  0  0
   62.0880   -9.9760   11.5850 C   0  0  0  0  0
   62.0170   -8.3880   14.8410 C   0  0  0  0  0
   67.1020  -14.1930   10.6780 O   0  0  0  0  0
   67.1460  -15.3450   11.4800 C   0  0  0  0  0
   66.3970  -15.4300   12.6310 N   0  0  0  0  0
   66.5110  -16.5780   13.3390 C   0  0  0  0  0
   67.3240  -17.6380   12.9700 C   0  0  0  0  0
   67.9690  -16.3180   11.0260 N   0  0  0  0  0
   59.9690   -7.7810   15.9940 C   0  0  0  0  0
   59.9740   -8.9330   16.7420 N   0  0  0  0  0
   61.0100   -9.8190   16.5380 C   0  0  0  0  0
   58.8930   -6.8560   16.1990 N   0  0  0  0  0
   58.2150   -6.8610   17.7460 S   0  0  0  0  0
   57.5400   -8.4170   17.6860 N   0  0  0  0  0
   56.3680   -8.5690   16.8020 C   0  0  0  0  0
   57.1360   -5.9090   17.7450 O   0  0  0  0  0
   59.2140   -6.8860   18.7850 O   0  0  0  0  0
   60.8640   -6.3420   14.3700 F   0  0  0  0  0
   67.5570  -12.3276   12.5294 H   0  0  0  0  0
   62.5579   -7.5891   12.9707 H   0  0  0  0  0
   63.8065   -7.4061   14.3287 H   0  0  0  0  0
   68.6914  -18.2500   11.4511 H   0  0  0  0  0
   62.8419  -10.3236   15.4772 H   0  0  0  0  0
   64.6853  -13.8646    9.6513 H   0  0  0  0  0
   63.0614  -12.0796   10.3072 H   0  0  0  0  0
   61.3074  -10.0860   12.3377 H   0  0  0  0  0
   61.9878   -9.0077   11.0946 H   0  0  0  0  0
   61.9954  -10.7708   10.8449 H   0  0  0  0  0
   65.9280  -16.6746   14.2549 H   0  0  0  0  0
   67.4000  -18.5519   13.5591 H   0  0  0  0  0
   61.0305  -10.7373   17.1248 H   0  0  0  0  0
   58.5594   -6.2366   15.4604 H   0  0  0  0  0
   57.9192   -9.1955   18.2251 H   0  0  0  0  0
   55.5735   -7.9018   17.1362 H   0  0  0  0  0
   56.6503   -8.3166   15.7799 H   0  0  0  0  0
   56.0177   -9.6005   16.8394 H   0  0  0  0  0
  1  2  4  0  0  0
 10  1  4  0  0  0
  2  3  4  0  0  0
  2 14  1  0  0  0
  3  4  1  0  0  0
 12  3  4  0  0  0
  4  5  2  0  0  0
  4 16  1  0  0  0
  5  6  1  0  0  0
 13  5  1  0  0  0
  6 17  1  0  0  0
  7 22  4  0  0  0
 23  7  4  0  0  0
 17  8  4  0  0  0
  8 24  4  0  0  0
  8 33  1  0  0  0
 17  9  4  0  0  0
  9 26  4  0  0  0
 10 11  4  0  0  0
 18 10  1  0  0  0
 11 12  4  0  0  0
 14 13  1  0  0  0
 13 15  2  0  0  0
 19 18  1  0  0  0
 19 20  4  0  0  0
 19 23  4  0  0  0
 20 21  4  0  0  0
 21 22  4  0  0  0
 24 25  4  0  0  0
 24 27  1  0  0  0
 25 26  4  0  0  0
 27 28  1  0  0  0
 28 29  1  0  0  0
 28 31  2  0  0  0
 28 32  2  0  0  0
 29 30  1  0  0  0
  1 34  1  0  0  0
  6 35  1  0  0  0
  6 36  1  0  0  0
  7 37  1  0  0  0
  9 38  1  0  0  0
 11 39  1  0  0  0
 12 40  1  0  0  0
 16 41  1  0  0  0
 16 42  1  0  0  0
 16 43  1  0  0  0
 21 44  1  0  0  0
 22 45  1  0  0  0
 26 46  1  0  0  0
 27 47  1  0  0  0
 29 48  1  0  0  0
 30 49  1  0  0  0
 30 50  1  0  0  0
 30 51  1  0  0  0
M  END
$$$$
