### 
### Created by X-TOOL on Mon Sep 10 21:13:19 2018
### 

@<TRIPOS>MOLECULE
3wig_ligand
   51    54     1     0     0
SMALL
GAST_HUCK


@<TRIPOS>ATOM
      1 C4         66.5810  -12.2740   12.0470 C.ar      1 CHU         0.0106
      2 C5         65.6560  -11.2770   12.4060 C.ar      1 CHU         0.1307
      3 C6         64.3640  -11.1670   11.8020 C.ar      1 CHU         0.0124
      4 C7         63.4530  -10.0650   12.2550 C.2       1 CHU        -0.0306
      5 C8         63.8810   -9.2030   13.2370 C.2       1 CHU         0.0429
      6 C13        63.0850   -8.0390   13.8120 C.3       1 CHU         0.0154
      7 C20        68.0370  -17.4460   11.7880 C.ar      1 CHU         0.0192
      8 C22        60.9480   -7.4810   15.0540 C.ar      1 CHU         0.1755
      9 C26        62.0420   -9.5950   15.6090 C.ar      1 CHU        -0.0514
     10 C1         66.2170  -13.2070   11.0450 C.ar      1 CHU         0.1220
     11 C2         64.9540  -13.1400   10.4200 C.ar      1 CHU        -0.0329
     12 C3         64.0350  -12.1270   10.7950 C.ar      1 CHU        -0.0635
     13 C9         65.2490   -9.3450   13.8610 C.2       1 CHU         0.2597
     14 O10        66.0680  -10.3840   13.4060 O.3       1 CHU        -0.2160
     15 O11        65.6470   -8.5890   14.7400 O.2       1 CHU        -0.3812
     16 C12        62.0880   -9.9760   11.5850 C.3       1 CHU        -0.0322
     17 C14        62.0170   -8.3880   14.8410 C.ar      1 CHU         0.0014
     18 O15        67.1020  -14.1930   10.6780 O.3       1 CHU        -0.2148
     19 C16        67.1460  -15.3450   11.4800 C.ar      1 CHU         0.2741
     20 N17        66.3970  -15.4300   12.6310 N.ar      1 CHU        -0.2368
     21 C18        66.5110  -16.5780   13.3390 C.ar      1 CHU         0.0192
     22 C19        67.3240  -17.6380   12.9700 C.ar      1 CHU        -0.0197
     23 N21        67.9690  -16.3180   11.0260 N.ar      1 CHU        -0.2368
     24 C23        59.9690   -7.7810   15.9940 C.ar      1 CHU         0.1610
     25 N24        59.9740   -8.9330   16.7420 N.ar      1 CHU        -0.3019
     26 C25        61.0100   -9.8190   16.5380 C.ar      1 CHU        -0.0214
     27 N27        58.8930   -6.8560   16.1990 N.am      1 CHU        -0.1586
     28 S28        58.2150   -6.8610   17.7460 S.o2      1 CHU         0.1398
     29 N29        57.5400   -8.4170   17.6860 N.am      1 CHU        -0.2333
     30 C30        56.3680   -8.5690   16.8020 C.3       1 CHU         0.0168
     31 O31        57.1360   -5.9090   17.7450 O.2       1 CHU        -0.1292
     32 O32        59.2140   -6.8860   18.7850 O.2       1 CHU        -0.1292
     33 F33        60.8640   -6.3420   14.3700 F         1 CHU        -0.1927
     34 H          67.5516  -12.3273   12.5268 H         1 CHU         0.0495
     35 H          62.5876   -7.5281   12.9744 H         1 CHU         0.0555
     36 H          63.7975   -7.3508   14.2902 H         1 CHU         0.0555
     37 H          68.6878  -18.2456   11.4530 H         1 CHU         0.0909
     38 H          62.8375  -10.3196   15.4779 H         1 CHU         0.0501
     39 H          64.6868  -13.8606    9.6555 H         1 CHU         0.0496
     40 H          63.0667  -12.0798   10.3099 H         1 CHU         0.0584
     41 H          61.9934  -10.7777   10.8378 H         1 CHU         0.0394
     42 H          61.9856   -8.9992   11.0897 H         1 CHU         0.0394
     43 H          61.2992  -10.0869   12.3436 H         1 CHU         0.0394
     44 H          65.9312  -16.6741   14.2499 H         1 CHU         0.0909
     45 H          67.3995  -18.5469   13.5559 H         1 CHU         0.0688
     46 H          61.0304  -10.7323   17.1216 H         1 CHU         0.0711
     47 H          58.5659   -6.2488   15.4749 H         1 CHU         0.2225
     48 H          57.9117   -9.1802   18.2146 H         1 CHU         0.1687
     49 H          56.0135   -9.6097   16.8388 H         1 CHU         0.0440
     50 H          56.6516   -8.3146   15.7701 H         1 CHU         0.0440
     51 H          55.5654   -7.8962   17.1382 H         1 CHU         0.0440
@<TRIPOS>BOND
     1    1    2 ar 
     2   10    1 ar 
     3    2    3 ar 
     4    2   14 1  
     5    3    4 1  
     6   12    3 ar 
     7    4    5 2  
     8    4   16 1  
     9    5    6 1  
    10   13    5 1  
    11    6   17 1  
    12    7   22 ar 
    13   23    7 ar 
    14   17    8 ar 
    15    8   24 ar 
    16    8   33 1  
    17   17    9 ar 
    18    9   26 ar 
    19   10   11 ar 
    20   18   10 1  
    21   11   12 ar 
    22   14   13 1  
    23   13   15 2  
    24   19   18 1  
    25   19   20 ar 
    26   19   23 ar 
    27   20   21 ar 
    28   21   22 ar 
    29   24   25 ar 
    30   24   27 1  
    31   25   26 ar 
    32   27   28 am 
    33   28   29 am 
    34   28   31 2  
    35   28   32 2  
    36   29   30 1  
    37    1   34 1  
    38    6   35 1  
    39    6   36 1  
    40    7   37 1  
    41    9   38 1  
    42   11   39 1  
    43   12   40 1  
    44   16   41 1  
    45   16   42 1  
    46   16   43 1  
    47   21   44 1  
    48   22   45 1  
    49   26   46 1  
    50   27   47 1  
    51   29   48 1  
    52   30   49 1  
    53   30   50 1  
    54   30   51 1  
@<TRIPOS>SUBSTRUCTURE
     1 CHU         1

