4btx_ligand
  -I-interpret- 

 37 39  0  0  0  0  0  0  0  0999 V2000
   89.8970   52.7340   32.7770 C   0  0  0  0  0
   88.5260   52.8740   32.7340 C   0  0  0  0  0
   87.8110   52.8290   33.9360 C   0  0  0  0  0
   88.4620   52.6430   35.1630 C   0  0  0  0  0
   89.8500   52.5030   35.2010 C   0  0  0  0  0
   90.5680   52.5800   34.0080 C   0  0  0  0  0
   91.9000   52.4020   33.9770 N   0  0  0  0  0
   92.3060   51.3460   34.5480 N   0  0  0  0  0
   92.7560   53.2300   33.3110 C   0  0  0  0  0
   92.3660   54.2670   32.7360 O   0  0  0  0  0
   94.1210   52.8770   33.3060 C   0  0  0  0  0
   94.5450   51.7160   33.9760 C   0  0  0  0  0
   95.8160   51.2920   33.9860 N   0  0  0  0  0
   97.0630   52.0860   34.1290 C   0  0  0  0  0
   97.5200   52.4860   32.7180 C   0  0  0  0  0
   96.9200   53.2860   35.0810 C   0  0  0  0  0
   93.5800   50.9030   34.6080 C   0  0  0  0  0
   93.7860   49.7350   35.2880 C   0  0  0  0  0
   92.8160   48.8730   35.5800 N   0  0  0  0  0
   93.3980   47.8900   36.2550 C   0  0  0  0  0
   94.6800   48.1750   36.3490 N   0  0  0  0  0
   94.9080   49.2300   35.8010 N   0  0  0  0  0
   90.4688   52.7424   31.8491 H   0  0  0  0  0
   88.0103   53.0166   31.7843 H   0  0  0  0  0
   86.7269   52.9408   33.9176 H   0  0  0  0  0
   87.8847   52.6077   36.0869 H   0  0  0  0  0
   90.3643   52.3362   36.1474 H   0  0  0  0  0
   94.8454   53.5024   32.7842 H   0  0  0  0  0
   95.9449   50.2856   33.8810 H   0  0  0  0  0
   97.8293   51.4756   34.6068 H   0  0  0  0  0
   97.7052   51.5876   32.1291 H   0  0  0  0  0
   96.7416   53.0810   32.2404 H   0  0  0  0  0
   98.4364   53.0722   32.7868 H   0  0  0  0  0
   96.1467   53.9561   34.7053 H   0  0  0  0  0
   96.6432   52.9299   36.0733 H   0  0  0  0  0
   97.8691   53.8192   35.1365 H   0  0  0  0  0
   92.9040   47.0062   36.6587 H   0  0  0  0  0
  1  2  4  0  0  0
  1  6  4  0  0  0
  2  3  4  0  0  0
  3  4  4  0  0  0
  4  5  4  0  0  0
  5  6  4  0  0  0
  6  7  1  0  0  0
  7  8  1  0  0  0
  7  9  1  0  0  0
  8 17  2  0  0  0
  9 10  2  0  0  0
  9 11  1  0  0  0
 11 12  2  0  0  0
 12 13  1  0  0  0
 12 17  1  0  0  0
 13 14  1  0  0  0
 14 15  1  0  0  0
 14 16  1  0  0  0
 17 18  1  0  0  0
 18 19  4  0  0  0
 18 22  4  0  0  0
 19 20  4  0  0  0
 20 21  4  0  0  0
 21 22  4  0  0  0
  1 23  1  0  0  0
  2 24  1  0  0  0
  3 25  1  0  0  0
  4 26  1  0  0  0
  5 27  1  0  0  0
 11 28  1  0  0  0
 13 29  1  0  0  0
 14 30  1  0  0  0
 15 31  1  0  0  0
 15 32  1  0  0  0
 15 33  1  0  0  0
 16 34  1  0  0  0
 16 35  1  0  0  0
 16 36  1  0  0  0
 20 37  1  0  0  0
M  END
$$$$
