6dzq_ligand
  -I-interpret- 

 18 18  0  0  0  0  0  0  0  0999 V2000
  -17.3990   15.7560   14.8200 O   0  0  0  0  0
  -18.2090   16.4480   15.4900 C   0  0  0  0  0
  -18.0400   16.5280   16.7170 O   0  0  0  0  0
  -19.2640   17.1990   14.9640 C   0  0  0  0  0
  -19.9420   17.9160   15.9270 O   0  0  0  0  0
  -21.0130   18.6680   15.5460 C   0  0  0  0  0
  -21.6910   19.3250   16.6170 C   0  0  0  0  0
  -21.4270   18.7780   14.2100 C   0  0  0  0  0
  -20.7680   18.0760   13.2040 C   0  0  0  0  0
  -21.1410   18.1780   12.0090 O   0  0  0  0  0
  -19.6450   17.3230   13.6130 C   0  0  0  0  0
  -18.9930   16.5740   12.6930 O   0  0  0  0  0
  -17.6476   15.7825   13.8931 H   0  0  0  0  0
  -22.5665   19.9409   16.4115 H   0  0  0  0  0
  -21.3331   19.2107   17.6402 H   0  0  0  0  0
  -21.2556   19.8255   13.9620 H   0  0  0  0  0
  -22.4359   18.3655   14.2075 H   0  0  0  0  0
  -19.3511   16.7567   11.8212 H   0  0  0  0  0
  1  2  1  0  0  0
  2  3  2  0  0  0
  2  4  1  0  0  0
  4  5  1  0  0  0
  4 11  2  0  0  0
  5  6  1  0  0  0
  6  7  2  0  0  0
  6  8  1  0  0  0
  8  9  1  0  0  0
  9 10  2  0  0  0
  9 11  1  0  0  0
 11 12  1  0  0  0
  1 13  1  0  0  0
  7 14  1  0  0  0
  7 15  1  0  0  0
  8 16  1  0  0  0
  8 17  1  0  0  0
 12 18  1  0  0  0
M  END
$$$$
