6h4t_ligand
  -I-interpret- 

 59 64  0  0  0  0  0  0  0  0999 V2000
  -24.7320  -18.6060  -15.9320 N   0  0  0  0  0
  -19.8160  -17.3860  -25.8860 C   0  0  0  0  0
  -20.6350  -16.0920  -25.7420 C   0  0  0  0  0
  -21.2880  -15.9810  -24.3790 C   0  0  0  0  0
  -19.9730  -15.8550  -20.8350 C   0  0  0  0  0
  -20.5950  -15.2660  -19.5960 C   0  0  0  0  0
  -21.3700  -15.9120  -18.6790 C   0  0  0  0  0
  -24.5860  -15.1700  -14.7680 C   0  0  0  0  0
  -24.3520  -16.3230  -15.5060 C   0  0  0  0  0
  -23.3400  -16.3800  -16.4740 C   0  0  0  0  0
  -23.7350  -18.5820  -16.8220 C   0  0  0  0  0
  -25.1150  -17.5260  -15.2380 C   0  0  0  0  0
  -19.5990  -17.3230  -23.3590 C   0  0  0  0  0
  -26.0600  -17.5660  -14.4640 O   0  0  0  0  0
  -23.7660  -14.0950  -15.0080 C   0  0  0  0  0
  -22.7940  -14.0870  -15.9240 N   0  0  0  0  0
  -23.0350  -17.5340  -17.1360 N   0  0  0  0  0
  -22.6190  -15.1820  -16.6600 C   0  0  0  0  0
  -21.7540  -15.0030  -17.7640 N   0  0  0  0  0
  -21.2490  -13.7680  -18.0340 N   0  0  0  0  0
  -20.5540  -13.9420  -19.1420 C   0  0  0  0  0
  -20.9300  -15.8300  -22.0130 C   0  0  0  0  0
  -20.2920  -16.0330  -23.3130 N   0  3  0  0  0
  -18.8720  -17.5090  -24.6770 C   0  0  0  0  0
  -20.7200  -18.6200  -25.9940 C   0  0  0  0  0
  -19.0620  -17.4380  -27.1990 C   0  0  0  0  0
  -19.1960  -18.6730  -27.8110 C   0  0  0  0  0
  -20.0890  -19.5720  -27.0050 C   0  0  0  0  0
  -18.3000  -16.4420  -27.7900 C   0  0  0  0  0
  -18.5510  -18.9120  -29.0170 C   0  0  0  0  0
  -17.7880  -17.9210  -29.6040 C   0  0  0  0  0
  -17.6650  -16.6920  -28.9940 C   0  0  0  0  0
  -25.2231  -19.4859  -15.7742 H   0  0  0  0  0
  -21.4215  -16.1011  -26.4966 H   0  0  0  0  0
  -19.9592  -15.2458  -25.8657 H   0  0  0  0  0
  -21.9771  -16.8162  -24.2534 H   0  0  0  0  0
  -21.8123  -15.0272  -24.3202 H   0  0  0  0  0
  -19.7126  -16.8928  -20.6273 H   0  0  0  0  0
  -19.0961  -15.2613  -21.0934 H   0  0  0  0  0
  -21.6307  -16.9703  -18.6858 H   0  0  0  0  0
  -25.3864  -15.1205  -14.0298 H   0  0  0  0  0
  -23.4896  -19.5174  -17.3248 H   0  0  0  0  0
  -20.3371  -18.1182  -23.2538 H   0  0  0  0  0
  -18.8678  -17.3539  -22.5512 H   0  0  0  0  0
  -23.9176  -13.1932  -14.4148 H   0  0  0  0  0
  -20.0091  -13.1446  -19.6472 H   0  0  0  0  0
  -21.3883  -14.8412  -22.0322 H   0  0  0  0  0
  -21.6345  -16.6495  -21.8706 H   0  0  0  0  0
  -19.6097  -15.2868  -23.4476 H   0  0  0  0  0
  -18.1143  -16.7297  -24.7585 H   0  0  0  0  0
  -18.4386  -18.5091  -24.6863 H   0  0  0  0  0
  -21.7192  -18.3302  -26.3191 H   0  0  0  0  0
  -20.8143  -19.1066  -25.0232 H   0  0  0  0  0
  -20.8296  -20.0874  -27.6166 H   0  0  0  0  0
  -19.5457  -20.3894  -26.5309 H   0  0  0  0  0
  -18.2017  -15.4685  -27.3096 H   0  0  0  0  0
  -18.6468  -19.8836  -29.5018 H   0  0  0  0  0
  -17.2828  -18.1118  -30.5508 H   0  0  0  0  0
  -17.0643  -15.9122  -29.4621 H   0  0  0  0  0
 11  1  1  0  0  0
 12  1  1  0  0  0
  3  2  1  0  0  0
 24  2  1  0  0  0
  2 25  1  0  0  0
  2 26  1  0  0  0
  4  3  1  0  0  0
 23  4  1  0  0  0
  5  6  1  0  0  0
 22  5  1  0  0  0
  6  7  4  0  0  0
  6 21  4  0  0  0
  7 19  4  0  0  0
  9  8  4  0  0  0
 15  8  4  0  0  0
 10  9  4  0  0  0
  9 12  1  0  0  0
 10 17  1  0  0  0
 18 10  4  0  0  0
 17 11  2  0  0  0
 12 14  2  0  0  0
 23 13  1  0  0  0
 13 24  1  0  0  0
 16 15  4  0  0  0
 18 16  4  0  0  0
 19 18  1  0  0  0
 20 19  4  0  0  0
 21 20  4  0  0  0
 22 23  1  0  0  0
 25 28  1  0  0  0
 26 27  4  0  0  0
 26 29  4  0  0  0
 27 28  1  0  0  0
 27 30  4  0  0  0
 29 32  4  0  0  0
 30 31  4  0  0  0
 31 32  4  0  0  0
  1 33  1  0  0  0
  3 34  1  0  0  0
  3 35  1  0  0  0
  4 36  1  0  0  0
  4 37  1  0  0  0
  5 38  1  0  0  0
  5 39  1  0  0  0
  7 40  1  0  0  0
  8 41  1  0  0  0
 11 42  1  0  0  0
 13 43  1  0  0  0
 13 44  1  0  0  0
 15 45  1  0  0  0
 21 46  1  0  0  0
 22 47  1  0  0  0
 22 48  1  0  0  0
 23 49  1  0  0  0
 24 50  1  0  0  0
 24 51  1  0  0  0
 25 52  1  0  0  0
 25 53  1  0  0  0
 28 54  1  0  0  0
 28 55  1  0  0  0
 29 56  1  0  0  0
 30 57  1  0  0  0
 31 58  1  0  0  0
 32 59  1  0  0  0
M  END
$$$$
