3pty_ligand
  -I-interpret- 

 44 44  0  0  0  0  0  0  0  0999 V2000
   92.5420   10.1150    1.8160 C   0  0  0  0  0
   93.2260   10.4020    3.0380 O   0  0  0  0  0
   92.8830    8.6750    1.4490 C   0  0  0  0  0
   91.7220    7.9260    1.0650 O   0  0  0  0  0
   93.8870    8.7590    0.3170 C   0  0  0  0  0
   95.0920    8.1310    0.7410 O   0  0  0  0  0
   94.1410   10.2460    0.1140 C   0  0  0  0  0
   93.0690   10.9380    0.7700 O   0  0  0  0  0
   94.2470   10.6450   -1.3560 C   0  0  0  0  0
   94.9400   11.8980   -1.4620 O   0  0  0  0  0
   93.0860   11.7500    3.4780 C   0  0  0  0  0
   94.0880   11.9660    4.6060 C   0  0  0  0  0
   93.7100   13.1400    5.5060 C   0  0  0  0  0
   94.8720   13.4480    6.4430 C   0  0  0  0  0
   95.7790   12.2340    6.6210 C   0  0  0  0  0
   95.1820   11.1780    7.5480 C   0  0  0  0  0
   96.0110    9.8970    7.5150 C   0  0  0  0  0
   95.4860    8.8760    8.5000 C   0  0  0  0  0
   91.4715   10.2838    1.9326 H   0  0  0  0  0
   93.2944    8.1450    2.3080 H   0  0  0  0  0
   91.1071    7.8911    1.8014 H   0  0  0  0  0
   93.5356    8.2780   -0.5958 H   0  0  0  0  0
   94.9344    7.1928    0.8698 H   0  0  0  0  0
   95.1081   10.5131    0.5401 H   0  0  0  0  0
   93.2473   10.7454   -1.7786 H   0  0  0  0  0
   94.7963    9.8782   -1.9023 H   0  0  0  0  0
   95.0064   12.1485   -2.3864 H   0  0  0  0  0
   92.0703   11.9347    3.8279 H   0  0  0  0  0
   93.2780   12.4420    2.6580 H   0  0  0  0  0
   95.0574   12.1840    4.1579 H   0  0  0  0  0
   94.1050   11.0644    5.2183 H   0  0  0  0  0
   92.8269   12.8829    6.0909 H   0  0  0  0  0
   93.4923   14.0150    4.8936 H   0  0  0  0  0
   94.4680   13.7245    7.4169 H   0  0  0  0  0
   95.4591   14.2590    6.0121 H   0  0  0  0  0
   96.7128   12.5781    7.0657 H   0  0  0  0  0
   95.9194   11.7766    5.6416 H   0  0  0  0  0
   94.1694   10.9501    7.2151 H   0  0  0  0  0
   95.1763   11.5669    8.5663 H   0  0  0  0  0
   97.0385   10.1420    7.7841 H   0  0  0  0  0
   95.9539    9.4729    6.5125 H   0  0  0  0  0
   95.5273    9.2902    9.5074 H   0  0  0  0  0
   94.4545    8.6284    8.2496 H   0  0  0  0  0
   96.0993    7.9763    8.4503 H   0  0  0  0  0
  1  2  1  0  0  0
  1  3  1  0  0  0
  1  8  1  0  0  0
  2 11  1  0  0  0
  3  4  1  0  0  0
  3  5  1  0  0  0
  5  6  1  0  0  0
  5  7  1  0  0  0
  7  8  1  0  0  0
  7  9  1  0  0  0
  9 10  1  0  0  0
 11 12  1  0  0  0
 12 13  1  0  0  0
 13 14  1  0  0  0
 14 15  1  0  0  0
 15 16  1  0  0  0
 16 17  1  0  0  0
 17 18  1  0  0  0
  1 19  1  0  0  0
  3 20  1  0  0  0
  4 21  1  0  0  0
  5 22  1  0  0  0
  6 23  1  0  0  0
  7 24  1  0  0  0
  9 25  1  0  0  0
  9 26  1  0  0  0
 10 27  1  0  0  0
 11 28  1  0  0  0
 11 29  1  0  0  0
 12 30  1  0  0  0
 12 31  1  0  0  0
 13 32  1  0  0  0
 13 33  1  0  0  0
 14 34  1  0  0  0
 14 35  1  0  0  0
 15 36  1  0  0  0
 15 37  1  0  0  0
 16 38  1  0  0  0
 16 39  1  0  0  0
 17 40  1  0  0  0
 17 41  1  0  0  0
 18 42  1  0  0  0
 18 43  1  0  0  0
 18 44  1  0  0  0
M  END
$$$$
