1svg_ligand
  -I-interpret- 

 65 68  0  0  0  0  0  0  0  0999 V2000
   17.1040   12.0200   -3.4210 F   0  0  0  0  0
   16.1080   11.7360   -4.2890 C   0  0  0  0  0
   16.3970   11.0580   -5.4640 C   0  0  0  0  0
   17.7050   10.6830   -5.6690 O   0  0  0  0  0
   18.0500   10.2530   -6.9860 C   0  0  0  0  0
   15.3430   10.7900   -6.3870 C   0  0  0  0  0
   14.0600   11.1780   -6.0920 C   0  0  0  0  0
   13.7500   11.8590   -4.8680 C   0  0  0  0  0
   12.5420   12.2190   -4.6090 O   0  0  0  0  0
   14.8190   12.1390   -3.9570 C   0  0  0  0  0
   14.6480   12.8520   -2.7220 C   0  0  0  0  0
   15.3150   13.8970   -2.6300 O   0  0  0  0  0
   13.8380   12.4570   -1.5650 C   0  0  0  0  0
   13.6060   11.0960   -1.2660 C   0  0  0  0  0
   12.8840   10.7200   -0.1470 C   0  0  0  0  0
   13.3110   13.4530   -0.7260 C   0  0  0  0  0
   12.5920   13.0820    0.3790 C   0  0  0  0  0
   12.3790   11.7320    0.6820 C   0  0  0  0  0
   11.6290   11.4110    1.8830 C   0  0  0  0  0
   11.5290   12.2580    2.7560 O   0  0  0  0  0
   11.0620   10.1800    2.0090 N   0  0  0  0  0
   10.5010    9.6830    3.2260 C   0  0  0  0  0
   11.6340    9.2690    4.2060 C   0  0  0  0  0
   12.6890    8.3300    3.5950 C   0  0  0  0  0
   12.2660    6.8630    3.5850 C   0  0  0  0  0
   11.0890    6.6130    2.7100 N   0  3  0  0  0
    9.8640    7.0860    3.3330 C   0  0  0  0  0
    9.5190    8.5300    2.8830 C   0  0  0  0  0
    8.1940    8.7520    3.4130 N   0  0  0  0  0
    7.1140    8.9730    2.5750 C   0  0  0  0  0
    7.2880    8.9940    1.3350 O   0  0  0  0  0
    5.7780    9.1120    3.1660 C   0  0  0  0  0
    4.6850    9.0500    2.2800 C   0  0  0  0  0
    3.4040    9.1320    2.7500 C   0  0  0  0  0
    3.1600    9.2440    4.1130 N   0  0  0  0  0
    4.2120    9.2980    5.0180 C   0  0  0  0  0
    5.5190    9.2140    4.5440 C   0  0  0  0  0
   17.4472    9.3850   -7.2530 H   0  0  0  0  0
   17.8588   11.0609   -7.6923 H   0  0  0  0  0
   19.1064    9.9860   -7.0146 H   0  0  0  0  0
   15.5562   10.2778   -7.3252 H   0  0  0  0  0
   13.2608   10.9645   -6.8018 H   0  0  0  0  0
   12.5161   12.6579   -3.7556 H   0  0  0  0  0
   14.0032   10.3276   -1.9292 H   0  0  0  0  0
   12.7129    9.6684    0.0832 H   0  0  0  0  0
   13.4722   14.5072   -0.9515 H   0  0  0  0  0
   12.1790   13.8501    1.0329 H   0  0  0  0  0
   11.0359    9.5769    1.1868 H   0  0  0  0  0
    9.9299   10.4549    3.7418 H   0  0  0  0  0
   11.1646    8.7310    5.0296 H   0  0  0  0  0
   12.1507   10.1818    4.5025 H   0  0  0  0  0
   13.5889    8.4073    4.2051 H   0  0  0  0  0
   12.8383    8.6349    2.5592 H   0  0  0  0  0
   11.9921    6.5859    4.6030 H   0  0  0  0  0
   13.1002    6.2759    3.2009 H   0  0  0  0  0
   11.0078    5.6087    2.5512 H   0  0  0  0  0
   11.2230    7.1139    1.8317 H   0  0  0  0  0
   10.0034    7.0850    4.4140 H   0  0  0  0  0
    9.0483    6.4271    3.0354 H   0  0  0  0  0
    9.5966    8.5728    1.7966 H   0  0  0  0  0
    8.0511    8.7459    4.4229 H   0  0  0  0  0
    4.8620    8.9357    1.2106 H   0  0  0  0  0
    2.5683    9.1094    2.0506 H   0  0  0  0  0
    4.0174    9.4047    6.0852 H   0  0  0  0  0
    6.3501    9.2275    5.2492 H   0  0  0  0  0
  1  2  1  0  0  0
  2  3  4  0  0  0
  2 10  4  0  0  0
  3  4  1  0  0  0
  3  6  4  0  0  0
  4  5  1  0  0  0
  6  7  4  0  0  0
  7  8  4  0  0  0
  8  9  1  0  0  0
  8 10  4  0  0  0
 10 11  1  0  0  0
 11 12  2  0  0  0
 11 13  1  0  0  0
 13 14  4  0  0  0
 13 16  4  0  0  0
 14 15  4  0  0  0
 15 18  4  0  0  0
 16 17  4  0  0  0
 17 18  4  0  0  0
 18 19  1  0  0  0
 19 20  2  0  0  0
 19 21  1  0  0  0
 21 22  1  0  0  0
 22 23  1  0  0  0
 22 28  1  0  0  0
 23 24  1  0  0  0
 24 25  1  0  0  0
 25 26  1  0  0  0
 26 27  1  0  0  0
 27 28  1  0  0  0
 28 29  1  0  0  0
 29 30  1  0  0  0
 30 31  2  0  0  0
 30 32  1  0  0  0
 32 33  4  0  0  0
 32 37  4  0  0  0
 33 34  4  0  0  0
 34 35  4  0  0  0
 35 36  4  0  0  0
 36 37  4  0  0  0
  5 38  1  0  0  0
  5 39  1  0  0  0
  5 40  1  0  0  0
  6 41  1  0  0  0
  7 42  1  0  0  0
  9 43  1  0  0  0
 14 44  1  0  0  0
 15 45  1  0  0  0
 16 46  1  0  0  0
 17 47  1  0  0  0
 21 48  1  0  0  0
 22 49  1  0  0  0
 23 50  1  0  0  0
 23 51  1  0  0  0
 24 52  1  0  0  0
 24 53  1  0  0  0
 25 54  1  0  0  0
 25 55  1  0  0  0
 26 56  1  0  0  0
 26 57  1  0  0  0
 27 58  1  0  0  0
 27 59  1  0  0  0
 28 60  1  0  0  0
 29 61  1  0  0  0
 33 62  1  0  0  0
 34 63  1  0  0  0
 36 64  1  0  0  0
 37 65  1  0  0  0
M  END
$$$$
