2fyv_ligand
  -I-interpret- 

 43 43  0  0  0  0  0  0  0  0999 V2000
   31.5140   66.2070    7.1750 C   0  0  0  0  0
   31.6230   67.1410    6.1300 O   0  0  0  0  0
   32.5920   66.0980    8.2440 C   0  0  0  0  0
   33.8250   65.4390    8.0020 O   0  0  0  0  0
   31.9480   65.5570    9.5040 C   0  0  0  0  0
   30.5800   65.0330    9.1330 N   0  3  0  0  0
   30.3020   66.0380    8.0800 C   0  0  0  0  0
   29.0140   65.9060    7.2820 C   0  0  0  0  0
   27.8510   65.9350    8.0890 O   0  0  0  0  0
   29.7210   65.3550   10.3330 C   0  0  0  0  0
   30.0090   64.1550   11.2320 C   0  0  0  0  0
   29.7750   62.9510   10.5020 O   0  0  0  0  0
   29.2540   64.0490   12.5610 C   0  0  0  0  0
   29.1600   65.3380   13.1660 O   0  0  0  0  0
   27.8750   63.3860   12.3810 C   0  0  0  0  0
   27.0690   64.4690   11.9180 O   0  0  0  0  0
   27.0410   62.7060   13.4730 C   0  0  0  0  0
   25.6600   62.6430   13.1080 O   0  0  0  0  0
   27.2300   63.4410   14.8140 C   0  0  0  0  0
   26.3060   64.3510   15.3680 O   0  0  0  0  0
   28.3560   63.2350   15.2990 O   0  0  0  0  0
   31.5296   65.4915    6.3528 H   0  0  0  0  0
   32.4813   67.0504    5.7096 H   0  0  0  0  0
   32.9538   67.1246    8.3004 H   0  0  0  0  0
   34.2227   65.7903    7.2019 H   0  0  0  0  0
   31.8621   66.3436   10.2536 H   0  0  0  0  0
   32.5572   64.7591    9.9286 H   0  0  0  0  0
   30.4622   64.0539    8.8725 H   0  0  0  0  0
   30.1113   66.9480    8.6488 H   0  0  0  0  0
   29.0385   64.9423    6.7732 H   0  0  0  0  0
   28.9618   66.7527    6.5976 H   0  0  0  0  0
   27.0740   65.8480    7.5319 H   0  0  0  0  0
   28.6649   65.4837   10.0961 H   0  0  0  0  0
   29.9517   66.3154   10.7940 H   0  0  0  0  0
   31.0491   64.3110   11.5185 H   0  0  0  0  0
   29.9558   62.1957   11.0663 H   0  0  0  0  0
   29.8152   63.3992   13.2325 H   0  0  0  0  0
   28.6863   65.2660   13.9979 H   0  0  0  0  0
   28.1267   62.5077   11.7865 H   0  0  0  0  0
   26.1723   64.1592   11.7714 H   0  0  0  0  0
   27.3912   61.6801   13.5868 H   0  0  0  0  0
   25.1642   62.2134   13.8089 H   0  0  0  0  0
   25.5051   64.3541   14.8388 H   0  0  0  0  0
  1  2  1  0  0  0
  1  3  1  0  0  0
  1  7  1  0  0  0
  3  4  1  0  0  0
  3  5  1  0  0  0
  5  6  1  0  0  0
  6  7  1  0  0  0
  6 10  1  0  0  0
  7  8  1  0  0  0
  8  9  1  0  0  0
 10 11  1  0  0  0
 11 12  1  0  0  0
 11 13  1  0  0  0
 13 14  1  0  0  0
 13 15  1  0  0  0
 15 16  1  0  0  0
 15 17  1  0  0  0
 17 18  1  0  0  0
 17 19  1  0  0  0
 19 20  1  0  0  0
 19 21  2  0  0  0
  1 22  1  0  0  0
  2 23  1  0  0  0
  3 24  1  0  0  0
  4 25  1  0  0  0
  5 26  1  0  0  0
  5 27  1  0  0  0
  6 28  1  0  0  0
  7 29  1  0  0  0
  8 30  1  0  0  0
  8 31  1  0  0  0
  9 32  1  0  0  0
 10 33  1  0  0  0
 10 34  1  0  0  0
 11 35  1  0  0  0
 12 36  1  0  0  0
 13 37  1  0  0  0
 14 38  1  0  0  0
 15 39  1  0  0  0
 16 40  1  0  0  0
 17 41  1  0  0  0
 18 42  1  0  0  0
 20 43  1  0  0  0
M  END
$$$$
