6ccy_ligand
  -I-interpret- 

 75 80  0  0  0  0  0  0  0  0999 V2000
   -8.6400   19.3770  -32.1760 C   0  0  0  0  0
   -8.1750   18.0660  -32.2130 C   0  0  0  0  0
  -13.5220   16.7800  -34.3690 C   0  0  0  0  0
   -9.2350   17.1720  -32.3230 N   0  0  0  0  0
  -10.3560   17.9110  -32.3730 C   0  0  0  0  0
  -11.7360   17.3460  -32.6000 C   0  0  0  0  0
  -11.8950   15.9140  -32.0370 C   0  0  0  0  0
  -13.2770   15.3250  -32.3420 C   0  0  0  0  0
  -15.0390    9.0640  -33.2360 O   0  0  0  0  0
  -14.9170   10.2590  -33.3710 C   0  0  0  0  0
  -15.7700   10.9330  -34.3130 N   0  0  0  0  0
  -15.5410   12.2920  -34.6600 C   0  0  0  0  0
  -16.5530   12.8790  -35.3320 N   0  0  0  0  0
  -16.4650   14.2080  -35.5570 C   0  0  0  0  0
  -15.4690   15.0120  -35.1580 N   0  0  0  0  0
  -13.8420   11.0710  -32.6480 C   0  0  0  0  0
  -13.2740   12.2060  -33.5200 C   0  0  0  0  0
  -12.3920   11.5840  -34.6310 C   0  0  0  0  0
  -14.4020   13.0020  -34.1830 C   0  0  0  0  0
  -14.4430   14.4350  -34.4410 C   0  0  0  0  0
  -13.4650   15.3460  -33.8680 N   0  0  0  0  0
  -12.1310   17.4310  -34.0950 C   0  0  0  0  0
  -10.0380   19.2860  -32.2590 N   0  0  0  0  0
  -10.9080   20.4340  -32.1310 C   0  0  0  0  0
  -10.5910   21.2280  -30.8510 C   0  0  0  0  0
  -11.1430   20.5610  -29.6350 N   0  3  0  0  0
  -10.3440   19.4050  -29.0900 C   0  0  0  0  0
  -10.5250   19.4210  -27.5660 C   0  0  0  0  0
  -10.6870   20.9090  -27.2390 C   0  0  0  0  0
  -11.2610   21.5590  -28.5240 C   0  0  0  0  0
   -6.8130   17.5940  -32.1680 C   0  0  0  0  0
   -5.8260   18.2580  -31.3980 C   0  0  0  0  0
   -4.5420   17.7130  -31.2990 C   0  0  0  0  0
   -4.2570   16.5050  -31.9730 C   0  0  0  0  0
   -3.0480   15.9800  -31.8810 F   0  0  0  0  0
   -5.2440   15.8480  -32.7390 C   0  0  0  0  0
   -6.5140   16.4150  -32.8480 C   0  0  0  0  0
   -4.9840   14.5030  -33.3740 C   0  0  0  0  0
   -3.7280   14.3140  -33.7620 F   0  0  0  0  0
   -5.2600   13.4730  -32.5350 F   0  0  0  0  0
   -5.7050   14.2630  -34.4750 F   0  0  0  0  0
   -8.0428   20.2855  -32.0987 H   0  0  0  0  0
  -14.3082   17.3318  -33.8537 H   0  0  0  0  0
  -13.7486   16.8016  -35.4350 H   0  0  0  0  0
  -12.4325   17.9665  -32.0362 H   0  0  0  0  0
  -11.7758   15.9590  -30.9545 H   0  0  0  0  0
  -11.1435   15.2788  -32.5059 H   0  0  0  0  0
  -14.0561   15.9113  -31.8549 H   0  0  0  0  0
  -13.3473   14.3050  -31.9643 H   0  0  0  0  0
  -16.5489   10.4293  -34.7372 H   0  0  0  0  0
  -17.2796   14.6698  -36.1149 H   0  0  0  0  0
  -13.0227   10.3969  -32.3980 H   0  0  0  0  0
  -14.2969   11.5206  -31.7654 H   0  0  0  0  0
  -12.6931   12.8768  -32.8871 H   0  0  0  0  0
  -11.5764   11.0233  -34.1744 H   0  0  0  0  0
  -12.9977   10.9145  -35.2417 H   0  0  0  0  0
  -11.9834   12.3781  -35.2560 H   0  0  0  0  0
  -12.1859   18.4832  -34.3740 H   0  0  0  0  0
  -11.3822   16.8934  -34.6768 H   0  0  0  0  0
  -11.9398   20.0863  -32.0797 H   0  0  0  0  0
  -10.7565   21.0848  -32.9922 H   0  0  0  0  0
  -11.0465   22.2144  -30.9377 H   0  0  0  0  0
   -9.5079   21.2909  -30.7458 H   0  0  0  0  0
  -12.0372   20.1842  -29.9493 H   0  0  0  0  0
   -9.2915   19.5013  -29.3565 H   0  0  0  0  0
  -10.6902   18.4614  -29.5117 H   0  0  0  0  0
   -9.6840   18.9677  -27.0412 H   0  0  0  0  0
  -11.3793   18.8270  -27.2411 H   0  0  0  0  0
   -9.7362   21.3601  -26.9552 H   0  0  0  0  0
  -11.3495   21.0595  -26.3866 H   0  0  0  0  0
  -12.3045   21.8361  -28.3739 H   0  0  0  0  0
  -10.7070   22.4651  -28.7693 H   0  0  0  0  0
   -6.0665   19.1893  -30.8852 H   0  0  0  0  0
   -3.7727   18.2129  -30.7105 H   0  0  0  0  0
   -7.2732   15.9353  -33.4657 H   0  0  0  0  0
  1  2  4  0  0  0
 23  1  4  0  0  0
  4  2  4  0  0  0
  2 31  1  0  0  0
 21  3  1  0  0  0
  3 22  1  0  0  0
  5  4  4  0  0  0
  6  5  1  0  0  0
  5 23  4  0  0  0
  7  6  1  0  0  0
 22  6  1  0  0  0
  8  7  1  0  0  0
 21  8  1  0  0  0
 10  9  2  0  0  0
 11 10  1  0  0  0
 16 10  1  0  0  0
 12 11  1  0  0  0
 12 13  4  0  0  0
 19 12  4  0  0  0
 14 13  4  0  0  0
 15 14  4  0  0  0
 20 15  4  0  0  0
 17 16  1  0  0  0
 17 18  1  0  0  0
 19 17  1  0  0  0
 20 19  4  0  0  0
 20 21  1  0  0  0
 23 24  1  0  0  0
 24 25  1  0  0  0
 25 26  1  0  0  0
 26 27  1  0  0  0
 26 30  1  0  0  0
 27 28  1  0  0  0
 28 29  1  0  0  0
 29 30  1  0  0  0
 31 32  4  0  0  0
 31 37  4  0  0  0
 32 33  4  0  0  0
 33 34  4  0  0  0
 34 35  1  0  0  0
 34 36  4  0  0  0
 36 37  4  0  0  0
 36 38  1  0  0  0
 38 39  1  0  0  0
 38 40  1  0  0  0
 38 41  1  0  0  0
  1 42  1  0  0  0
  3 43  1  0  0  0
  3 44  1  0  0  0
  6 45  1  0  0  0
  7 46  1  0  0  0
  7 47  1  0  0  0
  8 48  1  0  0  0
  8 49  1  0  0  0
 11 50  1  0  0  0
 14 51  1  0  0  0
 16 52  1  0  0  0
 16 53  1  0  0  0
 17 54  1  0  0  0
 18 55  1  0  0  0
 18 56  1  0  0  0
 18 57  1  0  0  0
 22 58  1  0  0  0
 22 59  1  0  0  0
 24 60  1  0  0  0
 24 61  1  0  0  0
 25 62  1  0  0  0
 25 63  1  0  0  0
 26 64  1  0  0  0
 27 65  1  0  0  0
 27 66  1  0  0  0
 28 67  1  0  0  0
 28 68  1  0  0  0
 29 69  1  0  0  0
 29 70  1  0  0  0
 30 71  1  0  0  0
 30 72  1  0  0  0
 32 73  1  0  0  0
 33 74  1  0  0  0
 37 75  1  0  0  0
M  END
$$$$
