4d89_ligand
  -I-interpret- 

 79 81  0  0  0  0  0  0  0  0999 V2000
   27.6690   79.6480   18.6750 F   0  0  0  0  0
   27.4650   78.4900   17.9980 C   0  0  0  0  0
   26.7450   77.6650   18.8020 F   0  0  0  0  0
   26.7580   78.7170   16.8580 F   0  0  0  0  0
   28.8370   77.8370   17.7010 C   0  0  0  0  0
   29.4310   77.6620   19.0060 O   0  0  0  0  0
   29.7380   76.3890   19.4990 C   0  0  0  0  0
   30.9170   76.2430   20.2650 C   0  0  0  0  0
   31.2690   74.9710   20.7750 C   0  0  0  0  0
   30.4460   73.8460   20.5280 C   0  0  0  0  0
   29.2610   73.9900   19.7600 C   0  0  0  0  0
   28.9140   75.2630   19.2520 C   0  0  0  0  0
   28.3460   72.7940   19.4480 C   0  0  0  0  0
   28.9600   71.8270   18.3780 C   0  0  0  0  0
   28.0610   70.6010   18.0200 C   0  0  0  0  0
   28.7920   69.5670   17.1040 C   0  0  0  0  0
   29.3610   70.1570   15.7750 C   0  0  0  0  0
   30.4570   71.5420   16.1090 S   0  0  0  0  0
   29.3700   72.5900   17.0750 C   0  0  0  0  0
   30.7420   72.1990   14.8430 O   0  0  0  0  0
   31.5760   71.0990   16.9150 O   0  0  0  0  0
   27.9650   68.3520   16.8500 N   0  3  0  0  0
   28.5550   67.1190   16.2530 C   0  0  0  0  0
   29.7600   66.6350   17.0790 C   0  0  0  0  0
   29.5340   66.1300   18.3810 C   0  0  0  0  0
   30.5910   65.6670   19.2200 C   0  0  0  0  0
   31.9080   65.7370   18.6770 C   0  0  0  0  0
   32.1590   66.2370   17.3760 C   0  0  0  0  0
   31.0840   66.6870   16.5750 C   0  0  0  0  0
   30.2920   65.1190   20.6620 C   0  0  0  0  0
   29.1740   64.0390   20.5720 C   0  0  0  0  0
   31.5130   64.4610   21.3870 C   0  0  0  0  0
   29.8140   66.2690   21.6120 C   0  0  0  0  0
   27.6960   69.8560   19.1940 O   0  0  0  0  0
   32.3840   74.8390   21.4850 F   0  0  0  0  0
   31.7010   77.3250   20.5020 N   0  0  0  0  0
   29.7390   78.7500   16.8170 C   0  0  0  0  0
   30.7930   77.9750   16.2020 O   0  0  0  0  0
   32.0740   78.0920   16.8680 C   0  0  0  0  0
   33.0780   77.0870   16.2440 C   0  0  0  0  0
   28.7279   76.9052   17.1460 H   0  0  0  0  0
   30.7220   72.8700   20.9272 H   0  0  0  0  0
   28.0034   75.3794   18.6644 H   0  0  0  0  0
   27.4094   73.1837   19.0492 H   0  0  0  0  0
   28.2071   72.2290   20.3697 H   0  0  0  0  0
   29.8516   71.4230   18.8576 H   0  0  0  0  0
   27.1964   71.0335   17.5164 H   0  0  0  0  0
   29.6661   69.2682   17.6825 H   0  0  0  0  0
   28.5304   70.5061   15.1615 H   0  0  0  0  0
   29.9242   69.3799   15.2582 H   0  0  0  0  0
   29.8844   73.5151   17.3352 H   0  0  0  0  0
   28.4803   72.8337   16.4944 H   0  0  0  0  0
   27.2872   68.6600   16.1528 H   0  0  0  0  0
   27.6738   68.0563   17.7818 H   0  0  0  0  0
   28.8904   67.3443   15.2406 H   0  0  0  0  0
   27.7973   66.3354   16.2441 H   0  0  0  0  0
   28.5120   66.0932   18.7581 H   0  0  0  0  0
   32.7475   65.3950   19.2823 H   0  0  0  0  0
   33.1787   66.2749   16.9928 H   0  0  0  0  0
   31.2728   67.0727   15.5731 H   0  0  0  0  0
   28.2721   64.4856   20.1534 H   0  0  0  0  0
   29.5088   63.2239   19.9304 H   0  0  0  0  0
   28.9612   63.6541   21.5694 H   0  0  0  0  0
   31.8704   63.6155   20.7993 H   0  0  0  0  0
   32.3112   65.1959   21.4913 H   0  0  0  0  0
   31.2048   64.1150   22.3736 H   0  0  0  0  0
   30.5924   67.0289   21.6808 H   0  0  0  0  0
   28.9036   66.7148   21.2112 H   0  0  0  0  0
   29.6145   65.8607   22.6028 H   0  0  0  0  0
   27.1454   69.1115   18.9408 H   0  0  0  0  0
   31.4382   78.2369   20.1281 H   0  0  0  0  0
   32.5530   77.2264   21.0540 H   0  0  0  0  0
   30.1858   79.5214   17.4443 H   0  0  0  0  0
   29.1284   79.2016   16.0351 H   0  0  0  0  0
   31.9525   77.8717   17.9286 H   0  0  0  0  0
   32.4541   79.1064   16.7470 H   0  0  0  0  0
   32.6973   76.0728   16.3647 H   0  0  0  0  0
   33.1988   77.3073   15.1833 H   0  0  0  0  0
   34.0407   77.1774   16.7471 H   0  0  0  0  0
  1  2  1  0  0  0
  2  3  1  0  0  0
  2  4  1  0  0  0
  2  5  1  0  0  0
  5  6  1  0  0  0
  5 37  1  0  0  0
  6  7  1  0  0  0
  7  8  4  0  0  0
  7 12  4  0  0  0
  8  9  4  0  0  0
  8 36  1  0  0  0
  9 10  4  0  0  0
  9 35  1  0  0  0
 10 11  4  0  0  0
 11 12  4  0  0  0
 11 13  1  0  0  0
 13 14  1  0  0  0
 14 15  1  0  0  0
 14 19  1  0  0  0
 15 16  1  0  0  0
 15 34  1  0  0  0
 16 17  1  0  0  0
 16 22  1  0  0  0
 17 18  1  0  0  0
 18 19  1  0  0  0
 18 20  2  0  0  0
 18 21  2  0  0  0
 22 23  1  0  0  0
 23 24  1  0  0  0
 24 25  4  0  0  0
 24 29  4  0  0  0
 25 26  4  0  0  0
 26 27  4  0  0  0
 26 30  1  0  0  0
 27 28  4  0  0  0
 28 29  4  0  0  0
 30 31  1  0  0  0
 30 32  1  0  0  0
 30 33  1  0  0  0
 37 38  1  0  0  0
 38 39  1  0  0  0
 39 40  1  0  0  0
  5 41  1  0  0  0
 10 42  1  0  0  0
 12 43  1  0  0  0
 13 44  1  0  0  0
 13 45  1  0  0  0
 14 46  1  0  0  0
 15 47  1  0  0  0
 16 48  1  0  0  0
 17 49  1  0  0  0
 17 50  1  0  0  0
 19 51  1  0  0  0
 19 52  1  0  0  0
 22 53  1  0  0  0
 22 54  1  0  0  0
 23 55  1  0  0  0
 23 56  1  0  0  0
 25 57  1  0  0  0
 27 58  1  0  0  0
 28 59  1  0  0  0
 29 60  1  0  0  0
 31 61  1  0  0  0
 31 62  1  0  0  0
 31 63  1  0  0  0
 32 64  1  0  0  0
 32 65  1  0  0  0
 32 66  1  0  0  0
 33 67  1  0  0  0
 33 68  1  0  0  0
 33 69  1  0  0  0
 34 70  1  0  0  0
 36 71  1  0  0  0
 36 72  1  0  0  0
 37 73  1  0  0  0
 37 74  1  0  0  0
 39 75  1  0  0  0
 39 76  1  0  0  0
 40 77  1  0  0  0
 40 78  1  0  0  0
 40 79  1  0  0  0
M  END
$$$$
