5vfd_ligand
  -I-interpret- 

 29 30  0  0  0  0  0  0  0  0999 V2000
  -37.0730    1.3850   15.0920 C   0  0  0  0  0
  -35.9030    0.7810   15.2940 C   0  0  0  0  0
  -34.6220    1.5350   15.0540 C   0  0  0  0  0
  -36.0170    3.0670   13.8400 C   0  0  0  0  0
  -37.2710    2.8210   14.6610 C   0  0  0  0  0
  -35.3830    3.8500   15.7650 C   0  0  0  0  0
  -33.7230    0.8610   13.9860 C   0  0  0  0  0
  -33.5130    1.3820   12.8890 O   0  0  0  0  0
  -33.2230   -0.3170   14.3340 N   0  0  0  0  0
  -35.0100    2.8890   14.8710 N   0  0  0  0  0
  -34.6750    4.3510   16.6160 O   0  0  0  0  0
  -36.7990    3.7440   15.7570 N   0  0  0  0  0
  -37.5130    4.4230   16.7900 O   0  0  0  0  0
  -38.5590    5.6020   16.3030 S   0  0  0  0  0
  -39.3320    5.2470   15.1780 O   0  0  0  0  0
  -39.5230    5.5810   17.5130 O   0  0  0  0  0
  -37.7970    6.7760   16.4160 O   0  0  0  0  0
  -38.3980    0.7120   15.3160 C   0  0  0  0  0
  -35.8731   -0.2549   15.6317 H   0  0  0  0  0
  -33.9278    1.5124   15.8941 H   0  0  0  0  0
  -35.9862    4.0345   13.3390 H   0  0  0  0  0
  -35.9038    2.4096   12.9780 H   0  0  0  0  0
  -38.2844    2.9613   14.2850 H   0  0  0  0  0
  -32.6348   -0.8345   13.6808 H   0  0  0  0  0
  -33.4266   -0.7055   15.2549 H   0  0  0  0  0
  -39.0410    5.8176   18.3088 H   0  0  0  0  0
  -38.4742   -0.1618   14.6689 H   0  0  0  0  0
  -38.4749    0.4018   16.3581 H   0  0  0  0  0
  -39.2024    1.4096   15.0829 H   0  0  0  0  0
  1  2  2  0  0  0
  1  5  1  0  0  0
  1 18  1  0  0  0
  2  3  1  0  0  0
  3  7  1  0  0  0
  3 10  1  0  0  0
  5  4  1  0  0  0
  4 10  1  0  0  0
  5 12  1  0  0  0
 10  6  1  0  0  0
  6 11  2  0  0  0
  6 12  1  0  0  0
  7  8  2  0  0  0
  7  9  1  0  0  0
 12 13  1  0  0  0
 13 14  1  0  0  0
 14 15  2  0  0  0
 14 16  1  0  0  0
 14 17  2  0  0  0
  2 19  1  0  0  0
  3 20  1  0  0  0
  4 21  1  0  0  0
  4 22  1  0  0  0
  5 23  1  0  0  0
  9 24  1  0  0  0
  9 25  1  0  0  0
 16 26  1  0  0  0
 18 27  1  0  0  0
 18 28  1  0  0  0
 18 29  1  0  0  0
M  END
$$$$
