1lcp_ligand
  -I-interpret- 

 25 24  0  0  0  0  0  0  0  0999 V2000
   -1.7910   58.9830   45.2250 C   0  0  0  0  0
   -2.4330   59.5420   43.9460 C   0  0  0  0  0
   -3.8830   59.0740   43.6130 C   0  0  0  0  0
   -4.0270   57.5570   43.5480 C   0  0  0  0  0
   -4.3960   59.6900   42.2990 C   0  0  0  0  0
   -2.6470   59.2930   46.3660 N   0  3  0  0  0
   -0.1880   59.7830   45.5110 P   0  0  0  0  0
    0.2770   59.3250   46.9120 O   0  0  0  0  0
   -0.3540   61.3360   45.5000 O   0  0  0  0  0
    0.7680   59.3490   44.3880 O   0  0  0  0  0
   -1.6632   57.9064   45.1119 H   0  0  0  0  0
   -1.8115   59.1876   43.1237 H   0  0  0  0  0
   -2.4966   60.6201   44.0937 H   0  0  0  0  0
   -4.4929   59.4316   44.4426 H   0  0  0  0  0
   -5.0767   57.2986   43.4083 H   0  0  0  0  0
   -3.4427   57.1734   42.7117 H   0  0  0  0  0
   -3.6642   57.1187   44.4777 H   0  0  0  0  0
   -3.8110   59.3026   41.4649 H   0  0  0  0  0
   -5.4450   59.4278   42.1615 H   0  0  0  0  0
   -4.2940   60.7743   42.3434 H   0  0  0  0  0
   -3.5589   58.8555   46.2342 H   0  0  0  0  0
   -2.2171   58.9354   47.2191 H   0  0  0  0  0
   -2.7610   60.3040   46.4392 H   0  0  0  0  0
   -0.3548   59.6224   47.5707 H   0  0  0  0  0
   -0.9520   61.5978   46.2039 H   0  0  0  0  0
  1  7  1  0  0  0
  1  6  1  0  0  0
  1  2  1  0  0  0
  2  3  1  0  0  0
  3  5  1  0  0  0
  3  4  1  0  0  0
  7 10  2  0  0  0
  7  9  1  0  0  0
  7  8  1  0  0  0
  1 11  1  0  0  0
  2 12  1  0  0  0
  2 13  1  0  0  0
  3 14  1  0  0  0
  4 15  1  0  0  0
  4 16  1  0  0  0
  4 17  1  0  0  0
  5 18  1  0  0  0
  5 19  1  0  0  0
  5 20  1  0  0  0
  6 21  1  0  0  0
  6 22  1  0  0  0
  6 23  1  0  0  0
  8 24  1  0  0  0
  9 25  1  0  0  0
M  END
$$$$
