2qw1_ligand
  -I-interpret- 

 27 27  0  0  0  0  0  0  0  0999 V2000
   -4.7020   22.2200  -14.8360 O   0  0  0  0  0
   -6.0340   21.7430  -14.7590 C   0  0  0  0  0
   -6.2570   20.7100  -15.8450 C   0  0  0  0  0
   -6.2450   19.4170  -15.2250 O   0  0  0  0  0
   -7.5900   20.9910  -16.5400 C   0  0  0  0  0
   -7.5290   22.2590  -17.2120 O   0  0  0  0  0
   -7.9170   19.8490  -17.5040 C   0  0  0  0  0
   -9.1780   20.0610  -18.1430 O   0  0  0  0  0
   -9.0430   20.2560  -19.5590 C   0  0  0  0  0
   -7.8950   18.5150  -16.7590 C   0  0  0  0  0
   -8.1790   17.4510  -17.6720 O   0  0  0  0  0
   -6.5170   18.3240  -16.1120 C   0  0  0  0  0
   -6.4270   17.1000  -15.3680 O   0  0  0  0  0
   -4.5576   22.8748  -14.1490 H   0  0  0  0  0
   -6.7280   22.5724  -14.8951 H   0  0  0  0  0
   -6.2043   21.2897  -13.7825 H   0  0  0  0  0
   -5.4751   20.7496  -16.6034 H   0  0  0  0  0
   -8.3916   21.0453  -15.8034 H   0  0  0  0  0
   -7.3223   22.9475  -16.5757 H   0  0  0  0  0
   -7.1562   19.8236  -18.2842 H   0  0  0  0  0
   -8.4171   21.1285  -19.7463 H   0  0  0  0  0
   -8.5817   19.3742  -20.0036 H   0  0  0  0  0
  -10.0281   20.4128  -19.9984 H   0  0  0  0  0
   -8.6552   18.5098  -15.9779 H   0  0  0  0  0
   -8.1645   16.6145  -17.2012 H   0  0  0  0  0
   -5.7871   18.2855  -16.9206 H   0  0  0  0  0
   -5.5508   17.0244  -14.9832 H   0  0  0  0  0
  1  2  1  0  0  0
  2  3  1  0  0  0
  3  4  1  0  0  0
  3  5  1  0  0  0
  4 12  1  0  0  0
  5  6  1  0  0  0
  5  7  1  0  0  0
  7  8  1  0  0  0
  7 10  1  0  0  0
  8  9  1  0  0  0
 10 11  1  0  0  0
 10 12  1  0  0  0
 12 13  1  0  0  0
  1 14  1  0  0  0
  2 15  1  0  0  0
  2 16  1  0  0  0
  3 17  1  0  0  0
  5 18  1  0  0  0
  6 19  1  0  0  0
  7 20  1  0  0  0
  9 21  1  0  0  0
  9 22  1  0  0  0
  9 23  1  0  0  0
 10 24  1  0  0  0
 11 25  1  0  0  0
 12 26  1  0  0  0
 13 27  1  0  0  0
M  END
$$$$
