5wbq_ligand
  -I-interpret- 

 40 42  0  0  0  0  0  0  0  0999 V2000
   -1.8670   -2.3130   19.0680 N   0  0  0  0  0
   -7.7270   -2.0460   22.3870 C   0  0  0  0  0
   -5.7200   -3.4230   21.7220 N   0  0  0  0  0
   -5.1050   -1.1870   19.9710 C   0  0  0  0  0
   -6.2680   -1.2150   20.8040 C   0  0  0  0  0
   -4.6290   -3.4080   20.9550 C   0  0  0  0  0
   -5.0290    2.1650   18.5230 C   0  0  0  0  0
   -4.2320   -2.3080   20.0910 C   0  0  0  0  0
   -3.1440    1.8660   16.8160 C   0  0  0  0  0
  -10.5940   -0.6340   21.9790 C   0  0  0  0  0
   -9.3110    0.0000   22.4540 C   0  0  0  0  0
   -8.1490   -0.7930   21.9770 C   0  0  0  0  0
   -6.5280   -2.3430   21.6640 C   0  0  0  0  0
   -7.2780   -0.2880   21.0120 N   0  0  0  0  0
   -3.8320   -4.7490   20.9490 C   0  0  0  0  0
   -2.5320   -4.5700   21.1370 F   0  0  0  0  0
   -4.2310   -5.5680   21.9110 F   0  0  0  0  0
   -3.9550   -5.3890   19.7980 F   0  0  0  0  0
   -2.9220   -2.3050   19.5000 C   0  0  0  0  0
   -5.0560   -0.0700   19.1180 N   0  0  0  0  0
   -4.7510    1.2350   19.6930 C   0  0  0  0  0
   -4.4930    1.3620   17.3050 C   0  0  0  0  0
   -4.3830   -0.1060   17.7770 C   0  0  0  0  0
   -5.4470    1.3500   16.2340 O   0  0  0  0  0
   -8.2157   -2.6858   23.1218 H   0  0  0  0  0
   -4.5493    3.1376   18.6326 H   0  0  0  0  0
   -6.0840    2.4224   18.4287 H   0  0  0  0  0
   -2.7784    1.2119   16.0244 H   0  0  0  0  0
   -3.2544    2.8793   16.4298 H   0  0  0  0  0
   -2.4358    1.8668   17.6446 H   0  0  0  0  0
  -10.6012   -0.6642   20.8894 H   0  0  0  0  0
  -10.6640   -1.6481   22.3723 H   0  0  0  0  0
  -11.4410   -0.0463   22.3331 H   0  0  0  0  0
   -9.3051    0.0271   23.5436 H   0  0  0  0  0
   -9.2421    1.0131   22.0577 H   0  0  0  0  0
   -5.3416    1.4661   20.5795 H   0  0  0  0  0
   -3.7331    1.3125   20.0752 H   0  0  0  0  0
   -4.8458   -0.8114   17.0868 H   0  0  0  0  0
   -3.3539   -0.4618   17.8261 H   0  0  0  0  0
   -5.0919    0.8488   15.4962 H   0  0  0  0  0
 19  1  3  0  0  0
 12  2  4  0  0  0
 13  2  4  0  0  0
  6  3  4  0  0  0
 13  3  4  0  0  0
  4  5  4  0  0  0
  4  8  4  0  0  0
 20  4  1  0  0  0
  5 13  4  0  0  0
  5 14  4  0  0  0
  8  6  4  0  0  0
  6 15  1  0  0  0
 21  7  1  0  0  0
  7 22  1  0  0  0
  8 19  1  0  0  0
 22  9  1  0  0  0
 11 10  1  0  0  0
 12 11  1  0  0  0
 14 12  4  0  0  0
 15 16  1  0  0  0
 15 17  1  0  0  0
 15 18  1  0  0  0
 20 21  1  0  0  0
 20 23  1  0  0  0
 22 23  1  0  0  0
 22 24  1  0  0  0
  2 25  1  0  0  0
  7 26  1  0  0  0
  7 27  1  0  0  0
  9 28  1  0  0  0
  9 29  1  0  0  0
  9 30  1  0  0  0
 10 31  1  0  0  0
 10 32  1  0  0  0
 10 33  1  0  0  0
 11 34  1  0  0  0
 11 35  1  0  0  0
 21 36  1  0  0  0
 21 37  1  0  0  0
 23 38  1  0  0  0
 23 39  1  0  0  0
 24 40  1  0  0  0
M  END
$$$$
