3oyl_ligand
  -I-interpret- 

 53 56  0  0  0  0  0  0  0  0999 V2000
  -37.4750   25.8350  -19.2040 C   0  0  0  0  0
  -39.5630   31.5660  -25.5030 C   0  0  0  0  0
  -37.8110   28.8740  -21.8570 C   0  0  0  0  0
  -40.4400   31.3380  -22.8720 O   0  0  0  0  0
  -37.0620   28.9420  -17.4880 O   0  0  0  0  0
  -36.8060   34.5820  -19.0190 O   0  0  0  0  0
  -36.7970   31.9980  -17.5200 O   0  0  0  0  0
  -42.1640   38.9480  -21.6640 F   0  0  0  0  0
  -41.2420   38.5860  -19.0300 Cl  0  0  0  0  0
  -40.4760   37.7330  -22.8330 C   0  0  0  0  0
  -39.3080   36.9760  -22.7430 C   0  0  0  0  0
  -39.3150   37.2330  -20.3220 C   0  0  0  0  0
  -38.5090   26.6820  -18.4540 C   0  0  0  0  0
  -37.4770   35.9480  -21.3300 C   0  0  0  0  0
  -39.5020   28.3300  -20.1170 C   0  0  0  0  0
  -38.3090   33.8870  -21.9940 N   0  0  0  0  0
  -38.8560   32.1300  -24.3240 N   0  0  0  0  0
  -39.3590   31.9060  -23.0940 C   0  0  0  0  0
  -37.8630   29.1550  -18.4080 C   0  0  0  0  0
  -41.0450   38.2150  -21.6640 C   0  0  0  0  0
  -38.7510   36.7320  -21.4900 C   0  0  0  0  0
  -40.4740   37.9670  -20.4330 C   0  0  0  0  0
  -37.4000   31.6730  -18.7000 C   0  0  0  0  0
  -38.6100   32.5710  -21.9070 C   0  0  0  0  0
  -37.8920   30.4120  -19.0340 C   0  0  0  0  0
  -37.3640   33.9300  -19.8990 C   0  0  0  0  0
  -37.6420   32.5750  -19.7250 C   0  0  0  0  0
  -38.2790   31.8820  -20.7420 C   0  0  0  0  0
  -38.9900   29.4120  -21.0430 C   0  0  0  0  0
  -38.5630   28.0730  -19.0050 N   0  0  0  0  0
  -37.7410   34.5350  -21.1030 N   0  0  0  0  0
  -38.4330   30.5560  -20.3270 N   0  0  0  0  0
  -37.7452   25.7840  -20.2588 H   0  0  0  0  0
  -36.4903   26.2911  -19.1015 H   0  0  0  0  0
  -37.4567   24.8296  -18.7833 H   0  0  0  0  0
  -39.6030   30.4802  -25.4159 H   0  0  0  0  0
  -40.5761   31.9662  -25.5432 H   0  0  0  0  0
  -39.0267   31.8394  -26.4117 H   0  0  0  0  0
  -37.0134   28.5679  -21.1801 H   0  0  0  0  0
  -38.1385   28.0171  -22.4457 H   0  0  0  0  0
  -37.4443   29.6552  -22.5229 H   0  0  0  0  0
  -36.5482   32.9251  -17.5338 H   0  0  0  0  0
  -40.9315   37.9411  -23.8011 H   0  0  0  0  0
  -38.8367   36.5801  -23.6426 H   0  0  0  0  0
  -38.8547   37.0506  -19.3510 H   0  0  0  0  0
  -38.2242   26.7326  -17.4031 H   0  0  0  0  0
  -39.4899   26.2211  -18.5704 H   0  0  0  0  0
  -36.9379   36.3400  -20.4676 H   0  0  0  0  0
  -36.8953   36.0463  -22.2465 H   0  0  0  0  0
  -39.6137   27.4106  -20.6917 H   0  0  0  0  0
  -40.4516   28.6597  -19.6955 H   0  0  0  0  0
  -38.0039   32.6777  -24.4437 H   0  0  0  0  0
  -39.8484   29.7105  -21.6448 H   0  0  0  0  0
 13  1  1  0  0  0
 17  2  1  0  0  0
 29  3  1  0  0  0
 18  4  2  0  0  0
 19  5  2  0  0  0
 26  6  2  0  0  0
 23  7  1  0  0  0
 20  8  1  0  0  0
 22  9  1  0  0  0
 11 10  4  0  0  0
 10 20  4  0  0  0
 21 11  4  0  0  0
 21 12  4  0  0  0
 12 22  4  0  0  0
 30 13  1  0  0  0
 14 21  1  0  0  0
 31 14  1  0  0  0
 15 29  1  0  0  0
 30 15  1  0  0  0
 16 24  2  0  0  0
 31 16  1  0  0  0
 18 17  1  0  0  0
 24 18  1  0  0  0
 25 19  1  0  0  0
 19 30  1  0  0  0
 22 20  4  0  0  0
 23 25  4  0  0  0
 27 23  4  0  0  0
 24 28  1  0  0  0
 25 32  4  0  0  0
 26 27  1  0  0  0
 26 31  1  0  0  0
 27 28  4  0  0  0
 28 32  4  0  0  0
 29 32  1  0  0  0
  1 33  1  0  0  0
  1 34  1  0  0  0
  1 35  1  0  0  0
  2 36  1  0  0  0
  2 37  1  0  0  0
  2 38  1  0  0  0
  3 39  1  0  0  0
  3 40  1  0  0  0
  3 41  1  0  0  0
  7 42  1  0  0  0
 10 43  1  0  0  0
 11 44  1  0  0  0
 12 45  1  0  0  0
 13 46  1  0  0  0
 13 47  1  0  0  0
 14 48  1  0  0  0
 14 49  1  0  0  0
 15 50  1  0  0  0
 15 51  1  0  0  0
 17 52  1  0  0  0
 29 53  1  0  0  0
M  END
$$$$
