4mpn_ligand
  -I-interpret- 

 33 35  0  0  0  0  0  0  0  0999 V2000
   16.4750    1.8240  -37.5840 C   0  0  0  0  0
   16.3120    0.5580  -38.1370 C   0  0  0  0  0
   11.6470    2.3790  -38.8840 O   0  0  0  0  0
   11.4780    3.0250  -37.6780 C   0  0  0  0  0
   10.7980    4.2320  -37.6030 C   0  0  0  0  0
   10.6460    4.8540  -36.3670 C   0  0  0  0  0
    9.9800    6.0520  -36.2640 O   0  0  0  0  0
   11.1780    4.2870  -35.2250 C   0  0  0  0  0
   11.8670    3.0980  -35.2990 C   0  0  0  0  0
   12.0110    2.4650  -36.5280 C   0  0  0  0  0
   12.8760    0.9530  -36.6190 S   0  0  0  0  0
   14.2410    1.3390  -37.3990 N   0  0  0  0  0
   15.2100    2.2950  -37.0040 C   0  0  0  0  0
   14.8710    0.1550  -37.9280 C   0  0  0  0  0
   17.4180   -0.0860  -38.7550 C   0  0  0  0  0
   18.6450    0.5860  -38.7870 C   0  0  0  0  0
   18.7850    1.8590  -38.2250 C   0  0  0  0  0
   17.7120    2.4780  -37.6220 C   0  0  0  0  0
   17.8050    3.7220  -37.0620 O   0  0  0  0  0
   19.7410    0.0040  -39.3780 O   0  0  0  0  0
   13.1870    0.5400  -35.2580 O   0  0  0  0  0
   12.1930   -0.1290  -37.2970 O   0  0  0  0  0
   12.1372    1.5655  -38.7441 H   0  0  0  0  0
   10.3868    4.6888  -38.5032 H   0  0  0  0  0
    9.9700    6.3334  -35.3462 H   0  0  0  0  0
   11.0516    4.7828  -34.2626 H   0  0  0  0  0
   12.2967    2.6558  -34.4002 H   0  0  0  0  0
   15.0508    3.1880  -36.3996 H   0  0  0  0  0
   14.4115   -0.8123  -38.1312 H   0  0  0  0  0
   17.3131   -1.0786  -39.1931 H   0  0  0  0  0
   19.7497    2.3649  -38.2643 H   0  0  0  0  0
   18.7023    4.0491  -37.1590 H   0  0  0  0  0
   20.4924    0.5977  -39.3109 H   0  0  0  0  0
  1  2  4  0  0  0
 13  1  4  0  0  0
  1 18  4  0  0  0
  2 14  4  0  0  0
  2 15  4  0  0  0
  4  3  1  0  0  0
  4  5  4  0  0  0
 10  4  4  0  0  0
  5  6  4  0  0  0
  6  7  1  0  0  0
  8  6  4  0  0  0
  9  8  4  0  0  0
 10  9  4  0  0  0
 11 10  1  0  0  0
 12 11  1  0  0  0
 11 21  2  0  0  0
 11 22  2  0  0  0
 12 13  4  0  0  0
 12 14  4  0  0  0
 15 16  4  0  0  0
 16 17  4  0  0  0
 16 20  1  0  0  0
 17 18  4  0  0  0
 18 19  1  0  0  0
  3 23  1  0  0  0
  5 24  1  0  0  0
  7 25  1  0  0  0
  8 26  1  0  0  0
  9 27  1  0  0  0
 13 28  1  0  0  0
 14 29  1  0  0  0
 15 30  1  0  0  0
 17 31  1  0  0  0
 19 32  1  0  0  0
 20 33  1  0  0  0
M  END
$$$$
