2vh0_ligand
  -I-interpret- 

 58 61  0  0  0  0  0  0  0  0999 V2000
   13.8220    7.2750   26.2150 Cl  0  0  0  0  0
   12.0990    7.5040   26.2290 C   0  0  0  0  0
   11.2500    7.0320   27.2940 C   0  0  0  0  0
    9.8870    7.3570   26.9870 C   0  0  0  0  0
   11.2770    8.2770   24.9550 S   0  0  0  0  0
    9.7590    8.0390   25.7290 C   0  0  0  0  0
    8.4560    8.4510   25.2120 C   0  0  0  0  0
    8.2340    8.9080   23.9620 C   0  0  0  0  0
    6.5700    9.3200   23.6640 S   0  0  0  0  0
    6.5740   10.5810   23.0020 O   0  0  0  0  0
    5.8520    9.0250   24.8490 O   0  0  0  0  0
    6.0100    8.3860   22.4760 N   0  0  0  0  0
    5.9270    6.9520   22.6020 C   0  0  0  0  0
    4.5830    6.4590   22.0640 C   0  0  0  0  0
    4.9730    5.1140   21.4430 C   0  0  0  0  0
    6.9650    6.2580   21.7380 C   0  0  0  0  0
    8.1330    6.5980   21.5950 O   0  0  0  0  0
    6.3930    5.2080   21.1390 N   0  0  0  0  0
    7.0570    4.3150   20.3450 C   0  0  0  0  0
    6.9650    2.9290   20.6350 C   0  0  0  0  0
    7.6610    2.0260   19.8050 C   0  0  0  0  0
    8.4110    2.4810   18.7050 C   0  0  0  0  0
    8.5050    3.8650   18.4230 C   0  0  0  0  0
    7.8250    4.7560   19.2610 C   0  0  0  0  0
    7.8870    6.0780   19.0150 F   0  0  0  0  0
    9.1000    1.5920   17.8680 N   0  0  0  0  0
   10.2050    0.8970   18.2840 C   0  0  0  0  0
   10.6520    0.1200   17.1880 C   0  0  0  0  0
    9.7910    0.3760   16.1670 N   0  0  0  0  0
    8.8540    1.2630   16.5750 C   0  0  0  0  0
    7.7370    1.7940   15.6870 C   0  0  0  0  0
    7.1110    0.7450   14.8510 N   0  3  0  0  0
    6.4140   -0.2540   15.6790 C   0  0  0  0  0
    6.1700    1.3710   13.9110 C   0  0  0  0  0
   11.5894    6.5114   28.1894 H   0  0  0  0  0
    9.0444    7.1142   27.6344 H   0  0  0  0  0
    7.6012    8.3843   25.8850 H   0  0  0  0  0
    9.0194    9.0091   23.2130 H   0  0  0  0  0
    5.7044    8.8235   21.6067 H   0  0  0  0  0
    6.0713    6.7266   23.6586 H   0  0  0  0  0
    4.1190    7.1464   21.3567 H   0  0  0  0  0
    3.8116    6.3772   22.8297 H   0  0  0  0  0
    4.3900    4.9105   20.5448 H   0  0  0  0  0
    4.7698    4.2901   22.1271 H   0  0  0  0  0
    6.3721    2.5718   21.4770 H   0  0  0  0  0
    7.6172    0.9581   20.0192 H   0  0  0  0  0
    9.0902    4.2264   17.5774 H   0  0  0  0  0
   10.6565    0.9352   19.2754 H   0  0  0  0  0
   11.5127   -0.5485   17.1669 H   0  0  0  0  0
    8.1711    2.5361   15.0170 H   0  0  0  0  0
    6.9642    2.2045   16.3369 H   0  0  0  0  0
    7.8442    0.2605   14.3333 H   0  0  0  0  0
    7.1279   -0.7271   16.3532 H   0  0  0  0  0
    5.6344    0.2381   16.2605 H   0  0  0  0  0
    5.9657   -1.0097   15.0339 H   0  0  0  0  0
    5.3992    1.9017   14.4698 H   0  0  0  0  0
    6.7078    2.0736   13.2744 H   0  0  0  0  0
    5.7078    0.6003   13.2942 H   0  0  0  0  0
  1  2  1  0  0  0
  2  3  4  0  0  0
  2  5  4  0  0  0
  3  4  4  0  0  0
  4  6  4  0  0  0
  5  6  4  0  0  0
  6  7  1  0  0  0
  7  8  2  0  0  0
  8  9  1  0  0  0
  9 10  2  0  0  0
  9 11  2  0  0  0
  9 12  1  0  0  0
 12 13  1  0  0  0
 13 14  1  0  0  0
 13 16  1  0  0  0
 14 15  1  0  0  0
 15 18  1  0  0  0
 16 17  2  0  0  0
 16 18  1  0  0  0
 18 19  1  0  0  0
 19 20  4  0  0  0
 19 24  4  0  0  0
 20 21  4  0  0  0
 21 22  4  0  0  0
 22 23  4  0  0  0
 22 26  1  0  0  0
 23 24  4  0  0  0
 24 25  1  0  0  0
 26 27  4  0  0  0
 26 30  4  0  0  0
 27 28  4  0  0  0
 28 29  4  0  0  0
 29 30  4  0  0  0
 30 31  1  0  0  0
 31 32  1  0  0  0
 32 33  1  0  0  0
 32 34  1  0  0  0
  3 35  1  0  0  0
  4 36  1  0  0  0
  7 37  1  0  0  0
  8 38  1  0  0  0
 12 39  1  0  0  0
 13 40  1  0  0  0
 14 41  1  0  0  0
 14 42  1  0  0  0
 15 43  1  0  0  0
 15 44  1  0  0  0
 20 45  1  0  0  0
 21 46  1  0  0  0
 23 47  1  0  0  0
 27 48  1  0  0  0
 28 49  1  0  0  0
 31 50  1  0  0  0
 31 51  1  0  0  0
 32 52  1  0  0  0
 33 53  1  0  0  0
 33 54  1  0  0  0
 33 55  1  0  0  0
 34 56  1  0  0  0
 34 57  1  0  0  0
 34 58  1  0  0  0
M  END
$$$$
