4mvn_ligand
  -I-interpret- 

 39 40  0  0  0  0  0  0  0  0999 V2000
  -26.3130    6.7060  -13.9840 C   0  0  0  0  0
  -26.6380    5.5660  -14.6780 C   0  0  0  0  0
  -24.9900    7.1060  -13.7560 C   0  0  0  0  0
  -23.9540    6.2980  -14.2110 C   0  0  0  0  0
  -22.3020    2.4670  -12.1260 O   0  0  0  0  0
  -22.4300    3.8970  -12.0080 C   0  0  0  0  0
  -21.7180    4.6740  -12.8220 N   0  0  0  0  0
  -21.9250    6.1270  -12.6680 C   0  0  0  0  0
  -23.2220    4.2760  -11.1310 O   0  0  0  0  0
  -20.2760    6.8350  -12.4320 P   0  0  0  0  0
  -23.1610    1.6430  -11.2960 C   0  0  0  0  0
  -24.5500    1.3660  -11.8790 C   0  0  0  0  0
  -25.3540    0.3820  -11.2920 C   0  0  0  0  0
  -26.6170    0.1170  -11.8130 C   0  0  0  0  0
  -27.1080    0.8270  -12.9210 C   0  0  0  0  0
  -25.6060    4.7420  -15.1450 C   0  0  0  0  0
  -24.2870    5.1680  -14.9140 C   0  0  0  0  0
  -22.4520    6.6000  -13.9980 C   0  0  0  0  0
  -19.4660    6.8650  -13.7010 O   0  0  0  0  0
  -26.3200    1.8050  -13.5090 C   0  0  0  0  0
  -25.0460    2.0480  -12.9760 C   0  0  0  0  0
  -19.6910    6.3510  -11.0590 O   0  0  0  0  0
  -27.1197    7.3264  -13.5937 H   0  0  0  0  0
  -27.6807    5.3071  -14.8621 H   0  0  0  0  0
  -24.7760    8.0364  -13.2300 H   0  0  0  0  0
  -21.0700    4.2889  -13.5091 H   0  0  0  0  0
  -22.5946    6.3938  -11.8504 H   0  0  0  0  0
  -23.3133    2.1862  -10.3634 H   0  0  0  0  0
  -22.6654    0.6779  -11.1903 H   0  0  0  0  0
  -24.9916   -0.1757  -10.4284 H   0  0  0  0  0
  -27.2353   -0.6542  -11.3537 H   0  0  0  0  0
  -28.1008    0.6109  -13.3157 H   0  0  0  0  0
  -25.8175    3.8084  -15.6663 H   0  0  0  0  0
  -23.4767    4.5619  -15.3192 H   0  0  0  0  0
  -22.3279    7.6824  -14.0328 H   0  0  0  0  0
  -21.8989    6.0726  -14.7752 H   0  0  0  0  0
  -26.6828    2.3721  -14.3662 H   0  0  0  0  0
  -24.4198    2.8064  -13.4458 H   0  0  0  0  0
  -20.3706    6.4118  -10.3836 H   0  0  0  0  0
  1  2  4  0  0  0
  3  1  4  0  0  0
  2 16  4  0  0  0
  4  3  4  0  0  0
  4 17  4  0  0  0
 18  4  1  0  0  0
  6  5  1  0  0  0
  5 11  1  0  0  0
  7  6  1  0  0  0
  6  9  2  0  0  0
  8  7  1  0  0  0
  8 10  1  0  0  0
  8 18  1  0  0  0
 10 19  2  0  0  0
 10 22  1  0  0  0
 11 12  1  0  0  0
 12 13  4  0  0  0
 12 21  4  0  0  0
 13 14  4  0  0  0
 14 15  4  0  0  0
 15 20  4  0  0  0
 16 17  4  0  0  0
 20 21  4  0  0  0
  1 23  1  0  0  0
  2 24  1  0  0  0
  3 25  1  0  0  0
  7 26  1  0  0  0
  8 27  1  0  0  0
 11 28  1  0  0  0
 11 29  1  0  0  0
 13 30  1  0  0  0
 14 31  1  0  0  0
 15 32  1  0  0  0
 16 33  1  0  0  0
 17 34  1  0  0  0
 18 35  1  0  0  0
 18 36  1  0  0  0
 20 37  1  0  0  0
 21 38  1  0  0  0
 22 39  1  0  0  0
M  END
$$$$
