### 
### Created by X-TOOL on Mon Sep 10 21:13:17 2018
### 

@<TRIPOS>MOLECULE
4mvn_ligand
   39    40     1     0     0
SMALL
GAST_HUCK


@<TRIPOS>ATOM
      1 C4        -26.3130    6.7060  -13.9840 C.ar      1 I1S        -0.0686
      2 C5        -26.6380    5.5660  -14.6780 C.ar      1 I1S        -0.0687
      3 C6        -24.9900    7.1060  -13.7560 C.ar      1 I1S        -0.0602
      4 C7        -23.9540    6.2980  -14.2110 C.ar      1 I1S        -0.0393
      5 O8        -22.3020    2.4670  -12.1260 O.3       1 I1S        -0.2506
      6 C9        -22.4300    3.8970  -12.0080 C.2       1 I1S         0.3232
      7 N10       -21.7180    4.6740  -12.8220 N.am      1 I1S        -0.2421
      8 C11       -21.9250    6.1270  -12.6680 C.3       1 I1S         0.1149
      9 O12       -23.2220    4.2760  -11.1310 O.2       1 I1S        -0.3774
     10 P13       -20.2760    6.8350  -12.4320 P.3       1 I1S        -0.0016
     11 C17       -23.1610    1.6430  -11.2960 C.3       1 I1S         0.1113
     12 C18       -24.5500    1.3660  -11.8790 C.ar      1 I1S        -0.0130
     13 C19       -25.3540    0.3820  -11.2920 C.ar      1 I1S        -0.0578
     14 C20       -26.6170    0.1170  -11.8130 C.ar      1 I1S        -0.0685
     15 C21       -27.1080    0.8270  -12.9210 C.ar      1 I1S        -0.0687
     16 C22       -25.6060    4.7420  -15.1450 C.ar      1 I1S        -0.0686
     17 C23       -24.2870    5.1680  -14.9140 C.ar      1 I1S        -0.0602
     18 C24       -22.4520    6.6000  -13.9980 C.3       1 I1S         0.0203
     19 O2P       -19.4660    6.8650  -13.7010 O.co2     1 I1S        -0.6194
     20 C30       -26.3200    1.8050  -13.5090 C.ar      1 I1S        -0.0685
     21 C31       -25.0460    2.0480  -12.9760 C.ar      1 I1S        -0.0578
     22 O3P       -19.6910    6.3510  -11.0590 O.co2     1 I1S        -0.6194
     23 H1        -27.1153    7.3230  -13.5958 H         1 I1S         0.0599
     24 H2        -27.6750    5.3085  -14.8611 H         1 I1S         0.0559
     25 H3        -24.7772    8.0313  -13.2329 H         1 I1S         0.0557
     26 H4        -21.0827    4.2964  -13.4956 H         1 I1S         0.1888
     27 H5        -22.6051    6.3738  -11.8394 H         1 I1S         0.0785
     28 H6        -20.4418    7.8154  -12.2667 H         1 I1S         0.1508
     29 H7        -23.2916    2.1515  -10.3294 H         1 I1S         0.0776
     30 H8        -22.6585    0.6774  -11.1375 H         1 I1S         0.0776
     31 H9        -24.9936   -0.1726  -10.4332 H         1 I1S         0.0557
     32 H10       -27.2319   -0.6500  -11.3562 H         1 I1S         0.0599
     33 H11       -28.0953    0.6121  -13.3135 H         1 I1S         0.0559
     34 H12       -25.8163    3.8135  -15.6635 H         1 I1S         0.0599
     35 H13       -23.4812    4.5653  -15.3170 H         1 I1S         0.0557
     36 H14       -22.3031    7.6878  -14.0642 H         1 I1S         0.0465
     37 H15       -21.8806    6.1024  -14.7954 H         1 I1S         0.0465
     38 H16       -26.6808    2.3690  -14.3615 H         1 I1S         0.0599
     39 H17       -24.4232    2.8022  -13.4432 H         1 I1S         0.0557
@<TRIPOS>BOND
     1    1    2 ar 
     2    3    1 ar 
     3    2   16 ar 
     4    4    3 ar 
     5    4   17 ar 
     6   18    4 1  
     7    6    5 1  
     8    5   11 1  
     9    7    6 am 
    10    6    9 2  
    11    8    7 1  
    12    8   10 1  
    13    8   18 1  
    14   10   19 ar 
    15   10   22 ar 
    16   11   12 1  
    17   12   13 ar 
    18   12   21 ar 
    19   13   14 ar 
    20   14   15 ar 
    21   15   20 ar 
    22   16   17 ar 
    23   20   21 ar 
    24    1   23 1  
    25    2   24 1  
    26    3   25 1  
    27    7   26 1  
    28    8   27 1  
    29   10   28 1  
    30   11   29 1  
    31   11   30 1  
    32   13   31 1  
    33   14   32 1  
    34   15   33 1  
    35   16   34 1  
    36   17   35 1  
    37   18   36 1  
    38   18   37 1  
    39   20   38 1  
    40   21   39 1  
@<TRIPOS>SUBSTRUCTURE
     1 I1S         1

