1y3v_ligand
  -I-interpret- 

 65 71  0  0  0  0  0  0  0  0999 V2000
   -5.0050    9.5760   19.7650 N   0  0  0  0  0
   -3.7030    9.3060   19.6770 C   0  0  0  0  0
   -3.1170    8.0720   20.1150 C   0  0  0  0  0
   -3.8920    7.0540   20.7060 C   0  0  0  0  0
   -3.2920    5.8550   21.1510 C   0  0  0  0  0
   -1.9090    5.6490   21.0040 C   0  0  0  0  0
   -1.1910    4.4450   21.5740 C   0  0  0  0  0
   -2.1760    3.3050   21.5640 N   0  3  0  0  0
   -2.4460    2.8260   20.1660 C   0  0  0  0  0
   -1.5110    1.6200   19.9570 C   0  0  0  0  0
   -0.7340    1.3720   21.2340 C   0  0  0  0  0
   -1.4180    2.2270   22.3140 C   0  0  0  0  0
   -0.3090    2.9280   23.1680 C   0  0  0  0  0
    0.4940    2.7300   25.7200 C   0  0  0  0  0
   -0.6240    2.6950   24.6950 C   0  0  0  0  0
    0.2860    1.8040   26.9260 C   0  0  0  0  0
    1.2960    1.4090   25.8160 C   0  0  0  0  0
   -1.6440    3.6600   24.9970 N   0  0  0  0  0
   -1.7000    4.6950   24.0870 C   0  0  0  0  0
   -2.5800    5.6260   24.1040 O   0  0  0  0  0
   -0.6290    4.4520   23.0030 C   0  0  0  0  0
   -2.7190    3.6930   26.0810 C   0  0  0  0  0
   -2.5080    4.8160   27.1010 C   0  0  0  0  0
   -1.3270    4.8670   27.8580 C   0  0  0  0  0
   -1.2080    5.9140   28.8680 C   0  0  0  0  0
   -0.1330    6.1430   29.7330 O   0  0  0  0  0
   -0.5430    7.3060   30.5080 C   0  0  0  0  0
   -1.8750    7.7250   30.0780 O   0  0  0  0  0
   -2.2380    6.8470   29.0790 C   0  0  0  0  0
   -3.4200    6.7870   28.3330 C   0  0  0  0  0
   -3.5400    5.7810   27.3440 C   0  0  0  0  0
   -1.1200    6.6400   20.3720 C   0  0  0  0  0
   -1.7320    7.8220   19.9390 C   0  0  0  0  0
   -2.9870   10.3480   19.1140 N   0  0  0  0  0
   -5.3636   10.4717   19.4342 H   0  0  0  0  0
   -4.9669    7.1934   20.8211 H   0  0  0  0  0
   -3.9069    5.0824   21.6126 H   0  0  0  0  0
   -0.3065    4.3945   20.9389 H   0  0  0  0  0
   -3.0800    3.5585   21.9625 H   0  0  0  0  0
   -2.2578    3.6094   19.4319 H   0  0  0  0  0
   -3.4917    2.5485   20.0337 H   0  0  0  0  0
   -0.8197    1.8277   19.1403 H   0  0  0  0  0
   -2.0996    0.7372   19.7072 H   0  0  0  0  0
    0.3152    1.6440   21.1187 H   0  0  0  0  0
   -0.7395    0.3156   21.5025 H   0  0  0  0  0
   -2.0642    1.6307   22.9582 H   0  0  0  0  0
    0.6874    2.5898   22.8835 H   0  0  0  0  0
    0.7463    3.7833   25.5974 H   0  0  0  0  0
   -0.9057    1.6471   24.7979 H   0  0  0  0  0
   -0.5405    1.3527   27.4750 H   0  0  0  0  0
    0.2553    1.8750   28.0133 H   0  0  0  0  0
    2.3257    1.0630   25.7256 H   0  0  0  0  0
    1.5403    0.5476   25.1944 H   0  0  0  0  0
    0.1537    5.2023   23.1153 H   0  0  0  0  0
   -2.6777    2.7453   26.6179 H   0  0  0  0  0
   -3.6778    3.8651   25.5920 H   0  0  0  0  0
   -0.5242    4.1475   27.6967 H   0  0  0  0  0
    0.1652    8.1193   30.3494 H   0  0  0  0  0
   -0.5643    7.0505   31.5674 H   0  0  0  0  0
   -4.2282    7.4969   28.5088 H   0  0  0  0  0
   -4.4501    5.7387   26.7456 H   0  0  0  0  0
   -0.0512    6.4848   20.2247 H   0  0  0  0  0
   -1.1209    8.5792   19.4478 H   0  0  0  0  0
   -3.4685   11.1985   18.8221 H   0  0  0  0  0
   -1.9778   10.2655   18.9910 H   0  0  0  0  0
  1  2  2  0  0  0
  2  3  1  0  0  0
  2 34  1  0  0  0
  3  4  4  0  0  0
  3 33  4  0  0  0
  4  5  4  0  0  0
  5  6  4  0  0  0
  6  7  1  0  0  0
  6 32  4  0  0  0
  7  8  1  0  0  0
  7 21  1  0  0  0
  8  9  1  0  0  0
  8 12  1  0  0  0
  9 10  1  0  0  0
 10 11  1  0  0  0
 11 12  1  0  0  0
 12 13  1  0  0  0
 13 15  1  0  0  0
 13 21  1  0  0  0
 15 14  1  0  0  0
 14 16  1  0  0  0
 14 17  1  0  0  0
 15 18  1  0  0  0
 16 17  1  0  0  0
 18 19  1  0  0  0
 18 22  1  0  0  0
 19 20  2  0  0  0
 19 21  1  0  0  0
 22 23  1  0  0  0
 23 24  4  0  0  0
 23 31  4  0  0  0
 24 25  4  0  0  0
 25 26  1  0  0  0
 25 29  4  0  0  0
 26 27  1  0  0  0
 27 28  1  0  0  0
 28 29  1  0  0  0
 29 30  4  0  0  0
 30 31  4  0  0  0
 32 33  4  0  0  0
  1 35  1  0  0  0
  4 36  1  0  0  0
  5 37  1  0  0  0
  7 38  1  0  0  0
  8 39  1  0  0  0
  9 40  1  0  0  0
  9 41  1  0  0  0
 10 42  1  0  0  0
 10 43  1  0  0  0
 11 44  1  0  0  0
 11 45  1  0  0  0
 12 46  1  0  0  0
 13 47  1  0  0  0
 14 48  1  0  0  0
 15 49  1  0  0  0
 16 50  1  0  0  0
 16 51  1  0  0  0
 17 52  1  0  0  0
 17 53  1  0  0  0
 21 54  1  0  0  0
 22 55  1  0  0  0
 22 56  1  0  0  0
 24 57  1  0  0  0
 27 58  1  0  0  0
 27 59  1  0  0  0
 30 60  1  0  0  0
 31 61  1  0  0  0
 32 62  1  0  0  0
 33 63  1  0  0  0
 34 64  1  0  0  0
 34 65  1  0  0  0
M  END
$$$$
