4v01_ligand
  -I-interpret- 

 68 72  0  0  0  0  0  0  0  0999 V2000
   87.5270   -1.0350    9.3780 N   0  0  0  0  0
   86.1450    0.6980   25.2140 N   0  3  0  0  0
   88.6280    1.5950   13.2710 C   0  0  0  0  0
   89.0850    2.0320   14.5640 C   0  0  0  0  0
   90.1840    2.8590   14.7050 C   0  0  0  0  0
   90.6160    3.2310   15.9590 C   0  0  0  0  0
   89.9700    2.7710   17.0890 C   0  0  0  0  0
   88.4420    1.5710   15.6940 C   0  0  0  0  0
   88.1410    1.2030   20.5500 C   0  0  0  0  0
   87.7200    1.4630   22.8920 C   0  0  0  0  0
   87.1200   -0.5710   21.8060 C   0  0  0  0  0
   86.6770   -0.3210   24.2720 C   0  0  0  0  0
   84.8130    1.2230   24.8390 C   0  0  0  0  0
   84.6190    2.4880   25.6440 C   0  0  0  0  0
   86.1980    0.2840   26.6470 C   0  0  0  0  0
   85.8320    0.2520    8.1240 C   0  0  0  0  0
   85.1300    1.3880    8.0900 C   0  0  0  0  0
   85.3960    2.3170    9.2090 C   0  0  0  0  0
   86.2230    2.1310   10.1880 N   0  0  0  0  0
   86.8770    0.9500   10.1180 N   0  0  0  0  0
   86.7410   -0.0030    9.1550 C   0  0  0  0  0
   88.1870   -0.7320   10.5420 C   0  0  0  0  0
   87.8060    0.4990   11.0150 C   0  0  0  0  0
   88.2520    1.1390   12.2180 C   0  0  0  0  0
   88.8810    1.9390   16.9460 C   0  0  0  0  0
   90.8980    3.3380   13.4960 C   0  0  0  0  0
   88.1480    1.4090   18.1140 C   0  0  0  0  0
   87.1850    0.6870   17.9100 O   0  0  0  0  0
   88.6400    1.7560   19.3560 N   0  0  0  0  0
   88.1960    1.9660   21.6990 C   0  0  0  0  0
   87.1790    0.1930   22.9590 C   0  0  0  0  0
   87.6020   -0.0650   20.6150 C   0  0  0  0  0
   86.5530   -1.9500   21.8310 C   0  0  0  0  0
   87.2060   -2.7300   22.7220 F   0  0  0  0  0
   85.2390   -2.0060   22.1320 F   0  0  0  0  0
   86.6350   -2.6340   20.6690 F   0  0  0  0  0
   85.8220    1.4380   27.5690 C   0  0  0  0  0
   84.0810    3.1610   27.9440 C   0  0  0  0  0
   84.5730    2.0690   27.0750 N   0  3  0  0  0
   86.7949    1.4785   25.1205 H   0  0  0  0  0
   91.4751    3.8942   16.0599 H   0  0  0  0  0
   90.3166    3.0619   18.0806 H   0  0  0  0  0
   87.5804    0.9108   15.5950 H   0  0  0  0  0
   87.7712    2.0746   23.7928 H   0  0  0  0  0
   85.8451   -0.9864   24.0410 H   0  0  0  0  0
   87.5335   -0.7773   24.7683 H   0  0  0  0  0
   84.0290    0.4964   25.0522 H   0  0  0  0  0
   84.7559    1.4243   23.7693 H   0  0  0  0  0
   83.7012    3.0002   25.3552 H   0  0  0  0  0
   85.4306    3.1939   25.4675 H   0  0  0  0  0
   87.2151   -0.0305   26.8807 H   0  0  0  0  0
   85.4885   -0.5291   26.8005 H   0  0  0  0  0
   85.6939   -0.4877    7.3355 H   0  0  0  0  0
   84.4158    1.6128    7.2979 H   0  0  0  0  0
   84.8392    3.2541    9.2100 H   0  0  0  0  0
   88.9161   -1.3816   11.0262 H   0  0  0  0  0
   91.2752    2.4826   12.9355 H   0  0  0  0  0
   90.2104    3.9085   12.8716 H   0  0  0  0  0
   91.7312    3.9736   13.7956 H   0  0  0  0  0
   89.3947    2.4400   19.4106 H   0  0  0  0  0
   88.6175    2.9706   21.6635 H   0  0  0  0  0
   87.5559   -0.6762   19.7136 H   0  0  0  0  0
   86.6251    2.1749   27.5795 H   0  0  0  0  0
   85.6674    1.0629   28.5807 H   0  0  0  0  0
   84.7456    4.0205   27.8567 H   0  0  0  0  0
   83.0752    3.4448   27.6344 H   0  0  0  0  0
   84.0611    2.8192   28.9788 H   0  0  0  0  0
   83.8874    1.3154   27.1246 H   0  0  0  0  0
  1 21  4  0  0  0
 22  1  4  0  0  0
 12  2  1  0  0  0
  2 13  1  0  0  0
  2 15  1  0  0  0
  4  3  1  0  0  0
  3 24  3  0  0  0
  4  5  4  0  0  0
  8  4  4  0  0  0
  6  5  4  0  0  0
  5 26  1  0  0  0
  7  6  4  0  0  0
 25  7  4  0  0  0
 25  8  4  0  0  0
 29  9  1  0  0  0
  9 30  4  0  0  0
  9 32  4  0  0  0
 30 10  4  0  0  0
 10 31  4  0  0  0
 11 31  4  0  0  0
 32 11  4  0  0  0
 11 33  1  0  0  0
 31 12  1  0  0  0
 13 14  1  0  0  0
 14 39  1  0  0  0
 15 37  1  0  0  0
 16 17  4  0  0  0
 21 16  4  0  0  0
 18 17  4  0  0  0
 19 18  4  0  0  0
 20 19  4  0  0  0
 20 21  4  0  0  0
 23 20  4  0  0  0
 23 22  4  0  0  0
 24 23  1  0  0  0
 27 25  1  0  0  0
 27 28  2  0  0  0
 27 29  1  0  0  0
 33 34  1  0  0  0
 33 35  1  0  0  0
 33 36  1  0  0  0
 37 39  1  0  0  0
 39 38  1  0  0  0
  2 40  1  0  0  0
  6 41  1  0  0  0
  7 42  1  0  0  0
  8 43  1  0  0  0
 10 44  1  0  0  0
 12 45  1  0  0  0
 12 46  1  0  0  0
 13 47  1  0  0  0
 13 48  1  0  0  0
 14 49  1  0  0  0
 14 50  1  0  0  0
 15 51  1  0  0  0
 15 52  1  0  0  0
 16 53  1  0  0  0
 17 54  1  0  0  0
 18 55  1  0  0  0
 22 56  1  0  0  0
 26 57  1  0  0  0
 26 58  1  0  0  0
 26 59  1  0  0  0
 29 60  1  0  0  0
 30 61  1  0  0  0
 32 62  1  0  0  0
 37 63  1  0  0  0
 37 64  1  0  0  0
 38 65  1  0  0  0
 38 66  1  0  0  0
 38 67  1  0  0  0
 39 68  1  0  0  0
M  END
$$$$
