### 
### Created by X-TOOL on Mon Sep 10 21:13:33 2018
### 

@<TRIPOS>MOLECULE
5T66_LIGAND
   42    44     1     0     0
SMALL
GAST_HUCK


@<TRIPOS>ATOM
      1 O01       -41.7540    5.6030   19.6000 O.3       1 C6S        -0.8710
      2 B02       -41.3270    5.2940   20.8500 B         1 C6S         3.0000
      3 O03       -39.9830    5.4590   20.8890 O.3       1 C6S        -0.1792
      4 C04       -39.1730    4.3120   20.6050 C.ar      1 C6S         0.0514
      5 C05       -39.5620    3.0600   21.0820 C.ar      1 C6S        -0.1337
      6 C06       -40.8690    3.0060   21.8990 C.3       1 C6S        -0.1581
      7 C07       -41.8670    3.8750   21.2120 C.3       1 C6S        -0.2224
      8 N08       -42.1580    3.1710   19.9320 N.am      1 C6S        -0.4368
      9 C09       -42.7940    1.8130   19.9010 C.2       1 C6S         0.1509
     10 O10       -43.1110    1.2270   20.9090 O.2       1 C6S        -0.3993
     11 C11       -43.0140    1.1800   18.4650 C.3       1 C6S         0.0462
     12 C12       -44.1960    0.1870   18.4450 C.3       1 C6S        -0.0333
     13 C13       -44.3570   -0.3690   17.0570 C.3       1 C6S        -0.0507
     14 C14       -43.0800   -1.0270   16.5630 C.3       1 C6S        -0.0528
     15 C15       -41.8340   -0.1230   16.7100 C.3       1 C6S        -0.0507
     16 C16       -41.7280    0.4900   18.0790 C.3       1 C6S        -0.0333
     17 C17       -38.7890    1.9340   20.7970 C.ar      1 C6S        -0.1745
     18 C18       -37.6190    2.0750   20.0450 C.ar      1 C6S        -0.1672
     19 C19       -37.2240    3.3520   19.5700 C.ar      1 C6S        -0.1625
     20 C20       -37.9980    4.4580   19.8430 C.ar      1 C6S        -0.0834
     21 C21       -37.5690    5.8480   19.3410 C.2       1 C6S        -0.0182
     22 O22       -37.4550    6.0930   18.1240 O.co2     1 C6S        -0.5976
     23 O23       -37.3320    6.7300   20.1820 O.co2     1 C6S        -0.5976
     24 H         -41.3303    5.0206   18.9652 H         1 C6S        -0.1290
     25 H         -40.6960    3.3570   22.9163 H         1 C6S        -0.0002
     26 H         -41.2362    1.9816   21.9613 H         1 C6S        -0.0002
     27 H         -42.7226    4.0277   21.8699 H         1 C6S        -0.1809
     28 H         -41.9178    3.6256   19.0511 H         1 C6S         0.1460
     29 H         -43.2660    1.9644   17.7514 H         1 C6S         0.0537
     30 H         -45.1101    0.7029   18.7390 H         1 C6S         0.0292
     31 H         -43.9997   -0.6269   19.1429 H         1 C6S         0.0292
     32 H         -44.6020    0.4529   16.3843 H         1 C6S         0.0267
     33 H         -45.1450   -1.1218   17.0781 H         1 C6S         0.0267
     34 H         -43.2083   -1.2433   15.5024 H         1 C6S         0.0265
     35 H         -42.9136   -1.9200   17.1655 H         1 C6S         0.0265
     36 H         -41.9170    0.6859   15.9841 H         1 C6S         0.0267
     37 H         -40.9496   -0.7390   16.5472 H         1 C6S         0.0267
     38 H         -41.5256   -0.3009   18.8012 H         1 C6S         0.0292
     39 H         -40.9250    1.2271   18.0705 H         1 C6S         0.0292
     40 H         -39.0950    0.9520   21.1579 H         1 C6S        -0.0243
     41 H         -37.0078    1.2003   19.8228 H         1 C6S         0.0254
     42 H         -36.3079    3.4579   18.9889 H         1 C6S         0.0065
@<TRIPOS>BOND
     1    1    2 1  
     2    2    3 1  
     3    2    7 1  
     4    3    4 1  
     5    4    5 ar 
     6    4   20 ar 
     7    5    6 1  
     8    5   17 ar 
     9    6    7 1  
    10    7    8 1  
    11    8    9 am 
    12    9   10 2  
    13    9   11 1  
    14   11   12 1  
    15   11   16 1  
    16   12   13 1  
    17   13   14 1  
    18   14   15 1  
    19   15   16 1  
    20   17   18 ar 
    21   18   19 ar 
    22   19   20 ar 
    23   20   21 1  
    24   21   22 ar 
    25   21   23 ar 
    26    1   24 1  
    27    6   25 1  
    28    6   26 1  
    29    7   27 1  
    30    8   28 1  
    31   11   29 1  
    32   12   30 1  
    33   12   31 1  
    34   13   32 1  
    35   13   33 1  
    36   14   34 1  
    37   14   35 1  
    38   15   36 1  
    39   15   37 1  
    40   16   38 1  
    41   16   39 1  
    42   17   40 1  
    43   18   41 1  
    44   19   42 1  
@<TRIPOS>SUBSTRUCTURE
     1 C6S         1

