5T66_LIGAND
  -I-interpret- 

 43 45  0  0  0  0  0  0  0  0999 V2000
  -41.7540    5.6030   19.6000 O   0  0  0  0  0
  -41.3270    5.2940   20.8500 B   0  0  0  0  0
  -39.9830    5.4590   20.8890 O   0  0  0  0  0
  -39.1730    4.3120   20.6050 C   0  0  0  0  0
  -39.5620    3.0600   21.0820 C   0  0  0  0  0
  -40.8690    3.0060   21.8990 C   0  0  0  0  0
  -41.8670    3.8750   21.2120 C   0  0  0  0  0
  -42.1580    3.1710   19.9320 N   0  0  0  0  0
  -42.7940    1.8130   19.9010 C   0  0  0  0  0
  -43.1110    1.2270   20.9090 O   0  0  0  0  0
  -43.0140    1.1800   18.4650 C   0  0  0  0  0
  -44.1960    0.1870   18.4450 C   0  0  0  0  0
  -44.3570   -0.3690   17.0570 C   0  0  0  0  0
  -43.0800   -1.0270   16.5630 C   0  0  0  0  0
  -41.8340   -0.1230   16.7100 C   0  0  0  0  0
  -41.7280    0.4900   18.0790 C   0  0  0  0  0
  -38.7890    1.9340   20.7970 C   0  0  0  0  0
  -37.6190    2.0750   20.0450 C   0  0  0  0  0
  -37.2240    3.3520   19.5700 C   0  0  0  0  0
  -37.9980    4.4580   19.8430 C   0  0  0  0  0
  -37.5690    5.8480   19.3410 C   0  0  0  0  0
  -37.4550    6.0930   18.1240 O   0  0  0  0  0
  -37.3320    6.7300   20.1820 O   0  0  0  0  0
  -41.4311    6.4744   19.3590 H   0  0  0  0  0
  -40.6960    3.3570   22.9163 H   0  0  0  0  0
  -41.2362    1.9816   21.9613 H   0  0  0  0  0
  -42.7226    4.0277   21.8699 H   0  0  0  0  0
  -41.9178    3.6256   19.0511 H   0  0  0  0  0
  -43.2660    1.9644   17.7514 H   0  0  0  0  0
  -45.1101    0.7029   18.7390 H   0  0  0  0  0
  -43.9997   -0.6269   19.1429 H   0  0  0  0  0
  -44.6020    0.4529   16.3843 H   0  0  0  0  0
  -45.1450   -1.1218   17.0781 H   0  0  0  0  0
  -43.2083   -1.2433   15.5024 H   0  0  0  0  0
  -42.9136   -1.9200   17.1655 H   0  0  0  0  0
  -41.9170    0.6859   15.9841 H   0  0  0  0  0
  -40.9496   -0.7390   16.5472 H   0  0  0  0  0
  -41.5256   -0.3009   18.8012 H   0  0  0  0  0
  -40.9250    1.2271   18.0705 H   0  0  0  0  0
  -39.0950    0.9520   21.1579 H   0  0  0  0  0
  -37.0078    1.2003   19.8228 H   0  0  0  0  0
  -36.3079    3.4579   18.9889 H   0  0  0  0  0
  -37.6743    5.3069   17.6186 H   0  0  0  0  0
  1  2  1  0  0  0
  2  3  1  0  0  0
  2  7  1  0  0  0
  3  4  1  0  0  0
  4  5  4  0  0  0
  4 20  4  0  0  0
  5  6  1  0  0  0
  5 17  4  0  0  0
  6  7  1  0  0  0
  7  8  1  0  0  0
  8  9  1  0  0  0
  9 10  2  0  0  0
  9 11  1  0  0  0
 11 12  1  0  0  0
 11 16  1  0  0  0
 12 13  1  0  0  0
 13 14  1  0  0  0
 14 15  1  0  0  0
 15 16  1  0  0  0
 17 18  4  0  0  0
 18 19  4  0  0  0
 19 20  4  0  0  0
 20 21  1  0  0  0
 21 22  1  0  0  0
 21 23  2  0  0  0
  1 24  1  0  0  0
  6 25  1  0  0  0
  6 26  1  0  0  0
  7 27  1  0  0  0
  8 28  1  0  0  0
 11 29  1  0  0  0
 12 30  1  0  0  0
 12 31  1  0  0  0
 13 32  1  0  0  0
 13 33  1  0  0  0
 14 34  1  0  0  0
 14 35  1  0  0  0
 15 36  1  0  0  0
 15 37  1  0  0  0
 16 38  1  0  0  0
 16 39  1  0  0  0
 17 40  1  0  0  0
 18 41  1  0  0  0
 19 42  1  0  0  0
 22 43  1  0  0  0
M  END
$$$$
