2ym5_ligand
  -I-interpret- 

 46 49  0  0  0  0  0  0  0  0999 V2000
   20.2470   -5.0230   12.9460 N   0  3  0  0  0
   19.9020   -4.0530   11.9660 C   0  0  0  0  0
   18.4250   -3.4730   12.0110 C   0  0  0  0  0
   18.2640   -2.3480   11.0400 C   0  0  0  0  0
   16.9510   -1.8510   11.1470 N   0  0  0  0  0
   16.7990   -0.6780   10.3210 C   0  0  0  0  0
   17.8950   -0.2440    9.6290 N   0  0  0  0  0
   17.8750    0.8650    8.8060 C   0  0  0  0  0
   16.7490    1.5590    8.6730 N   0  0  0  0  0
   15.5900    1.1810    9.3540 C   0  0  0  0  0
   14.3850    1.7450    9.3460 N   0  0  0  0  0
   13.5250    1.0170   10.1900 C   0  0  0  0  0
   14.2340   -0.0180   10.7050 C   0  0  0  0  0
   13.7230   -0.9520   11.6200 C   0  0  0  0  0
   12.4190   -1.4870   11.4300 C   0  0  0  0  0
   11.9000   -2.3570   12.3310 C   0  0  0  0  0
   12.6440   -2.7310   13.4900 C   0  0  0  0  0
   13.9410   -2.1810   13.6970 C   0  0  0  0  0
   14.7680   -2.5850   14.9630 C   0  0  0  0  0
   14.9130   -1.6290   15.9930 O   0  0  0  0  0
   14.4590   -1.3060   12.8010 C   0  0  0  0  0
   15.5890    0.0480   10.2000 C   0  0  0  0  0
   16.0370   -2.8570   10.7620 C   0  0  0  0  0
   16.1480   -4.0180   11.7010 C   0  0  0  0  0
   17.4700   -4.4970   11.7910 O   0  0  0  0  0
   21.2153   -5.3130   12.8094 H   0  0  0  0  0
   20.1401   -4.6179   13.8760 H   0  0  0  0  0
   19.6323   -5.8317   12.8534 H   0  0  0  0  0
   19.9934   -4.5575   11.0041 H   0  0  0  0  0
   20.5602   -3.2029   12.1454 H   0  0  0  0  0
   18.2467   -3.0716   13.0086 H   0  0  0  0  0
   18.4464   -2.7027   10.0256 H   0  0  0  0  0
   18.9807   -1.5577   11.2635 H   0  0  0  0  0
   18.7745    1.1685    8.2703 H   0  0  0  0  0
   12.4784    1.2442   10.3929 H   0  0  0  0  0
   11.8348   -1.1965   10.5568 H   0  0  0  0  0
   10.9062   -2.7743   12.1688 H   0  0  0  0  0
   12.2229   -3.4319   14.2108 H   0  0  0  0  0
   15.7782   -2.7748   14.6002 H   0  0  0  0  0
   14.2219   -3.4142   15.4128 H   0  0  0  0  0
   15.4381   -2.0035   16.7040 H   0  0  0  0  0
   15.4412   -0.8679   12.9781 H   0  0  0  0  0
   16.2650   -3.1865    9.7483 H   0  0  0  0  0
   15.0230   -2.4586   10.7951 H   0  0  0  0  0
   15.5177   -4.8235   11.3242 H   0  0  0  0  0
   15.8364   -3.6871   12.6917 H   0  0  0  0  0
  1  2  1  0  0  0
  2  3  1  0  0  0
  3  4  1  0  0  0
  3 25  1  0  0  0
  4  5  1  0  0  0
  5  6  1  0  0  0
  5 23  1  0  0  0
  6  7  4  0  0  0
  6 22  4  0  0  0
  7  8  4  0  0  0
  8  9  4  0  0  0
  9 10  4  0  0  0
 10 11  4  0  0  0
 10 22  4  0  0  0
 11 12  4  0  0  0
 12 13  4  0  0  0
 13 14  1  0  0  0
 13 22  4  0  0  0
 14 15  4  0  0  0
 14 21  4  0  0  0
 15 16  4  0  0  0
 16 17  4  0  0  0
 17 18  4  0  0  0
 18 19  1  0  0  0
 18 21  4  0  0  0
 19 20  1  0  0  0
 23 24  1  0  0  0
 24 25  1  0  0  0
  1 26  1  0  0  0
  1 27  1  0  0  0
  1 28  1  0  0  0
  2 29  1  0  0  0
  2 30  1  0  0  0
  3 31  1  0  0  0
  4 32  1  0  0  0
  4 33  1  0  0  0
  8 34  1  0  0  0
 12 35  1  0  0  0
 15 36  1  0  0  0
 16 37  1  0  0  0
 17 38  1  0  0  0
 19 39  1  0  0  0
 19 40  1  0  0  0
 20 41  1  0  0  0
 21 42  1  0  0  0
 23 43  1  0  0  0
 23 44  1  0  0  0
 24 45  1  0  0  0
 24 46  1  0  0  0
M  END
$$$$
