1h00_ligand
  -I-interpret- 

 54 56  0  0  0  0  0  0  0  0999 V2000
    3.7950   28.5970    6.0100 C   0  0  0  0  0
    0.3260   33.1000    7.8560 C   0  0  0  0  0
    1.6140   31.1970    7.6890 C   0  0  0  0  0
    0.7130   30.5170    8.5790 C   0  0  0  0  0
   -0.4010   31.2770    9.0660 C   0  0  0  0  0
    3.4120   29.2380    7.2190 C   0  0  0  0  0
    3.6480   28.5750    8.4680 C   0  0  0  0  0
    4.2480   27.2990    8.5010 C   0  0  0  0  0
    4.6280   26.6560    7.2930 C   0  0  0  0  0
   -0.5690   32.5630    8.6890 N   0  0  0  0  0
    1.3960   32.4840    7.3450 N   0  0  0  0  0
   -1.3980   30.7320    9.9800 N   0  0  0  0  0
    2.7940   30.5570    7.1260 N   0  0  0  0  0
    4.3990   27.3140    6.0420 C   0  0  0  0  0
    5.2070   25.3980    7.4400 O   0  0  0  0  0
    4.4640   24.1590    7.6170 C   0  0  0  0  0
   -1.7340   27.4480   12.7920 C   0  0  0  0  0
   -2.8640   27.9370   12.0910 C   0  0  0  0  0
   -2.7310   29.0150   11.1770 C   0  0  0  0  0
   -1.4540   29.6170   10.9470 C   0  0  0  0  0
   -0.4620   28.0280   12.5840 C   0  0  0  0  0
   -0.3090   29.1050   11.6740 C   0  0  0  0  0
   -3.8490   29.4590   10.5210 F   0  0  0  0  0
    0.9450   29.6210   11.5160 F   0  0  0  0  0
    5.3960   22.9350    7.6620 C   0  0  0  0  0
    4.7670   21.5370    7.4440 C   0  0  0  0  0
    5.6170   20.3410    7.7610 N   0  3  0  0  0
    6.4420   19.8810    6.6120 C   0  0  0  0  0
    4.8050   19.2050    8.2910 C   0  0  0  0  0
    6.2510   22.9720    8.7540 O   0  0  0  0  0
    3.6240   29.0930    5.0546 H   0  0  0  0  0
    0.1689   34.1388    7.5655 H   0  0  0  0  0
    0.8686   29.4777    8.8686 H   0  0  0  0  0
    3.3612   29.0613    9.4004 H   0  0  0  0  0
    4.4207   26.8046    9.4570 H   0  0  0  0  0
   -2.2758   31.2501    9.9420 H   0  0  0  0  0
    3.3180   31.1849    6.5164 H   0  0  0  0  0
    4.6898   26.8273    5.1111 H   0  0  0  0  0
    3.7859   24.0424    6.7716 H   0  0  0  0  0
    3.9256   24.2146    8.5631 H   0  0  0  0  0
   -1.8460   26.6218   13.4940 H   0  0  0  0  0
   -3.8413   27.4828   12.2545 H   0  0  0  0  0
    0.4041   27.6464   13.1247 H   0  0  0  0  0
    5.9806   23.0546    6.7499 H   0  0  0  0  0
    4.5545   21.4728    6.3768 H   0  0  0  0  0
    3.9195   21.4855    8.1275 H   0  0  0  0  0
    6.2590   20.6568    8.4880 H   0  0  0  0  0
    5.7886   19.6085    5.7832 H   0  0  0  0  0
    7.1096   20.6845    6.3009 H   0  0  0  0  0
    7.0303   19.0141    6.9128 H   0  0  0  0  0
    4.2992   19.5168    9.2048 H   0  0  0  0  0
    4.0649   18.9108    7.5468 H   0  0  0  0  0
    5.4604   18.3612    8.5068 H   0  0  0  0  0
    6.8133   22.1939    8.7453 H   0  0  0  0  0
  6  1  4  0  0  0
  1 14  4  0  0  0
  4  3  4  0  0  0
  5  4  4  0  0  0
  6  7  4  0  0  0
 13  6  1  0  0  0
  7  8  4  0  0  0
  8  9  4  0  0  0
 14  9  4  0  0  0
  9 15  1  0  0  0
  3 13  1  0  0  0
 15 16  1  0  0  0
 16 25  1  0  0  0
 18 17  4  0  0  0
 21 17  4  0  0  0
 19 18  4  0  0  0
 20 19  4  0  0  0
 19 23  1  0  0  0
 20 22  4  0  0  0
 22 21  4  0  0  0
 22 24  1  0  0  0
 25 26  1  0  0  0
 25 30  1  0  0  0
 26 27  1  0  0  0
 27 28  1  0  0  0
 27 29  1  0  0  0
 12 20  1  0  0  0
  5 12  1  0  0  0
  3 11  4  0  0  0
 11  2  4  0  0  0
  5 10  4  0  0  0
 10  2  4  0  0  0
  1 31  1  0  0  0
  2 32  1  0  0  0
  4 33  1  0  0  0
  7 34  1  0  0  0
  8 35  1  0  0  0
 12 36  1  0  0  0
 13 37  1  0  0  0
 14 38  1  0  0  0
 16 39  1  0  0  0
 16 40  1  0  0  0
 17 41  1  0  0  0
 18 42  1  0  0  0
 21 43  1  0  0  0
 25 44  1  0  0  0
 26 45  1  0  0  0
 26 46  1  0  0  0
 27 47  1  0  0  0
 28 48  1  0  0  0
 28 49  1  0  0  0
 28 50  1  0  0  0
 29 51  1  0  0  0
 29 52  1  0  0  0
 29 53  1  0  0  0
 30 54  1  0  0  0
M  END
$$$$
