1bxq_ligand
  -I-interpret- 

 90 90  0  0  0  0  0  0  0  0999 V2000
   17.8320    5.2860   18.4190 N   0  0  0  0  0
   15.9120    4.0050   17.5700 C   0  0  0  0  0
   19.0790    5.6070   19.0680 C   0  0  0  0  0
   14.6320    3.8110   18.3760 C   0  0  0  0  0
   20.3030    5.5530   18.1680 C   0  0  0  0  0
   14.4710    4.9390   19.3820 C   0  0  0  0  0
   20.5040    4.1890   17.5240 C   0  0  0  0  0
   13.4430    3.8340   17.4010 C   0  0  0  0  0
   20.3630    6.6440   17.1180 C   0  0  0  0  0
   17.1080    4.1910   18.5110 C   0  0  0  0  0
   18.9500    7.0010   19.7110 C   0  0  0  0  0
   17.4690    3.3090   19.2930 O   0  0  0  0  0
   18.0990    7.8140   19.3640 O   0  0  0  0  0
   19.8370    7.2350   20.6840 N   0  0  0  0  0
   19.8160    8.4200   21.5280 C   0  0  0  0  0
   18.9670    8.2870   22.7540 C   0  0  0  0  0
   18.9430    9.4570   23.7210 C   0  0  0  0  0
   18.8230    9.1030   24.9170 O   0  0  0  0  0
   19.0480   10.7380   23.4230 N   0  0  0  0  0
   21.2630    8.8130   21.7810 C   0  0  0  0  0
   21.8280    8.4580   22.8110 O   0  0  0  0  0
   21.8590    9.5010   20.8020 N   0  0  0  0  0
   23.2410    9.9210   20.7380 C   0  0  0  0  0
   23.9850    9.4030   19.5150 C   0  0  0  0  0
   23.7190    7.9470   19.1750 C   0  0  0  0  0
   24.4010    7.5330   17.8850 C   0  0  0  0  0
   24.1640    7.0130   20.3000 C   0  0  0  0  0
   23.4010   11.6970   20.9410 P   0  0  0  0  0
   22.4630   12.3340   19.9930 O   0  0  0  0  0
   24.8440   12.0810   20.8150 O   0  0  0  0  0
   22.9220   12.0060   22.3990 O   0  0  0  0  0
   23.5630   12.9600   23.1660 C   0  0  0  0  0
   22.5630   14.0090   23.7430 C   0  0  0  0  0
   25.4640   12.8530   26.3700 C   0  0  0  0  0
   21.6500   13.5740   24.8720 C   0  0  0  0  0
   21.3300   14.4610   25.8960 C   0  0  0  0  0
   21.1210   12.3000   24.9100 C   0  0  0  0  0
   20.4960   14.0630   26.9270 C   0  0  0  0  0
   20.0140   12.7620   26.8840 C   0  0  0  0  0
   20.2840   11.8200   25.8950 C   0  0  0  0  0
   24.3240   12.3790   24.3790 C   0  0  0  0  0
   24.7470   13.2270   25.2110 O   0  0  0  0  0
   24.4260   11.1470   24.5140 O   0  0  0  0  0
   17.4592    6.0083   17.8028 H   0  0  0  0  0
   16.0798    3.1244   16.9499 H   0  0  0  0  0
   15.8088    4.8920   16.9450 H   0  0  0  0  0
   19.2506    4.8328   19.8158 H   0  0  0  0  0
   14.6746    2.8632   18.9126 H   0  0  0  0  0
   21.1308    5.7371   18.8528 H   0  0  0  0  0
   14.4459    5.8930   18.8553 H   0  0  0  0  0
   13.5407    4.8023   19.9334 H   0  0  0  0  0
   15.3113    4.9277   20.0761 H   0  0  0  0  0
   19.7198    4.0177   16.7866 H   0  0  0  0  0
   21.4775    4.1596   17.0345 H   0  0  0  0  0
   20.4582    3.4161   18.2912 H   0  0  0  0  0
   13.4185    4.7924   16.8824 H   0  0  0  0  0
   13.5549    3.0291   16.6745 H   0  0  0  0  0
   12.5158    3.6967   17.9574 H   0  0  0  0  0
   21.3361    6.6212   16.6274 H   0  0  0  0  0
   19.5784    6.4793   16.3795 H   0  0  0  0  0
   20.2175    7.6135   17.5945 H   0  0  0  0  0
   20.5698    6.5436   20.8435 H   0  0  0  0  0
   19.3102    9.2375   21.0143 H   0  0  0  0  0
   19.3893    7.4526   23.3139 H   0  0  0  0  0
   17.9439    8.1845   22.3924 H   0  0  0  0  0
   19.0314   11.4373   24.1653 H   0  0  0  0  0
   19.1458   11.0290   22.4503 H   0  0  0  0  0
   21.2714    9.7593   20.0093 H   0  0  0  0  0
   23.7374    9.4498   21.5863 H   0  0  0  0  0
   25.0495    9.4868   19.7339 H   0  0  0  0  0
   23.6441    9.9933   18.6645 H   0  0  0  0  0
   22.6402    7.8590   19.0461 H   0  0  0  0  0
   24.0299    8.1486   17.0656 H   0  0  0  0  0
   25.4778    7.6694   17.9848 H   0  0  0  0  0
   24.1836    6.4846   17.6808 H   0  0  0  0  0
   25.2335    7.1360   20.4710 H   0  0  0  0  0
   23.6185    7.2582   21.2112 H   0  0  0  0  0
   23.9563    5.9810   20.0172 H   0  0  0  0  0
   25.3580   11.6106   21.4754 H   0  0  0  0  0
   24.2707   13.4151   22.4731 H   0  0  0  0  0
   21.9000   14.2626   22.9158 H   0  0  0  0  0
   23.1838   14.8012   24.1615 H   0  0  0  0  0
   24.8440   12.2000   26.9843 H   0  0  0  0  0
   26.3725   12.3256   26.0792 H   0  0  0  0  0
   25.7265   13.7460   26.9372 H   0  0  0  0  0
   21.7373   15.4720   25.8861 H   0  0  0  0  0
   21.3851   11.6211   24.0992 H   0  0  0  0  0
   20.2295   14.7417   27.7372 H   0  0  0  0  0
   19.3635   12.4487   27.7006 H   0  0  0  0  0
   19.8765   10.8091   25.8990 H   0  0  0  0  0
  1  3  1  0  0  0
 10  1  1  0  0  0
  3  5  1  0  0  0
  3 11  1  0  0  0
  5  7  1  0  0  0
  5  9  1  0  0  0
 10 12  2  0  0  0
 11 13  2  0  0  0
 11 14  1  0  0  0
 14 15  1  0  0  0
 15 16  1  0  0  0
 15 20  1  0  0  0
 16 17  1  0  0  0
 17 18  2  0  0  0
 17 19  1  0  0  0
 20 21  2  0  0  0
 20 22  1  0  0  0
 22 23  1  0  0  0
 23 24  1  0  0  0
 23 28  1  0  0  0
 24 25  1  0  0  0
 25 26  1  0  0  0
 25 27  1  0  0  0
 28 29  2  0  0  0
 28 30  1  0  0  0
 28 31  1  0  0  0
 31 32  1  0  0  0
 32 33  1  0  0  0
 32 41  1  0  0  0
 33 35  1  0  0  0
 35 36  4  0  0  0
 35 37  4  0  0  0
 36 38  4  0  0  0
 37 40  4  0  0  0
 38 39  4  0  0  0
 40 39  4  0  0  0
 41 42  1  0  0  0
 41 43  2  0  0  0
 42 34  1  0  0  0
  2 10  1  0  0  0
  4  8  1  0  0  0
  4  6  1  0  0  0
  2  4  1  0  0  0
  1 44  1  0  0  0
  2 45  1  0  0  0
  2 46  1  0  0  0
  3 47  1  0  0  0
  4 48  1  0  0  0
  5 49  1  0  0  0
  6 50  1  0  0  0
  6 51  1  0  0  0
  6 52  1  0  0  0
  7 53  1  0  0  0
  7 54  1  0  0  0
  7 55  1  0  0  0
  8 56  1  0  0  0
  8 57  1  0  0  0
  8 58  1  0  0  0
  9 59  1  0  0  0
  9 60  1  0  0  0
  9 61  1  0  0  0
 14 62  1  0  0  0
 15 63  1  0  0  0
 16 64  1  0  0  0
 16 65  1  0  0  0
 19 66  1  0  0  0
 19 67  1  0  0  0
 22 68  1  0  0  0
 23 69  1  0  0  0
 24 70  1  0  0  0
 24 71  1  0  0  0
 25 72  1  0  0  0
 26 73  1  0  0  0
 26 74  1  0  0  0
 26 75  1  0  0  0
 27 76  1  0  0  0
 27 77  1  0  0  0
 27 78  1  0  0  0
 30 79  1  0  0  0
 32 80  1  0  0  0
 33 81  1  0  0  0
 33 82  1  0  0  0
 34 83  1  0  0  0
 34 84  1  0  0  0
 34 85  1  0  0  0
 36 86  1  0  0  0
 37 87  1  0  0  0
 38 88  1  0  0  0
 39 89  1  0  0  0
 40 90  1  0  0  0
M  END
$$$$
