4nud_ligand
  -I-interpret- 

 44 46  0  0  0  0  0  0  0  0999 V2000
  -14.2510   12.7250   -6.4730 C   0  0  0  0  0
  -14.9410   11.7140   -5.8580 C   0  0  0  0  0
  -14.8680   10.4210   -6.4400 C   0  0  0  0  0
  -14.0450   10.1590   -7.5760 C   0  0  0  0  0
  -13.3160   11.1990   -8.1450 C   0  0  0  0  0
  -13.4360   12.5060   -7.6010 C   0  0  0  0  0
  -12.7560   13.5150   -8.1040 O   0  0  0  0  0
  -12.3870   10.9820   -9.3530 C   0  0  0  0  0
  -15.5840    9.4420   -5.7800 N   0  0  0  0  0
  -15.5800    8.2350   -6.1990 N   0  0  0  0  0
  -16.3380    7.3030   -5.4660 C   0  0  0  0  0
  -16.5320    6.0330   -5.9940 C   0  0  0  0  0
  -17.3070    5.1330   -5.2650 C   0  0  0  0  0
  -17.9870    5.4700   -4.0960 C   0  0  0  0  0
  -17.8180    6.7320   -3.5960 C   0  0  0  0  0
  -17.0040    7.6840   -4.2340 C   0  0  0  0  0
  -18.9980    4.3530   -3.3260 S   0  0  0  0  0
  -19.6230    3.6350   -4.3890 O   0  0  0  0  0
  -19.9610    5.0780   -2.4430 O   0  0  0  0  0
  -18.0550    3.3400   -2.4860 N   0  0  0  0  0
  -17.5010    3.6610   -1.2700 C   0  0  0  0  0
  -16.8460    2.6750   -0.6570 N   0  0  0  0  0
  -16.1610    2.7790    0.5160 C   0  0  0  0  0
  -16.2670    4.0040    1.1790 C   0  0  0  0  0
  -16.9370    5.0730    0.5540 C   0  0  0  0  0
  -17.5730    4.8610   -0.6550 C   0  0  0  0  0
  -15.6870   11.9420   -4.7640 N   0  0  0  0  0
  -14.3357   13.7362   -6.0749 H   0  0  0  0  0
  -13.9879    9.1540   -7.9940 H   0  0  0  0  0
  -13.1577   10.1457   -8.3768 H   0  0  0  0  0
  -12.7262   11.5980  -10.1858 H   0  0  0  0  0
  -11.3693   11.2632   -9.0822 H   0  0  0  0  0
  -12.4100    9.9316   -9.6433 H   0  0  0  0  0
  -16.0914    5.7489   -6.9496 H   0  0  0  0  0
  -17.3857    4.1087   -5.6292 H   0  0  0  0  0
  -18.3304    7.0079   -2.6744 H   0  0  0  0  0
  -16.8763    8.6819   -3.8146 H   0  0  0  0  0
  -17.8626    2.4184   -2.8785 H   0  0  0  0  0
  -15.5663    1.9563    0.9131 H   0  0  0  0  0
  -15.8348    4.1311    2.1715 H   0  0  0  0  0
  -16.9541    6.0586    1.0191 H   0  0  0  0  0
  -18.1383    5.6707   -1.1165 H   0  0  0  0  0
  -15.7478   12.8830   -4.3752 H   0  0  0  0  0
  -16.1925   11.1740   -4.3223 H   0  0  0  0  0
  1  2  2  0  0  0
  1  6  1  0  0  0
  2  3  1  0  0  0
  2 27  1  0  0  0
  3  4  2  0  0  0
  3  9  1  0  0  0
  4  5  1  0  0  0
  5  6  1  0  0  0
  5  8  1  0  0  0
  6  7  2  0  0  0
  9 10  2  0  0  0
 10 11  1  0  0  0
 11 12  4  0  0  0
 11 16  4  0  0  0
 12 13  4  0  0  0
 13 14  4  0  0  0
 14 15  4  0  0  0
 14 17  1  0  0  0
 15 16  4  0  0  0
 17 18  2  0  0  0
 17 19  2  0  0  0
 17 20  1  0  0  0
 20 21  1  0  0  0
 21 22  4  0  0  0
 21 26  4  0  0  0
 22 23  4  0  0  0
 23 24  4  0  0  0
 24 25  4  0  0  0
 25 26  4  0  0  0
  1 28  1  0  0  0
  4 29  1  0  0  0
  5 30  1  0  0  0
  8 31  1  0  0  0
  8 32  1  0  0  0
  8 33  1  0  0  0
 12 34  1  0  0  0
 13 35  1  0  0  0
 15 36  1  0  0  0
 16 37  1  0  0  0
 20 38  1  0  0  0
 23 39  1  0  0  0
 24 40  1  0  0  0
 25 41  1  0  0  0
 26 42  1  0  0  0
 27 43  1  0  0  0
 27 44  1  0  0  0
M  END
$$$$
