1pro_ligand
  -I-interpret- 

 81 85  0  0  0  0  0  0  0  0999 V2000
   -8.6090   17.4790   26.9670 N   0  3  0  0  0
   -8.6350   16.0340   26.7950 N   0  0  0  0  0
   -8.8340   15.1390   27.7930 C   0  0  0  0  0
   -8.1960   14.0580   27.7490 O   0  0  0  0  0
   -9.7380   15.5000   28.7370 N   0  0  0  0  0
  -10.7830   16.4110   28.6900 C   0  0  0  0  0
  -10.5070   17.9430   28.3120 C   0  0  0  0  0
  -11.7120   18.5780   28.6250 O   0  0  0  0  0
   -9.9550   18.2170   26.9280 C   0  0  0  0  0
   -7.5970   18.0110   27.9810 C   0  0  0  0  0
   -6.2610   18.0140   27.2600 C   0  0  0  0  0
   -5.9990   18.9990   26.2900 C   0  0  0  0  0
   -4.7980   18.9680   25.5870 C   0  0  0  0  0
   -3.8660   17.9650   25.8660 C   0  0  0  0  0
   -4.1400   16.9950   26.8340 C   0  0  0  0  0
   -5.3300   17.0100   27.5410 C   0  0  0  0  0
  -11.8350   15.7240   27.7790 C   0  0  0  0  0
  -12.5130   14.5110   28.4400 C   0  0  0  0  0
  -13.5150   14.6890   29.4100 C   0  0  0  0  0
  -14.1260   13.5700   29.9890 C   0  0  0  0  0
  -13.7420   12.2830   29.6090 C   0  0  0  0  0
  -12.7480   12.1180   28.6470 C   0  0  0  0  0
  -12.1290   13.2200   28.0570 C   0  0  0  0  0
   -9.5080   14.6890   30.0310 C   0  0  0  0  0
   -9.7610   15.3130   31.3930 C   0  0  0  0  0
  -10.8880   14.9570   32.1220 C   0  0  0  0  0
  -11.1060   15.5500   33.3650 C   0  0  0  0  0
  -10.1860   16.4640   33.8690 C   0  0  0  0  0
   -9.0600   16.8300   33.1410 C   0  0  0  0  0
   -8.8540   16.2530   31.8950 C   0  0  0  0  0
  -10.3860   17.0270   35.0700 O   0  0  0  0  0
  -12.3300   15.2890   33.9950 O   0  0  0  0  0
  -13.2190   14.1460   33.8460 C   0  0  0  0  0
   -7.9030   15.5780   25.5260 C   0  0  0  0  0
   -8.3250   16.1260   24.1900 C   0  0  0  0  0
   -9.6010   15.8450   23.6790 C   0  0  0  0  0
   -9.9640   16.3570   22.4350 C   0  0  0  0  0
   -9.0500   17.1410   21.7250 C   0  0  0  0  0
   -7.7900   17.4080   22.2460 C   0  0  0  0  0
   -7.4230   16.8970   23.4700 C   0  0  0  0  0
   -9.6420   17.4790   20.5660 O   0  0  0  0  0
   -6.9770   18.2840   21.5320 O   0  0  0  0  0
   -6.2750   19.3230   22.2660 C   0  0  0  0  0
   -8.2093   17.7614   26.0721 H   0  0  0  0  0
  -11.1048   16.5968   29.7147 H   0  0  0  0  0
   -9.6680   18.3451   28.8799 H   0  0  0  0  0
  -11.9748   18.3412   29.5175 H   0  0  0  0  0
  -10.6107   17.8754   26.1271 H   0  0  0  0  0
   -9.8576   19.2796   26.7055 H   0  0  0  0  0
   -7.5655   17.3901   28.8763 H   0  0  0  0  0
   -7.8659   19.0092   28.3266 H   0  0  0  0  0
   -6.7316   19.7811   26.0904 H   0  0  0  0  0
   -4.5865   19.7191   24.8260 H   0  0  0  0  0
   -2.9198   17.9390   25.3255 H   0  0  0  0  0
   -3.4057   16.2150   27.0353 H   0  0  0  0  0
   -5.5365   16.2555   28.3001 H   0  0  0  0  0
  -11.3171   15.3673   26.8887 H   0  0  0  0  0
  -12.6115   16.4574   27.5613 H   0  0  0  0  0
  -13.8148   15.6932   29.7099 H   0  0  0  0  0
  -14.9048   13.7046   30.7396 H   0  0  0  0  0
  -14.2168   11.4127   30.0620 H   0  0  0  0  0
  -12.4494   11.1124   28.3508 H   0  0  0  0  0
  -11.3533   13.0775   27.3046 H   0  0  0  0  0
   -8.4383   14.4798   30.0280 H   0  0  0  0  0
  -10.2339   13.8782   29.9701 H   0  0  0  0  0
  -11.5923   14.2243   31.7281 H   0  0  0  0  0
   -8.3521   17.5562   33.5406 H   0  0  0  0  0
   -7.9815   16.5336   31.3050 H   0  0  0  0  0
   -9.6633   17.6281   35.2647 H   0  0  0  0  0
  -13.5451   14.0738   32.8084 H   0  0  0  0  0
  -12.6885   13.2358   34.1256 H   0  0  0  0  0
  -14.0868   14.2755   34.4928 H   0  0  0  0  0
   -8.1016   14.5082   25.4614 H   0  0  0  0  0
   -6.8787   15.9268   25.6570 H   0  0  0  0  0
  -10.3004   15.2331   24.2487 H   0  0  0  0  0
  -10.9501   16.1485   22.0199 H   0  0  0  0  0
   -6.4296   17.0966   23.8717 H   0  0  0  0  0
   -9.0424   18.0207   20.0478 H   0  0  0  0  0
   -6.9993   19.9607   22.7728 H   0  0  0  0  0
   -5.6156   18.8636   23.0023 H   0  0  0  0  0
   -5.6853   19.9214   21.5716 H   0  0  0  0  0
  1 10  1  0  0  0
  1  9  1  0  0  0
  1  2  1  0  0  0
  2 34  1  0  0  0
  2  3  1  0  0  0
  3  5  1  0  0  0
  3  4  2  0  0  0
  5 24  1  0  0  0
  5  6  1  0  0  0
  6 17  1  0  0  0
  6  7  1  0  0  0
  7  9  1  0  0  0
  7  8  1  0  0  0
 17 18  1  0  0  0
 18 23  4  0  0  0
 18 19  4  0  0  0
 19 20  4  0  0  0
 20 21  4  0  0  0
 21 22  4  0  0  0
 22 23  4  0  0  0
 24 25  1  0  0  0
 25 30  4  0  0  0
 25 26  4  0  0  0
 26 27  4  0  0  0
 27 32  1  0  0  0
 27 28  4  0  0  0
 28 31  1  0  0  0
 28 29  4  0  0  0
 29 30  4  0  0  0
 32 33  1  0  0  0
 34 35  1  0  0  0
 35 40  4  0  0  0
 35 36  4  0  0  0
 36 37  4  0  0  0
 37 38  4  0  0  0
 38 41  1  0  0  0
 38 39  4  0  0  0
 39 42  1  0  0  0
 39 40  4  0  0  0
 42 43  1  0  0  0
 10 11  1  0  0  0
 11 16  4  0  0  0
 11 12  4  0  0  0
 12 13  4  0  0  0
 13 14  4  0  0  0
 14 15  4  0  0  0
 15 16  4  0  0  0
  1 44  1  0  0  0
  6 45  1  0  0  0
  7 46  1  0  0  0
  8 47  1  0  0  0
  9 48  1  0  0  0
  9 49  1  0  0  0
 10 50  1  0  0  0
 10 51  1  0  0  0
 12 52  1  0  0  0
 13 53  1  0  0  0
 14 54  1  0  0  0
 15 55  1  0  0  0
 16 56  1  0  0  0
 17 57  1  0  0  0
 17 58  1  0  0  0
 19 59  1  0  0  0
 20 60  1  0  0  0
 21 61  1  0  0  0
 22 62  1  0  0  0
 23 63  1  0  0  0
 24 64  1  0  0  0
 24 65  1  0  0  0
 26 66  1  0  0  0
 29 67  1  0  0  0
 30 68  1  0  0  0
 31 69  1  0  0  0
 33 70  1  0  0  0
 33 71  1  0  0  0
 33 72  1  0  0  0
 34 73  1  0  0  0
 34 74  1  0  0  0
 36 75  1  0  0  0
 37 76  1  0  0  0
 40 77  1  0  0  0
 41 78  1  0  0  0
 43 79  1  0  0  0
 43 80  1  0  0  0
 43 81  1  0  0  0
M  END
$$$$
