6b41_ligand
  -I-interpret- 

107112  0  0  0  0  0  0  0  0999 V2000
   12.4100  -21.9740   20.3920 O   0  0  0  0  0
   11.7220  -21.9670   21.4360 C   0  0  0  0  0
   12.3520  -21.8980   22.6720 O   0  0  0  0  0
   11.6510  -21.8370   23.8920 C   0  0  0  0  0
   10.3180  -22.0030   21.4640 N   0  0  0  0  0
    9.5890  -22.3190   20.2200 C   0  0  0  0  0
    8.9680  -23.7120   20.3990 C   0  0  0  0  0
    7.6060  -23.6350   19.7180 C   0  0  0  0  0
    7.6490  -22.3090   18.9280 C   0  0  0  0  0
    8.3670  -21.3770   19.9140 C   0  0  0  0  0
    8.6030  -19.9070   19.3500 C   0  0  0  0  0
    7.2690  -19.3260   19.2960 C   0  0  0  0  0
    6.2500  -18.8080   19.2920 N   0  0  0  0  0
    9.1860  -19.9500   17.9030 C   0  0  0  0  0
   10.5490  -20.2640   17.7300 C   0  0  0  0  0
   11.0730  -20.3300   16.4390 C   0  0  0  0  0
   12.3620  -20.4870   16.3480 F   0  0  0  0  0
   10.3050  -20.1610   15.2740 C   0  0  0  0  0
    8.9540  -19.8500   15.4210 C   0  0  0  0  0
    8.3960  -19.7240   16.7020 C   0  0  0  0  0
    9.1930  -18.7800   20.3380 C   0  0  0  0  0
   10.5770  -18.1830   19.9930 C   0  0  0  0  0
   10.7930  -16.9380   20.8660 C   0  0  0  0  0
    9.1650  -19.1080   21.8300 C   0  0  0  0  0
    9.4630  -17.8700   22.6730 C   0  0  0  0  0
   10.7750  -17.3570   22.2910 N   0  3  0  0  0
   11.4600  -16.4000   23.2070 C   0  0  0  0  0
   10.7790  -15.8340   24.4560 C   0  0  0  0  0
   11.7960  -15.0560   25.3500 C   0  0  0  0  0
   10.0500  -14.4870   24.2570 C   0  0  0  0  0
   10.7720  -14.0210   25.4770 N   0  0  0  0  0
   10.9300  -12.7240   25.9430 C   0  0  0  0  0
   10.2450  -11.6300   25.3990 C   0  0  0  0  0
   10.4160  -10.3970   25.9550 C   0  0  0  0  0
   11.8020  -12.5120   27.0720 C   0  0  0  0  0
   11.9420  -11.2510   27.5980 C   0  0  0  0  0
   11.2660  -10.1530   27.0650 C   0  0  0  0  0
   11.4830   -8.6670   27.6940 S   0  0  0  0  0
   12.8880   -8.3540   27.7850 O   0  0  0  0  0
   10.5530   -7.7350   27.0780 O   0  0  0  0  0
   10.9780   -8.6770   29.3380 C   0  0  0  0  0
   10.3370   -9.9010   30.0560 C   0  0  0  0  0
    9.7220   -8.8650   30.9420 N   0  0  0  0  0
    9.6850   -7.9360   29.7520 C   0  0  0  0  0
   10.1460   -8.5310   32.2480 C   0  0  0  0  0
   10.5740   -9.4210   32.9890 O   0  0  0  0  0
   10.0370   -7.0580   32.5680 C   0  0  0  0  0
   10.0150   -6.5680   34.0320 C   0  0  0  0  0
    9.5160   -7.5780   35.1040 C   0  0  0  0  0
    8.6620   -6.8440   36.1020 N   0  3  0  0  0
    8.7190   -7.4840   37.4520 C   0  0  0  0  0
    7.2490   -6.7960   35.6100 C   0  0  0  0  0
   11.0202  -20.9482   23.9030 H   0  0  0  0  0
   11.0297  -22.7264   23.9974 H   0  0  0  0  0
   12.3625  -21.7894   24.7164 H   0  0  0  0  0
    9.8112  -21.8141   22.3288 H   0  0  0  0  0
   10.3146  -22.2196   19.4127 H   0  0  0  0  0
    8.8759  -23.9782   21.4520 H   0  0  0  0  0
    9.5930  -24.4896   19.9599 H   0  0  0  0  0
    6.7863  -23.6585   20.4360 H   0  0  0  0  0
    7.4217  -24.4925   19.0708 H   0  0  0  0  0
    6.6635  -21.9494   18.6319 H   0  0  0  0  0
    8.1550  -22.3943   17.9663 H   0  0  0  0  0
    7.8507  -21.0579   20.8194 H   0  0  0  0  0
   11.1857  -20.4529   18.5943 H   0  0  0  0  0
   10.7520  -20.2698   14.2859 H   0  0  0  0  0
    8.3301  -19.7045   14.5391 H   0  0  0  0  0
    7.3455  -19.4502   16.8000 H   0  0  0  0  0
    8.4490  -18.0100   20.1339 H   0  0  0  0  0
   10.6162  -17.9124   18.9378 H   0  0  0  0  0
   11.3602  -18.9163   20.1854 H   0  0  0  0  0
   10.0028  -16.2104   20.6808 H   0  0  0  0  0
   11.7497  -16.4745   20.6252 H   0  0  0  0  0
    9.9265  -19.8604   22.0353 H   0  0  0  0  0
    8.1708  -19.4733   22.0874 H   0  0  0  0  0
    9.4580  -18.1297   23.7316 H   0  0  0  0  0
    8.7010  -17.1098   22.5014 H   0  0  0  0  0
   11.3812  -18.1687   22.4093 H   0  0  0  0  0
   11.6181  -15.5202   22.5832 H   0  0  0  0  0
   12.2874  -16.9833   23.6111 H   0  0  0  0  0
   10.2290  -16.7160   24.7840 H   0  0  0  0  0
   12.8047  -14.8268   25.0063 H   0  0  0  0  0
   12.2609  -15.5141   26.2230 H   0  0  0  0  0
    8.9655  -14.4239   24.1672 H   0  0  0  0  0
   10.0926  -13.9398   23.3153 H   0  0  0  0  0
    9.5840  -11.7627   24.5425 H   0  0  0  0  0
    9.8722   -9.5558   25.5251 H   0  0  0  0  0
   12.3480  -13.3495   27.5063 H   0  0  0  0  0
   12.5991  -11.1040   28.4552 H   0  0  0  0  0
   11.9916   -8.3570   29.5793 H   0  0  0  0  0
   10.9132  -10.7468   30.4311 H   0  0  0  0  0
    9.7603  -10.6671   29.5377 H   0  0  0  0  0
    8.8184   -7.8276   29.0998 H   0  0  0  0  0
    9.6137   -6.8517   29.8370 H   0  0  0  0  0
    9.0608   -6.7718   32.1766 H   0  0  0  0  0
   10.9501   -6.6277   32.1567 H   0  0  0  0  0
    9.3131   -5.7345   34.0574 H   0  0  0  0  0
   11.0512   -6.3477   34.2887 H   0  0  0  0  0
   10.3687   -8.0308   35.6100 H   0  0  0  0  0
    8.9322   -8.3649   34.6265 H   0  0  0  0  0
    9.0250   -5.8956   36.1975 H   0  0  0  0  0
    8.3606   -8.5110   37.3812 H   0  0  0  0  0
    9.7482   -7.4809   37.8110 H   0  0  0  0  0
    8.0896   -6.9251   38.1445 H   0  0  0  0  0
    7.2166   -6.2771   34.6520 H   0  0  0  0  0
    6.8736   -7.8119   35.4873 H   0  0  0  0  0
    6.6315   -6.2641   36.3338 H   0  0  0  0  0
  1  2  2  0  0  0
  2  3  1  0  0  0
  2  5  1  0  0  0
  3  4  1  0  0  0
  5  6  1  0  0  0
  6  7  1  0  0  0
  6 10  1  0  0  0
  7  8  1  0  0  0
  8  9  1  0  0  0
  9 10  1  0  0  0
 10 11  1  0  0  0
 11 12  1  0  0  0
 11 14  1  0  0  0
 11 21  1  0  0  0
 12 13  3  0  0  0
 14 15  4  0  0  0
 14 20  4  0  0  0
 15 16  4  0  0  0
 16 17  1  0  0  0
 16 18  4  0  0  0
 18 19  4  0  0  0
 19 20  4  0  0  0
 21 22  1  0  0  0
 21 24  1  0  0  0
 22 23  1  0  0  0
 23 26  1  0  0  0
 24 25  1  0  0  0
 25 26  1  0  0  0
 26 27  1  0  0  0
 27 28  1  0  0  0
 28 29  1  0  0  0
 28 30  1  0  0  0
 29 31  1  0  0  0
 30 31  1  0  0  0
 31 32  1  0  0  0
 32 33  4  0  0  0
 32 35  4  0  0  0
 33 34  4  0  0  0
 34 37  4  0  0  0
 35 36  4  0  0  0
 36 37  4  0  0  0
 37 38  1  0  0  0
 38 39  2  0  0  0
 38 40  2  0  0  0
 38 41  1  0  0  0
 41 42  1  0  0  0
 41 44  1  0  0  0
 42 43  1  0  0  0
 43 44  1  0  0  0
 43 45  1  0  0  0
 45 46  2  0  0  0
 45 47  1  0  0  0
 47 48  1  0  0  0
 48 49  1  0  0  0
 49 50  1  0  0  0
 50 51  1  0  0  0
 50 52  1  0  0  0
  4 53  1  0  0  0
  4 54  1  0  0  0
  4 55  1  0  0  0
  5 56  1  0  0  0
  6 57  1  0  0  0
  7 58  1  0  0  0
  7 59  1  0  0  0
  8 60  1  0  0  0
  8 61  1  0  0  0
  9 62  1  0  0  0
  9 63  1  0  0  0
 10 64  1  0  0  0
 15 65  1  0  0  0
 18 66  1  0  0  0
 19 67  1  0  0  0
 20 68  1  0  0  0
 21 69  1  0  0  0
 22 70  1  0  0  0
 22 71  1  0  0  0
 23 72  1  0  0  0
 23 73  1  0  0  0
 24 74  1  0  0  0
 24 75  1  0  0  0
 25 76  1  0  0  0
 25 77  1  0  0  0
 26 78  1  0  0  0
 27 79  1  0  0  0
 27 80  1  0  0  0
 28 81  1  0  0  0
 29 82  1  0  0  0
 29 83  1  0  0  0
 30 84  1  0  0  0
 30 85  1  0  0  0
 33 86  1  0  0  0
 34 87  1  0  0  0
 35 88  1  0  0  0
 36 89  1  0  0  0
 41 90  1  0  0  0
 42 91  1  0  0  0
 42 92  1  0  0  0
 44 93  1  0  0  0
 44 94  1  0  0  0
 47 95  1  0  0  0
 47 96  1  0  0  0
 48 97  1  0  0  0
 48 98  1  0  0  0
 49 99  1  0  0  0
 49100  1  0  0  0
 50101  1  0  0  0
 51102  1  0  0  0
 51103  1  0  0  0
 51104  1  0  0  0
 52105  1  0  0  0
 52106  1  0  0  0
 52107  1  0  0  0
M  END
$$$$
