5o4t_ligand
  -I-interpret- 

 24 25  0  0  0  0  0  0  0  0999 V2000
    7.0380  -11.1340    4.8120 C   0  0  0  0  0
    6.5130  -10.3980    5.8710 C   0  0  0  0  0
    7.3190  -10.0700    6.9600 C   0  0  0  0  0
    8.6480  -10.4820    6.9850 C   0  0  0  0  0
    9.1720  -11.2170    5.9270 C   0  0  0  0  0
    8.3650  -11.5460    4.8410 C   0  0  0  0  0
   10.2730  -12.6930    3.8220 C   0  0  0  0  0
    4.8440  -11.0110    3.7440 C   0  0  0  0  0
    8.0770  -12.5600    2.7700 C   0  0  0  0  0
    6.7550  -12.1570    2.7410 C   0  0  0  0  0
    6.2580  -11.4500    3.7640 N   0  0  0  0  0
    8.8590  -12.2500    3.8160 N   0  0  0  0  0
    8.5370  -13.2080    1.8370 O   0  0  0  0  0
    6.0450  -12.4530    1.7800 O   0  0  0  0  0
    5.4712  -10.0782    5.8485 H   0  0  0  0  0
    6.9097   -9.4928    7.7891 H   0  0  0  0  0
    9.2799  -10.2280    7.8360 H   0  0  0  0  0
   10.2142  -11.5355    5.9479 H   0  0  0  0  0
   10.3118  -13.7810    3.7681 H   0  0  0  0  0
   10.7896  -12.2667    2.9621 H   0  0  0  0  0
   10.7541  -12.3561    4.7402 H   0  0  0  0  0
    4.6750  -10.3736    2.8761 H   0  0  0  0  0
    4.1945  -11.8845    3.6868 H   0  0  0  0  0
    4.6252  -10.4529    4.6544 H   0  0  0  0  0
  1  2  4  0  0  0
  6  1  4  0  0  0
  1 11  1  0  0  0
  2  3  4  0  0  0
  4  3  4  0  0  0
  5  4  4  0  0  0
  6  5  4  0  0  0
 12  6  1  0  0  0
 12  7  1  0  0  0
 11  8  1  0  0  0
  9 10  1  0  0  0
  9 12  1  0  0  0
  9 13  2  0  0  0
 10 11  1  0  0  0
 10 14  2  0  0  0
  2 15  1  0  0  0
  3 16  1  0  0  0
  4 17  1  0  0  0
  5 18  1  0  0  0
  7 19  1  0  0  0
  7 20  1  0  0  0
  7 21  1  0  0  0
  8 22  1  0  0  0
  8 23  1  0  0  0
  8 24  1  0  0  0
M  END
$$$$
