3dd8_ligand
  -I-interpret- 

 45 47  0  0  0  0  0  0  0  0999 V2000
   -1.2860    9.8490   12.4120 C   0  0  0  0  0
    0.0250   10.6530   12.3690 C   0  0  0  0  0
    0.4180   11.2100   13.7510 C   0  0  0  0  0
    0.6120   10.0830   14.7850 C   0  0  0  0  0
   -0.7320    9.5540   15.3220 C   0  0  0  0  0
   -1.3660    8.4160   14.4930 C   0  0  0  0  0
   -1.0740    8.4340   12.9740 C   0  0  0  0  0
   -1.9950    7.5080   12.1680 C   0  0  0  0  0
   -2.7500    6.3640   12.8850 C   0  0  0  0  0
   -4.0600    6.2410   13.1690 C   0  0  0  0  0
   -1.9980    4.9250   13.4130 S   0  0  0  0  0
   -1.3820    4.2290   12.2230 O   0  0  0  0  0
   -1.0200    5.1620   14.5250 O   0  0  0  0  0
   -3.4190    4.1590   13.9810 C   0  0  0  0  0
   -3.6610    2.9100   14.5680 C   0  0  0  0  0
   -4.4500    5.0870   13.7630 C   0  0  0  0  0
   -5.7400    4.6980   14.1370 C   0  0  0  0  0
   -5.9870    3.4520   14.7130 C   0  0  0  0  0
   -4.9560    2.5520   14.9620 C   0  0  0  0  0
   -5.1820    1.2980   15.4940 O   0  0  0  0  0
   -5.8730    0.9500   16.7490 S   0  0  0  0  0
   -5.1280    1.4430   17.9490 O   0  0  0  0  0
   -7.2650    1.4680   16.7630 O   0  0  0  0  0
   -5.8480   -0.6380   16.7830 N   0  0  0  0  0
   -1.6646    9.7587   11.3938 H   0  0  0  0  0
   -1.9866   10.3730   13.0621 H   0  0  0  0  0
   -0.1187   11.4965   11.6938 H   0  0  0  0  0
    0.8195    9.9851   12.0362 H   0  0  0  0  0
   -0.3831   11.8619   14.0993 H   0  0  0  0  0
    1.3600   11.7489   13.6492 H   0  0  0  0  0
    1.1798   10.4847   15.6242 H   0  0  0  0  0
    1.1320    9.2587   14.2969 H   0  0  0  0  0
   -1.4316   10.3894   15.2949 H   0  0  0  0  0
   -0.5356    9.1477   16.3142 H   0  0  0  0  0
   -2.4452    8.5282   14.5971 H   0  0  0  0  0
   -0.9401    7.4878   14.8741 H   0  0  0  0  0
   -0.0433    8.0942   12.8726 H   0  0  0  0  0
   -1.3310    7.0021   11.4671 H   0  0  0  0  0
   -2.7811    8.1623   11.7912 H   0  0  0  0  0
   -4.7726    7.0312   12.9327 H   0  0  0  0  0
   -2.8365    2.2131   14.7188 H   0  0  0  0  0
   -6.5713    5.3840   13.9747 H   0  0  0  0  0
   -7.0093    3.1777   14.9735 H   0  0  0  0  0
   -5.3737   -1.1244   17.5438 H   0  0  0  0  0
   -6.3062   -1.1712   16.0440 H   0  0  0  0  0
  1  2  1  0  0  0
  1  7  1  0  0  0
  2  3  1  0  0  0
  3  4  1  0  0  0
  4  5  1  0  0  0
  5  6  1  0  0  0
  6  7  1  0  0  0
  7  8  1  0  0  0
  8  9  1  0  0  0
  9 10  2  0  0  0
  9 11  1  0  0  0
 10 16  1  0  0  0
 11 12  2  0  0  0
 11 13  2  0  0  0
 11 14  1  0  0  0
 14 15  4  0  0  0
 14 16  4  0  0  0
 15 19  4  0  0  0
 16 17  4  0  0  0
 17 18  4  0  0  0
 18 19  4  0  0  0
 19 20  1  0  0  0
 20 21  1  0  0  0
 21 22  2  0  0  0
 21 23  2  0  0  0
 21 24  1  0  0  0
  1 25  1  0  0  0
  1 26  1  0  0  0
  2 27  1  0  0  0
  2 28  1  0  0  0
  3 29  1  0  0  0
  3 30  1  0  0  0
  4 31  1  0  0  0
  4 32  1  0  0  0
  5 33  1  0  0  0
  5 34  1  0  0  0
  6 35  1  0  0  0
  6 36  1  0  0  0
  7 37  1  0  0  0
  8 38  1  0  0  0
  8 39  1  0  0  0
 10 40  1  0  0  0
 15 41  1  0  0  0
 17 42  1  0  0  0
 18 43  1  0  0  0
 24 44  1  0  0  0
 24 45  1  0  0  0
M  END
$$$$
