4fgt_ligand
  -I-interpret- 

 72 72  0  0  0  0  0  0  0  0999 V2000
   27.9040  -53.3130    9.5420 N   0  3  0  0  0
   28.5760  -52.3450   10.4670 C   0  0  0  0  0
   28.8290  -52.6450   11.9880 C   0  0  0  0  0
   29.0690  -51.6640   12.6840 O   0  0  0  0  0
   27.7350  -51.0890   10.5280 C   0  0  0  0  0
   27.4590  -50.0620    9.1310 S   0  0  0  0  0
   28.8660  -53.8460   12.5990 N   0  0  0  0  0
   28.9930  -55.1650   11.9930 C   0  0  0  0  0
   28.5320  -56.2700   12.9790 C   0  0  0  0  0
   28.2680  -55.9870   14.1420 O   0  0  0  0  0
   30.4650  -55.3880   11.6360 C   0  0  0  0  0
   31.3390  -55.9430   12.7710 C   0  0  0  0  0
   31.6210  -54.9370   13.8560 C   0  0  0  0  0
   31.0450  -53.8510   13.8870 O   0  0  0  0  0
   32.5300  -55.2910   14.7540 N   0  0  0  0  0
   28.5120  -57.5410   12.5440 N   0  0  0  0  0
   28.0250  -58.6660   13.4020 C   0  0  0  0  0
   28.4760  -58.5580   14.8540 C   0  0  0  0  0
   29.5830  -58.9950   15.1980 O   0  0  0  0  0
   28.2560  -60.0940   12.7940 C   0  0  0  0  0
   29.3980  -60.6080   11.8970 C   0  0  0  0  0
   30.6130  -61.0850   12.7010 C   0  0  0  0  0
   28.8990  -61.7370   10.9860 C   0  0  0  0  0
   27.5980  -57.9640   15.6790 N   0  0  0  0  0
   27.9320  -57.4080   17.0140 C   0  0  0  0  0
   29.1500  -58.0190   17.7130 C   0  0  0  0  0
   30.2370  -57.4340   17.7190 O   0  0  0  0  0
   26.7220  -57.4380   17.9520 C   0  0  0  0  0
   26.7530  -58.5670   18.9400 C   0  0  0  0  0
   26.8180  -58.3180   20.3130 C   0  0  0  0  0
   26.7510  -59.9020   18.5010 C   0  0  0  0  0
   26.8480  -59.3730   21.2230 C   0  0  0  0  0
   26.7860  -60.9550   19.3960 C   0  0  0  0  0
   26.8340  -60.6840   20.7480 C   0  0  0  0  0
   26.8690  -61.7430   21.6120 O   0  0  0  0  0
   29.0710  -59.1100   18.2860 O   0  0  0  0  0
   27.8487  -52.9066    8.6081 H   0  0  0  0  0
   28.4436  -54.1779    9.5063 H   0  0  0  0  0
   26.9637  -53.5113    9.8840 H   0  0  0  0  0
   29.5648  -52.3369   10.0084 H   0  0  0  0  0
   28.2961  -50.4449   11.2051 H   0  0  0  0  0
   26.7393  -51.4657   10.7622 H   0  0  0  0  0
   26.6872  -49.0372    9.4817 H   0  0  0  0  0
   28.7961  -53.8293   13.6165 H   0  0  0  0  0
   28.3656  -55.2163   11.1032 H   0  0  0  0  0
   30.8743  -54.4119   11.3756 H   0  0  0  0  0
   30.4835  -56.1291   10.8369 H   0  0  0  0  0
   32.2953  -56.2343   12.3366 H   0  0  0  0  0
   30.7987  -56.7734   13.2255 H   0  0  0  0  0
   32.7765  -54.6516   15.5096 H   0  0  0  0  0
   32.9828  -56.2027   14.6893 H   0  0  0  0  0
   28.8389  -57.7454   11.5997 H   0  0  0  0  0
   26.9420  -58.5429   13.4137 H   0  0  0  0  0
   27.4187  -60.1498   12.0984 H   0  0  0  0  0
   28.4457  -60.6664   13.7020 H   0  0  0  0  0
   29.7226  -59.7631   11.2896 H   0  0  0  0  0
   31.0011  -60.2580   13.2956 H   0  0  0  0  0
   30.3135  -61.8993   13.3608 H   0  0  0  0  0
   31.3852  -61.4357   12.0163 H   0  0  0  0  0
   28.5309  -62.5603   11.5982 H   0  0  0  0  0
   28.0929  -61.3633   10.3547 H   0  0  0  0  0
   29.7200  -62.0868   10.3601 H   0  0  0  0  0
   26.6304  -57.8896   15.3649 H   0  0  0  0  0
   28.2172  -56.3792   16.7941 H   0  0  0  0  0
   25.8337  -57.5697   17.3342 H   0  0  0  0  0
   26.7265  -56.5076   18.5198 H   0  0  0  0  0
   26.8455  -57.2904   20.6754 H   0  0  0  0  0
   26.7212  -60.1117   17.4318 H   0  0  0  0  0
   26.8820  -59.1756   22.2944 H   0  0  0  0  0
   26.7758  -61.9847   19.0387 H   0  0  0  0  0
   26.9005  -61.4173   22.5145 H   0  0  0  0  0
   28.1768  -59.4495   18.2035 H   0  0  0  0  0
  2  1  1  0  0  0
  2  5  1  0  0  0
  3  2  1  0  0  0
  3  4  2  0  0  0
  5  6  1  0  0  0
  8  7  1  0  0  0
  8 11  1  0  0  0
  9  8  1  0  0  0
  9 10  2  0  0  0
 11 12  1  0  0  0
 12 13  1  0  0  0
 13 15  1  0  0  0
 13 14  2  0  0  0
  7  3  1  0  0  0
 17 16  1  0  0  0
 17 20  1  0  0  0
 18 17  1  0  0  0
 18 19  2  0  0  0
 20 21  1  0  0  0
 21 22  1  0  0  0
 21 23  1  0  0  0
 16  9  1  0  0  0
 24 25  1  0  0  0
 25 28  1  0  0  0
 25 26  1  0  0  0
 26 27  2  0  0  0
 26 36  1  0  0  0
 28 29  1  0  0  0
 29 30  4  0  0  0
 29 31  4  0  0  0
 31 33  4  0  0  0
 33 34  4  0  0  0
 34 35  1  0  0  0
 32 34  4  0  0  0
 30 32  4  0  0  0
 18 24  1  0  0  0
  1 37  1  0  0  0
  1 38  1  0  0  0
  1 39  1  0  0  0
  2 40  1  0  0  0
  5 41  1  0  0  0
  5 42  1  0  0  0
  6 43  1  0  0  0
  7 44  1  0  0  0
  8 45  1  0  0  0
 11 46  1  0  0  0
 11 47  1  0  0  0
 12 48  1  0  0  0
 12 49  1  0  0  0
 15 50  1  0  0  0
 15 51  1  0  0  0
 16 52  1  0  0  0
 17 53  1  0  0  0
 20 54  1  0  0  0
 20 55  1  0  0  0
 21 56  1  0  0  0
 22 57  1  0  0  0
 22 58  1  0  0  0
 22 59  1  0  0  0
 23 60  1  0  0  0
 23 61  1  0  0  0
 23 62  1  0  0  0
 24 63  1  0  0  0
 25 64  1  0  0  0
 28 65  1  0  0  0
 28 66  1  0  0  0
 30 67  1  0  0  0
 31 68  1  0  0  0
 32 69  1  0  0  0
 33 70  1  0  0  0
 35 71  1  0  0  0
 36 72  1  0  0  0
M  END
$$$$
