5vqw_ligand
  -I-interpret- 

 58 61  0  0  0  0  0  0  0  0999 V2000
  846.6350  -25.3680  141.0080 C   0  0  0  0  0
  845.6010  -26.1950  141.5230 C   0  0  0  0  0
  846.6450  -26.1070  143.7190 C   0  0  0  0  0
  844.1220  -22.5030  143.8540 O   0  0  0  0  0
  844.6880  -26.7340  139.3680 C   0  0  0  0  0
  843.8300  -29.8250  139.0480 C   0  0  0  0  0
  841.8870  -29.8530  141.0970 C   0  0  0  0  0
  843.5020  -26.7650  143.9990 C   0  0  0  0  0
  842.6400  -27.4320  144.9150 C   0  0  0  0  0
  841.5800  -26.7220  145.5310 C   0  0  0  0  0
  841.3420  -25.3440  145.2640 C   0  0  0  0  0
  842.1950  -24.6640  144.3450 C   0  0  0  0  0
  840.7390  -27.4060  146.4390 C   0  0  0  0  0
  839.4200  -25.4210  146.8390 C   0  0  0  0  0
  840.2510  -24.7170  145.9300 C   0  0  0  0  0
  838.8520  -27.5750  148.0150 C   0  0  0  0  0
  842.8050  -28.9060  145.2680 C   0  0  0  0  0
  842.9100  -22.3040  143.8410 C   0  0  0  0  0
  842.3370  -20.9890  143.5930 C   0  0  0  0  0
  843.0970  -19.8940  143.7890 C   0  0  0  0  0
  845.5980  -26.5680  142.8830 C   0  0  0  0  0
  847.6730  -25.2840  143.2030 C   0  0  0  0  0
  847.6710  -24.9130  141.8460 C   0  0  0  0  0
  844.5690  -27.3700  143.3580 O   0  0  0  0  0
  844.5490  -26.6790  140.7800 O   0  0  0  0  0
  843.4570  -27.4200  138.7570 C   0  0  0  0  0
  843.1430  -28.6530  139.4350 N   0  0  0  0  0
  843.5020  -30.9930  139.7270 N   0  0  0  0  0
  842.5600  -31.0980  140.7470 C   0  0  0  0  0
  842.2000  -28.7110  140.4430 C   0  0  0  0  0
  843.2480  -25.3990  143.7430 C   0  0  0  0  0
  839.6650  -26.7840  147.0950 C   0  0  0  0  0
  844.6790  -29.8420  138.1610 O   0  0  0  0  0
  842.3550  -32.1880  141.2750 O   0  0  0  0  0
  841.9870  -23.2690  144.0570 N   0  0  0  0  0
  838.2230  -28.2240  148.7400 N   0  0  0  0  0
  846.6263  -25.0835  139.9558 H   0  0  0  0  0
  846.6583  -26.3898  144.7716 H   0  0  0  0  0
  845.5832  -27.3014  139.1135 H   0  0  0  0  0
  844.7731  -25.7220  138.9722 H   0  0  0  0  0
  841.1331  -29.8424  141.8841 H   0  0  0  0  0
  840.9327  -28.4601  146.6378 H   0  0  0  0  0
  838.5961  -24.9096  147.3367 H   0  0  0  0  0
  840.0480  -23.6639  145.7355 H   0  0  0  0  0
  842.7065  -29.5079  144.3646 H   0  0  0  0  0
  843.7901  -29.0652  145.7066 H   0  0  0  0  0
  842.0359  -29.1950  145.9843 H   0  0  0  0  0
  841.3060  -20.8915  143.2530 H   0  0  0  0  0
  844.1272  -19.9994  144.1291 H   0  0  0  0  0
  842.6817  -18.9027  143.6075 H   0  0  0  0  0
  848.4703  -24.9357  143.8596 H   0  0  0  0  0
  848.4635  -24.2797  141.4473 H   0  0  0  0  0
  843.6730  -27.6472  137.7131 H   0  0  0  0  0
  842.6049  -26.7474  138.8548 H   0  0  0  0  0
  843.9928  -31.8448  139.4550 H   0  0  0  0  0
  841.6838  -27.7932  140.7246 H   0  0  0  0  0
  843.9001  -24.8791  143.0411 H   0  0  0  0  0
  841.0136  -22.9680  144.0095 H   0  0  0  0  0
  2  1  4  0  0  0
  1 23  4  0  0  0
  2 21  4  0  0  0
 25  2  1  0  0  0
 21  3  4  0  0  0
  3 22  4  0  0  0
 18  4  2  0  0  0
  5 25  1  0  0  0
 26  5  1  0  0  0
 27  6  1  0  0  0
  6 28  1  0  0  0
  6 33  2  0  0  0
  7 29  1  0  0  0
 30  7  2  0  0  0
  8  9  4  0  0  0
 24  8  1  0  0  0
  8 31  4  0  0  0
  9 10  4  0  0  0
  9 17  1  0  0  0
 10 11  4  0  0  0
 10 13  4  0  0  0
 12 11  4  0  0  0
 11 15  4  0  0  0
 31 12  4  0  0  0
 12 35  1  0  0  0
 13 32  4  0  0  0
 15 14  4  0  0  0
 32 14  4  0  0  0
 32 16  1  0  0  0
 16 36  3  0  0  0
 18 19  1  0  0  0
 35 18  1  0  0  0
 19 20  2  0  0  0
 21 24  1  0  0  0
 23 22  4  0  0  0
 27 26  1  0  0  0
 27 30  1  0  0  0
 28 29  1  0  0  0
 29 34  2  0  0  0
  1 37  1  0  0  0
  3 38  1  0  0  0
  5 39  1  0  0  0
  5 40  1  0  0  0
  7 41  1  0  0  0
 13 42  1  0  0  0
 14 43  1  0  0  0
 15 44  1  0  0  0
 17 45  1  0  0  0
 17 46  1  0  0  0
 17 47  1  0  0  0
 19 48  1  0  0  0
 20 49  1  0  0  0
 20 50  1  0  0  0
 22 51  1  0  0  0
 23 52  1  0  0  0
 26 53  1  0  0  0
 26 54  1  0  0  0
 28 55  1  0  0  0
 30 56  1  0  0  0
 31 57  1  0  0  0
 35 58  1  0  0  0
M  END
$$$$
