6hhh_ligand
  -I-interpret- 

 75 80  0  0  0  0  0  0  0  0999 V2000
   -6.2700    0.8410  -14.0330 C   0  0  0  0  0
   -7.5930    1.2460  -14.0000 C   0  0  0  0  0
   -8.1450    1.9210  -15.0870 C   0  0  0  0  0
   -7.3710    2.1890  -16.2050 C   0  0  0  0  0
   -6.0400    1.7760  -16.2390 C   0  0  0  0  0
   -5.4830    1.1120  -15.1520 C   0  0  0  0  0
   -4.1380    0.7200  -15.1710 C   0  0  0  0  0
   -3.7120   -0.1190  -16.1990 C   0  0  0  0  0
   -2.3830   -0.5220  -16.2150 C   0  0  0  0  0
   -1.9090   -1.3570  -17.2210 C   0  0  0  0  0
   -2.6510   -1.7630  -18.1150 O   0  0  0  0  0
   -0.5650   -1.7450  -17.2140 N   0  0  0  0  0
    0.2570   -1.3270  -16.2660 C   0  0  0  0  0
   -0.1840   -0.4930  -15.2500 C   0  0  0  0  0
   -1.5140   -0.0870  -15.2190 C   0  0  0  0  0
   -1.9410    0.7260  -14.2390 N   0  0  0  0  0
   -3.2090    1.1540  -14.1890 C   0  0  0  0  0
   -3.5710    1.9870  -13.1230 C   0  0  0  0  0
   -3.2510    1.6260  -11.8160 C   0  0  0  0  0
   -3.6350    2.4380  -10.7470 C   0  0  0  0  0
   -4.2640    3.1800  -13.3420 C   0  0  0  0  0
   -4.6550    3.9820  -12.2830 C   0  0  0  0  0
   -4.3300    3.6210  -10.9860 C   0  0  0  0  0
   -4.7440    4.4480   -9.9530 C   0  0  0  0  0
   -3.6550    4.9690   -9.1390 N   0  3  0  0  0
   -4.3090    5.7020   -8.0470 C   0  0  0  0  0
   -3.2960    6.2960   -7.0980 C   0  0  0  0  0
   -2.9170    5.9350   -9.9610 C   0  0  0  0  0
   -1.7890    6.5680   -9.1650 C   0  0  0  0  0
   -2.2510    7.0440   -7.8350 N   0  0  0  0  0
   -1.7130    8.1460   -7.2840 C   0  0  0  0  0
   -1.8430    8.3840   -5.9200 C   0  0  0  0  0
   -1.2840    9.5300   -5.3540 C   0  0  0  0  0
   -1.0240    9.0580   -8.0700 C   0  0  0  0  0
   -0.4680   10.2000   -7.5030 C   0  0  0  0  0
   -0.5820   10.4410   -6.1360 C   0  0  0  0  0
   -0.0500   11.5560   -5.6160 N   0  0  0  0  0
    1.2830   11.6440   -5.4090 C   0  0  0  0  0
    2.0940   10.7430   -5.6380 O   0  0  0  0  0
    1.7550   13.0150   -4.8800 C   0  0  0  0  0
    0.7660   14.1760   -5.0910 C   0  0  0  0  0
   -5.8424    0.3093  -13.1830 H   0  0  0  0  0
   -8.2043    1.0366  -13.1222 H   0  0  0  0  0
   -9.1873    2.2387  -15.0579 H   0  0  0  0  0
   -7.8011    2.7204  -17.0540 H   0  0  0  0  0
   -5.4330    1.9747  -17.1223 H   0  0  0  0  0
   -4.4052   -0.4510  -16.9719 H   0  0  0  0  0
    1.2998   -1.6438  -16.2838 H   0  0  0  0  0
    0.3815    0.4288  -15.3865 H   0  0  0  0  0
   -0.0539   -1.0773  -14.3391 H   0  0  0  0  0
   -2.6984    0.7056  -11.6271 H   0  0  0  0  0
   -3.3909    2.1461   -9.7256 H   0  0  0  0  0
   -4.5005    3.4841  -14.3617 H   0  0  0  0  0
   -5.2180    4.8964  -12.4700 H   0  0  0  0  0
   -5.3813    3.8535   -9.2984 H   0  0  0  0  0
   -5.2475    5.3026  -10.4049 H   0  0  0  0  0
   -3.0270    4.2416   -8.7971 H   0  0  0  0  0
   -4.9378    5.0065   -7.4911 H   0  0  0  0  0
   -4.8968    6.5126   -8.4776 H   0  0  0  0  0
   -2.8208    5.4870   -6.5433 H   0  0  0  0  0
   -3.8088    6.9835   -6.4253 H   0  0  0  0  0
   -3.6025    6.7185  -10.2840 H   0  0  0  0  0
   -2.4928    5.4148  -10.8198 H   0  0  0  0  0
   -1.4142    7.4252   -9.7243 H   0  0  0  0  0
   -1.0154    5.8160   -9.0098 H   0  0  0  0  0
   -2.3822    7.6744   -5.2925 H   0  0  0  0  0
   -1.3988    9.7137   -4.2857 H   0  0  0  0  0
   -0.9175    8.8784   -9.1398 H   0  0  0  0  0
    0.0619   10.9131   -8.1345 H   0  0  0  0  0
   -0.6539   12.3420   -5.3753 H   0  0  0  0  0
    2.6586   13.2695   -5.4338 H   0  0  0  0  0
    1.8849   12.9067   -3.8032 H   0  0  0  0  0
    0.5782   14.3024   -6.1572 H   0  0  0  0  0
   -0.1702   13.9515   -4.5800 H   0  0  0  0  0
    1.1923   15.0932   -4.6846 H   0  0  0  0  0
  1  2  4  0  0  0
  1  6  4  0  0  0
  2  3  4  0  0  0
  3  4  4  0  0  0
  4  5  4  0  0  0
  5  6  4  0  0  0
  6  7  1  0  0  0
  7  8  4  0  0  0
  7 17  4  0  0  0
  8  9  4  0  0  0
  9 10  1  0  0  0
  9 15  4  0  0  0
 10 11  2  0  0  0
 10 12  1  0  0  0
 12 13  2  0  0  0
 13 14  1  0  0  0
 14 15  1  0  0  0
 15 16  4  0  0  0
 16 17  4  0  0  0
 17 18  1  0  0  0
 18 19  4  0  0  0
 18 21  4  0  0  0
 19 20  4  0  0  0
 20 23  4  0  0  0
 21 22  4  0  0  0
 22 23  4  0  0  0
 23 24  1  0  0  0
 24 25  1  0  0  0
 25 26  1  0  0  0
 25 28  1  0  0  0
 26 27  1  0  0  0
 27 30  1  0  0  0
 28 29  1  0  0  0
 29 30  1  0  0  0
 30 31  1  0  0  0
 31 32  4  0  0  0
 31 34  4  0  0  0
 32 33  4  0  0  0
 33 36  4  0  0  0
 34 35  4  0  0  0
 35 36  4  0  0  0
 36 37  1  0  0  0
 37 38  1  0  0  0
 38 39  2  0  0  0
 38 40  1  0  0  0
 40 41  1  0  0  0
  1 42  1  0  0  0
  2 43  1  0  0  0
  3 44  1  0  0  0
  4 45  1  0  0  0
  5 46  1  0  0  0
  8 47  1  0  0  0
 13 48  1  0  0  0
 14 49  1  0  0  0
 14 50  1  0  0  0
 19 51  1  0  0  0
 20 52  1  0  0  0
 21 53  1  0  0  0
 22 54  1  0  0  0
 24 55  1  0  0  0
 24 56  1  0  0  0
 25 57  1  0  0  0
 26 58  1  0  0  0
 26 59  1  0  0  0
 27 60  1  0  0  0
 27 61  1  0  0  0
 28 62  1  0  0  0
 28 63  1  0  0  0
 29 64  1  0  0  0
 29 65  1  0  0  0
 32 66  1  0  0  0
 33 67  1  0  0  0
 34 68  1  0  0  0
 35 69  1  0  0  0
 37 70  1  0  0  0
 40 71  1  0  0  0
 40 72  1  0  0  0
 41 73  1  0  0  0
 41 74  1  0  0  0
 41 75  1  0  0  0
M  END
$$$$
