4nmq_ligand
  -I-interpret- 

174175  0  0  0  0  0  0  0  0999 V2000
   43.5610   29.1050   33.1970 N   0  3  0  0  0
   42.9100   28.2290   34.1520 C   0  0  0  0  0
   43.0160   26.8020   33.6910 C   0  0  0  0  0
   43.3240   26.5640   32.5860 O   0  0  0  0  0
   41.4720   28.5860   34.2580 C   0  0  0  0  0
   42.6990   25.8540   34.5550 N   0  0  0  0  0
   42.7260   24.4320   34.1860 C   0  0  0  0  0
   41.8290   23.9040   33.0490 C   0  0  0  0  0
   42.2760   23.3410   32.0720 O   0  0  0  0  0
   42.6380   23.5890   35.4630 C   0  0  0  0  0
   41.8800   22.3190   35.2860 C   0  0  0  0  0
   40.8320   22.2980   34.6700 O   0  0  0  0  0
   42.3850   21.2740   35.8560 N   0  0  0  0  0
   40.5430   24.0490   33.1130 N   0  0  0  0  0
   39.9150   23.5650   31.9040 C   0  0  0  0  0
   39.8350   22.0430   31.7210 C   0  0  0  0  0
   39.5410   21.5850   30.6430 O   0  0  0  0  0
   40.6080   24.2250   30.6800 C   0  0  0  0  0
   41.4430   23.3460   29.8890 O   0  0  0  0  0
   40.0580   21.2680   32.7690 N   0  0  0  0  0
   39.6730   19.8760   32.7930 C   0  0  0  0  0
   38.1590   19.7570   32.6750 C   0  0  0  0  0
   37.7160   18.8250   32.0700 O   0  0  0  0  0
   40.0720   19.2400   34.1110 C   0  0  0  0  0
   41.3080   18.4090   34.1450 C   0  0  0  0  0
   40.8920   17.1240   34.8210 C   0  0  0  0  0
   41.1860   17.0920   36.2340 N   0  0  0  0  0
   40.2890   17.3370   37.1760 C   0  0  0  0  0
   39.0890   17.5850   36.8130 N   0  0  0  0  0
   40.5800   17.2800   38.4610 N   0  0  0  0  0
   37.3940   20.6430   33.3330 N   0  0  0  0  0
   35.9400   20.6010   33.2210 C   0  0  0  0  0
   35.4950   21.2610   31.9340 C   0  0  0  0  0
   36.0310   22.2920   31.5240 O   0  0  0  0  0
   35.2530   21.3350   34.3650 C   0  0  0  0  0
   35.4880   20.7980   35.7280 C   0  0  0  0  0
   36.1090   19.6300   36.0710 C   0  0  0  0  0
   35.1020   21.4260   36.9490 C   0  0  0  0  0
   36.1310   19.4970   37.4370 N   0  0  0  0  0
   35.5210   20.5890   38.0010 C   0  0  0  0  0
   34.4430   22.6220   37.2570 C   0  0  0  0  0
   35.2990   20.9100   39.3410 C   0  0  0  0  0
   34.2260   22.9390   38.5830 C   0  0  0  0  0
   34.6540   22.0860   39.6100 C   0  0  0  0  0
   33.4350   21.3300   23.8470 O   0  0  0  0  0
   32.4650   20.9740   24.5380 C   0  0  0  0  0
   31.0960   21.6040   24.3450 C   0  0  0  0  0
   32.5420   19.8490   25.4440 N   0  0  0  0  0
   31.3460   19.4470   26.2360 C   0  0  0  0  0
   31.7820   19.1950   27.6530 C   0  0  0  0  0
   32.4470   20.4370   28.2020 C   0  0  0  0  0
   32.8590   20.2070   29.6070 C   0  0  0  0  0
   33.8830   21.2070   30.1210 C   0  0  0  0  0
   34.4890   20.6640   31.3160 N   0  0  0  0  0
   33.1930   22.5460   30.4110 C   0  0  0  0  0
   32.6340   22.7350   31.4910 O   0  0  0  0  0
   33.2720   23.4570   29.4580 N   0  0  0  0  0
   32.5570   24.7620   29.5040 C   0  0  0  0  0
   31.8060   25.0230   28.2280 C   0  0  0  0  0
   32.3100   24.8350   27.2090 O   0  0  0  0  0
   33.5490   25.9090   29.7580 C   0  0  0  0  0
   34.1980   25.6690   30.9780 O   0  0  0  0  0
   32.8490   27.2330   29.8310 C   0  0  0  0  0
   30.5500   25.4590   28.3800 N   0  0  0  0  0
   29.7160   25.8150   27.2760 C   0  0  0  0  0
   29.1010   27.2150   27.4660 C   0  0  0  0  0
   28.7040   27.5690   28.5170 O   0  0  0  0  0
   28.5490   24.8240   27.0740 C   0  0  0  0  0
   29.0160   23.5140   26.8100 O   0  0  0  0  0
   29.0920   27.9550   26.3790 N   0  0  0  0  0
   28.4280   29.2610   26.3040 C   0  0  0  0  0
   27.0130   29.0250   25.7860 C   0  0  0  0  0
   26.8290   28.4360   24.7530 O   0  0  0  0  0
   29.1790   30.1820   25.2770 C   0  0  0  0  0
   30.6310   30.3780   25.6390 C   0  0  0  0  0
   28.5430   31.5120   25.2200 C   0  0  0  0  0
   31.5000   30.6780   24.4130 C   0  0  0  0  0
   26.0220   29.4630   26.5460 N   0  0  0  0  0
   24.6280   29.1700   26.2450 C   0  0  0  0  0
   23.7290   30.3750   26.4640 C   0  0  0  0  0
   24.1570   31.3940   27.0110 O   0  0  0  0  0
   24.0990   28.0130   27.0920 C   0  0  0  0  0
   24.1490   28.3530   28.5820 C   0  0  0  0  0
   24.8890   26.7400   26.8090 C   0  0  0  0  0
   23.4890   27.2930   29.4680 C   0  0  0  0  0
   22.5293   30.3326   26.0814 O   0  0  0  0  0
   44.5478   28.8565   33.1273 H   0  0  0  0  0
   43.1176   29.0005   32.2844 H   0  0  0  0  0
   43.4739   30.0719   33.5100 H   0  0  0  0  0
   43.3963   28.3426   35.1208 H   0  0  0  0  0
   40.9983   28.4739   33.2828 H   0  0  0  0  0
   40.9871   27.9257   34.9770 H   0  0  0  0  0
   41.3792   29.6195   34.5918 H   0  0  0  0  0
   42.4285   26.1161   35.5029 H   0  0  0  0  0
   43.6853   24.3223   33.6803 H   0  0  0  0  0
   42.1127   24.1823   36.2115 H   0  0  0  0  0
   43.6554   23.3255   35.7522 H   0  0  0  0  0
   41.9002   20.3783   35.8004 H   0  0  0  0  0
   43.2682   21.3453   36.3612 H   0  0  0  0  0
   40.0428   24.4493   33.9067 H   0  0  0  0  0
   38.8689   23.8579   31.9934 H   0  0  0  0  0
   41.2619   25.0025   31.0750 H   0  0  0  0  0
   39.8115   24.5724   30.0219 H   0  0  0  0  0
   41.8256   23.8401   29.1602 H   0  0  0  0  0
   40.5173   21.6665   33.5879 H   0  0  0  0  0
   40.1709   19.3760   31.9622 H   0  0  0  0  0
   39.2593   18.5572   34.3588 H   0  0  0  0  0
   40.2671   20.0737   34.7855 H   0  0  0  0  0
   42.1160   18.9062   34.6817 H   0  0  0  0  0
   41.7045   18.2312   33.1454 H   0  0  0  0  0
   41.4502   16.3132   34.3529 H   0  0  0  0  0
   39.8116   17.0316   34.7101 H   0  0  0  0  0
   42.1383   16.8680   36.5226 H   0  0  0  0  0
   38.8466   17.5900   35.8222 H   0  0  0  0  0
   39.8499   17.4333   39.1566 H   0  0  0  0  0
   41.5352   17.0826   38.7593 H   0  0  0  0  0
   37.8344   21.3533   33.9177 H   0  0  0  0  0
   35.6603   19.5478   33.2461 H   0  0  0  0  0
   34.1821   21.2435   34.1838 H   0  0  0  0  0
   35.6596   22.3463   34.3636 H   0  0  0  0  0
   36.5249   18.9111   35.3651 H   0  0  0  0  0
   34.1073   23.2907   36.4644 H   0  0  0  0  0
   35.6272   20.2486   40.1429 H   0  0  0  0  0
   33.7137   23.8674   38.8355 H   0  0  0  0  0
   34.4685   22.3664   40.6469 H   0  0  0  0  0
   31.1614   22.6761   24.5305 H   0  0  0  0  0
   30.7585   21.4307   23.3232 H   0  0  0  0  0
   30.3894   21.1556   25.0434 H   0  0  0  0  0
   33.4153   19.3309   25.5406 H   0  0  0  0  0
   30.9041   18.5442   25.8143 H   0  0  0  0  0
   30.5968   20.2383   26.2101 H   0  0  0  0  0
   32.4876   18.3645   27.6746 H   0  0  0  0  0
   30.9130   18.9475   28.2627 H   0  0  0  0  0
   31.7436   21.2688   28.1644 H   0  0  0  0  0
   33.3268   20.6697   27.6021 H   0  0  0  0  0
   33.3191   19.2199   29.6523 H   0  0  0  0  0
   31.9680   20.3082   30.2266 H   0  0  0  0  0
   34.6579   21.3834   29.3750 H   0  0  0  0  0
   34.1280   19.7891   31.6963 H   0  0  0  0  0
   33.8550   23.2553   28.6457 H   0  0  0  0  0
   31.8395   24.7127   30.3230 H   0  0  0  0  0
   34.2602   25.9463   28.9328 H   0  0  0  0  0
   34.8221   26.3774   31.1519 H   0  0  0  0  0
   32.3342   27.4228   28.8892 H   0  0  0  0  0
   32.1246   27.2152   30.6453 H   0  0  0  0  0
   33.5811   28.0201   30.0114 H   0  0  0  0  0
   30.1721   25.5406   29.3239 H   0  0  0  0  0
   30.3678   25.7948   26.4026 H   0  0  0  0  0
   27.9587   25.1572   26.2204 H   0  0  0  0  0
   27.9560   24.8000   27.9883 H   0  0  0  0  0
   28.2664   22.9264   26.6901 H   0  0  0  0  0
   29.5693   27.6043   25.5486 H   0  0  0  0  0
   28.4249   29.7380   27.2841 H   0  0  0  0  0
   29.1193   29.6796   24.3115 H   0  0  0  0  0
   30.9938   29.4561   26.0936 H   0  0  0  0  0
   30.6987   31.2280   26.3179 H   0  0  0  0  0
   27.5043   31.4036   24.9078 H   0  0  0  0  0
   28.5808   31.9740   26.2065 H   0  0  0  0  0
   29.0756   32.1376   24.5037 H   0  0  0  0  0
   31.4354   29.8465   23.7112 H   0  0  0  0  0
   31.1451   31.5895   23.9320 H   0  0  0  0  0
   32.5354   30.8107   24.7268 H   0  0  0  0  0
   26.2419   30.0239   27.3691 H   0  0  0  0  0
   24.6051   28.8935   25.1909 H   0  0  0  0  0
   23.0571   27.8452   26.8195 H   0  0  0  0  0
   23.6052   29.2868   28.7251 H   0  0  0  0  0
   25.1983   28.4162   28.8703 H   0  0  0  0  0
   24.7927   26.4810   25.7546 H   0  0  0  0  0
   25.9393   26.9047   27.0495 H   0  0  0  0  0
   24.4978   25.9275   27.4213 H   0  0  0  0  0
   22.4403   27.1901   29.1893 H   0  0  0  0  0
   23.9979   26.3389   29.3313 H   0  0  0  0  0
   23.5606   27.5981   30.5120 H   0  0  0  0  0
   22.3530   29.4792   25.6787 H   0  0  0  0  0
  2  1  1  0  0  0
  3  2  1  0  0  0
  2  5  1  0  0  0
  3  4  2  0  0  0
  6  3  1  0  0  0
  7  6  1  0  0  0
  8  7  1  0  0  0
  7 10  1  0  0  0
  8  9  2  0  0  0
 14  8  1  0  0  0
 10 11  1  0  0  0
 11 12  2  0  0  0
 11 13  1  0  0  0
 15 14  1  0  0  0
 16 15  1  0  0  0
 15 18  1  0  0  0
 16 17  2  0  0  0
 20 16  1  0  0  0
 18 19  1  0  0  0
 21 20  1  0  0  0
 22 21  1  0  0  0
 21 24  1  0  0  0
 22 23  2  0  0  0
 31 22  1  0  0  0
 24 25  1  0  0  0
 25 26  1  0  0  0
 26 27  1  0  0  0
 27 28  1  0  0  0
 28 29  2  0  0  0
 28 30  1  0  0  0
 32 31  1  0  0  0
 33 32  1  0  0  0
 32 35  1  0  0  0
 33 34  2  0  0  0
 54 33  1  0  0  0
 35 36  1  0  0  0
 36 37  4  0  0  0
 36 38  4  0  0  0
 37 39  4  0  0  0
 38 40  4  0  0  0
 38 41  4  0  0  0
 40 39  4  0  0  0
 40 42  4  0  0  0
 41 43  4  0  0  0
 42 44  4  0  0  0
 43 44  4  0  0  0
 46 45  2  0  0  0
 46 47  1  0  0  0
 48 46  1  0  0  0
 49 48  1  0  0  0
 50 49  1  0  0  0
 51 50  1  0  0  0
 52 51  1  0  0  0
 53 52  1  0  0  0
 53 54  1  0  0  0
 53 55  1  0  0  0
 55 56  2  0  0  0
 55 57  1  0  0  0
 57 58  1  0  0  0
 58 59  1  0  0  0
 58 61  1  0  0  0
 59 60  2  0  0  0
 59 64  1  0  0  0
 61 62  1  0  0  0
 61 63  1  0  0  0
 64 65  1  0  0  0
 65 66  1  0  0  0
 65 68  1  0  0  0
 66 67  2  0  0  0
 66 70  1  0  0  0
 68 69  1  0  0  0
 70 71  1  0  0  0
 71 72  1  0  0  0
 71 74  1  0  0  0
 72 73  2  0  0  0
 72 78  1  0  0  0
 74 75  1  0  0  0
 74 76  1  0  0  0
 75 77  1  0  0  0
 78 79  1  0  0  0
 79 80  1  0  0  0
 79 82  1  0  0  0
 80 81  2  0  0  0
 82 83  1  0  0  0
 82 84  1  0  0  0
 83 85  1  0  0  0
 80 86  1  0  0  0
  1 87  1  0  0  0
  1 88  1  0  0  0
  1 89  1  0  0  0
  2 90  1  0  0  0
  5 91  1  0  0  0
  5 92  1  0  0  0
  5 93  1  0  0  0
  6 94  1  0  0  0
  7 95  1  0  0  0
 10 96  1  0  0  0
 10 97  1  0  0  0
 13 98  1  0  0  0
 13 99  1  0  0  0
 14100  1  0  0  0
 15101  1  0  0  0
 18102  1  0  0  0
 18103  1  0  0  0
 19104  1  0  0  0
 20105  1  0  0  0
 21106  1  0  0  0
 24107  1  0  0  0
 24108  1  0  0  0
 25109  1  0  0  0
 25110  1  0  0  0
 26111  1  0  0  0
 26112  1  0  0  0
 27113  1  0  0  0
 29114  1  0  0  0
 30115  1  0  0  0
 30116  1  0  0  0
 31117  1  0  0  0
 32118  1  0  0  0
 35119  1  0  0  0
 35120  1  0  0  0
 37121  1  0  0  0
 41122  1  0  0  0
 42123  1  0  0  0
 43124  1  0  0  0
 44125  1  0  0  0
 47126  1  0  0  0
 47127  1  0  0  0
 47128  1  0  0  0
 48129  1  0  0  0
 49130  1  0  0  0
 49131  1  0  0  0
 50132  1  0  0  0
 50133  1  0  0  0
 51134  1  0  0  0
 51135  1  0  0  0
 52136  1  0  0  0
 52137  1  0  0  0
 53138  1  0  0  0
 54139  1  0  0  0
 57140  1  0  0  0
 58141  1  0  0  0
 61142  1  0  0  0
 62143  1  0  0  0
 63144  1  0  0  0
 63145  1  0  0  0
 63146  1  0  0  0
 64147  1  0  0  0
 65148  1  0  0  0
 68149  1  0  0  0
 68150  1  0  0  0
 69151  1  0  0  0
 70152  1  0  0  0
 71153  1  0  0  0
 74154  1  0  0  0
 75155  1  0  0  0
 75156  1  0  0  0
 76157  1  0  0  0
 76158  1  0  0  0
 76159  1  0  0  0
 77160  1  0  0  0
 77161  1  0  0  0
 77162  1  0  0  0
 78163  1  0  0  0
 79164  1  0  0  0
 82165  1  0  0  0
 83166  1  0  0  0
 83167  1  0  0  0
 84168  1  0  0  0
 84169  1  0  0  0
 84170  1  0  0  0
 85171  1  0  0  0
 85172  1  0  0  0
 85173  1  0  0  0
 86174  1  0  0  0
M  END
$$$$
