### 
### Created by X-TOOL on Mon Sep 10 21:13:17 2018
### 

@<TRIPOS>MOLECULE
4nmq_ligand
  175   176     1     0     0
SMALL
GAST_HUCK


@<TRIPOS>ATOM
      1 N          43.5610   29.1050   33.1970 N.4       1 ALA         0.2377
      2 CA         42.9100   28.2290   34.1520 C.3       1 ALA         0.0621
      3 C          43.0160   26.8020   33.6910 C.2       1 ALA         0.2265
      4 O          43.3240   26.5640   32.5860 O.2       1 ALA        -0.3907
      5 CB         41.4720   28.5860   34.2580 C.3       1 ALA        -0.0040
      6 N          42.6990   25.8540   34.5550 N.am      1 ASN        -0.2589
      7 CA         42.7260   24.4320   34.1860 C.3       1 ASN         0.1477
      8 C          41.8290   23.9040   33.0490 C.2       1 ASN         0.2063
      9 O          42.2760   23.3410   32.0720 O.2       1 ASN        -0.3942
     10 CB         42.6380   23.5890   35.4630 C.3       1 ASN         0.0773
     11 CG         41.8800   22.3190   35.2860 C.2       1 ASN         0.1780
     12 OD1        40.8320   22.2980   34.6700 O.2       1 ASN        -0.3970
     13 ND2        42.3850   21.2740   35.8560 N.am      1 ASN        -0.3007
     14 N          40.5430   24.0490   33.1130 N.am      1 SER        -0.2614
     15 CA         39.9150   23.5650   31.9040 C.3       1 SER         0.1539
     16 C          39.8350   22.0430   31.7210 C.2       1 SER         0.2062
     17 O          39.5410   21.5850   30.6430 O.2       1 SER        -0.3943
     18 CB         40.6080   24.2250   30.6800 C.3       1 SER         0.0843
     19 OG         41.4430   23.3460   29.8890 O.3       1 SER        -0.3903
     20 N          40.0580   21.2680   32.7690 N.am      1 ARG        -0.2637
     21 CA         39.6730   19.8760   32.7930 C.3       1 ARG         0.1311
     22 C          38.1590   19.7570   32.6750 C.2       1 ARG         0.2040
     23 O          37.7160   18.8250   32.0700 O.2       1 ARG        -0.3944
     24 CB         40.0720   19.2400   34.1110 C.3       1 ARG        -0.0092
     25 CG         41.3080   18.4090   34.1450 C.3       1 ARG        -0.0156
     26 CD         40.8920   17.1240   34.8210 C.3       1 ARG         0.0627
     27 NE         41.1860   17.0920   36.2340 N.pl3     1 ARG        -0.2723
     28 CZ         40.2890   17.3370   37.1760 C.cat     1 ARG         0.2882
     29 NH1        39.0890   17.5850   36.8130 N.pl3     1 ARG        -0.2849
     30 NH2        40.5800   17.2800   38.4610 N.pl3     1 ARG        -0.2849
     31 N          37.3940   20.6430   33.3330 N.am      1 TRP        -0.2627
     32 CA         35.9400   20.6010   33.2210 C.3       1 TRP         0.1352
     33 C          35.4950   21.2610   31.9340 C.2       1 TRP         0.2052
     34 O          36.0310   22.2920   31.5240 O.2       1 TRP        -0.3942
     35 CB         35.2530   21.3350   34.3650 C.3       1 TRP         0.0042
     36 CG         35.4880   20.7980   35.7280 C.2       1 TRP        -0.0418
     37 CD1        36.1090   19.6300   36.0710 C.2       1 TRP         0.0167
     38 CD2        35.1020   21.4260   36.9490 C.ar      1 TRP        -0.0214
     39 NE1        36.1310   19.4970   37.4370 N.pl3     1 TRP        -0.2890
     40 CE2        35.5210   20.5890   38.0010 C.ar      1 TRP         0.0603
     41 CE3        34.4430   22.6220   37.2570 C.ar      1 TRP        -0.0747
     42 CZ2        35.2990   20.9100   39.3410 C.ar      1 TRP        -0.0443
     43 CZ3        34.2260   22.9390   38.5830 C.ar      1 TRP        -0.0792
     44 CH2        34.6540   22.0860   39.6100 C.ar      1 TRP        -0.0768
     45 OH         33.4350   21.3300   23.8470 O.2       1 ALY        -0.3974
     46 CH         32.4650   20.9740   24.5380 C.2       1 ALY         0.1729
     47 CH3        31.0960   21.6040   24.3450 C.3       1 ALY         0.0256
     48 NZ         32.5420   19.8490   25.4440 N.am      1 ALY        -0.2872
     49 CE         31.3460   19.4470   26.2360 C.3       1 ALY         0.0309
     50 CD         31.7820   19.1950   27.6530 C.3       1 ALY        -0.0325
     51 CG         32.4470   20.4370   28.2020 C.3       1 ALY        -0.0470
     52 CB         32.8590   20.2070   29.6070 C.3       1 ALY        -0.0123
     53 CA         33.8830   21.2070   30.1210 C.3       1 ALY         0.1310
     54 N          34.4890   20.6640   31.3160 N.am      1 ALY        -0.2636
     55 C          33.1930   22.5460   30.4110 C.2       1 ALY         0.2040
     56 O          32.6340   22.7350   31.4910 O.2       1 ALY        -0.3944
     57 N          33.2720   23.4570   29.4580 N.am      1 THR        -0.2613
     58 CA         32.5570   24.7620   29.5040 C.3       1 THR         0.1565
     59 C          31.8060   25.0230   28.2280 C.2       1 THR         0.2065
     60 O          32.3100   24.8350   27.2090 O.2       1 THR        -0.3943
     61 CB         33.5490   25.9090   29.7580 C.3       1 THR         0.0924
     62 OG1        34.1980   25.6690   30.9780 O.3       1 THR        -0.3874
     63 CG2        32.8490   27.2330   29.8310 C.3       1 THR        -0.0346
     64 N          30.5500   25.4590   28.3800 N.am      1 SER        -0.2615
     65 CA         29.7160   25.8150   27.2760 C.3       1 SER         0.1539
     66 C          29.1010   27.2150   27.4660 C.2       1 SER         0.2062
     67 O          28.7040   27.5690   28.5170 O.2       1 SER        -0.3943
     68 CB         28.5490   24.8240   27.0740 C.3       1 SER         0.0843
     69 OG         29.0160   23.5140   26.8100 O.3       1 SER        -0.3903
     70 N          29.0920   27.9550   26.3790 N.am      1 ILE        -0.2634
     71 CA         28.4280   29.2610   26.3040 C.3       1 ILE         0.1335
     72 C          27.0130   29.0250   25.7860 C.2       1 ILE         0.2037
     73 O          26.8290   28.4360   24.7530 O.2       1 ILE        -0.3944
     74 CB         29.1790   30.1820   25.2770 C.3       1 ILE        -0.0037
     75 CG1        30.6310   30.3780   25.6390 C.3       1 ILE        -0.0491
     76 CG2        28.5430   31.5120   25.2200 C.3       1 ILE        -0.0582
     77 CD1        31.5000   30.6780   24.4130 C.3       1 ILE        -0.0648
     78 N          26.0220   29.4630   26.5460 N.am      1 ILE        -0.2668
     79 CA         24.6280   29.1700   26.2450 C.3       1 ILE         0.1251
     80 C          23.7290   30.3750   26.4640 C.2       1 ILE         0.2152
     81 O          24.1570   31.3940   27.0110 O.co2     1 ILE        -0.4120
     82 CB         24.0990   28.0130   27.0920 C.3       1 ILE        -0.0068
     83 CG1        24.1490   28.3530   28.5820 C.3       1 ILE        -0.0496
     84 CG2        24.8890   26.7400   26.8090 C.3       1 ILE        -0.0587
     85 CD1        23.4890   27.2930   29.4680 C.3       1 ILE        -0.0649
     86 H          43.4864   30.0597   33.5117 H         1 ALA         0.2015
     87 H          43.1154   29.0120   32.2976 H         1 ALA         0.2015
     88 H          44.5336   28.8523   33.1179 H         1 ALA         0.2015
     89 H          43.3919   28.3368   35.1349 H         1 ALA         0.1095
     90 H          40.9813   27.9199   34.9829 H         1 ALA         0.0310
     91 H          40.9928   28.4738   33.2742 H         1 ALA         0.0310
     92 H          41.3769   29.6286   34.5954 H         1 ALA         0.0310
     93 H          42.4338   26.1110   35.4843 H         1 ASN         0.1886
     94 H          43.7435   24.2751   33.7987 H         1 ASN         0.0826
     95 H          42.1396   24.1863   36.2408 H         1 ASN         0.0551
     96 H          43.6594   23.3423   35.7883 H         1 ASN         0.0551
     97 H          41.9253   20.3895   35.7760 H         1 ASN         0.1814
     98 H          43.2352   21.3503   36.3768 H         1 ASN         0.1814
     99 H          40.0526   24.4415   33.8911 H         1 SER         0.1884
    100 H          38.8751   23.9225   31.9310 H         1 SER         0.0823
    101 H          41.2370   25.0483   31.0496 H         1 SER         0.0606
    102 H          39.8235   24.6291   30.0233 H         1 SER         0.0606
    103 H          42.1373   22.9952   30.4343 H         1 SER         0.2097
    104 H          40.5083   21.6587   33.5719 H         1 ARG         0.1883
    105 H          40.1589   19.3477   31.9595 H         1 ARG         0.0800
    106 H          39.2379   18.5973   34.4290 H         1 ARG         0.0313
    107 H          40.2059   20.0539   34.8388 H         1 ARG         0.0313
    108 H          42.0974   18.9124   34.7225 H         1 ARG         0.0301
    109 H          41.6695   18.2106   33.1252 H         1 ARG         0.0301
    110 H          41.4207   16.2896   34.3370 H         1 ARG         0.0689
    111 H          39.8074   16.9969   34.6887 H         1 ARG         0.0689
    112 H          42.1477   16.8658   36.5255 H         1 ARG         0.2642
    113 H          38.3666   17.7798   37.5209 H         1 ARG         0.2615
    114 H          38.8442   17.5901   35.8125 H         1 ARG         0.2615
    115 H          41.5446   17.0807   38.7623 H         1 ARG         0.2615
    116 H          39.8427   17.4348   39.1634 H         1 ARG         0.2615
    117 H          37.8258   21.3394   33.9062 H         1 TRP         0.1884
    118 H          35.6195   19.5487   33.2243 H         1 TRP         0.0815
    119 H          34.1695   21.3086   34.1770 H         1 TRP         0.0397
    120 H          35.6023   22.3780   34.3513 H         1 TRP         0.0397
    121 H          36.5245   18.9118   35.3657 H         1 TRP         0.0795
    122 H          36.5393   18.7057   37.9547 H         1 TRP         0.2216
    123 H          34.1092   23.2871   36.4688 H         1 TRP         0.0540
    124 H          35.6254   20.2523   40.1385 H         1 TRP         0.0541
    125 H          33.7165   23.8623   38.8341 H         1 TRP         0.0510
    126 H          34.4695   22.3648   40.6412 H         1 TRP         0.0530
    127 H          30.3819   21.1523   25.0493 H         1 ALY         0.0467
    128 H          30.7542   21.4297   23.3141 H         1 ALY         0.0467
    129 H          31.1606   22.6861   24.5319 H         1 ALY         0.0467
    130 H          33.3982   19.3411   25.5387 H         1 ALY         0.1850
    131 H          30.9100   18.5303   25.8123 H         1 ALY         0.0520
    132 H          30.5976   20.2528   26.2147 H         1 ALY         0.0520
    133 H          32.4946   18.3573   27.6743 H         1 ALY         0.0285
    134 H          30.9048   18.9460   28.2682 H         1 ALY         0.0285
    135 H          31.7392   21.2781   28.1621 H         1 ALY         0.0268
    136 H          33.3336   20.6747   27.5958 H         1 ALY         0.0268
    137 H          33.2928   19.1988   29.6800 H         1 ALY         0.0312
    138 H          31.9647   20.2685   30.2446 H         1 ALY         0.0312
    139 H          34.6606   21.3626   29.3587 H         1 ALY         0.0800
    140 H          34.1350   19.8063   31.6889 H         1 ALY         0.1883
    141 H          33.8436   23.2593   28.6616 H         1 THR         0.1884
    142 H          31.8349   24.7307   30.3332 H         1 THR         0.0826
    143 H          34.2876   25.9365   28.9433 H         1 THR         0.0639
    144 H          34.6618   24.8412   30.9312 H         1 THR         0.2101
    145 H          33.5868   28.0283   30.0131 H         1 THR         0.0257
    146 H          32.1177   27.2163   30.6525 H         1 THR         0.0257
    147 H          32.3291   27.4258   28.8810 H         1 THR         0.0257
    148 H          30.1795   25.5390   29.3054 H         1 SER         0.1884
    149 H          30.3379   25.8180   26.3687 H         1 SER         0.0823
    150 H          27.9366   25.1622   26.2251 H         1 SER         0.0606
    151 H          27.9340   24.8064   27.9858 H         1 SER         0.0606
    152 H          29.5419   23.2130   27.5417 H         1 SER         0.2097
    153 H          29.5600   27.6112   25.5649 H         1 ILE         0.1883
    154 H          28.4051   29.7367   27.2955 H         1 ILE         0.0803
    155 H          29.1217   29.7112   24.2845 H         1 ILE         0.0345
    156 H          31.0026   29.4613   26.1203 H         1 ILE         0.0267
    157 H          30.7097   31.2196   26.3430 H         1 ILE         0.0267
    158 H          27.4808   31.3995   24.9574 H         1 ILE         0.0235
    159 H          29.0458   32.1266   24.4587 H         1 ILE         0.0235
    160 H          28.6282   32.0016   26.2014 H         1 ILE         0.0235
    161 H          32.5452   30.8121   24.7284 H         1 ILE         0.0230
    162 H          31.1429   31.5977   23.9266 H         1 ILE         0.0230
    163 H          31.4358   29.8395   23.7039 H         1 ILE         0.0230
    164 H          26.2376   30.0129   27.3529 H         1 ILE         0.1876
    165 H          24.5680   28.8813   25.1853 H         1 ILE         0.0754
    166 O1         22.5293   30.3326   26.0814 O.co2     1 ILE        -0.4120
    167 H          23.0491   27.8369   26.8151 H         1 ILE         0.0339
    168 H          23.6313   29.3107   28.7391 H         1 ILE         0.0267
    169 H          25.2026   28.4521   28.8823 H         1 ILE         0.0267
    170 H          24.8423   26.5108   25.7342 H         1 ILE         0.0234
    171 H          24.4570   25.9056   27.3809 H         1 ILE         0.0234
    172 H          25.9377   26.8852   27.1077 H         1 ILE         0.0234
    173 H          23.5606   27.5998   30.5219 H         1 ILE         0.0230
    174 H          24.0018   26.3295   29.3310 H         1 ILE         0.0230
    175 H          22.4305   27.1882   29.1878 H         1 ILE         0.0230
@<TRIPOS>BOND
     1    2    1 1  
     2    3    2 1  
     3    2    5 1  
     4    3    4 2  
     5    6    3 am 
     6    7    6 1  
     7    8    7 1  
     8    7   10 1  
     9    8    9 2  
    10   14    8 am 
    11   10   11 1  
    12   11   12 2  
    13   11   13 am 
    14   15   14 1  
    15   16   15 1  
    16   15   18 1  
    17   16   17 2  
    18   20   16 am 
    19   18   19 1  
    20   21   20 1  
    21   22   21 1  
    22   21   24 1  
    23   22   23 2  
    24   31   22 am 
    25   24   25 1  
    26   25   26 1  
    27   26   27 1  
    28   27   28 ar 
    29   28   29 ar 
    30   28   30 ar 
    31   32   31 1  
    32   33   32 1  
    33   32   35 1  
    34   33   34 2  
    35   54   33 am 
    36   35   36 1  
    37   36   37 2  
    38   36   38 1  
    39   37   39 1  
    40   38   40 ar 
    41   38   41 ar 
    42   40   39 1  
    43   40   42 ar 
    44   41   43 ar 
    45   42   44 ar 
    46   43   44 ar 
    47   46   45 2  
    48   46   47 1  
    49   48   46 am 
    50   49   48 1  
    51   50   49 1  
    52   51   50 1  
    53   52   51 1  
    54   53   52 1  
    55   53   54 1  
    56   53   55 1  
    57   55   56 2  
    58   55   57 am 
    59   57   58 1  
    60   58   59 1  
    61   58   61 1  
    62   59   60 2  
    63   59   64 am 
    64   61   62 1  
    65   61   63 1  
    66   64   65 1  
    67   65   66 1  
    68   65   68 1  
    69   66   67 2  
    70   66   70 am 
    71   68   69 1  
    72   70   71 1  
    73   71   72 1  
    74   71   74 1  
    75   72   73 2  
    76   72   78 am 
    77   74   75 1  
    78   74   76 1  
    79   75   77 1  
    80   78   79 1  
    81   79   80 1  
    82   79   82 1  
    83   80   81 ar 
    84   82   83 1  
    85   82   84 1  
    86   83   85 1  
    87    1   86 1  
    88    1   87 1  
    89    1   88 1  
    90    2   89 1  
    91    5   90 1  
    92    5   91 1  
    93    5   92 1  
    94    6   93 1  
    95    7   94 1  
    96   10   95 1  
    97   10   96 1  
    98   13   97 1  
    99   13   98 1  
   100   14   99 1  
   101   15  100 1  
   102   18  101 1  
   103   18  102 1  
   104   19  103 1  
   105   20  104 1  
   106   21  105 1  
   107   24  106 1  
   108   24  107 1  
   109   25  108 1  
   110   25  109 1  
   111   26  110 1  
   112   26  111 1  
   113   27  112 1  
   114   29  113 1  
   115   29  114 1  
   116   30  115 1  
   117   30  116 1  
   118   31  117 1  
   119   32  118 1  
   120   35  119 1  
   121   35  120 1  
   122   37  121 1  
   123   39  122 1  
   124   41  123 1  
   125   42  124 1  
   126   43  125 1  
   127   44  126 1  
   128   47  127 1  
   129   47  128 1  
   130   47  129 1  
   131   48  130 1  
   132   49  131 1  
   133   49  132 1  
   134   50  133 1  
   135   50  134 1  
   136   51  135 1  
   137   51  136 1  
   138   52  137 1  
   139   52  138 1  
   140   53  139 1  
   141   54  140 1  
   142   57  141 1  
   143   58  142 1  
   144   61  143 1  
   145   62  144 1  
   146   63  145 1  
   147   63  146 1  
   148   63  147 1  
   149   64  148 1  
   150   65  149 1  
   151   68  150 1  
   152   68  151 1  
   153   69  152 1  
   154   70  153 1  
   155   71  154 1  
   156   74  155 1  
   157   75  156 1  
   158   75  157 1  
   159   76  158 1  
   160   76  159 1  
   161   76  160 1  
   162   77  161 1  
   163   77  162 1  
   164   77  163 1  
   165   78  164 1  
   166   79  165 1  
   167   80  166 ar 
   168   82  167 1  
   169   83  168 1  
   170   83  169 1  
   171   84  170 1  
   172   84  171 1  
   173   84  172 1  
   174   85  173 1  
   175   85  174 1  
   176   85  175 1  
@<TRIPOS>SUBSTRUCTURE
     1 ALA         1

