6o2p_ligand
  -I-interpret- 

 57 59  0  0  0  0  0  0  0  0999 V2000
  151.4550  183.2430  172.4030 O   0  0  0  0  0
  151.6980  182.2990  171.6530 C   0  0  0  0  0
  152.0820  181.0650  172.1930 C   0  0  0  0  0
  152.1890  180.8880  173.5820 C   0  0  0  0  0
  152.5680  179.6570  174.1160 C   0  0  0  0  0
  152.8450  178.5890  173.2680 C   0  0  0  0  0
  152.7440  178.7560  171.8850 C   0  0  0  0  0
  152.3630  179.9870  171.3480 C   0  0  0  0  0
  152.2690  180.1340  170.0160 N   0  0  0  0  0
  151.8850  181.3650  169.4490 C   0  0  0  0  0
  151.6030  182.4770  170.2590 C   0  0  0  0  0
  151.1990  183.7010  169.6710 C   0  0  0  0  0
  150.8850  183.7240  168.4790 O   0  0  0  0  0
  151.0930  184.7940  170.4960 N   0  0  0  0  0
  150.6640  185.9820  170.0180 C   0  0  0  0  0
  151.4290  186.6310  169.0560 C   0  0  0  0  0
  151.0350  187.8560  168.5400 C   0  0  0  0  0
  151.8340  188.4270  167.5910 O   0  0  0  0  0
  149.8520  188.5030  168.9770 C   0  0  0  0  0
  149.4310  189.7880  168.4450 C   0  0  0  0  0
  150.5160  190.8550  168.7550 C   0  0  0  0  0
  148.1100  190.3380  169.0430 C   0  0  0  0  0
  149.1850  189.6650  166.9170 C   0  0  0  0  0
  149.1060  187.8260  169.9590 C   0  0  0  0  0
  149.4620  186.5750  170.5090 C   0  0  0  0  0
  148.6240  185.9560  171.5230 C   0  0  0  0  0
  147.2900  186.6930  171.8010 C   0  0  0  0  0
  148.2050  184.5290  171.0760 C   0  0  0  0  0
  149.3800  185.9270  172.8790 C   0  0  0  0  0
  151.9734  181.7220  174.2499 H   0  0  0  0  0
  152.6472  179.5314  175.1958 H   0  0  0  0  0
  153.1400  177.6248  173.6819 H   0  0  0  0  0
  152.9640  177.9201  171.2209 H   0  0  0  0  0
  151.8056  181.4558  168.3657 H   0  0  0  0  0
  151.9272  183.5169  170.2999 H   0  0  0  0  0
  151.3413  184.7074  171.4815 H   0  0  0  0  0
  152.3515  186.1705  168.7024 H   0  0  0  0  0
  151.4546  189.2652  167.3171 H   0  0  0  0  0
  150.6492  190.9330  169.8340 H   0  0  0  0  0
  151.4573  190.5593  168.2918 H   0  0  0  0  0
  150.2003  191.8189  168.3560 H   0  0  0  0  0
  147.3017  189.6345  168.8435 H   0  0  0  0  0
  148.2252  190.4653  170.1194 H   0  0  0  0  0
  147.8779  191.2995  168.5849 H   0  0  0  0  0
  150.1069  189.3538  166.4257 H   0  0  0  0  0
  148.4065  188.9244  166.7341 H   0  0  0  0  0
  148.8695  190.6308  166.5222 H   0  0  0  0  0
  148.1923  188.2986  170.3194 H   0  0  0  0  0
  147.5006  187.7066  172.1421 H   0  0  0  0  0
  146.7000  186.7316  170.8853 H   0  0  0  0  0
  146.7341  186.1575  172.5706 H   0  0  0  0  0
  147.6475  184.5914  170.1415 H   0  0  0  0  0
  149.0965  183.9194  170.9287 H   0  0  0  0  0
  147.5780  184.0781  171.8452 H   0  0  0  0  0
  150.2996  185.3522  172.7686 H   0  0  0  0  0
  149.6211  186.9462  173.1810 H   0  0  0  0  0
  148.7482  185.4623  173.6359 H   0  0  0  0  0
  1  2  2  0  0  0
  2  3  1  0  0  0
  2 11  1  0  0  0
  3  4  4  0  0  0
  3  8  4  0  0  0
  4  5  4  0  0  0
  5  6  4  0  0  0
  6  7  4  0  0  0
  7  8  4  0  0  0
  8  9  1  0  0  0
  9 10  2  0  0  0
 10 11  1  0  0  0
 11 12  1  0  0  0
 12 13  2  0  0  0
 12 14  1  0  0  0
 14 15  1  0  0  0
 15 16  4  0  0  0
 15 25  4  0  0  0
 16 17  4  0  0  0
 17 18  1  0  0  0
 17 19  4  0  0  0
 19 20  1  0  0  0
 19 24  4  0  0  0
 20 21  1  0  0  0
 20 22  1  0  0  0
 20 23  1  0  0  0
 24 25  4  0  0  0
 25 26  1  0  0  0
 26 27  1  0  0  0
 26 28  1  0  0  0
 26 29  1  0  0  0
  4 30  1  0  0  0
  5 31  1  0  0  0
  6 32  1  0  0  0
  7 33  1  0  0  0
 10 34  1  0  0  0
 11 35  1  0  0  0
 14 36  1  0  0  0
 16 37  1  0  0  0
 18 38  1  0  0  0
 21 39  1  0  0  0
 21 40  1  0  0  0
 21 41  1  0  0  0
 22 42  1  0  0  0
 22 43  1  0  0  0
 22 44  1  0  0  0
 23 45  1  0  0  0
 23 46  1  0  0  0
 23 47  1  0  0  0
 24 48  1  0  0  0
 27 49  1  0  0  0
 27 50  1  0  0  0
 27 51  1  0  0  0
 28 52  1  0  0  0
 28 53  1  0  0  0
 28 54  1  0  0  0
 29 55  1  0  0  0
 29 56  1  0  0  0
 29 57  1  0  0  0
M  END
$$$$
