5ele_ligand
  -I-interpret- 

118122  0  0  0  0  0  0  0  0999 V2000
   13.8840   -4.3510  -34.8000 C   0  0  0  0  0
   13.7010   -5.3100  -33.6180 C   0  0  0  0  0
   13.9630   -4.6130  -32.3050 C   0  0  0  0  0
   15.2920   -3.8880  -32.3730 C   0  0  0  0  0
   15.3970   -2.9550  -33.6060 C   0  0  0  0  0
   16.7970   -2.4080  -33.7430 C   0  0  0  0  0
   11.9370   -6.7310  -34.4600 C   0  0  0  0  0
   10.4260   -6.9520  -34.5840 C   0  0  0  0  0
   15.1640   -3.7320  -34.7940 O   0  0  0  0  0
   14.0840   -5.5950  -31.2040 O   0  0  0  0  0
   15.3980   -3.1690  -31.1690 O   0  0  0  0  0
   16.7100   -1.3810  -34.7410 O   0  0  0  0  0
   12.7260   -7.4800  -35.0200 O   0  0  0  0  0
   12.3080   -5.6890  -33.7140 N   0  0  0  0  0
   12.8620   -3.3180  -34.7180 O   0  0  0  0  0
   16.6770   -3.2750  -30.5390 C   0  0  0  0  0
   16.8650   -2.0750  -29.6810 C   0  0  0  0  0
   18.1840   -2.2030  -28.9840 C   0  0  0  0  0
   18.2620   -3.4950  -28.1780 C   0  0  0  0  0
   18.0280   -4.6470  -29.1110 C   0  0  0  0  0
   18.0120   -5.9170  -28.2970 C   0  0  0  0  0
   16.9410   -0.9160  -30.5420 O   0  0  0  0  0
   18.2900   -1.0130  -28.1250 O   0  0  0  0  0
   17.2660   -3.4530  -27.0890 O   0  0  0  0  0
   16.7680   -4.4970  -29.7930 O   0  0  0  0  0
   18.0550   -6.9580  -29.2490 O   0  0  0  0  0
   20.7520   -1.2970  -28.2710 O   0  0  0  0  0
   19.5780   -0.9060  -27.4240 C   0  0  0  0  0
   19.7510    0.5410  -26.9170 C   0  0  0  0  0
   18.5980    0.9970  -26.1170 N   0  0  0  0  0
   19.9470    1.5130  -28.0730 C   0  0  0  0  0
   20.2370    2.8260  -27.5250 O   0  0  0  0  0
   21.1260    1.0600  -28.9230 C   0  0  0  0  0
   22.2890    1.1370  -28.1000 O   0  0  0  0  0
   20.9330   -0.3920  -29.4150 C   0  0  0  0  0
   22.1150   -0.8300  -30.2770 C   0  0  0  0  0
   21.8940   -0.1450  -31.5470 O   0  0  0  0  0
   18.5770    0.9500  -24.7650 C   0  0  0  0  0
   17.6100    1.3620  -24.1140 O   0  0  0  0  0
   19.7940    0.3130  -24.0690 C   0  0  0  0  0
   16.3080    0.3150  -30.0810 C   0  0  0  0  0
   16.7050    1.4930  -31.0270 C   0  0  0  0  0
   16.0140    1.3110  -32.4030 C   0  0  0  0  0
   14.4850    1.0930  -32.2480 C   0  0  0  0  0
   14.2350   -0.1110  -31.3450 C   0  0  0  0  0
   12.7350   -0.3320  -31.1290 C   0  0  0  0  0
   18.1440    1.4880  -31.2190 O   0  0  0  0  0
   16.2230    2.4650  -33.2170 O   0  0  0  0  0
   13.9120    2.2950  -31.6850 O   0  0  0  0  0
   14.8190    0.1210  -30.0560 O   0  0  0  0  0
   12.8790   -5.9210  -30.4090 C   0  0  0  0  0
   13.0950   -7.3010  -29.7250 C   0  0  0  0  0
   14.2370   -7.1890  -28.7660 C   0  0  0  0  0
   13.9640   -6.0570  -27.7570 C   0  0  0  0  0
   13.6540   -4.7220  -28.4830 C   0  0  0  0  0
   13.2790   -3.6450  -27.5030 C   0  0  0  0  0
   13.3710   -8.2690  -30.7350 O   0  0  0  0  0
   14.3970   -8.4380  -28.0880 O   0  0  0  0  0
   12.8830   -6.4070  -26.8330 O   0  0  0  0  0
   12.6430   -4.8860  -29.4500 O   0  0  0  0  0
   13.7968   -4.9267  -35.7214 H   0  0  0  0  0
   14.3876   -6.1559  -33.6513 H   0  0  0  0  0
   13.1333   -3.9296  -32.1244 H   0  0  0  0  0
   16.1115   -4.5970  -32.4907 H   0  0  0  0  0
   14.6749   -2.1482  -33.4808 H   0  0  0  0  0
   17.5040   -3.1862  -34.0306 H   0  0  0  0  0
   17.1672   -2.0150  -32.7961 H   0  0  0  0  0
   10.1363   -6.8928  -35.6331 H   0  0  0  0  0
   10.1704   -7.9357  -34.1902 H   0  0  0  0  0
    9.9000   -6.1842  -34.0166 H   0  0  0  0  0
   17.5772   -0.9914  -34.8740 H   0  0  0  0  0
   11.6029   -5.1545  -33.2065 H   0  0  0  0  0
   11.9937   -3.7275  -34.7215 H   0  0  0  0  0
   17.4743   -3.3081  -31.2815 H   0  0  0  0  0
   16.0480   -1.9831  -28.9653 H   0  0  0  0  0
   19.0121   -2.2542  -29.6909 H   0  0  0  0  0
   19.2432   -3.6154  -27.7188 H   0  0  0  0  0
   18.8206   -4.6795  -29.8585 H   0  0  0  0  0
   17.1262   -5.9821  -27.6652 H   0  0  0  0  0
   18.8531   -5.9655  -27.6054 H   0  0  0  0  0
   17.3145   -4.2661  -26.5810 H   0  0  0  0  0
   18.0475   -7.8046  -28.7964 H   0  0  0  0  0
   19.5558   -1.6106  -26.5926 H   0  0  0  0  0
   20.6384    0.5300  -26.2841 H   0  0  0  0  0
   17.7808    1.3638  -26.6048 H   0  0  0  0  0
   19.0477    1.5465  -28.6880 H   0  0  0  0  0
   20.3632    3.4505  -28.2431 H   0  0  0  0  0
   21.2169    1.6948  -29.8044 H   0  0  0  0  0
   23.0561    0.8574  -28.6050 H   0  0  0  0  0
   20.0349   -0.4350  -30.0312 H   0  0  0  0  0
   22.1648   -1.9127  -30.3931 H   0  0  0  0  0
   23.0739   -0.5715  -29.8279 H   0  0  0  0  0
   22.6014   -0.3676  -32.1567 H   0  0  0  0  0
   20.2396    1.0358  -23.3856 H   0  0  0  0  0
   19.4726   -0.5664  -23.5109 H   0  0  0  0  0
   20.5282    0.0203  -24.8196 H   0  0  0  0  0
   16.6458    0.5586  -29.0737 H   0  0  0  0  0
   16.3908    2.4364  -30.5805 H   0  0  0  0  0
   16.4546    0.4305  -32.8707 H   0  0  0  0  0
   14.0198    0.8930  -33.2132 H   0  0  0  0  0
   14.6761   -0.9824  -31.8290 H   0  0  0  0  0
   12.3023    0.5525  -30.6615 H   0  0  0  0  0
   12.2530   -0.5089  -32.0905 H   0  0  0  0  0
   12.5859   -1.1963  -30.4818 H   0  0  0  0  0
   18.3907    2.2112  -31.8002 H   0  0  0  0  0
   15.7907    2.3396  -34.0649 H   0  0  0  0  0
   12.9647    2.1785  -31.5817 H   0  0  0  0  0
   11.9988   -5.9840  -31.0489 H   0  0  0  0  0
   12.2060   -7.6088  -29.1744 H   0  0  0  0  0
   15.1541   -6.9527  -29.3056 H   0  0  0  0  0
   14.8722   -5.9222  -27.1696 H   0  0  0  0  0
   14.5640   -4.4125  -28.9970 H   0  0  0  0  0
   12.3934   -3.9534  -26.9474 H   0  0  0  0  0
   14.1051   -3.4817  -26.8109 H   0  0  0  0  0
   13.0677   -2.7219  -28.0428 H   0  0  0  0  0
   13.5066   -9.1268  -30.3260 H   0  0  0  0  0
   15.1289   -8.3739  -27.4701 H   0  0  0  0  0
   12.7399   -5.6819  -26.2204 H   0  0  0  0  0
  2  1  1  0  0  0
  1  9  1  0  0  0
  1 15  1  0  0  0
  2  3  1  0  0  0
 14  2  1  0  0  0
  3  4  1  0  0  0
  3 10  1  0  0  0
  4  5  1  0  0  0
  4 11  1  0  0  0
  5  6  1  0  0  0
  9  5  1  0  0  0
  6 12  1  0  0  0
  7  8  1  0  0  0
  7 13  2  0  0  0
  7 14  1  0  0  0
 10 51  1  0  0  0
 11 16  1  0  0  0
 16 17  1  0  0  0
 16 25  1  0  0  0
 17 18  1  0  0  0
 17 22  1  0  0  0
 18 19  1  0  0  0
 18 23  1  0  0  0
 19 20  1  0  0  0
 19 24  1  0  0  0
 20 21  1  0  0  0
 20 25  1  0  0  0
 21 26  1  0  0  0
 22 41  1  0  0  0
 23 28  1  0  0  0
 28 27  1  0  0  0
 27 35  1  0  0  0
 28 29  1  0  0  0
 29 30  1  0  0  0
 29 31  1  0  0  0
 30 38  1  0  0  0
 31 32  1  0  0  0
 31 33  1  0  0  0
 33 34  1  0  0  0
 33 35  1  0  0  0
 35 36  1  0  0  0
 36 37  1  0  0  0
 38 39  2  0  0  0
 38 40  1  0  0  0
 41 42  1  0  0  0
 41 50  1  0  0  0
 42 43  1  0  0  0
 42 47  1  0  0  0
 43 44  1  0  0  0
 43 48  1  0  0  0
 44 45  1  0  0  0
 44 49  1  0  0  0
 45 46  1  0  0  0
 45 50  1  0  0  0
 51 52  1  0  0  0
 51 60  1  0  0  0
 52 53  1  0  0  0
 52 57  1  0  0  0
 53 54  1  0  0  0
 53 58  1  0  0  0
 54 55  1  0  0  0
 54 59  1  0  0  0
 55 56  1  0  0  0
 55 60  1  0  0  0
  1 61  1  0  0  0
  2 62  1  0  0  0
  3 63  1  0  0  0
  4 64  1  0  0  0
  5 65  1  0  0  0
  6 66  1  0  0  0
  6 67  1  0  0  0
  8 68  1  0  0  0
  8 69  1  0  0  0
  8 70  1  0  0  0
 12 71  1  0  0  0
 14 72  1  0  0  0
 15 73  1  0  0  0
 16 74  1  0  0  0
 17 75  1  0  0  0
 18 76  1  0  0  0
 19 77  1  0  0  0
 20 78  1  0  0  0
 21 79  1  0  0  0
 21 80  1  0  0  0
 24 81  1  0  0  0
 26 82  1  0  0  0
 28 83  1  0  0  0
 29 84  1  0  0  0
 30 85  1  0  0  0
 31 86  1  0  0  0
 32 87  1  0  0  0
 33 88  1  0  0  0
 34 89  1  0  0  0
 35 90  1  0  0  0
 36 91  1  0  0  0
 36 92  1  0  0  0
 37 93  1  0  0  0
 40 94  1  0  0  0
 40 95  1  0  0  0
 40 96  1  0  0  0
 41 97  1  0  0  0
 42 98  1  0  0  0
 43 99  1  0  0  0
 44100  1  0  0  0
 45101  1  0  0  0
 46102  1  0  0  0
 46103  1  0  0  0
 46104  1  0  0  0
 47105  1  0  0  0
 48106  1  0  0  0
 49107  1  0  0  0
 51108  1  0  0  0
 52109  1  0  0  0
 53110  1  0  0  0
 54111  1  0  0  0
 55112  1  0  0  0
 56113  1  0  0  0
 56114  1  0  0  0
 56115  1  0  0  0
 57116  1  0  0  0
 58117  1  0  0  0
 59118  1  0  0  0
M  END
$$$$
