3gjt_ligand
  -I-interpret- 

 71 71  0  0  0  0  0  0  0  0999 V2000
    8.8970   35.4710   61.3680 C   0  0  0  0  0
    7.7010   35.3950   61.6760 O   0  0  0  0  0
    9.9820   35.2720   62.4040 C   0  0  0  0  0
    9.3090   35.7290   60.1290 N   0  0  0  0  0
    8.3560   35.9390   59.0490 C   0  0  0  0  0
    7.7530   34.6020   58.6250 C   0  0  0  0  0
    8.4480   33.5930   58.5440 O   0  0  0  0  0
    9.0270   36.6500   57.8340 C   0  0  0  0  0
    9.2790   38.1260   58.1640 C   0  0  0  0  0
    8.1320   36.5760   56.6100 C   0  0  0  0  0
   10.3570   38.3680   59.2010 C   0  0  0  0  0
    6.4480   34.6030   58.3590 N   0  0  0  0  0
    5.7360   33.3980   57.9560 C   0  0  0  0  0
    5.2580   33.4860   56.5050 C   0  0  0  0  0
    4.7840   34.5340   56.0570 O   0  0  0  0  0
    4.5380   33.1730   58.8880 C   0  0  0  0  0
    4.9120   32.8810   60.3430 C   0  0  0  0  0
    3.7040   32.8500   61.2810 C   0  0  0  0  0
    2.7340   32.1150   60.9860 O   0  0  0  0  0
    3.7300   33.5550   62.3180 O   0  0  0  0  0
    5.3930   32.3850   55.7520 N   0  0  0  0  0
    4.9790   32.3100   54.3470 C   0  0  0  0  0
    3.4950   32.0050   54.1690 C   0  0  0  0  0
    2.8600   31.3900   55.0270 O   0  0  0  0  0
    5.8570   31.1960   53.7960 C   0  0  0  0  0
    5.9500   30.2680   54.9560 C   0  0  0  0  0
    6.2200   31.2170   56.1070 C   0  0  0  0  0
    2.9590   32.4380   53.0350 N   0  0  0  0  0
    1.5460   32.2380   52.7050 C   0  0  0  0  0
    1.4020   31.3080   51.4990 C   0  0  0  0  0
    0.0490   31.1890   51.0550 O   0  0  0  0  0
    0.8640   33.5790   52.3900 C   0  0  0  0  0
    0.1480   34.1750   53.5980 C   0  0  0  0  0
   -0.1360   33.4300   54.5620 O   0  0  0  0  0
   -0.1370   35.3910   53.5820 O   0  0  0  0  0
    9.8736   36.0194   63.1900 H   0  0  0  0  0
    9.8929   34.2746   62.8345 H   0  0  0  0  0
   10.9582   35.3792   61.9311 H   0  0  0  0  0
   10.3087   35.7804   59.9331 H   0  0  0  0  0
    7.5603   36.5895   59.4121 H   0  0  0  0  0
    9.9704   36.1450   57.6266 H   0  0  0  0  0
    8.3500   38.5225   58.5737 H   0  0  0  0  0
    9.6117   38.6047   57.2430 H   0  0  0  0  0
    7.1874   37.0771   56.8214 H   0  0  0  0  0
    8.6251   37.0665   55.7707 H   0  0  0  0  0
    7.9432   35.5315   56.3621 H   0  0  0  0  0
   10.0778   37.8791   60.1343 H   0  0  0  0  0
   11.3018   37.9587   58.8434 H   0  0  0  0  0
   10.4641   39.4397   59.3686 H   0  0  0  0  0
    5.9294   35.4776   58.4403 H   0  0  0  0  0
    6.4249   32.5564   58.0291 H   0  0  0  0  0
    4.0030   32.2998   58.5147 H   0  0  0  0  0
    3.9556   34.0944   58.8871 H   0  0  0  0  0
    5.5723   33.6796   60.6810 H   0  0  0  0  0
    5.3788   31.8965   60.3729 H   0  0  0  0  0
    4.5584   34.0389   62.3540 H   0  0  0  0  0
    5.1017   33.2614   53.8295 H   0  0  0  0  0
    6.8281   31.5464   53.4463 H   0  0  0  0  0
    5.4468   30.7272   52.9016 H   0  0  0  0  0
    6.7219   29.5077   54.8365 H   0  0  0  0  0
    5.0521   29.6664   55.0974 H   0  0  0  0  0
    5.9692   30.7937   57.0796 H   0  0  0  0  0
    7.2763   31.4592   56.2243 H   0  0  0  0  0
    3.5538   32.9290   52.3675 H   0  0  0  0  0
    1.0643   31.7854   53.5717 H   0  0  0  0  0
    1.7456   30.3173   51.7966 H   0  0  0  0  0
    1.9878   31.7268   50.6808 H   0  0  0  0  0
    0.0121   30.5975   50.2998 H   0  0  0  0  0
    0.1192   33.4010   51.6143 H   0  0  0  0  0
    1.6368   34.2821   52.0792 H   0  0  0  0  0
    0.1678   32.5385   54.3763 H   0  0  0  0  0
  1  2  2  0  0  0
  1  3  1  0  0  0
  1  4  1  0  0  0
  4  5  1  0  0  0
  5  6  1  0  0  0
  5  8  1  0  0  0
  6  7  2  0  0  0
  6 12  1  0  0  0
  8  9  1  0  0  0
  8 10  1  0  0  0
  9 11  1  0  0  0
 12 13  1  0  0  0
 13 14  1  0  0  0
 13 16  1  0  0  0
 14 15  2  0  0  0
 14 21  1  0  0  0
 16 17  1  0  0  0
 17 18  1  0  0  0
 18 19  2  0  0  0
 18 20  1  0  0  0
 21 22  1  0  0  0
 21 27  1  0  0  0
 22 23  1  0  0  0
 22 25  1  0  0  0
 23 24  2  0  0  0
 23 28  1  0  0  0
 25 26  1  0  0  0
 26 27  1  0  0  0
 28 29  1  0  0  0
 29 30  1  0  0  0
 29 32  1  0  0  0
 30 31  1  0  0  0
 32 33  1  0  0  0
 33 34  1  0  0  0
 33 35  2  0  0  0
  3 36  1  0  0  0
  3 37  1  0  0  0
  3 38  1  0  0  0
  4 39  1  0  0  0
  5 40  1  0  0  0
  8 41  1  0  0  0
  9 42  1  0  0  0
  9 43  1  0  0  0
 10 44  1  0  0  0
 10 45  1  0  0  0
 10 46  1  0  0  0
 11 47  1  0  0  0
 11 48  1  0  0  0
 11 49  1  0  0  0
 12 50  1  0  0  0
 13 51  1  0  0  0
 16 52  1  0  0  0
 16 53  1  0  0  0
 17 54  1  0  0  0
 17 55  1  0  0  0
 20 56  1  0  0  0
 22 57  1  0  0  0
 25 58  1  0  0  0
 25 59  1  0  0  0
 26 60  1  0  0  0
 26 61  1  0  0  0
 27 62  1  0  0  0
 27 63  1  0  0  0
 28 64  1  0  0  0
 29 65  1  0  0  0
 30 66  1  0  0  0
 30 67  1  0  0  0
 31 68  1  0  0  0
 32 69  1  0  0  0
 32 70  1  0  0  0
 34 71  1  0  0  0
M  END
$$$$
