6nzp_ligand
  -I-interpret- 

 53 56  0  0  0  0  0  0  0  0999 V2000
    9.9890   -3.4950   31.3860 C   0  0  0  0  0
   17.1880   -7.1020   22.2740 C   0  0  0  0  0
   18.1050   -5.5580   24.0720 C   0  0  0  0  0
   16.1580   -2.2400   26.3750 C   0  0  0  0  0
   16.4630   -5.6880   25.3680 C   0  0  0  0  0
    7.4640   -3.6990   30.9060 C   0  0  0  0  0
    7.7960   -4.7460   31.8810 C   0  0  0  0  0
   15.6110   -5.5120   26.5610 C   0  0  0  0  0
   15.6350   -4.3480   27.3380 C   0  0  0  0  0
   14.5050   -1.1690   30.7810 C   0  0  0  0  0
   13.7320   -0.5790   31.7160 N   0  0  0  0  0
   12.4900   -1.0320   31.9810 N   0  0  0  0  0
   12.0040   -2.0560   31.2970 C   0  0  0  0  0
   12.7150   -2.6860   30.2720 C   0  0  0  0  0
   14.0290   -2.2980   30.0390 C   0  0  0  0  0
   10.7500   -2.4510   31.7810 N   0  0  0  0  0
   14.9150   -3.0370   29.2150 N   0  0  0  0  0
   15.8330   -0.5030   30.5220 C   0  0  0  0  0
   16.1750    0.4670   31.3700 N   0  0  0  0  0
   16.5180   -0.8150   29.5520 O   0  0  0  0  0
   17.3920    1.2400   31.2030 C   0  0  0  0  0
   14.7350   -4.1810   28.4040 C   0  0  0  0  0
   13.8240   -5.1960   28.6960 C   0  0  0  0  0
   13.7970   -6.3410   27.9190 C   0  0  0  0  0
   14.6870   -6.5100   26.8740 C   0  0  0  0  0
   16.5850   -3.3700   27.1300 O   0  0  0  0  0
    8.5640   -3.4590   31.8950 C   0  0  0  0  0
   10.3950   -4.4060   30.6630 O   0  0  0  0  0
   16.0930   -6.4210   24.3290 N   0  0  0  0  0
   17.1700   -6.3380   23.5120 N   0  0  0  0  0
   17.7060   -5.1280   25.2480 N   0  0  0  0  0
   17.3471   -6.4262   21.4338 H   0  0  0  0  0
   17.9953   -7.8334   22.3116 H   0  0  0  0  0
   16.2350   -7.6168   22.1524 H   0  0  0  0  0
   19.0640   -5.3140   23.6151 H   0  0  0  0  0
   15.8349   -2.5662   25.3864 H   0  0  0  0  0
   15.3279   -1.7544   26.8881 H   0  0  0  0  0
   16.9856   -1.5378   26.2748 H   0  0  0  0  0
    6.5765   -3.1843   30.5378 H   0  0  0  0  0
    7.3050   -3.6113   29.8312 H   0  0  0  0  0
    8.0041   -5.8160   31.8845 H   0  0  0  0  0
    7.2758   -5.3891   32.5909 H   0  0  0  0  0
   12.2490   -3.4648   29.6683 H   0  0  0  0  0
   10.3613   -1.8759   32.5284 H   0  0  0  0  0
   15.8676   -2.6724   29.2054 H   0  0  0  0  0
   15.5631    0.6721   32.1599 H   0  0  0  0  0
   18.2526    0.5719   31.2359 H   0  0  0  0  0
   17.3657    1.7536   30.2420 H   0  0  0  0  0
   17.4684    1.9729   32.0061 H   0  0  0  0  0
   13.1352   -5.0877   29.5338 H   0  0  0  0  0
   13.0649   -7.1196   28.1334 H   0  0  0  0  0
   14.6666   -7.4302   26.2901 H   0  0  0  0  0
    8.7886   -2.6913   32.6355 H   0  0  0  0  0
 16  1  1  0  0  0
  1 27  1  0  0  0
  1 28  2  0  0  0
 30  2  1  0  0  0
  3 30  4  0  0  0
 31  3  4  0  0  0
 26  4  1  0  0  0
  8  5  1  0  0  0
  5 29  4  0  0  0
  5 31  4  0  0  0
  7  6  1  0  0  0
 27  6  1  0  0  0
 27  7  1  0  0  0
  9  8  4  0  0  0
  8 25  4  0  0  0
 22  9  4  0  0  0
  9 26  1  0  0  0
 10 11  4  0  0  0
 15 10  4  0  0  0
 10 18  1  0  0  0
 11 12  4  0  0  0
 13 12  4  0  0  0
 14 13  4  0  0  0
 13 16  1  0  0  0
 15 14  4  0  0  0
 17 15  1  0  0  0
 17 22  1  0  0  0
 18 19  1  0  0  0
 18 20  2  0  0  0
 19 21  1  0  0  0
 22 23  4  0  0  0
 23 24  4  0  0  0
 24 25  4  0  0  0
 29 30  4  0  0  0
  2 32  1  0  0  0
  2 33  1  0  0  0
  2 34  1  0  0  0
  3 35  1  0  0  0
  4 36  1  0  0  0
  4 37  1  0  0  0
  4 38  1  0  0  0
  6 39  1  0  0  0
  6 40  1  0  0  0
  7 41  1  0  0  0
  7 42  1  0  0  0
 14 43  1  0  0  0
 16 44  1  0  0  0
 17 45  1  0  0  0
 19 46  1  0  0  0
 21 47  1  0  0  0
 21 48  1  0  0  0
 21 49  1  0  0  0
 23 50  1  0  0  0
 24 51  1  0  0  0
 25 52  1  0  0  0
 27 53  1  0  0  0
M  END
$$$$
