5ntq_ligand
  -I-interpret- 

 43 44  0  0  0  0  0  0  0  0999 V2000
   10.7820  -29.0100   -9.4900 O   0  0  0  0  0
   10.3860  -30.4120   -9.4210 S   0  0  0  0  0
    9.4760  -30.8700  -10.4620 O   0  0  0  0  0
    9.6000  -30.6910   -7.8470 C   0  0  0  0  0
    9.7830  -29.7700   -6.8040 C   0  0  0  0  0
    9.1710  -29.9930   -5.5670 C   0  0  0  0  0
    8.3740  -31.1250   -5.3640 C   0  0  0  0  0
    8.1850  -32.0450   -6.4020 C   0  0  0  0  0
    8.7930  -31.8240   -7.6440 C   0  0  0  0  0
   11.7410  -31.3950   -9.3060 N   0  0  0  0  0
   12.7310  -30.8320   -8.3680 C   0  0  0  0  0
   14.1160  -30.6980   -9.0230 C   0  0  0  0  0
   14.5120  -31.8930   -9.5370 F   0  0  0  0  0
   14.0660  -29.7740  -10.0140 F   0  0  0  0  0
   14.9970  -30.2860   -8.0750 F   0  0  0  0  0
   11.4230  -32.7840   -9.2530 C   0  0  0  0  0
   11.6600  -33.5650   -8.1050 C   0  0  0  0  0
   11.3120  -34.9270   -8.0790 C   0  0  0  0  0
   10.8350  -33.3970  -10.3660 C   0  0  0  0  0
   10.4850  -34.7500  -10.3370 C   0  0  0  0  0
   10.7300  -35.5400   -9.2010 C   0  0  0  0  0
   10.3230  -37.0260   -9.1590 C   0  0  0  0  0
   10.8180  -37.8960  -10.3410 C   0  0  0  0  0
   12.1490  -38.1230  -10.2190 F   0  0  0  0  0
   10.1730  -39.0910  -10.2980 F   0  0  0  0  0
   10.5800  -37.3090  -11.5400 F   0  0  0  0  0
   10.8170  -37.6540   -7.9730 O   0  0  0  0  0
    8.7710  -37.0480   -9.1080 C   0  0  0  0  0
    8.3370  -36.2020   -8.1400 F   0  0  0  0  0
    8.2400  -36.6590  -10.3040 F   0  0  0  0  0
    8.3200  -38.2890   -8.8010 F   0  0  0  0  0
   10.3997  -28.8845   -6.9577 H   0  0  0  0  0
    9.3157  -29.2802   -4.7552 H   0  0  0  0  0
    7.8998  -31.2906   -4.3966 H   0  0  0  0  0
    7.5675  -32.9292   -6.2443 H   0  0  0  0  0
    8.6398  -32.5337   -8.4570 H   0  0  0  0  0
   12.8169  -31.5028   -7.5132 H   0  0  0  0  0
   12.3948  -29.8402   -8.0656 H   0  0  0  0  0
   12.1180  -33.1086   -7.2275 H   0  0  0  0  0
   11.4957  -35.5134   -7.1788 H   0  0  0  0  0
   10.6478  -32.8119  -11.2664 H   0  0  0  0  0
   10.0138  -35.2001  -11.2108 H   0  0  0  0  0
   10.5527  -38.5769   -7.9671 H   0  0  0  0  0
  1  2  2  0  0  0
  2  3  2  0  0  0
  2  4  1  0  0  0
  2 10  1  0  0  0
  4  5  4  0  0  0
  4  9  4  0  0  0
  5  6  4  0  0  0
  6  7  4  0  0  0
  7  8  4  0  0  0
  8  9  4  0  0  0
 10 11  1  0  0  0
 10 16  1  0  0  0
 11 12  1  0  0  0
 12 13  1  0  0  0
 12 14  1  0  0  0
 12 15  1  0  0  0
 16 17  4  0  0  0
 16 19  4  0  0  0
 17 18  4  0  0  0
 18 21  4  0  0  0
 19 20  4  0  0  0
 20 21  4  0  0  0
 21 22  1  0  0  0
 22 23  1  0  0  0
 22 27  1  0  0  0
 22 28  1  0  0  0
 23 24  1  0  0  0
 23 25  1  0  0  0
 23 26  1  0  0  0
 28 29  1  0  0  0
 28 30  1  0  0  0
 28 31  1  0  0  0
  5 32  1  0  0  0
  6 33  1  0  0  0
  7 34  1  0  0  0
  8 35  1  0  0  0
  9 36  1  0  0  0
 11 37  1  0  0  0
 11 38  1  0  0  0
 17 39  1  0  0  0
 18 40  1  0  0  0
 19 41  1  0  0  0
 20 42  1  0  0  0
 27 43  1  0  0  0
M  END
$$$$
