5afn_ligand
  -I-interpret- 

 29 30  0  0  0  0  0  0  0  0999 V2000
   42.0000  -10.0240   15.0240 O   0  0  0  0  0
   41.1380  -10.8970   14.8560 C   0  0  0  0  0
   39.7310  -10.8640   15.4080 C   0  0  0  0  0
   39.3140  -12.2550   15.3470 C   0  0  0  0  0
   37.8030  -12.3320   15.0610 C   0  0  0  0  0
   37.3560  -13.5920   14.4410 C   0  0  0  0  0
   36.1170  -13.4310   13.5890 C   0  0  0  0  0
   36.1790  -12.5900   12.4780 C   0  0  0  0  0
   35.0680  -12.3970   11.6710 C   0  0  0  0  0
   33.8680  -13.0640   11.9860 C   0  0  0  0  0
   33.8490  -13.9180   13.1390 C   0  0  0  0  0
   34.9100  -14.1240   13.9460 C   0  0  0  0  0
   40.0730  -12.8580   14.1680 C   0  0  0  0  0
   41.3000  -12.1250   14.1150 N   0  0  0  0  0
   39.0738  -10.2041   14.8416 H   0  0  0  0  0
   39.6864  -10.4569   16.4181 H   0  0  0  0  0
   39.5152  -12.7776   16.2822 H   0  0  0  0  0
   37.5727  -11.5329   14.3563 H   0  0  0  0  0
   37.2942  -12.2536   16.0218 H   0  0  0  0  0
   37.1157  -14.2881   15.2446 H   0  0  0  0  0
   38.1587  -13.9438   13.7929 H   0  0  0  0  0
   37.1119  -12.0784   12.2413 H   0  0  0  0  0
   35.1225  -11.7380   10.8045 H   0  0  0  0  0
   32.9778  -12.9349   11.3705 H   0  0  0  0  0
   32.9184  -14.4328   13.3778 H   0  0  0  0  0
   34.8550  -14.7771   14.8169 H   0  0  0  0  0
   39.5104  -12.7782   13.2378 H   0  0  0  0  0
   40.2425  -13.9270   14.2966 H   0  0  0  0  0
   42.1490  -12.4210   13.6333 H   0  0  0  0  0
  1  2  2  0  0  0
  2  3  1  0  0  0
  2 14  1  0  0  0
  3  4  1  0  0  0
  4  5  1  0  0  0
  4 13  1  0  0  0
  5  6  1  0  0  0
  6  7  1  0  0  0
  7  8  4  0  0  0
  7 12  4  0  0  0
  8  9  4  0  0  0
  9 10  4  0  0  0
 10 11  4  0  0  0
 11 12  4  0  0  0
 13 14  1  0  0  0
  3 15  1  0  0  0
  3 16  1  0  0  0
  4 17  1  0  0  0
  5 18  1  0  0  0
  5 19  1  0  0  0
  6 20  1  0  0  0
  6 21  1  0  0  0
  8 22  1  0  0  0
  9 23  1  0  0  0
 10 24  1  0  0  0
 11 25  1  0  0  0
 12 26  1  0  0  0
 13 27  1  0  0  0
 13 28  1  0  0  0
 14 29  1  0  0  0
M  END
$$$$
