3olg_ligand
  -I-interpret- 

152158  0  0  0  0  0  0  0  0999 V2000
   -3.7590    0.4700   23.7530 N   0  3  0  0  0
   -3.1730    1.7890   24.0330 C   0  0  0  0  0
   -2.1140    1.9560   25.1090 C   0  0  0  0  0
   -1.4260    3.1680   25.1500 C   0  0  0  0  0
   -0.3660    3.3630   26.2310 C   0  0  0  0  0
    0.8560    3.9980   25.8370 O   0  0  0  0  0
   -1.7840    4.4230   24.3560 C   0  0  0  0  0
   -0.5380    4.8610   23.8170 O   0  0  0  0  0
   -2.8920    4.1680   23.3240 C   0  0  0  0  0
   -3.5980    5.3310   22.8730 O   0  0  0  0  0
   -3.8440    3.1480   23.9270 C   0  0  0  0  0
   -5.2360    3.0590   23.6050 O   0  0  0  0  0
   -1.6860   -3.1480   23.8850 C   0  0  0  0  0
   -2.6060   -3.6990   26.0070 O   0  0  0  0  0
   -2.0520   -2.6110   25.2690 C   0  0  0  0  0
   -3.0760   -1.4790   25.1990 C   0  0  0  0  0
   -2.9240   -0.7930   26.4470 O   0  0  0  0  0
   -2.7490   -0.5210   24.0560 C   0  0  0  0  0
   -2.0570   -1.0920   22.8020 C   0  0  0  0  0
   -1.0710   -2.0560   23.1900 O   0  0  0  0  0
   -1.2490    0.0400   22.1760 C   0  0  0  0  0
   -3.8300   -7.4690   22.0230 C   0  0  0  0  0
   -4.2800   -7.0100   23.4200 C   0  0  0  0  0
   -4.3120   -5.4860   23.5470 C   0  0  0  0  0
   -2.9710   -4.9430   23.0730 C   0  0  0  0  0
   -2.7820   -5.3530   21.5930 C   0  0  0  0  0
   -1.5400   -4.7820   20.9200 C   0  0  0  0  0
   -5.5740   -7.5250   23.6780 O   0  0  0  0  0
   -4.5200   -5.1410   24.9100 O   0  0  0  0  0
   -2.8980   -3.5310   23.2300 O   0  0  0  0  0
   -2.6660   -6.7920   21.5280 O   0  0  0  0  0
   -0.3680   -5.1170   21.6490 O   0  0  0  0  0
   -9.0610   -9.2370   19.2060 N   0  3  0  0  0
   -7.6010   -9.0880   19.1810 C   0  0  0  0  0
   -6.9680   -7.9470   18.3900 C   0  0  0  0  0
   -5.6930   -7.5980   18.8210 C   0  0  0  0  0
   -4.9830   -6.4590   18.0900 C   0  0  0  0  0
   -3.8770   -6.9760   17.3460 O   0  0  0  0  0
   -4.9800   -8.2950   19.9910 C   0  0  0  0  0
   -4.9210   -7.3990   21.1040 O   0  0  0  0  0
   -5.6290   -9.5960   20.4870 C   0  0  0  0  0
   -4.6690  -10.5620   20.9200 O   0  0  0  0  0
   -6.5730  -10.1820   19.4390 C   0  0  0  0  0
   -7.1650  -11.4680   19.6500 O   0  0  0  0  0
  -11.3670   -5.8580   20.3000 C   0  0  0  0  0
  -12.4130   -5.8600   18.1170 O   0  0  0  0  0
  -11.1850   -6.1210   18.8030 C   0  0  0  0  0
  -10.7620   -7.5690   18.5480 C   0  0  0  0  0
  -10.3630   -7.7360   17.1850 O   0  0  0  0  0
   -9.5790   -7.9050   19.4540 C   0  0  0  0  0
   -9.8910   -7.6190   20.9250 C   0  0  0  0  0
  -10.1880   -6.2180   21.0380 O   0  0  0  0  0
   -8.6810   -7.9250   21.8090 C   0  0  0  0  0
  -16.1270   -5.0130   22.3380 C   0  0  0  0  0
  -16.0500   -5.2680   20.8190 C   0  0  0  0  0
  -14.8480   -6.1440   20.4180 C   0  0  0  0  0
  -13.5670   -5.6760   21.1060 C   0  0  0  0  0
  -13.8300   -5.6350   22.6100 C   0  0  0  0  0
  -12.6250   -5.2790   23.4520 C   0  0  0  0  0
  -17.2510   -5.9080   20.4020 O   0  0  0  0  0
  -14.6710   -6.0820   19.0130 O   0  0  0  0  0
  -12.4970   -6.5690   20.8130 O   0  0  0  0  0
  -14.8480   -4.6590   22.8890 O   0  0  0  0  0
  -12.1830   -3.9630   23.1720 O   0  0  0  0  0
  -19.7690   -7.2680   24.6000 C   0  0  0  0  0
  -18.7980   -6.9830   23.4630 C   0  0  0  0  0
  -17.7020   -5.9720   23.8810 C   0  0  0  0  0
  -17.1710   -6.1530   25.3370 C   0  0  0  0  0
  -16.6400   -4.8510   25.9050 C   0  0  0  0  0
  -18.9160   -7.7340   25.7630 C   0  0  0  0  0
  -19.7000   -8.2540   26.7810 O   0  0  0  0  0
  -20.7020   -8.2750   24.2310 O   0  0  0  0  0
  -19.5050   -6.4920   22.3320 O   0  0  0  0  0
  -16.5870   -6.1400   22.9860 O   0  0  0  0  0
  -18.1980   -6.6030   26.2550 O   0  0  0  0  0
  -15.4550   -5.0640   26.6560 O   0  0  0  0  0
   -4.0446    0.4043   22.7760 H   0  0  0  0  0
   -4.5919    0.3192   24.3222 H   0  0  0  0  0
   -2.8499    1.5467   23.0206 H   0  0  0  0  0
   -1.9002    1.1592   25.8214 H   0  0  0  0  0
   -0.0883    2.3614   26.5594 H   0  0  0  0  0
   -0.8167    4.0206   26.9743 H   0  0  0  0  0
    1.4399    4.0645   26.5961 H   0  0  0  0  0
   -2.2294    5.2078   24.9674 H   0  0  0  0  0
    0.0894    4.9938   24.5314 H   0  0  0  0  0
   -2.4139    3.7993   22.4165 H   0  0  0  0  0
   -4.2659    5.0709   22.2343 H   0  0  0  0  0
   -4.0097    3.6431   24.8838 H   0  0  0  0  0
   -5.6340    2.3430   24.1056 H   0  0  0  0  0
   -1.0170   -4.0077   23.9235 H   0  0  0  0  0
   -2.8487   -3.3976   26.8856 H   0  0  0  0  0
   -1.1584   -2.2040   25.7422 H   0  0  0  0  0
   -4.0858   -1.8517   25.0271 H   0  0  0  0  0
   -3.5400   -0.0576   26.4837 H   0  0  0  0  0
   -1.9379    0.0268   24.5357 H   0  0  0  0  0
   -2.8103   -1.5225   22.1423 H   0  0  0  0  0
   -1.9187    0.8566   21.9061 H   0  0  0  0  0
   -0.5096    0.3966   22.8931 H   0  0  0  0  0
   -0.7432   -0.3271   21.2829 H   0  0  0  0  0
   -3.5189   -8.5087   22.1246 H   0  0  0  0  0
   -3.5574   -7.3863   24.1442 H   0  0  0  0  0
   -5.1167   -5.0632   22.9455 H   0  0  0  0  0
   -2.1689   -5.3636   23.6794 H   0  0  0  0  0
   -3.6488   -4.9539   21.0663 H   0  0  0  0  0
   -1.6303   -3.6964   20.8818 H   0  0  0  0  0
   -1.4607   -5.2020   19.9173 H   0  0  0  0  0
   -5.8618   -7.2424   24.5491 H   0  0  0  0  0
   -4.5412   -4.1852   24.9973 H   0  0  0  0  0
    0.3994   -4.7471   21.2065 H   0  0  0  0  0
   -9.3584   -9.8950   19.9264 H   0  0  0  0  0
   -9.4139   -9.6191   18.3286 H   0  0  0  0  0
   -7.8947   -8.8657   20.2069 H   0  0  0  0  0
   -7.4708   -7.4496   17.5606 H   0  0  0  0  0
   -4.6199   -5.7342   18.8186 H   0  0  0  0  0
   -5.6830   -5.9773   17.4073 H   0  0  0  0  0
   -3.4355   -6.2562   16.8894 H   0  0  0  0  0
   -4.0004   -8.5652   19.5968 H   0  0  0  0  0
   -6.2203   -9.3318   21.3637 H   0  0  0  0  0
   -5.1245  -11.3525   21.2186 H   0  0  0  0  0
   -5.9618  -10.4463   18.5761 H   0  0  0  0  0
   -6.4737  -12.1154   19.8069 H   0  0  0  0  0
  -11.5407   -4.7890   20.4228 H   0  0  0  0  0
  -12.2956   -6.0258   17.1787 H   0  0  0  0  0
  -10.4021   -5.4594   18.4324 H   0  0  0  0  0
  -11.6035   -8.2293   18.7574 H   0  0  0  0  0
  -10.1005   -8.6478   17.0390 H   0  0  0  0  0
   -8.7616   -7.2320   19.1949 H   0  0  0  0  0
  -10.7255   -8.2418   21.2472 H   0  0  0  0  0
   -8.4133   -8.9765   21.7049 H   0  0  0  0  0
   -7.8409   -7.3026   21.5009 H   0  0  0  0  0
   -8.9296   -7.7132   22.8489 H   0  0  0  0  0
  -16.8135   -4.1796   22.4870 H   0  0  0  0  0
  -15.9216   -4.3022   20.3302 H   0  0  0  0  0
  -15.0522   -7.1680   20.7306 H   0  0  0  0  0
  -13.2838   -4.6864   20.7474 H   0  0  0  0  0
  -14.1279   -6.6489   22.8773 H   0  0  0  0  0
  -11.8188   -5.9756   23.2220 H   0  0  0  0  0
  -12.9030   -5.3387   24.5043 H   0  0  0  0  0
  -17.2136   -6.0716   19.4568 H   0  0  0  0  0
  -13.9221   -6.6275   18.7616 H   0  0  0  0  0
  -11.4192   -3.7604   23.7171 H   0  0  0  0  0
  -20.3508   -6.3824   24.8557 H   0  0  0  0  0
  -18.3038   -7.9203   23.2074 H   0  0  0  0  0
  -18.1568   -4.9825   23.8346 H   0  0  0  0  0
  -16.3832   -6.9015   25.2526 H   0  0  0  0  0
  -17.3969   -4.4243   26.5631 H   0  0  0  0  0
  -16.4117   -4.1783   25.0783 H   0  0  0  0  0
  -18.2390   -8.5187   25.4254 H   0  0  0  0  0
  -19.1360   -8.5408   27.5030 H   0  0  0  0  0
  -21.3023   -8.4369   24.9624 H   0  0  0  0  0
  -18.8852   -6.3152   21.6206 H   0  0  0  0  0
  -15.1420   -4.2252   27.0026 H   0  0  0  0  0
  1  2  1  0  0  0
 18  1  1  0  0  0
  2  3  1  0  0  0
  2 11  1  0  0  0
  3  4  2  0  0  0
  4  5  1  0  0  0
  4  7  1  0  0  0
  5  6  1  0  0  0
  7  8  1  0  0  0
  9  7  1  0  0  0
  9 10  1  0  0  0
 11  9  1  0  0  0
 11 12  1  0  0  0
 13 15  1  0  0  0
 13 20  1  0  0  0
 30 13  1  0  0  0
 15 14  1  0  0  0
 15 16  1  0  0  0
 16 17  1  0  0  0
 16 18  1  0  0  0
 19 18  1  0  0  0
 20 19  1  0  0  0
 19 21  1  0  0  0
 22 23  1  0  0  0
 22 31  1  0  0  0
 40 22  1  0  0  0
 23 24  1  0  0  0
 23 28  1  0  0  0
 24 25  1  0  0  0
 24 29  1  0  0  0
 26 25  1  0  0  0
 25 30  1  0  0  0
 26 27  1  0  0  0
 31 26  1  0  0  0
 27 32  1  0  0  0
 33 34  1  0  0  0
 50 33  1  0  0  0
 34 35  1  0  0  0
 34 43  1  0  0  0
 35 36  2  0  0  0
 36 37  1  0  0  0
 36 39  1  0  0  0
 37 38  1  0  0  0
 39 40  1  0  0  0
 41 39  1  0  0  0
 41 42  1  0  0  0
 43 41  1  0  0  0
 43 44  1  0  0  0
 45 47  1  0  0  0
 45 52  1  0  0  0
 62 45  1  0  0  0
 47 46  1  0  0  0
 47 48  1  0  0  0
 48 49  1  0  0  0
 48 50  1  0  0  0
 51 50  1  0  0  0
 52 51  1  0  0  0
 51 53  1  0  0  0
 54 55  1  0  0  0
 54 63  1  0  0  0
 74 54  1  0  0  0
 55 56  1  0  0  0
 55 60  1  0  0  0
 56 57  1  0  0  0
 56 61  1  0  0  0
 58 57  1  0  0  0
 57 62  1  0  0  0
 58 59  1  0  0  0
 63 58  1  0  0  0
 59 64  1  0  0  0
 66 65  1  0  0  0
 65 70  1  0  0  0
 65 72  1  0  0  0
 67 66  1  0  0  0
 66 73  1  0  0  0
 67 68  1  0  0  0
 67 74  1  0  0  0
 68 69  1  0  0  0
 68 75  1  0  0  0
 69 76  1  0  0  0
 70 71  1  0  0  0
 70 75  1  0  0  0
  1 77  1  0  0  0
  1 78  1  0  0  0
  2 79  1  0  0  0
  3 80  1  0  0  0
  5 81  1  0  0  0
  5 82  1  0  0  0
  6 83  1  0  0  0
  7 84  1  0  0  0
  8 85  1  0  0  0
  9 86  1  0  0  0
 10 87  1  0  0  0
 11 88  1  0  0  0
 12 89  1  0  0  0
 13 90  1  0  0  0
 14 91  1  0  0  0
 15 92  1  0  0  0
 16 93  1  0  0  0
 17 94  1  0  0  0
 18 95  1  0  0  0
 19 96  1  0  0  0
 21 97  1  0  0  0
 21 98  1  0  0  0
 21 99  1  0  0  0
 22100  1  0  0  0
 23101  1  0  0  0
 24102  1  0  0  0
 25103  1  0  0  0
 26104  1  0  0  0
 27105  1  0  0  0
 27106  1  0  0  0
 28107  1  0  0  0
 29108  1  0  0  0
 32109  1  0  0  0
 33110  1  0  0  0
 33111  1  0  0  0
 34112  1  0  0  0
 35113  1  0  0  0
 37114  1  0  0  0
 37115  1  0  0  0
 38116  1  0  0  0
 39117  1  0  0  0
 41118  1  0  0  0
 42119  1  0  0  0
 43120  1  0  0  0
 44121  1  0  0  0
 45122  1  0  0  0
 46123  1  0  0  0
 47124  1  0  0  0
 48125  1  0  0  0
 49126  1  0  0  0
 50127  1  0  0  0
 51128  1  0  0  0
 53129  1  0  0  0
 53130  1  0  0  0
 53131  1  0  0  0
 54132  1  0  0  0
 55133  1  0  0  0
 56134  1  0  0  0
 57135  1  0  0  0
 58136  1  0  0  0
 59137  1  0  0  0
 59138  1  0  0  0
 60139  1  0  0  0
 61140  1  0  0  0
 64141  1  0  0  0
 65142  1  0  0  0
 66143  1  0  0  0
 67144  1  0  0  0
 68145  1  0  0  0
 69146  1  0  0  0
 69147  1  0  0  0
 70148  1  0  0  0
 71149  1  0  0  0
 72150  1  0  0  0
 73151  1  0  0  0
 76152  1  0  0  0
M  END
$$$$
