### 
### Created by X-TOOL on Mon Sep 10 21:13:06 2018
### 

@<TRIPOS>MOLECULE
3olg_ligand
  152   158     1     0     0
SMALL
GAST_HUCK


@<TRIPOS>ATOM
      1 N1         -3.7590    0.4700   23.7530 N.4       1 HSD         0.2433
      2 C1         -3.1730    1.7890   24.0330 C.3       1 HSD         0.0141
      3 C2         -2.1140    1.9560   25.1090 C.2       1 HSD        -0.0543
      4 C3         -1.4260    3.1680   25.1500 C.2       1 HSD        -0.0200
      5 C4         -0.3660    3.3630   26.2310 C.3       1 HSD         0.0719
      6 O1          0.8560    3.9980   25.8370 O.3       1 HSD        -0.3839
      7 C5         -1.7840    4.4230   24.3560 C.3       1 HSD         0.1112
      8 O2         -0.5380    4.8610   23.8170 O.3       1 HSD        -0.3780
      9 C6         -2.8920    4.1680   23.3240 C.3       1 HSD         0.1215
     10 O3         -3.5980    5.3310   22.8730 O.3       1 HSD        -0.3843
     11 C7         -3.8440    3.1480   23.9270 C.3       1 HSD         0.1303
     12 O4         -5.2360    3.0590   23.6050 O.3       1 HSD        -0.3821
     13 C1         -1.6860   -3.1480   23.8850 C.3       1 G6D         0.1886
     14 O2         -2.6060   -3.6990   26.0070 O.3       1 G6D        -0.3840
     15 C2         -2.0520   -2.6110   25.2690 C.3       1 G6D         0.1370
     16 C3A        -3.0760   -1.4790   25.1990 C.3       1 G6D         0.1304
     17 O3A        -2.9240   -0.7930   26.4470 O.3       1 G6D        -0.3834
     18 C4A        -2.7490   -0.5210   24.0560 C.3       1 G6D         0.0341
     19 C5A        -2.0570   -1.0920   22.8020 C.3       1 G6D         0.1038
     20 O5         -1.0710   -2.0560   23.1900 O.3       1 G6D        -0.3401
     21 C6A        -1.2490    0.0400   22.1760 C.3       1 G6D        -0.0332
     22 C1         -3.8300   -7.4690   22.0230 C.3       1 GLC         0.1904
     23 C2         -4.2800   -7.0100   23.4200 C.3       1 GLC         0.1343
     24 C3         -4.3120   -5.4860   23.5470 C.3       1 GLC         0.1144
     25 C4         -2.9710   -4.9430   23.0730 C.3       1 GLC         0.1184
     26 C5         -2.7820   -5.3530   21.5930 C.3       1 GLC         0.1134
     27 C6         -1.5400   -4.7820   20.9200 C.3       1 GLC         0.0730
     28 O2         -5.5740   -7.5250   23.6780 O.3       1 GLC        -0.3841
     29 O3         -4.5200   -5.1410   24.9100 O.3       1 GLC        -0.3864
     30 O4         -2.8980   -3.5310   23.2300 O.3       1 GLC        -0.3401
     31 O5         -2.6660   -6.7920   21.5280 O.3       1 GLC        -0.3404
     32 O6         -0.3680   -5.1170   21.6490 O.3       1 GLC        -0.3924
     33 N1         -9.0610   -9.2370   19.2060 N.4       1 HSD         0.2433
     34 C1         -7.6010   -9.0880   19.1810 C.3       1 HSD         0.0141
     35 C2         -6.9680   -7.9470   18.3900 C.2       1 HSD        -0.0543
     36 C3         -5.6930   -7.5980   18.8210 C.2       1 HSD        -0.0196
     37 C4         -4.9830   -6.4590   18.0900 C.3       1 HSD         0.0719
     38 O1         -3.8770   -6.9760   17.3460 O.3       1 HSD        -0.3839
     39 C5         -4.9800   -8.2950   19.9910 C.3       1 HSD         0.1178
     40 O2         -4.9210   -7.3990   21.1040 O.3       1 HSD        -0.3313
     41 C6         -5.6290   -9.5960   20.4870 C.3       1 HSD         0.1219
     42 O3         -4.6690  -10.5620   20.9200 O.3       1 HSD        -0.3843
     43 C7         -6.5730  -10.1820   19.4390 C.3       1 HSD         0.1303
     44 O4         -7.1650  -11.4680   19.6500 O.3       1 HSD        -0.3821
     45 C1        -11.3670   -5.8580   20.3000 C.3       1 G6D         0.1886
     46 O2        -12.4130   -5.8600   18.1170 O.3       1 G6D        -0.3840
     47 C2        -11.1850   -6.1210   18.8030 C.3       1 G6D         0.1370
     48 C3A       -10.7620   -7.5690   18.5480 C.3       1 G6D         0.1304
     49 O3A       -10.3630   -7.7360   17.1850 O.3       1 G6D        -0.3834
     50 C4A        -9.5790   -7.9050   19.4540 C.3       1 G6D         0.0341
     51 C5A        -9.8910   -7.6190   20.9250 C.3       1 G6D         0.1038
     52 O5        -10.1880   -6.2180   21.0380 O.3       1 G6D        -0.3401
     53 C6A        -8.6810   -7.9250   21.8090 C.3       1 G6D        -0.0332
     54 C1        -16.1270   -5.0130   22.3380 C.3       1 GLC         0.1884
     55 C2        -16.0500   -5.2680   20.8190 C.3       1 GLC         0.1341
     56 C3        -14.8480   -6.1440   20.4180 C.3       1 GLC         0.1144
     57 C4        -13.5670   -5.6760   21.1060 C.3       1 GLC         0.1184
     58 C5        -13.8300   -5.6350   22.6100 C.3       1 GLC         0.1134
     59 C6        -12.6250   -5.2790   23.4520 C.3       1 GLC         0.0730
     60 O2        -17.2510   -5.9080   20.4020 O.3       1 GLC        -0.3841
     61 O3        -14.6710   -6.0820   19.0130 O.3       1 GLC        -0.3864
     62 O4        -12.4970   -6.5690   20.8130 O.3       1 GLC        -0.3401
     63 O5        -14.8480   -4.6590   22.8890 O.3       1 GLC        -0.3405
     64 O6        -12.1830   -3.9630   23.1720 O.3       1 GLC        -0.3924
     65 C2        -19.7690   -7.2680   24.6000 C.3       1 BGC         0.1339
     66 C3        -18.7980   -6.9830   23.4630 C.3       1 BGC         0.1144
     67 C4        -17.7020   -5.9720   23.8810 C.3       1 BGC         0.1184
     68 C5        -17.1710   -6.1530   25.3370 C.3       1 BGC         0.1134
     69 C6        -16.6400   -4.8510   25.9050 C.3       1 BGC         0.0730
     70 C1        -18.9160   -7.7340   25.7630 C.3       1 BGC         0.1854
     71 O1        -19.7000   -8.2540   26.7810 O.3       1 BGC        -0.3649
     72 O2        -20.7020   -8.2750   24.2310 O.3       1 BGC        -0.3841
     73 O3        -19.5050   -6.4920   22.3320 O.3       1 BGC        -0.3864
     74 O4        -16.5870   -6.1400   22.9860 O.3       1 BGC        -0.3401
     75 O5        -18.1980   -6.6030   26.2550 O.3       1 BGC        -0.3407
     76 O6        -15.4550   -5.0640   26.6560 O.3       1 BGC        -0.3924
     77 H          -4.0446    0.4043   22.7760 H         1 HSD         0.2029
     78 H          -4.5919    0.3192   24.3222 H         1 HSD         0.2029
     79 H          -2.8499    1.5467   23.0206 H         1 HSD         0.0950
     80 H          -1.9002    1.1592   25.8214 H         1 HSD         0.0299
     81 H          -0.0883    2.3614   26.5594 H         1 HSD         0.0706
     82 H          -0.8167    4.0206   26.9743 H         1 HSD         0.0706
     83 H           0.6648    4.8767   25.5009 H         1 HSD         0.2125
     84 H          -2.2294    5.2078   24.9674 H         1 HSD         0.0769
     85 H           0.0714    5.0491   24.5346 H         1 HSD         0.2130
     86 H          -2.4139    3.7993   22.4165 H         1 HSD         0.0671
     87 H          -4.2659    5.0709   22.2343 H         1 HSD         0.2102
     88 H          -4.0097    3.6431   24.8838 H         1 HSD         0.0694
     89 H          -5.6340    2.3430   24.1056 H         1 HSD         0.2103
     90 H          -1.0170   -4.0077   23.9235 H         1 HSD         0.0938
     91 H          -3.3857   -4.0277   25.5535 H         1 HSD         0.2101
     92 H          -1.1584   -2.2040   25.7422 H         1 HSD         0.0672
     93 H          -4.0858   -1.8517   25.0271 H         1 HSD         0.0679
     94 H          -3.5400   -0.0576   26.4837 H         1 HSD         0.2102
     95 H          -1.9379    0.0268   24.5357 H         1 HSD         0.0903
     96 H          -2.8103   -1.5225   22.1423 H         1 HSD         0.0652
     97 H          -1.9187    0.8566   21.9061 H         1 HSD         0.0257
     98 H          -0.5096    0.3966   22.8931 H         1 HSD         0.0257
     99 H          -0.7432   -0.3271   21.2829 H         1 HSD         0.0257
    100 H          -3.5189   -8.5087   22.1246 H         1 HSD         0.0939
    101 H          -3.5574   -7.3863   24.1442 H         1 HSD         0.0671
    102 H          -5.1167   -5.0632   22.9455 H         1 HSD         0.0648
    103 H          -2.1689   -5.3636   23.6794 H         1 HSD         0.0651
    104 H          -3.6488   -4.9539   21.0663 H         1 HSD         0.0647
    105 H          -1.6303   -3.6964   20.8818 H         1 HSD         0.0584
    106 H          -1.4607   -5.2020   19.9173 H         1 HSD         0.0584
    107 H          -5.8433   -7.2804   24.5664 H         1 HSD         0.2101
    108 H          -4.5148   -4.1854   25.0014 H         1 HSD         0.2100
    109 H          -0.2830   -6.0721   21.6947 H         1 HSD         0.2095
    110 H          -9.3584   -9.8950   19.9264 H         1 HSD         0.2029
    111 H          -9.4139   -9.6191   18.3286 H         1 HSD         0.2029
    112 H          -7.8947   -8.8657   20.2069 H         1 HSD         0.0950
    113 H          -7.4708   -7.4496   17.5606 H         1 HSD         0.0299
    114 H          -4.6199   -5.7342   18.8186 H         1 HSD         0.0706
    115 H          -5.6830   -5.9773   17.4073 H         1 HSD         0.0706
    116 H          -3.4355   -6.2562   16.8894 H         1 HSD         0.2125
    117 H          -4.0004   -8.5652   19.5968 H         1 HSD         0.0773
    118 H          -6.2203   -9.3318   21.3637 H         1 HSD         0.0671
    119 H          -5.1245  -11.3525   21.2186 H         1 HSD         0.2102
    120 H          -5.9618  -10.4463   18.5761 H         1 HSD         0.0694
    121 H          -7.6909  -11.4491   20.4529 H         1 HSD         0.2103
    122 H         -11.5407   -4.7890   20.4228 H         1 HSD         0.0938
    123 H         -13.0994   -6.4361   18.4615 H         1 HSD         0.2101
    124 H         -10.4021   -5.4594   18.4324 H         1 HSD         0.0672
    125 H         -11.6035   -8.2293   18.7574 H         1 HSD         0.0679
    126 H         -11.0987   -7.5174   16.6083 H         1 HSD         0.2102
    127 H          -8.7616   -7.2320   19.1949 H         1 HSD         0.0903
    128 H         -10.7255   -8.2418   21.2472 H         1 HSD         0.0652
    129 H          -8.4133   -8.9765   21.7049 H         1 HSD         0.0257
    130 H          -7.8409   -7.3026   21.5009 H         1 HSD         0.0257
    131 H          -8.9296   -7.7132   22.8489 H         1 HSD         0.0257
    132 H         -16.8135   -4.1796   22.4870 H         1 HSD         0.0938
    133 H         -15.9216   -4.3022   20.3302 H         1 HSD         0.0671
    134 H         -15.0522   -7.1680   20.7306 H         1 HSD         0.0648
    135 H         -13.2838   -4.6864   20.7474 H         1 HSD         0.0651
    136 H         -14.1279   -6.6489   22.8773 H         1 HSD         0.0647
    137 H         -11.8188   -5.9756   23.2220 H         1 HSD         0.0584
    138 H         -12.9030   -5.3387   24.5043 H         1 HSD         0.0584
    139 H         -18.0036   -5.3660   20.6496 H         1 HSD         0.2101
    140 H         -13.9411   -6.6511   18.7581 H         1 HSD         0.2100
    141 H         -12.8890   -3.3417   23.3647 H         1 HSD         0.2095
    142 H         -20.3508   -6.3824   24.8557 H         1 HSD         0.0671
    143 H         -18.3038   -7.9203   23.2074 H         1 HSD         0.0648
    144 H         -18.1568   -4.9825   23.8346 H         1 HSD         0.0651
    145 H         -16.3832   -6.9015   25.2526 H         1 HSD         0.0647
    146 H         -17.3969   -4.4243   26.5631 H         1 HSD         0.0584
    147 H         -16.4117   -4.1783   25.0783 H         1 HSD         0.0584
    148 H         -18.2390   -8.5187   25.4254 H         1 HSD         0.0935
    149 H         -20.1845   -9.0152   26.4532 H         1 HSD         0.2126
    150 H         -21.2725   -8.4703   24.9780 H         1 HSD         0.2101
    151 H         -18.8933   -6.3684   21.6026 H         1 HSD         0.2100
    152 H         -15.1420   -4.2252   27.0026 H         1 HSD         0.2095
@<TRIPOS>BOND
     1    1    2 1  
     2   18    1 1  
     3    2    3 1  
     4    2   11 1  
     5    3    4 2  
     6    4    5 1  
     7    4    7 1  
     8    5    6 1  
     9    7    8 1  
    10    9    7 1  
    11    9   10 1  
    12   11    9 1  
    13   11   12 1  
    14   13   15 1  
    15   13   20 1  
    16   30   13 1  
    17   15   14 1  
    18   15   16 1  
    19   16   17 1  
    20   16   18 1  
    21   19   18 1  
    22   20   19 1  
    23   19   21 1  
    24   22   23 1  
    25   22   31 1  
    26   40   22 1  
    27   23   24 1  
    28   23   28 1  
    29   24   25 1  
    30   24   29 1  
    31   26   25 1  
    32   25   30 1  
    33   26   27 1  
    34   31   26 1  
    35   27   32 1  
    36   33   34 1  
    37   50   33 1  
    38   34   35 1  
    39   34   43 1  
    40   35   36 2  
    41   36   37 1  
    42   36   39 1  
    43   37   38 1  
    44   39   40 1  
    45   41   39 1  
    46   41   42 1  
    47   43   41 1  
    48   43   44 1  
    49   45   47 1  
    50   45   52 1  
    51   62   45 1  
    52   47   46 1  
    53   47   48 1  
    54   48   49 1  
    55   48   50 1  
    56   51   50 1  
    57   52   51 1  
    58   51   53 1  
    59   54   55 1  
    60   54   63 1  
    61   74   54 1  
    62   55   56 1  
    63   55   60 1  
    64   56   57 1  
    65   56   61 1  
    66   58   57 1  
    67   57   62 1  
    68   58   59 1  
    69   63   58 1  
    70   59   64 1  
    71   66   65 1  
    72   65   70 1  
    73   65   72 1  
    74   67   66 1  
    75   66   73 1  
    76   67   68 1  
    77   67   74 1  
    78   68   69 1  
    79   68   75 1  
    80   69   76 1  
    81   70   71 1  
    82   70   75 1  
    83    1   77 1  
    84    1   78 1  
    85    2   79 1  
    86    3   80 1  
    87    5   81 1  
    88    5   82 1  
    89    6   83 1  
    90    7   84 1  
    91    8   85 1  
    92    9   86 1  
    93   10   87 1  
    94   11   88 1  
    95   12   89 1  
    96   13   90 1  
    97   14   91 1  
    98   15   92 1  
    99   16   93 1  
   100   17   94 1  
   101   18   95 1  
   102   19   96 1  
   103   21   97 1  
   104   21   98 1  
   105   21   99 1  
   106   22  100 1  
   107   23  101 1  
   108   24  102 1  
   109   25  103 1  
   110   26  104 1  
   111   27  105 1  
   112   27  106 1  
   113   28  107 1  
   114   29  108 1  
   115   32  109 1  
   116   33  110 1  
   117   33  111 1  
   118   34  112 1  
   119   35  113 1  
   120   37  114 1  
   121   37  115 1  
   122   38  116 1  
   123   39  117 1  
   124   41  118 1  
   125   42  119 1  
   126   43  120 1  
   127   44  121 1  
   128   45  122 1  
   129   46  123 1  
   130   47  124 1  
   131   48  125 1  
   132   49  126 1  
   133   50  127 1  
   134   51  128 1  
   135   53  129 1  
   136   53  130 1  
   137   53  131 1  
   138   54  132 1  
   139   55  133 1  
   140   56  134 1  
   141   57  135 1  
   142   58  136 1  
   143   59  137 1  
   144   59  138 1  
   145   60  139 1  
   146   61  140 1  
   147   64  141 1  
   148   65  142 1  
   149   66  143 1  
   150   67  144 1  
   151   68  145 1  
   152   69  146 1  
   153   69  147 1  
   154   70  148 1  
   155   71  149 1  
   156   72  150 1  
   157   73  151 1  
   158   76  152 1  
@<TRIPOS>SUBSTRUCTURE
     1 HSD         1

