4muk_ligand
  -I-interpret- 

 49 51  0  0  0  0  0  0  0  0999 V2000
   19.0120    9.5000   -0.3880 O   0  0  0  0  0
   17.7700    9.5780   -0.5860 C   0  0  0  0  0
   16.9210    8.7310   -0.1930 O   0  0  0  0  0
   17.2800   10.8310   -1.3130 C   0  0  0  0  0
   15.8150   10.8230   -1.4010 N   0  0  0  0  0
   15.0790   10.6680   -2.5190 C   0  0  0  0  0
   15.4530   10.5130   -3.7940 C   0  0  0  0  0
   14.5040   10.3630   -4.8000 C   0  0  0  0  0
   13.1560   10.3710   -4.4590 C   0  0  0  0  0
   12.2490   10.2140   -5.4710 O   0  0  0  0  0
   10.9540    9.7380   -5.1100 C   0  0  0  0  0
   12.7970   10.5530   -3.1050 C   0  0  0  0  0
   13.7710   10.6790   -2.1680 C   0  0  0  0  0
   13.7150   10.8610   -0.8250 C   0  0  0  0  0
   14.9700   10.9350   -0.3570 C   0  0  0  0  0
   15.3260   11.0760    0.9430 C   0  0  0  0  0
   16.1410   11.9470    1.3140 O   0  0  0  0  0
   14.7440   10.1330    1.7610 N   0  0  0  0  0
   15.0920   10.1170    3.4600 S   0  0  0  0  0
   16.1050    9.0270    3.7230 O   0  0  0  0  0
   15.5580   11.5180    3.8900 O   0  0  0  0  0
   13.6030    9.6210    4.4130 C   0  0  0  0  0
   13.8780    9.6880    5.8110 C   0  0  0  0  0
   13.3520   10.7300    6.5570 C   0  0  0  0  0
   13.5760   10.8450    7.9220 C   0  0  0  0  0
   14.3640    9.9260    8.5770 C   0  0  0  0  0
   14.5790   10.0590    9.9860 C   0  0  0  0  0
   13.9490   11.3600   10.5590 F   0  0  0  0  0
   14.0860    9.0230   10.5960 F   0  0  0  0  0
   15.8510   10.0460   10.2290 F   0  0  0  0  0
   14.9020    8.8710    7.8310 C   0  0  0  0  0
   14.6710    8.7490    6.4550 C   0  0  0  0  0
   16.0433    9.0098   -0.4642 H   0  0  0  0  0
   17.6986   10.8473   -2.3193 H   0  0  0  0  0
   17.6002   11.7138   -0.7595 H   0  0  0  0  0
   16.5131   10.5041   -4.0474 H   0  0  0  0  0
   14.8120   10.2412   -5.8385 H   0  0  0  0  0
   11.0459    8.7576   -4.6426 H   0  0  0  0  0
   10.4947   10.4347   -4.4087 H   0  0  0  0  0
   10.3351    9.6592   -6.0038 H   0  0  0  0  0
   11.7470   10.5919   -2.8151 H   0  0  0  0  0
   12.8059   10.9345   -0.2282 H   0  0  0  0  0
   14.1062    9.4418    1.3662 H   0  0  0  0  0
   13.3302    8.5994    4.1484 H   0  0  0  0  0
   12.7817   10.2970    4.1750 H   0  0  0  0  0
   12.7433   11.4830    6.0565 H   0  0  0  0  0
   13.1256   11.6672    8.4780 H   0  0  0  0  0
   15.5169    8.1248    8.3341 H   0  0  0  0  0
   15.1104    7.9236    5.8949 H   0  0  0  0  0
  1  2  2  0  0  0
  2  3  1  0  0  0
  2  4  1  0  0  0
  4  5  1  0  0  0
  5  6  4  0  0  0
  5 15  4  0  0  0
  6  7  4  0  0  0
  6 13  4  0  0  0
  7  8  4  0  0  0
  8  9  4  0  0  0
  9 10  1  0  0  0
  9 12  4  0  0  0
 10 11  1  0  0  0
 12 13  4  0  0  0
 13 14  4  0  0  0
 14 15  4  0  0  0
 15 16  1  0  0  0
 16 17  2  0  0  0
 16 18  1  0  0  0
 18 19  1  0  0  0
 19 20  2  0  0  0
 19 21  2  0  0  0
 19 22  1  0  0  0
 22 23  1  0  0  0
 23 24  4  0  0  0
 23 32  4  0  0  0
 24 25  4  0  0  0
 25 26  4  0  0  0
 26 27  1  0  0  0
 26 31  4  0  0  0
 27 28  1  0  0  0
 27 29  1  0  0  0
 27 30  1  0  0  0
 31 32  4  0  0  0
  3 33  1  0  0  0
  4 34  1  0  0  0
  4 35  1  0  0  0
  7 36  1  0  0  0
  8 37  1  0  0  0
 11 38  1  0  0  0
 11 39  1  0  0  0
 11 40  1  0  0  0
 12 41  1  0  0  0
 14 42  1  0  0  0
 18 43  1  0  0  0
 22 44  1  0  0  0
 22 45  1  0  0  0
 24 46  1  0  0  0
 25 47  1  0  0  0
 31 48  1  0  0  0
 32 49  1  0  0  0
M  END
$$$$
