5l2s_ligand
  -I-interpret- 

 71 75  0  0  0  0  0  0  0  0999 V2000
   19.2490   42.9260  -12.9900 C   0  0  0  0  0
   24.4310   34.5480   -9.4690 C   0  0  0  0  0
   19.8810   44.2140  -12.5500 C   0  0  0  0  0
   24.8620   34.8760   -7.2260 C   0  0  0  0  0
   25.5460   33.6100   -7.1950 C   0  0  0  0  0
   25.6170   32.9180   -8.4120 C   0  0  0  0  0
   20.0960   42.1380  -13.9190 N   0  3  0  0  0
   20.8510   37.0470  -10.4240 C   0  0  0  0  0
   21.8890   36.2430   -9.9950 C   0  0  0  0  0
   23.7500   36.8090   -6.0860 C   0  0  0  0  0
   25.4910   35.6540   -4.9140 C   0  0  0  0  0
   21.6060   36.7890  -12.6460 C   0  0  0  0  0
   24.7080   35.7930   -6.0630 C   0  0  0  0  0
   20.6920   37.3470  -11.7680 C   0  0  0  0  0
   24.3660   37.5040   -3.8120 C   0  0  0  0  0
   23.6100   37.6380   -4.9780 C   0  0  0  0  0
   25.3010   36.4720   -3.8280 C   0  0  0  0  0
   22.7710   35.7330  -10.9620 C   0  0  0  0  0
   23.0680   39.1690   -3.4650 C   0  0  0  0  0
   18.8700   40.0110  -13.7420 C   0  0  0  0  0
   20.7660   40.3710  -12.3310 C   0  0  0  0  0
   19.3260   41.1260  -14.6600 C   0  0  0  0  0
   21.2320   41.5020  -13.2350 C   0  0  0  0  0
   22.3720   40.3150   -2.8310 C   0  0  0  0  0
   20.8070   38.6950   -6.2720 C   0  0  0  0  0
   22.8800   40.0140   -6.8670 C   0  0  0  0  0
   19.5770   38.2530  -12.2450 C   0  0  0  0  0
   21.9830   39.5020   -5.7560 C   0  0  0  0  0
   22.6230   35.9960  -12.2740 N   0  0  0  0  0
   25.0730   33.3720   -9.5500 N   0  0  0  0  0
   24.0090   38.4690   -2.8870 N   0  0  0  0  0
   24.3030   35.3190   -8.3710 N   0  0  0  0  0
   22.7560   38.7370   -4.7420 N   0  0  0  0  0
   20.0190   39.3630  -13.1020 N   0  3  0  0  0
   23.8950   34.9690  -10.6560 N   0  0  0  0  0
   26.0330   36.2590   -2.7130 F   0  0  0  0  0
   26.0340   33.0150   -6.0810 F   0  0  0  0  0
   18.3289   43.1763  -13.5181 H   0  0  0  0  0
   19.0878   42.3191  -12.0990 H   0  0  0  0  0
   20.8183   44.0004  -12.0363 H   0  0  0  0  0
   20.0771   44.8376  -13.4222 H   0  0  0  0  0
   19.2050   44.7363  -11.8730 H   0  0  0  0  0
   26.1410   31.9625   -8.4341 H   0  0  0  0  0
   20.4637   42.8114  -14.5911 H   0  0  0  0  0
   20.1475   37.4510   -9.6960 H   0  0  0  0  0
   22.0198   36.0113   -8.9380 H   0  0  0  0  0
   23.1186   36.9508   -6.9631 H   0  0  0  0  0
   26.2632   34.8855   -4.8795 H   0  0  0  0  0
   21.4922   37.0079  -13.7077 H   0  0  0  0  0
   18.3301   39.2691  -14.3304 H   0  0  0  0  0
   18.2275   40.4322  -12.9687 H   0  0  0  0  0
   20.1125   40.7815  -11.5612 H   0  0  0  0  0
   21.6385   39.8961  -11.8823 H   0  0  0  0  0
   19.9627   40.7014  -15.4362 H   0  0  0  0  0
   18.4472   41.6035  -15.0933 H   0  0  0  0  0
   21.7343   42.2517  -12.6237 H   0  0  0  0  0
   21.9056   41.0914  -13.9872 H   0  0  0  0  0
   21.8712   39.9774   -1.9236 H   0  0  0  0  0
   23.0997   41.0868   -2.5802 H   0  0  0  0  0
   21.6354   40.7201   -3.5249 H   0  0  0  0  0
   20.2004   39.3185   -6.9288 H   0  0  0  0  0
   21.1756   37.8320   -6.8265 H   0  0  0  0  0
   20.2029   38.3566   -5.4302 H   0  0  0  0  0
   23.2774   39.1693   -7.4298 H   0  0  0  0  0
   22.3022   40.6558   -7.5321 H   0  0  0  0  0
   23.7027   40.5835   -6.4347 H   0  0  0  0  0
   19.1235   38.6954  -11.3580 H   0  0  0  0  0
   18.9000   37.6401  -12.8401 H   0  0  0  0  0
   21.5653   40.3838   -5.2701 H   0  0  0  0  0
   20.6327   38.9678  -13.8145 H   0  0  0  0  0
   24.4204   34.6642  -11.4754 H   0  0  0  0  0
  1  3  1  0  0  0
  7  1  1  0  0  0
  2 30  4  0  0  0
 32  2  4  0  0  0
  2 35  1  0  0  0
  4  5  4  0  0  0
 13  4  1  0  0  0
  4 32  4  0  0  0
  5  6  4  0  0  0
  5 37  1  0  0  0
  6 30  4  0  0  0
 22  7  1  0  0  0
 23  7  1  0  0  0
  9  8  4  0  0  0
  8 14  4  0  0  0
 18  9  4  0  0  0
 10 13  4  0  0  0
 16 10  4  0  0  0
 13 11  4  0  0  0
 17 11  4  0  0  0
 12 14  4  0  0  0
 29 12  4  0  0  0
 14 27  1  0  0  0
 16 15  4  0  0  0
 15 17  4  0  0  0
 31 15  4  0  0  0
 33 16  4  0  0  0
 17 36  1  0  0  0
 18 29  4  0  0  0
 35 18  1  0  0  0
 19 24  1  0  0  0
 19 31  4  0  0  0
 33 19  4  0  0  0
 20 22  1  0  0  0
 34 20  1  0  0  0
 21 23  1  0  0  0
 34 21  1  0  0  0
 28 25  1  0  0  0
 28 26  1  0  0  0
 27 34  1  0  0  0
 28 33  1  0  0  0
  1 38  1  0  0  0
  1 39  1  0  0  0
  3 40  1  0  0  0
  3 41  1  0  0  0
  3 42  1  0  0  0
  6 43  1  0  0  0
  7 44  1  0  0  0
  8 45  1  0  0  0
  9 46  1  0  0  0
 10 47  1  0  0  0
 11 48  1  0  0  0
 12 49  1  0  0  0
 20 50  1  0  0  0
 20 51  1  0  0  0
 21 52  1  0  0  0
 21 53  1  0  0  0
 22 54  1  0  0  0
 22 55  1  0  0  0
 23 56  1  0  0  0
 23 57  1  0  0  0
 24 58  1  0  0  0
 24 59  1  0  0  0
 24 60  1  0  0  0
 25 61  1  0  0  0
 25 62  1  0  0  0
 25 63  1  0  0  0
 26 64  1  0  0  0
 26 65  1  0  0  0
 26 66  1  0  0  0
 27 67  1  0  0  0
 27 68  1  0  0  0
 28 69  1  0  0  0
 34 70  1  0  0  0
 35 71  1  0  0  0
M  END
$$$$
