4wj5_ligand
  -I-interpret- 

146146  0  0  0  0  0  0  0  0999 V2000
    5.9630   -7.2950   13.7740 O   0  0  0  0  0
    6.3700   -6.5240   12.8720 C   0  0  0  0  0
    7.3480   -6.9990   11.7900 C   0  0  0  0  0
    7.9580   -8.3200   12.2990 C   0  0  0  0  0
    8.3580   -5.9680   11.4830 N   0  3  0  0  0
    6.4910   -7.3700   10.5470 C   0  0  0  0  0
    6.8720   -6.9790    9.2240 C   0  0  0  0  0
    6.0180   -7.3950    8.1800 C   0  0  0  0  0
    4.9110   -8.1730    8.4160 C   0  0  0  0  0
    4.5390   -8.5880    9.6970 C   0  0  0  0  0
    5.3370   -8.1680   10.7710 C   0  0  0  0  0
    5.8380   -5.3220   12.8240 N   0  0  0  0  0
    4.7680   -4.4110   13.2740 C   0  0  0  0  0
    5.0980   -3.4010   14.3470 C   0  0  0  0  0
    5.6390   -2.1320   13.7030 C   0  0  0  0  0
    4.9000   -0.9180   14.1940 C   0  0  0  0  0
    3.6370   -5.3810   13.5880 C   0  0  0  0  0
    3.2120   -6.0290   12.6480 O   0  0  0  0  0
    3.0320   -5.5470   14.7800 N   0  0  0  0  0
    1.7910   -6.3220   14.8360 C   0  0  0  0  0
    0.7050   -5.5760   14.0300 C   0  0  0  0  0
    0.6130   -4.3360   14.0620 O   0  0  0  0  0
    1.3290   -6.4980   16.2910 C   0  0  0  0  0
   -0.0710   -6.3470   13.2820 N   0  0  0  0  0
   -1.1690   -5.7640   12.5150 C   0  0  0  0  0
   -2.5350   -6.0800   13.0760 C   0  0  0  0  0
   -3.5580   -5.6690   12.4880 O   0  0  0  0  0
   -2.5710   -6.8280   14.1780 N   0  0  0  0  0
   -3.7920   -7.2370   14.8700 C   0  0  0  0  0
   -3.5050   -7.2270   16.3480 C   0  0  0  0  0
   -2.3200   -7.2910   16.7270 O   0  0  0  0  0
   -4.2620   -8.6590   14.4720 C   0  0  0  0  0
   -3.2190   -9.7280   14.8390 C   0  0  0  0  0
   -4.5540   -8.6770   12.9820 C   0  0  0  0  0
   -3.6550  -11.1610   14.5950 C   0  0  0  0  0
   -4.5560   -7.1010   17.1510 N   0  0  0  0  0
   -4.3910   -7.1710   18.5890 C   0  0  0  0  0
   -4.0150   -5.8850   19.2910 C   0  0  0  0  0
   -3.9130   -5.9100   20.5130 O   0  0  0  0  0
   -3.8540   -4.7800   18.5760 N   0  0  0  0  0
   -3.4220   -3.4840   19.1680 C   0  0  0  0  0
   -4.5960   -2.5310   19.2290 C   0  0  0  0  0
   -4.8870   -1.7890   18.2780 O   0  0  0  0  0
   -2.2320   -2.8450   18.4050 C   0  0  0  0  0
   -1.1220   -3.8660   18.2210 C   0  0  0  0  0
   -1.6730   -1.6300   19.1530 C   0  0  0  0  0
   -0.5440   -4.4250   19.5090 C   0  0  0  0  0
   -5.2720   -2.5510   20.3670 N   0  0  0  0  0
   -6.5630   -1.8770   20.5620 C   0  0  0  0  0
   -6.4300   -0.8090   21.6640 C   0  0  0  0  0
   -5.5500   -0.9170   22.5320 O   0  0  0  0  0
   -7.5970   -2.9400   20.9370 C   0  0  0  0  0
   -9.0930   -2.7220   20.7050 C   0  0  0  0  0
   -9.4360   -2.7660   19.2290 C   0  0  0  0  0
   -9.8800   -3.7730   21.4770 C   0  0  0  0  0
   -7.2560    0.2440   21.5890 N   0  0  0  0  0
   -7.3360    1.2660   22.6400 C   0  0  0  0  0
   -7.7070    0.6240   23.9870 C   0  0  0  0  0
   -8.4250   -0.3710   24.0280 O   0  0  0  0  0
   -8.3740    2.3490   22.2910 C   0  0  0  0  0
   -9.5720    1.7030   21.8750 O   0  0  0  0  0
   -7.8810    3.2960   21.1540 C   0  0  0  0  0
   -3.9860    0.2260   27.3580 C   0  0  0  0  0
   -5.1710    0.6930   27.4070 C   0  0  0  0  0
   -6.5230    1.2500   27.4770 C   0  0  0  0  0
   -7.4800    0.8710   26.4160 C   0  0  0  0  0
   -7.1500    1.1880   25.0790 N   0  0  0  0  0
   -8.8880    0.9260   26.8640 C   0  0  0  0  0
   -9.3420    0.4000   27.8840 O   0  0  0  0  0
   -9.6370    1.7280   26.1660 O   0  0  0  0  0
    7.1571   -9.0098   12.5651 H   0  0  0  0  0
    8.5731   -8.7607   11.5145 H   0  0  0  0  0
    8.5736   -8.1203   13.1761 H   0  0  0  0  0
    8.8940   -5.7575   12.3249 H   0  0  0  0  0
    8.9852   -6.3138   10.7567 H   0  0  0  0  0
    7.8905   -5.1225   11.1559 H   0  0  0  0  0
    7.7711   -6.3930    9.0334 H   0  0  0  0  0
    6.2433   -7.0903    7.1580 H   0  0  0  0  0
    4.2974   -8.4793    7.5688 H   0  0  0  0  0
    3.6614   -9.2147    9.8558 H   0  0  0  0  0
    5.0693   -8.4566   11.7875 H   0  0  0  0  0
    6.4281   -4.7766   12.1957 H   0  0  0  0  0
    4.5164   -3.6777   12.5078 H   0  0  0  0  0
    5.8504   -3.8167   15.0173 H   0  0  0  0  0
    4.1965   -3.1648   14.9123 H   0  0  0  0  0
    5.5092   -2.2062   12.6233 H   0  0  0  0  0
    6.6919   -2.0292   13.9657 H   0  0  0  0  0
    3.8430   -1.0124   13.9453 H   0  0  0  0  0
    5.0144   -0.8371   15.2750 H   0  0  0  0  0
    5.3088   -0.0276   13.7164 H   0  0  0  0  0
    3.4304   -5.1409   15.6266 H   0  0  0  0  0
    1.9630   -7.3105   14.4102 H   0  0  0  0  0
    2.1000   -7.0233   16.8547 H   0  0  0  0  0
    1.1550   -5.5186   16.7366 H   0  0  0  0  0
    0.4054   -7.0765   16.3101 H   0  0  0  0  0
    0.0992   -7.3519   13.2417 H   0  0  0  0  0
   -1.1239   -6.1837   11.5101 H   0  0  0  0  0
   -1.0474   -4.6812   12.5427 H   0  0  0  0  0
   -1.6808   -7.1382   14.5676 H   0  0  0  0  0
   -4.5861   -6.5433   14.5937 H   0  0  0  0  0
   -5.1671   -8.9007   15.0292 H   0  0  0  0  0
   -3.0349   -9.6333   15.9092 H   0  0  0  0  0
   -2.3508   -9.5511   14.2042 H   0  0  0  0  0
   -5.3362   -7.9519   12.7576 H   0  0  0  0  0
   -3.6488   -8.4186   12.4325 H   0  0  0  0  0
   -4.8858   -9.6734   12.6901 H   0  0  0  0  0
   -4.5440  -11.3750   15.1883 H   0  0  0  0  0
   -3.8815  -11.2954   13.5373 H   0  0  0  0  0
   -2.8516  -11.8382   14.8848 H   0  0  0  0  0
   -5.4837   -6.9543   16.7533 H   0  0  0  0  0
   -3.5661   -7.8617   18.7640 H   0  0  0  0  0
   -5.3627   -7.4596   18.9897 H   0  0  0  0  0
   -4.0347   -4.8197   17.5729 H   0  0  0  0  0
   -3.0665   -3.6876   20.1781 H   0  0  0  0  0
   -2.6030   -2.5161   17.4343 H   0  0  0  0  0
   -0.3078   -3.3561   17.7060 H   0  0  0  0  0
   -1.5548   -4.7071   17.6793 H   0  0  0  0  0
   -2.4564   -0.8800   19.2620 H   0  0  0  0  0
   -1.3253   -1.9400   20.1385 H   0  0  0  0  0
   -0.8410   -1.2087   18.5887 H   0  0  0  0  0
   -0.1254   -3.6112   20.1012 H   0  0  0  0  0
   -1.3332   -4.9196   20.0753 H   0  0  0  0  0
    0.2401   -5.1441   19.2719 H   0  0  0  0  0
   -4.8738   -3.0638   21.1537 H   0  0  0  0  0
   -6.8811   -1.3704   19.6508 H   0  0  0  0  0
   -7.5111   -3.0136   22.0211 H   0  0  0  0  0
   -7.3535   -3.7792   20.2854 H   0  0  0  0  0
   -9.3636   -1.7304   21.0677 H   0  0  0  0  0
   -8.8866   -1.9832   18.7061 H   0  0  0  0  0
   -9.1604   -3.7389   18.8221 H   0  0  0  0  0
  -10.5068   -2.6074   19.1013 H   0  0  0  0  0
   -9.5967   -4.7661   21.1282 H   0  0  0  0  0
   -9.6579   -3.6830   22.5403 H   0  0  0  0  0
  -10.9466   -3.6195   21.3130 H   0  0  0  0  0
   -7.8536    0.3392   20.7679 H   0  0  0  0  0
   -6.3545    1.7341   22.7157 H   0  0  0  0  0
   -8.5393    2.9621   23.1770 H   0  0  0  0  0
  -10.2309    2.3651   21.6533 H   0  0  0  0  0
   -6.9648    3.7947   21.4700 H   0  0  0  0  0
   -7.6864    2.7114   20.2548 H   0  0  0  0  0
   -8.6485    4.0413   20.9454 H   0  0  0  0  0
   -6.3984    2.3289   27.3847 H   0  0  0  0  0
   -6.9486    0.8653   28.4038 H   0  0  0  0  0
   -7.3327   -0.1980   26.2620 H   0  0  0  0  0
   -6.4345    1.8990   24.9275 H   0  0  0  0  0
   -9.1407    2.0509   25.4104 H   0  0  0  0  0
  2  1  2  0  0  0
  2  3  1  0  0  0
 12  2  1  0  0  0
  3  4  1  0  0  0
  3  5  1  0  0  0
  3  6  1  0  0  0
  6  7  4  0  0  0
  6 11  4  0  0  0
  7  8  4  0  0  0
  8  9  4  0  0  0
 10  9  4  0  0  0
 11 10  4  0  0  0
 13 12  1  0  0  0
 13 14  1  0  0  0
 17 13  1  0  0  0
 14 15  1  0  0  0
 15 16  1  0  0  0
 17 18  2  0  0  0
 19 17  1  0  0  0
 20 19  1  0  0  0
 21 20  1  0  0  0
 20 23  1  0  0  0
 21 22  2  0  0  0
 24 21  1  0  0  0
 25 24  1  0  0  0
 26 25  1  0  0  0
 26 27  2  0  0  0
 28 26  1  0  0  0
 29 28  1  0  0  0
 30 29  1  0  0  0
 29 32  1  0  0  0
 30 31  2  0  0  0
 36 30  1  0  0  0
 32 33  1  0  0  0
 32 34  1  0  0  0
 33 35  1  0  0  0
 37 36  1  0  0  0
 38 37  1  0  0  0
 38 39  2  0  0  0
 40 38  1  0  0  0
 41 40  1  0  0  0
 42 41  1  0  0  0
 41 44  1  0  0  0
 42 43  2  0  0  0
 48 42  1  0  0  0
 44 45  1  0  0  0
 44 46  1  0  0  0
 45 47  1  0  0  0
 49 48  1  0  0  0
 50 49  1  0  0  0
 49 52  1  0  0  0
 50 51  2  0  0  0
 56 50  1  0  0  0
 52 53  1  0  0  0
 53 54  1  0  0  0
 53 55  1  0  0  0
 57 56  1  0  0  0
 58 57  1  0  0  0
 57 60  1  0  0  0
 58 59  2  0  0  0
 67 58  1  0  0  0
 60 61  1  0  0  0
 60 62  1  0  0  0
 64 63  3  0  0  0
 65 64  1  0  0  0
 66 65  1  0  0  0
 66 67  1  0  0  0
 66 68  1  0  0  0
 68 69  2  0  0  0
 68 70  1  0  0  0
  4 71  1  0  0  0
  4 72  1  0  0  0
  4 73  1  0  0  0
  5 74  1  0  0  0
  5 75  1  0  0  0
  5 76  1  0  0  0
  7 77  1  0  0  0
  8 78  1  0  0  0
  9 79  1  0  0  0
 10 80  1  0  0  0
 11 81  1  0  0  0
 12 82  1  0  0  0
 13 83  1  0  0  0
 14 84  1  0  0  0
 14 85  1  0  0  0
 15 86  1  0  0  0
 15 87  1  0  0  0
 16 88  1  0  0  0
 16 89  1  0  0  0
 16 90  1  0  0  0
 19 91  1  0  0  0
 20 92  1  0  0  0
 23 93  1  0  0  0
 23 94  1  0  0  0
 23 95  1  0  0  0
 24 96  1  0  0  0
 25 97  1  0  0  0
 25 98  1  0  0  0
 28 99  1  0  0  0
 29100  1  0  0  0
 32101  1  0  0  0
 33102  1  0  0  0
 33103  1  0  0  0
 34104  1  0  0  0
 34105  1  0  0  0
 34106  1  0  0  0
 35107  1  0  0  0
 35108  1  0  0  0
 35109  1  0  0  0
 36110  1  0  0  0
 37111  1  0  0  0
 37112  1  0  0  0
 40113  1  0  0  0
 41114  1  0  0  0
 44115  1  0  0  0
 45116  1  0  0  0
 45117  1  0  0  0
 46118  1  0  0  0
 46119  1  0  0  0
 46120  1  0  0  0
 47121  1  0  0  0
 47122  1  0  0  0
 47123  1  0  0  0
 48124  1  0  0  0
 49125  1  0  0  0
 52126  1  0  0  0
 52127  1  0  0  0
 53128  1  0  0  0
 54129  1  0  0  0
 54130  1  0  0  0
 54131  1  0  0  0
 55132  1  0  0  0
 55133  1  0  0  0
 55134  1  0  0  0
 56135  1  0  0  0
 57136  1  0  0  0
 60137  1  0  0  0
 61138  1  0  0  0
 62139  1  0  0  0
 62140  1  0  0  0
 62141  1  0  0  0
 65142  1  0  0  0
 65143  1  0  0  0
 66144  1  0  0  0
 67145  1  0  0  0
 70146  1  0  0  0
M  END
$$$$
