### 
### Created by X-TOOL on Mon Sep 10 21:13:16 2018
### 

@<TRIPOS>MOLECULE
4wj5_ligand
  146   146     1     0     0
SMALL
GAST_HUCK


@<TRIPOS>ATOM
      1 O           5.9630   -7.2950   13.7740 O.2       1 GRN        -0.3595
      2 C           6.3700   -6.5240   12.8720 C.2       1 GRN         0.2150
      3 CA          7.3480   -6.9990   11.7900 C.3       1 GRN         0.0612
      4 C1          7.9580   -8.3200   12.2990 C.3       1 GRN        -0.0322
      5 N           8.3580   -5.9680   11.4830 N.4       1 GRN         0.1802
      6 CB          6.4910   -7.3700   10.5470 C.ar      1 GRN         0.0072
      7 CG2         6.8720   -6.9790    9.2240 C.ar      1 GRN        -0.0340
      8 CD2         6.0180   -7.3950    8.1800 C.ar      1 GRN        -0.0320
      9 CE          4.9110   -8.1730    8.4160 C.ar      1 GRN        -0.0337
     10 CD1         4.5390   -8.5880    9.6970 C.ar      1 GRN        -0.0320
     11 CG1         5.3370   -8.1680   10.7710 C.ar      1 GRN        -0.0340
     12 N           5.8380   -5.3220   12.8240 N.am      1 NVA        -0.2678
     13 CA          4.7680   -4.4110   13.2740 C.3       1 NVA         0.1305
     14 CB          5.0980   -3.4010   14.3470 C.3       1 NVA        -0.0125
     15 CG          5.6390   -2.1320   13.7030 C.3       1 NVA        -0.0517
     16 CD          4.9000   -0.9180   14.1940 C.3       1 NVA        -0.0651
     17 C           3.6370   -5.3810   13.5880 C.2       1 NVA         0.2040
     18 O           3.2120   -6.0290   12.6480 O.2       1 NVA        -0.3944
     19 N           3.0320   -5.5470   14.7800 N.am      1 ALA        -0.2640
     20 CA          1.7910   -6.3220   14.8360 C.3       1 ALA         0.1282
     21 C           0.7050   -5.5760   14.0300 C.2       1 ALA         0.2034
     22 O           0.6130   -4.3360   14.0620 O.2       1 ALA        -0.3944
     23 CB          1.3290   -6.4980   16.2910 C.3       1 ALA        -0.0244
     24 N          -0.0710   -6.3470   13.2820 N.am      1 GLY        -0.2664
     25 CA         -1.1690   -5.7640   12.5150 C.3       1 GLY         0.1201
     26 C          -2.5350   -6.0800   13.0760 C.2       1 GLY         0.2008
     27 O          -3.5580   -5.6690   12.4880 O.2       1 GLY        -0.3947
     28 N          -2.5710   -6.8280   14.1780 N.am      1 ILE        -0.2637
     29 CA         -3.7920   -7.2370   14.8700 C.3       1 ILE         0.1335
     30 C          -3.5050   -7.2270   16.3480 C.2       1 ILE         0.2040
     31 O          -2.3200   -7.2910   16.7270 O.2       1 ILE        -0.3944
     32 CB         -4.2620   -8.6590   14.4720 C.3       1 ILE        -0.0037
     33 CG1        -3.2190   -9.7280   14.8390 C.3       1 ILE        -0.0491
     34 CG2        -4.5540   -8.6770   12.9820 C.3       1 ILE        -0.0582
     35 CD1        -3.6550  -11.1610   14.5950 C.3       1 ILE        -0.0648
     36 N          -4.5560   -7.1010   17.1510 N.am      1 GLY        -0.2664
     37 CA         -4.3910   -7.1710   18.5890 C.3       1 GLY         0.1201
     38 C          -4.0150   -5.8850   19.2910 C.2       1 GLY         0.2008
     39 O          -3.9130   -5.9100   20.5130 O.2       1 GLY        -0.3947
     40 N          -3.8540   -4.7800   18.5760 N.am      1 ILE        -0.2637
     41 CA         -3.4220   -3.4840   19.1680 C.3       1 ILE         0.1335
     42 C          -4.5960   -2.5310   19.2290 C.2       1 ILE         0.2042
     43 O          -4.8870   -1.7890   18.2780 O.2       1 ILE        -0.3944
     44 CB         -2.2320   -2.8450   18.4050 C.3       1 ILE        -0.0037
     45 CG1        -1.1220   -3.8660   18.2210 C.3       1 ILE        -0.0491
     46 CG2        -1.6730   -1.6300   19.1530 C.3       1 ILE        -0.0582
     47 CD1        -0.5440   -4.4250   19.5090 C.3       1 ILE        -0.0648
     48 N          -5.2720   -2.5510   20.3670 N.am      1 LEU        -0.2637
     49 CA         -6.5630   -1.8770   20.5620 C.3       1 LEU         0.1312
     50 C          -6.4300   -0.8090   21.6640 C.2       1 LEU         0.2040
     51 O          -5.5500   -0.9170   22.5320 O.2       1 LEU        -0.3944
     52 CB         -7.5970   -2.9400   20.9370 C.3       1 LEU        -0.0101
     53 CG         -9.0930   -2.7220   20.7050 C.3       1 LEU        -0.0425
     54 CD1        -9.4360   -2.7660   19.2290 C.3       1 LEU        -0.0625
     55 CD2        -9.8800   -3.7730   21.4770 C.3       1 LEU        -0.0625
     56 N          -7.2560    0.2440   21.5890 N.am      1 THR        -0.2613
     57 CA         -7.3360    1.2660   22.6400 C.3       1 THR         0.1564
     58 C          -7.7070    0.6240   23.9870 C.2       1 THR         0.2059
     59 O          -8.4250   -0.3710   24.0280 O.2       1 THR        -0.3943
     60 CB         -8.3740    2.3490   22.2910 C.3       1 THR         0.0924
     61 OG1        -9.5720    1.7030   21.8750 O.3       1 THR        -0.3874
     62 CG2        -7.8810    3.2960   21.1540 C.3       1 THR        -0.0346
     63 CD         -3.9860    0.2260   27.3580 C.1       1 LPH        -0.1190
     64 CG         -5.1710    0.6930   27.4070 C.1       1 LPH        -0.1015
     65 CB         -6.5230    1.2500   27.4770 C.3       1 LPH         0.0437
     66 CA         -7.4800    0.8710   26.4160 C.3       1 LPH         0.1051
     67 N          -7.1500    1.1880   25.0790 N.am      1 LPH        -0.2685
     68 C          -8.8880    0.9260   26.8640 C.2       1 LPH         0.0610
     69 OXT        -9.3420    0.4000   27.8840 O.co2     1 LPH        -0.5666
     70 O          -9.6370    1.7280   26.1660 O.co2     1 LPH        -0.5666
     71 H           8.6710   -8.7052   11.5552 H         1 GRN         0.0186
     72 H           7.1570   -9.0575   12.4554 H         1 GRN         0.0186
     73 H           8.4814   -8.1399   13.2496 H         1 GRN         0.0186
     74 H           7.8973   -5.1330   11.1567 H         1 GRN         0.1961
     75 H           8.9803   -6.3098   10.7675 H         1 GRN         0.1961
     76 H           8.8863   -5.7569   12.3151 H         1 GRN         0.1961
     77 H           7.7661   -6.3962    9.0344 H         1 GRN         0.0851
     78 H           6.2421   -7.0920    7.1636 H         1 GRN         0.0699
     79 H           4.3008   -8.4776    7.5735 H         1 GRN         0.0858
     80 H           3.6663   -9.2113    9.8549 H         1 GRN         0.0699
     81 H           5.0708   -8.4550   11.7819 H         1 GRN         0.0851
     82 H           6.4165   -4.7872   12.2080 H         1 NVA         0.1882
     83 H           4.4626   -3.8078   12.4063 H         1 NVA         0.0801
     84 H           5.8568   -3.8204   15.0239 H         1 NVA         0.0312
     85 H           4.1886   -3.1629   14.9181 H         1 NVA         0.0312
     86 H           5.5235   -2.2057   12.6116 H         1 NVA         0.0265
     87 H           6.7053   -2.0288   13.9528 H         1 NVA         0.0265
     88 H           5.3117   -0.0186   13.7127 H         1 NVA         0.0230
     89 H           5.0147   -0.8352   15.2848 H         1 NVA         0.0230
     90 H           3.8330   -1.0120   13.9436 H         1 NVA         0.0230
     91 H           3.4226   -5.1489   15.6100 H         1 ALA         0.1883
     92 H           1.9614   -7.3133   14.3907 H         1 ALA         0.0797
     93 H           0.3969   -7.0818   16.3116 H         1 ALA         0.0277
     94 H           1.1530   -5.5102   16.7419 H         1 ALA         0.0277
     95 H           2.1063   -7.0281   16.8610 H         1 ALA         0.0277
     96 H           0.0958   -7.3322   13.2425 H         1 GLY         0.1881
     97 H          -1.1180   -6.1505   11.4864 H         1 GLY         0.0763
     98 H          -1.0427   -4.6714   12.5029 H         1 GLY         0.0763
     99 H          -1.6983   -7.1321   14.5600 H         1 ILE         0.1883
    100 H          -4.5930   -6.5195   14.6386 H         1 ILE         0.0803
    101 H          -5.1905   -8.8857   15.0165 H         1 ILE         0.0345
    102 H          -2.9823   -9.6209   15.9079 H         1 ILE         0.0267
    103 H          -2.3140   -9.5406   14.2424 H         1 ILE         0.0267
    104 H          -5.3012   -7.9051   12.7455 H         1 ILE         0.0235
    105 H          -4.9446   -9.6650   12.6968 H         1 ILE         0.0235
    106 H          -3.6279   -8.4738   12.4243 H         1 ILE         0.0235
    107 H          -2.8449  -11.8455   14.8871 H         1 ILE         0.0230
    108 H          -3.8839  -11.2980   13.5278 H         1 ILE         0.0230
    109 H          -4.5521  -11.3783   15.1933 H         1 ILE         0.0230
    110 H          -5.4655   -6.9571   16.7611 H         1 GLY         0.1881
    111 H          -3.6024   -7.9086   18.7989 H         1 GLY         0.0763
    112 H          -5.3424   -7.5192   19.0175 H         1 GLY         0.0763
    113 H          -4.0311   -4.8190   17.5926 H         1 ILE         0.1883
    114 H          -3.0880   -3.6809   20.1974 H         1 ILE         0.0803
    115 H          -2.5861   -2.5185   17.4160 H         1 ILE         0.0345
    116 H          -0.3060   -3.3857   17.6611 H         1 ILE         0.0267
    117 H          -1.5243   -4.7055   17.6350 H         1 ILE         0.0267
    118 H          -2.4708   -0.8852   19.2906 H         1 ILE         0.0235
    119 H          -0.8532   -1.1856   18.5696 H         1 ILE         0.0235
    120 H          -1.2939   -1.9469   20.1358 H         1 ILE         0.0235
    121 H           0.2475   -5.1509   19.2710 H         1 ILE         0.0230
    122 H          -1.3395   -4.9245   20.0815 H         1 ILE         0.0230
    123 H          -0.1212   -3.6047   20.1076 H         1 ILE         0.0230
    124 H          -4.8816   -3.0537   21.1383 H         1 LEU         0.1883
    125 H          -6.8690   -1.3873   19.6258 H         1 LEU         0.0800
    126 H          -7.4746   -3.1244   22.0145 H         1 LEU         0.0315
    127 H          -7.3258   -3.8469   20.3766 H         1 LEU         0.0315
    128 H          -9.3643   -1.7281   21.0904 H         1 LEU         0.0298
    129 H         -10.5165   -2.6061   19.0988 H         1 LEU         0.0232
    130 H          -9.1584   -3.7475   18.8171 H         1 LEU         0.0232
    131 H          -8.8821   -1.9764   18.7001 H         1 LEU         0.0232
    132 H          -9.6138   -3.7207   22.5430 H         1 LEU         0.0232
    133 H          -9.6373   -4.7725   21.0871 H         1 LEU         0.0232
    134 H         -10.9573   -3.5848   21.3585 H         1 LEU         0.0232
    135 H          -7.8419    0.3373   20.7840 H         1 THR         0.1884
    136 H          -6.3495    1.7433   22.7350 H         1 THR         0.0826
    137 H          -8.5749    2.9515   23.1891 H         1 THR         0.0639
    138 H          -9.3923    1.1657   21.1124 H         1 THR         0.2101
    139 H          -8.6548    4.0487   20.9425 H         1 THR         0.0257
    140 H          -7.6843    2.7072   20.2459 H         1 THR         0.0257
    141 H          -6.9563    3.8000   21.4717 H         1 THR         0.0257
    142 H          -3.0043   -0.1609   27.3174 H         1 LPH         0.1228
    143 H          -6.4280    2.3457   27.4570 H         1 LPH         0.0438
    144 H          -6.9575    0.9371   28.4378 H         1 LPH         0.0438
    145 H          -7.3270   -0.2178   26.3834 H         1 LPH         0.0735
    146 H          -6.4486    1.8851   24.9305 H         1 LPH         0.1876
@<TRIPOS>BOND
     1    2    1 2  
     2    2    3 1  
     3   12    2 am 
     4    3    4 1  
     5    3    5 1  
     6    3    6 1  
     7    6    7 ar 
     8    6   11 ar 
     9    7    8 ar 
    10    8    9 ar 
    11   10    9 ar 
    12   11   10 ar 
    13   13   12 1  
    14   13   14 1  
    15   17   13 1  
    16   14   15 1  
    17   15   16 1  
    18   17   18 2  
    19   19   17 am 
    20   20   19 1  
    21   21   20 1  
    22   20   23 1  
    23   21   22 2  
    24   24   21 am 
    25   25   24 1  
    26   26   25 1  
    27   26   27 2  
    28   28   26 am 
    29   29   28 1  
    30   30   29 1  
    31   29   32 1  
    32   30   31 2  
    33   36   30 am 
    34   32   33 1  
    35   32   34 1  
    36   33   35 1  
    37   37   36 1  
    38   38   37 1  
    39   38   39 2  
    40   40   38 am 
    41   41   40 1  
    42   42   41 1  
    43   41   44 1  
    44   42   43 2  
    45   48   42 am 
    46   44   45 1  
    47   44   46 1  
    48   45   47 1  
    49   49   48 1  
    50   50   49 1  
    51   49   52 1  
    52   50   51 2  
    53   56   50 am 
    54   52   53 1  
    55   53   54 1  
    56   53   55 1  
    57   57   56 1  
    58   58   57 1  
    59   57   60 1  
    60   58   59 2  
    61   67   58 am 
    62   60   61 1  
    63   60   62 1  
    64   64   63 3  
    65   65   64 1  
    66   66   65 1  
    67   66   67 1  
    68   66   68 1  
    69   68   69 ar 
    70   68   70 ar 
    71    4   71 1  
    72    4   72 1  
    73    4   73 1  
    74    5   74 1  
    75    5   75 1  
    76    5   76 1  
    77    7   77 1  
    78    8   78 1  
    79    9   79 1  
    80   10   80 1  
    81   11   81 1  
    82   12   82 1  
    83   13   83 1  
    84   14   84 1  
    85   14   85 1  
    86   15   86 1  
    87   15   87 1  
    88   16   88 1  
    89   16   89 1  
    90   16   90 1  
    91   19   91 1  
    92   20   92 1  
    93   23   93 1  
    94   23   94 1  
    95   23   95 1  
    96   24   96 1  
    97   25   97 1  
    98   25   98 1  
    99   28   99 1  
   100   29  100 1  
   101   32  101 1  
   102   33  102 1  
   103   33  103 1  
   104   34  104 1  
   105   34  105 1  
   106   34  106 1  
   107   35  107 1  
   108   35  108 1  
   109   35  109 1  
   110   36  110 1  
   111   37  111 1  
   112   37  112 1  
   113   40  113 1  
   114   41  114 1  
   115   44  115 1  
   116   45  116 1  
   117   45  117 1  
   118   46  118 1  
   119   46  119 1  
   120   46  120 1  
   121   47  121 1  
   122   47  122 1  
   123   47  123 1  
   124   48  124 1  
   125   49  125 1  
   126   52  126 1  
   127   52  127 1  
   128   53  128 1  
   129   54  129 1  
   130   54  130 1  
   131   54  131 1  
   132   55  132 1  
   133   55  133 1  
   134   55  134 1  
   135   56  135 1  
   136   57  136 1  
   137   60  137 1  
   138   61  138 1  
   139   62  139 1  
   140   62  140 1  
   141   62  141 1  
   142   63  142 1  
   143   65  143 1  
   144   65  144 1  
   145   66  145 1  
   146   67  146 1  
@<TRIPOS>SUBSTRUCTURE
     1 GRN         1

