2g9v_ligand
  -I-interpret- 

 24 24  0  0  0  0  0  0  0  0999 V2000
   31.5400   20.7970   25.2760 O   0  0  0  0  0
   32.7190   21.3240   25.9110 C   0  0  0  0  0
   32.9430   22.7770   25.4470 C   0  0  0  0  0
   33.1770   22.7770   24.0370 O   0  0  0  0  0
   34.1500   23.4190   26.1810 C   0  0  0  0  0
   33.9860   23.3020   27.6580 N   0  3  0  0  0
   33.8250   21.8890   28.1250 C   0  0  0  0  0
   32.6080   21.2270   27.4560 C   0  0  0  0  0
   32.4560   19.7810   27.9600 C   0  0  0  0  0
   33.4890   18.9320   27.4220 O   0  0  0  0  0
   31.6323   20.8679   24.3231 H   0  0  0  0  0
   33.5833   20.7283   25.6174 H   0  0  0  0  0
   32.0566   23.3656   25.6836 H   0  0  0  0  0
   32.4270   22.3787   23.5893 H   0  0  0  0  0
   34.2063   24.4742   25.9137 H   0  0  0  0  0
   35.0615   22.9003   25.8839 H   0  0  0  0  0
   33.1401   23.8104   27.9157 H   0  0  0  0  0
   34.8294   23.6764   28.0927 H   0  0  0  0  0
   33.6745   21.8909   29.2046 H   0  0  0  0  0
   34.7205   21.3272   27.8595 H   0  0  0  0  0
   31.6982   21.7593   27.7337 H   0  0  0  0  0
   31.4876   19.3992   27.6368 H   0  0  0  0  0
   32.5355   19.7806   29.0471 H   0  0  0  0  0
   33.3709   18.0381   27.7515 H   0  0  0  0  0
  1  2  1  0  0  0
  2  3  1  0  0  0
  2  8  1  0  0  0
  3  4  1  0  0  0
  3  5  1  0  0  0
  5  6  1  0  0  0
  6  7  1  0  0  0
  7  8  1  0  0  0
  8  9  1  0  0  0
  9 10  1  0  0  0
  1 11  1  0  0  0
  2 12  1  0  0  0
  3 13  1  0  0  0
  4 14  1  0  0  0
  5 15  1  0  0  0
  5 16  1  0  0  0
  6 17  1  0  0  0
  6 18  1  0  0  0
  7 19  1  0  0  0
  7 20  1  0  0  0
  8 21  1  0  0  0
  9 22  1  0  0  0
  9 23  1  0  0  0
 10 24  1  0  0  0
M  END
$$$$
