4cmu_ligand
  -I-interpret- 

 51 54  0  0  0  0  0  0  0  0999 V2000
   34.5540   46.9480    8.7900 C   0  0  0  0  0
   35.0130   46.7660   10.1150 C   0  0  0  0  0
   30.0020   45.6640    8.4860 C   0  0  0  0  0
   33.7240   44.6730   10.2920 C   0  0  0  0  0
   27.9030   46.2360    9.3980 C   0  0  0  0  0
   28.9530   46.5960    8.5280 C   0  0  0  0  0
   28.9850   47.8550    7.7170 C   0  0  0  0  0
   33.6690   45.9920    8.2010 C   0  0  0  0  0
   33.2310   44.8160    8.9480 C   0  0  0  0  0
   30.0470   44.4610    9.2310 C   0  0  0  0  0
   34.5970   45.6370   10.8510 C   0  0  0  0  0
   30.1620   48.5520    7.2810 C   0  0  0  0  0
   27.9010   48.6560    7.1880 C   0  0  0  0  0
   28.9380   44.1980   10.0720 C   0  0  0  0  0
   33.2340   46.2650    6.7970 C   0  0  0  0  0
   31.6740   48.3070    7.4560 C   0  0  0  0  0
   32.2710   43.7400    8.3740 C   0  0  0  0  0
   26.4250   48.4770    7.2870 C   0  0  0  0  0
   32.9560   42.3670    8.2760 C   0  0  0  0  0
   30.4300   50.6970    5.9070 C   0  0  0  0  0
   31.9770   47.4840    5.0490 C   0  0  0  0  0
   27.8790   45.0780   10.1510 N   0  0  0  0  0
   28.3420   49.7190    6.5100 N   0  0  0  0  0
   29.6780   49.6480    6.5710 N   0  0  0  0  0
   32.3130   47.3350    6.4780 N   0  0  0  0  0
   28.9030   43.0240   10.8500 N   0  0  0  0  0
   33.7340   45.4970    5.9670 O   0  0  0  0  0
   31.0840   43.5360    9.2050 O   0  0  0  0  0
   35.0330   45.4760   12.1030 F   0  0  0  0  0
   34.8752   47.8179    8.2171 H   0  0  0  0  0
   35.6858   47.4955   10.5659 H   0  0  0  0  0
   30.8450   45.8830    7.8307 H   0  0  0  0  0
   33.4215   43.8115   10.8873 H   0  0  0  0  0
   27.0551   46.9158    9.4818 H   0  0  0  0  0
   31.7991   47.8692    8.4463 H   0  0  0  0  0
   32.1596   49.2688    7.2909 H   0  0  0  0  0
   31.9871   44.1207    7.3929 H   0  0  0  0  0
   26.1451   47.5233    6.8396 H   0  0  0  0  0
   26.1284   48.4887    8.3358 H   0  0  0  0  0
   25.9256   49.2885    6.7577 H   0  0  0  0  0
   33.8233   42.4411    7.6200 H   0  0  0  0  0
   33.2757   42.0502    9.2687 H   0  0  0  0  0
   32.2529   41.6397    7.8700 H   0  0  0  0  0
   31.0476   51.2182    6.6384 H   0  0  0  0  0
   31.0668   50.2560    5.1401 H   0  0  0  0  0
   29.7383   51.4018    5.4456 H   0  0  0  0  0
   32.8864   47.6831    4.4821 H   0  0  0  0  0
   31.5160   46.5647    4.6877 H   0  0  0  0  0
   31.2812   48.3139    4.9253 H   0  0  0  0  0
   29.6773   42.3613   10.8084 H   0  0  0  0  0
   28.1034   42.8367   11.4549 H   0  0  0  0  0
  1  2  4  0  0  0
  8  1  4  0  0  0
  2 11  4  0  0  0
  6  3  4  0  0  0
  3 10  4  0  0  0
  9  4  4  0  0  0
  4 11  4  0  0  0
  6  5  4  0  0  0
  5 22  4  0  0  0
  7  6  1  0  0  0
 12  7  4  0  0  0
  7 13  4  0  0  0
  8  9  4  0  0  0
 15  8  1  0  0  0
  9 17  1  0  0  0
 10 14  4  0  0  0
 10 28  1  0  0  0
 11 29  1  0  0  0
 16 12  1  0  0  0
 12 24  4  0  0  0
 13 18  1  0  0  0
 13 23  4  0  0  0
 22 14  4  0  0  0
 14 26  1  0  0  0
 25 15  1  0  0  0
 15 27  2  0  0  0
 16 25  1  0  0  0
 17 19  1  0  0  0
 17 28  1  0  0  0
 24 20  1  0  0  0
 25 21  1  0  0  0
 23 24  4  0  0  0
  1 30  1  0  0  0
  2 31  1  0  0  0
  3 32  1  0  0  0
  4 33  1  0  0  0
  5 34  1  0  0  0
 16 35  1  0  0  0
 16 36  1  0  0  0
 17 37  1  0  0  0
 18 38  1  0  0  0
 18 39  1  0  0  0
 18 40  1  0  0  0
 19 41  1  0  0  0
 19 42  1  0  0  0
 19 43  1  0  0  0
 20 44  1  0  0  0
 20 45  1  0  0  0
 20 46  1  0  0  0
 21 47  1  0  0  0
 21 48  1  0  0  0
 21 49  1  0  0  0
 26 50  1  0  0  0
 26 51  1  0  0  0
M  END
$$$$
