5mk9_ligand
  -I-interpret- 

147154  0  0  0  0  0  0  0  0999 V2000
  -11.4980  -15.5960   -2.6250 C   0  0  0  0  0
  -12.1230  -14.6860   -3.6410 C   0  0  0  0  0
  -11.1030  -14.0740   -4.4010 O   0  0  0  0  0
  -12.9980  -13.6590   -2.9340 C   0  0  0  0  0
  -13.7080  -12.9270   -3.9000 O   0  0  0  0  0
  -13.9440  -14.3730   -1.9890 C   0  0  0  0  0
  -14.6440  -13.3620   -1.2400 O   0  0  0  0  0
  -13.1590  -15.2510   -1.0480 C   0  0  0  0  0
  -12.3930  -16.1900   -1.7630 O   0  0  0  0  0
  -14.1140  -16.0620   -0.1400 C   0  0  0  0  0
  -14.9290  -16.9400   -0.9250 O   0  0  0  0  0
  -16.0420  -13.2060   -1.5780 C   0  0  0  0  0
  -16.3880  -11.7430   -1.7320 C   0  0  0  0  0
  -15.5200  -11.1550   -2.7150 O   0  0  0  0  0
  -16.2530  -11.0240   -0.4040 C   0  0  0  0  0
  -16.7500   -9.6950   -0.5540 O   0  0  0  0  0
  -16.9850  -11.7310    0.7120 C   0  0  0  0  0
  -16.5070  -11.0270    1.8970 O   0  0  0  0  0
  -16.6880  -13.2210    0.7270 C   0  0  0  0  0
  -16.8380  -13.7690   -0.5870 O   0  0  0  0  0
  -17.6450  -14.0680    1.5680 C   0  0  0  0  0
  -17.5700  -15.4300    1.2100 O   0  0  0  0  0
  -17.1580  -11.3460    3.1410 C   0  0  0  0  0
  -17.1720  -10.1150    4.0200 C   0  0  0  0  0
  -17.8050   -9.0000    3.3870 O   0  0  0  0  0
  -15.7940   -9.7680    4.5480 C   0  0  0  0  0
  -15.9350   -8.7490    5.5210 O   0  0  0  0  0
  -15.1540  -11.0210    5.1480 C   0  0  0  0  0
  -13.8090  -10.6820    5.5400 O   0  0  0  0  0
  -15.1640  -12.1480    4.1390 C   0  0  0  0  0
  -16.5170  -12.4090    3.7810 O   0  0  0  0  0
  -14.5900  -13.4550    4.6950 C   0  0  0  0  0
  -14.5090  -14.4030    3.6410 O   0  0  0  0  0
  -13.5100  -10.8570    6.9020 C   0  0  0  0  0
  -12.8030   -9.6140    7.4330 C   0  0  0  0  0
  -13.5830   -8.4870    7.0930 O   0  0  0  0  0
  -11.3910   -9.5040    6.8750 C   0  0  0  0  0
  -10.7280   -8.4360    7.5550 O   0  0  0  0  0
  -10.6290  -10.7900    7.0220 C   0  0  0  0  0
   -9.3840  -10.6580    6.2540 O   0  0  0  0  0
  -11.3990  -11.9740    6.4860 C   0  0  0  0  0
  -12.6930  -12.0280    7.1040 O   0  0  0  0  0
  -10.7200  -13.2980    6.8370 C   0  0  0  0  0
  -11.3410  -14.4180    6.2250 O   0  0  0  0  0
   -8.2150  -10.5020    6.9960 C   0  0  0  0  0
   -7.3860   -9.3700    6.3840 C   0  0  0  0  0
   -8.1810   -8.1890    6.4000 O   0  0  0  0  0
   -6.9300   -9.7290    4.9860 C   0  0  0  0  0
   -6.0840   -8.7070    4.4130 O   0  0  0  0  0
   -6.2400  -11.0670    4.9650 C   0  0  0  0  0
   -6.1080  -11.4320    3.5560 O   0  0  0  0  0
   -7.0680  -12.1220    5.6730 C   0  0  0  0  0
   -7.4490  -11.7000    6.9760 O   0  0  0  0  0
   -6.2620  -13.4220    5.8760 C   0  0  0  0  0
   -7.0700  -14.4990    6.2480 O   0  0  0  0  0
   -4.8230  -11.7880    3.0610 C   0  0  0  0  0
   -4.7090  -11.1960    1.6860 C   0  0  0  0  0
   -4.8630   -9.7770    1.7420 O   0  0  0  0  0
   -5.6880  -11.8020    0.7060 C   0  0  0  0  0
   -5.4000  -11.2750   -0.6050 O   0  0  0  0  0
   -5.5820  -13.3200    0.7460 C   0  0  0  0  0
   -6.6430  -13.7800   -0.0940 O   0  0  0  0  0
   -5.6700  -13.8330    2.1950 C   0  0  0  0  0
   -4.6730  -13.1940    3.0010 O   0  0  0  0  0
   -5.4700  -15.3310    2.3470 C   0  0  0  0  0
   -4.1450  -15.7400    1.9100 O   0  0  0  0  0
   -6.4440  -15.0440   -0.7080 C   0  0  0  0  0
   -6.7060  -14.8580   -2.1980 C   0  0  0  0  0
   -5.8210  -13.9180   -2.7530 O   0  0  0  0  0
   -8.1450  -14.4260   -2.4150 C   0  0  0  0  0
   -8.4130  -14.3810   -3.8120 O   0  0  0  0  0
   -9.0840  -15.3630   -1.7060 C   0  0  0  0  0
  -10.4460  -14.9010   -1.8780 O   0  0  0  0  0
   -8.7070  -15.5700   -0.2660 C   0  0  0  0  0
   -7.3510  -15.9800   -0.1580 O   0  0  0  0  0
   -9.6200  -16.6210    0.4010 C   0  0  0  0  0
   -9.4330  -17.8700   -0.2190 O   0  0  0  0  0
  -11.0603  -16.4116   -3.2006 H   0  0  0  0  0
  -12.7600  -15.2514   -4.3211 H   0  0  0  0  0
  -10.5748  -14.7513   -4.8298 H   0  0  0  0  0
  -12.3858  -12.9707   -2.3512 H   0  0  0  0  0
  -13.0879  -12.4853   -4.4847 H   0  0  0  0  0
  -14.6432  -15.0002   -2.5421 H   0  0  0  0  0
  -12.5187  -14.5939   -0.4595 H   0  0  0  0  0
  -14.7592  -15.3705    0.4019 H   0  0  0  0  0
  -13.5213  -16.6566    0.5552 H   0  0  0  0  0
  -15.5142  -17.4343   -0.3464 H   0  0  0  0  0
  -16.2265  -13.7158   -2.5236 H   0  0  0  0  0
  -17.4226  -11.6479   -2.0617 H   0  0  0  0  0
  -15.7364  -10.2252   -2.8161 H   0  0  0  0  0
  -15.1988  -11.0116   -0.1272 H   0  0  0  0  0
  -16.6700   -9.2285    0.2812 H   0  0  0  0  0
  -18.0708  -11.6987    0.6223 H   0  0  0  0  0
  -15.6799  -13.2692    1.1386 H   0  0  0  0  0
  -18.6627  -13.7184    1.3946 H   0  0  0  0  0
  -17.3671  -13.9684    2.6173 H   0  0  0  0  0
  -18.1793  -15.9363    1.7522 H   0  0  0  0  0
  -18.1833  -11.6577    2.9416 H   0  0  0  0  0
  -17.7827  -10.3653    4.8875 H   0  0  0  0  0
  -17.7898   -8.2455    3.9804 H   0  0  0  0  0
  -15.1477   -9.4083    3.7473 H   0  0  0  0  0
  -15.0702   -8.5164    5.8668 H   0  0  0  0  0
  -15.7152  -11.3627    6.0177 H   0  0  0  0  0
  -14.5483  -11.8326    3.2967 H   0  0  0  0  0
  -15.2362  -13.8357    5.4859 H   0  0  0  0  0
  -13.5975  -13.2765    5.1088 H   0  0  0  0  0
  -14.1500  -15.2265    3.9796 H   0  0  0  0  0
  -14.4410  -11.0021    7.4499 H   0  0  0  0  0
  -12.7029   -9.6769    8.5166 H   0  0  0  0  0
  -13.1542   -7.6923    7.4190 H   0  0  0  0  0
  -11.4406   -9.2980    5.8058 H   0  0  0  0  0
   -9.8336   -8.3494    7.2172 H   0  0  0  0  0
  -10.4450  -10.9663    8.0818 H   0  0  0  0  0
  -11.4545  -11.8463    5.4049 H   0  0  0  0  0
  -10.7868  -13.4298    7.9169 H   0  0  0  0  0
   -9.6922  -13.2501    6.4773 H   0  0  0  0  0
  -10.8759  -15.2186    6.4787 H   0  0  0  0  0
   -8.4779  -10.2678    8.0276 H   0  0  0  0  0
   -6.4795   -9.2030    6.9657 H   0  0  0  0  0
   -7.6811   -7.4629    6.0200 H   0  0  0  0  0
   -7.8250   -9.7961    4.3674 H   0  0  0  0  0
   -5.8174   -8.9720    3.5297 H   0  0  0  0  0
   -5.2779  -11.0073    5.4738 H   0  0  0  0  0
   -7.9400  -12.2854    5.0397 H   0  0  0  0  0
   -5.5415  -13.2499    6.6756 H   0  0  0  0  0
   -5.7826  -13.6720    4.9295 H   0  0  0  0  0
   -6.5257  -15.2815    6.3620 H   0  0  0  0  0
   -4.0422  -11.4105    3.7213 H   0  0  0  0  0
   -3.7111  -11.4340    1.3176 H   0  0  0  0  0
   -4.7879   -9.4129    0.8569 H   0  0  0  0  0
   -6.7138  -11.5436    0.9686 H   0  0  0  0  0
   -6.0134  -11.6499   -1.2412 H   0  0  0  0  0
   -4.6248  -13.6969    0.3857 H   0  0  0  0  0
   -6.6848  -13.5956    2.5143 H   0  0  0  0  0
   -6.2094  -15.8419    1.7303 H   0  0  0  0  0
   -5.5804  -15.5885    3.4004 H   0  0  0  0  0
   -4.0521  -16.6893    2.0191 H   0  0  0  0  0
   -5.4330  -15.4163   -0.5424 H   0  0  0  0  0
   -6.5385  -15.8101   -2.7015 H   0  0  0  0  0
   -6.0066  -13.8196   -3.6897 H   0  0  0  0  0
   -8.2988  -13.4308   -1.9977 H   0  0  0  0  0
   -9.3224  -14.1081   -3.9536 H   0  0  0  0  0
   -9.0039  -16.3514   -2.1584 H   0  0  0  0  0
   -8.8354  -14.6180    0.2492 H   0  0  0  0  0
  -10.6611  -16.3161    0.2947 H   0  0  0  0  0
   -9.3685  -16.7003    1.4586 H   0  0  0  0  0
  -10.0019  -18.5213    0.1978 H   0  0  0  0  0
  1  2  1  0  0  0
  1  9  1  0  0  0
  1 73  1  0  0  0
  2  3  1  0  0  0
  2  4  1  0  0  0
  4  5  1  0  0  0
  4  6  1  0  0  0
  6  7  1  0  0  0
  6  8  1  0  0  0
  7 12  1  0  0  0
  8  9  1  0  0  0
  8 10  1  0  0  0
 10 11  1  0  0  0
 12 13  1  0  0  0
 12 20  1  0  0  0
 13 14  1  0  0  0
 13 15  1  0  0  0
 15 16  1  0  0  0
 15 17  1  0  0  0
 17 18  1  0  0  0
 17 19  1  0  0  0
 18 23  1  0  0  0
 19 20  1  0  0  0
 19 21  1  0  0  0
 21 22  1  0  0  0
 23 24  1  0  0  0
 23 31  1  0  0  0
 24 25  1  0  0  0
 24 26  1  0  0  0
 26 27  1  0  0  0
 26 28  1  0  0  0
 28 29  1  0  0  0
 28 30  1  0  0  0
 29 34  1  0  0  0
 30 31  1  0  0  0
 30 32  1  0  0  0
 32 33  1  0  0  0
 34 35  1  0  0  0
 34 42  1  0  0  0
 35 36  1  0  0  0
 35 37  1  0  0  0
 37 38  1  0  0  0
 37 39  1  0  0  0
 39 40  1  0  0  0
 39 41  1  0  0  0
 40 45  1  0  0  0
 41 42  1  0  0  0
 41 43  1  0  0  0
 43 44  1  0  0  0
 45 46  1  0  0  0
 45 53  1  0  0  0
 46 47  1  0  0  0
 46 48  1  0  0  0
 48 49  1  0  0  0
 48 50  1  0  0  0
 50 51  1  0  0  0
 50 52  1  0  0  0
 51 56  1  0  0  0
 52 53  1  0  0  0
 52 54  1  0  0  0
 54 55  1  0  0  0
 56 57  1  0  0  0
 56 64  1  0  0  0
 57 58  1  0  0  0
 57 59  1  0  0  0
 59 60  1  0  0  0
 59 61  1  0  0  0
 61 62  1  0  0  0
 61 63  1  0  0  0
 62 67  1  0  0  0
 63 64  1  0  0  0
 63 65  1  0  0  0
 65 66  1  0  0  0
 67 68  1  0  0  0
 67 75  1  0  0  0
 68 69  1  0  0  0
 68 70  1  0  0  0
 70 71  1  0  0  0
 70 72  1  0  0  0
 72 73  1  0  0  0
 72 74  1  0  0  0
 74 75  1  0  0  0
 74 76  1  0  0  0
 76 77  1  0  0  0
  1 78  1  0  0  0
  2 79  1  0  0  0
  3 80  1  0  0  0
  4 81  1  0  0  0
  5 82  1  0  0  0
  6 83  1  0  0  0
  8 84  1  0  0  0
 10 85  1  0  0  0
 10 86  1  0  0  0
 11 87  1  0  0  0
 12 88  1  0  0  0
 13 89  1  0  0  0
 14 90  1  0  0  0
 15 91  1  0  0  0
 16 92  1  0  0  0
 17 93  1  0  0  0
 19 94  1  0  0  0
 21 95  1  0  0  0
 21 96  1  0  0  0
 22 97  1  0  0  0
 23 98  1  0  0  0
 24 99  1  0  0  0
 25100  1  0  0  0
 26101  1  0  0  0
 27102  1  0  0  0
 28103  1  0  0  0
 30104  1  0  0  0
 32105  1  0  0  0
 32106  1  0  0  0
 33107  1  0  0  0
 34108  1  0  0  0
 35109  1  0  0  0
 36110  1  0  0  0
 37111  1  0  0  0
 38112  1  0  0  0
 39113  1  0  0  0
 41114  1  0  0  0
 43115  1  0  0  0
 43116  1  0  0  0
 44117  1  0  0  0
 45118  1  0  0  0
 46119  1  0  0  0
 47120  1  0  0  0
 48121  1  0  0  0
 49122  1  0  0  0
 50123  1  0  0  0
 52124  1  0  0  0
 54125  1  0  0  0
 54126  1  0  0  0
 55127  1  0  0  0
 56128  1  0  0  0
 57129  1  0  0  0
 58130  1  0  0  0
 59131  1  0  0  0
 60132  1  0  0  0
 61133  1  0  0  0
 63134  1  0  0  0
 65135  1  0  0  0
 65136  1  0  0  0
 66137  1  0  0  0
 67138  1  0  0  0
 68139  1  0  0  0
 69140  1  0  0  0
 70141  1  0  0  0
 71142  1  0  0  0
 72143  1  0  0  0
 74144  1  0  0  0
 76145  1  0  0  0
 76146  1  0  0  0
 77147  1  0  0  0
M  END
$$$$
