### 
### Created by X-TOOL on Mon Sep 10 21:13:30 2018
### 

@<TRIPOS>MOLECULE
5mk9_ligand
  147   154     1     0     0
SMALL
GAST_HUCK


@<TRIPOS>ATOM
      1 C11       -11.4980  -15.5960   -2.6250 C.3       1 BCD         0.1884
      2 C21       -12.1230  -14.6860   -3.6410 C.3       1 BCD         0.1341
      3 O21       -11.1030  -14.0740   -4.4010 O.3       1 BCD        -0.3841
      4 C31       -12.9980  -13.6590   -2.9340 C.3       1 BCD         0.1144
      5 O31       -13.7080  -12.9270   -3.9000 O.3       1 BCD        -0.3864
      6 C41       -13.9440  -14.3730   -1.9890 C.3       1 BCD         0.1184
      7 O41       -14.6440  -13.3620   -1.2400 O.3       1 BCD        -0.3401
      8 C51       -13.1590  -15.2510   -1.0480 C.3       1 BCD         0.1134
      9 O51       -12.3930  -16.1900   -1.7630 O.3       1 BCD        -0.3405
     10 C61       -14.1140  -16.0620   -0.1400 C.3       1 BCD         0.0730
     11 O61       -14.9290  -16.9400   -0.9250 O.3       1 BCD        -0.3924
     12 C12       -16.0420  -13.2060   -1.5780 C.3       1 BCD         0.1884
     13 C22       -16.3880  -11.7430   -1.7320 C.3       1 BCD         0.1341
     14 O22       -15.5200  -11.1550   -2.7150 O.3       1 BCD        -0.3841
     15 C32       -16.2530  -11.0240   -0.4040 C.3       1 BCD         0.1144
     16 O32       -16.7500   -9.6950   -0.5540 O.3       1 BCD        -0.3864
     17 C42       -16.9850  -11.7310    0.7120 C.3       1 BCD         0.1184
     18 O42       -16.5070  -11.0270    1.8970 O.3       1 BCD        -0.3401
     19 C52       -16.6880  -13.2210    0.7270 C.3       1 BCD         0.1134
     20 O52       -16.8380  -13.7690   -0.5870 O.3       1 BCD        -0.3405
     21 C62       -17.6450  -14.0680    1.5680 C.3       1 BCD         0.0730
     22 O62       -17.5700  -15.4300    1.2100 O.3       1 BCD        -0.3924
     23 C13       -17.1580  -11.3460    3.1410 C.3       1 BCD         0.1884
     24 C23       -17.1720  -10.1150    4.0200 C.3       1 BCD         0.1341
     25 O23       -17.8050   -9.0000    3.3870 O.3       1 BCD        -0.3841
     26 C33       -15.7940   -9.7680    4.5480 C.3       1 BCD         0.1144
     27 O33       -15.9350   -8.7490    5.5210 O.3       1 BCD        -0.3864
     28 C43       -15.1540  -11.0210    5.1480 C.3       1 BCD         0.1184
     29 O43       -13.8090  -10.6820    5.5400 O.3       1 BCD        -0.3401
     30 C53       -15.1640  -12.1480    4.1390 C.3       1 BCD         0.1134
     31 O53       -16.5170  -12.4090    3.7810 O.3       1 BCD        -0.3405
     32 C63       -14.5900  -13.4550    4.6950 C.3       1 BCD         0.0730
     33 O63       -14.5090  -14.4030    3.6410 O.3       1 BCD        -0.3924
     34 C14       -13.5100  -10.8570    6.9020 C.3       1 BCD         0.1884
     35 C24       -12.8030   -9.6140    7.4330 C.3       1 BCD         0.1341
     36 O24       -13.5830   -8.4870    7.0930 O.3       1 BCD        -0.3841
     37 C34       -11.3910   -9.5040    6.8750 C.3       1 BCD         0.1144
     38 O34       -10.7280   -8.4360    7.5550 O.3       1 BCD        -0.3864
     39 C44       -10.6290  -10.7900    7.0220 C.3       1 BCD         0.1184
     40 O44        -9.3840  -10.6580    6.2540 O.3       1 BCD        -0.3401
     41 C54       -11.3990  -11.9740    6.4860 C.3       1 BCD         0.1134
     42 O54       -12.6930  -12.0280    7.1040 O.3       1 BCD        -0.3405
     43 C64       -10.7200  -13.2980    6.8370 C.3       1 BCD         0.0730
     44 O64       -11.3410  -14.4180    6.2250 O.3       1 BCD        -0.3924
     45 C15        -8.2150  -10.5020    6.9960 C.3       1 BCD         0.1884
     46 C25        -7.3860   -9.3700    6.3840 C.3       1 BCD         0.1341
     47 O25        -8.1810   -8.1890    6.4000 O.3       1 BCD        -0.3841
     48 C35        -6.9300   -9.7290    4.9860 C.3       1 BCD         0.1144
     49 O35        -6.0840   -8.7070    4.4130 O.3       1 BCD        -0.3864
     50 C45        -6.2400  -11.0670    4.9650 C.3       1 BCD         0.1184
     51 O45        -6.1080  -11.4320    3.5560 O.3       1 BCD        -0.3401
     52 C55        -7.0680  -12.1220    5.6730 C.3       1 BCD         0.1134
     53 O55        -7.4490  -11.7000    6.9760 O.3       1 BCD        -0.3405
     54 C65        -6.2620  -13.4220    5.8760 C.3       1 BCD         0.0730
     55 O65        -7.0700  -14.4990    6.2480 O.3       1 BCD        -0.3924
     56 C16        -4.8230  -11.7880    3.0610 C.3       1 BCD         0.1884
     57 C26        -4.7090  -11.1960    1.6860 C.3       1 BCD         0.1341
     58 O26        -4.8630   -9.7770    1.7420 O.3       1 BCD        -0.3841
     59 C36        -5.6880  -11.8020    0.7060 C.3       1 BCD         0.1144
     60 O36        -5.4000  -11.2750   -0.6050 O.3       1 BCD        -0.3864
     61 C46        -5.5820  -13.3200    0.7460 C.3       1 BCD         0.1184
     62 O46        -6.6430  -13.7800   -0.0940 O.3       1 BCD        -0.3401
     63 C56        -5.6700  -13.8330    2.1950 C.3       1 BCD         0.1134
     64 O56        -4.6730  -13.1940    3.0010 O.3       1 BCD        -0.3405
     65 C66        -5.4700  -15.3310    2.3470 C.3       1 BCD         0.0730
     66 O66        -4.1450  -15.7400    1.9100 O.3       1 BCD        -0.3924
     67 C17        -6.4440  -15.0440   -0.7080 C.3       1 BCD         0.1884
     68 C27        -6.7060  -14.8580   -2.1980 C.3       1 BCD         0.1341
     69 O27        -5.8210  -13.9180   -2.7530 O.3       1 BCD        -0.3841
     70 C37        -8.1450  -14.4260   -2.4150 C.3       1 BCD         0.1144
     71 O37        -8.4130  -14.3810   -3.8120 O.3       1 BCD        -0.3864
     72 C47        -9.0840  -15.3630   -1.7060 C.3       1 BCD         0.1184
     73 O47       -10.4460  -14.9010   -1.8780 O.3       1 BCD        -0.3401
     74 C57        -8.7070  -15.5700   -0.2660 C.3       1 BCD         0.1134
     75 O57        -7.3510  -15.9800   -0.1580 O.3       1 BCD        -0.3405
     76 C67        -9.6200  -16.6210    0.4010 C.3       1 BCD         0.0730
     77 O67        -9.4330  -17.8700   -0.2190 O.3       1 BCD        -0.3924
     78 H1        -11.0167  -16.4096   -3.1875 H         1 BCD         0.0938
     79 H2        -12.7563  -15.2803   -4.3160 H         1 BCD         0.0671
     80 H3        -11.4936  -13.4964   -5.0462 H         1 BCD         0.2101
     81 H4        -12.3632  -12.9719   -2.3553 H         1 BCD         0.0648
     82 H5        -14.2570  -12.2834   -3.4676 H         1 BCD         0.2100
     83 H6        -14.6581  -14.9859   -2.5586 H         1 BCD         0.0651
     84 H7        -12.5002  -14.6210   -0.4324 H         1 BCD         0.0647
     85 H8        -14.7614  -15.3678    0.4157 H         1 BCD         0.0584
     86 H9        -13.5203  -16.6572    0.5694 H         1 BCD         0.0584
     87 H10       -15.4450  -16.4285   -1.5371 H         1 BCD         0.2095
     88 H11       -16.2368  -13.7212   -2.5301 H         1 BCD         0.0938
     89 H12       -17.4291  -11.6556   -2.0762 H         1 BCD         0.0671
     90 H13       -15.7341  -10.2349   -2.8150 H         1 BCD         0.2101
     91 H14       -15.1863  -10.9783   -0.1393 H         1 BCD         0.0648
     92 H15       -16.6708   -9.2333    0.2725 H         1 BCD         0.2100
     93 H16       -18.0716  -11.5969    0.6053 H         1 BCD         0.0651
     94 H17       -15.6587  -13.3615    1.0887 H         1 BCD         0.0647
     95 H18       -18.6735  -13.7115    1.4093 H         1 BCD         0.0584
     96 H19       -17.3797  -13.9612    2.6301 H         1 BCD         0.0584
     97 H20       -17.8023  -15.5288    0.2942 H         1 BCD         0.2095
     98 H21       -18.1962  -11.6427    2.9312 H         1 BCD         0.0938
     99 H22       -17.7874  -10.3659    4.8966 H         1 BCD         0.0671
    100 H23       -17.3392   -8.7848    2.5875 H         1 BCD         0.2101
    101 H24       -15.1634   -9.4003    3.7251 H         1 BCD         0.0648
    102 H25       -15.0792   -8.5188    5.8632 H         1 BCD         0.2100
    103 H26       -15.7230  -11.3349    6.0355 H         1 BCD         0.0651
    104 H27       -14.5861  -11.8439    3.2538 H         1 BCD         0.0647
    105 H28       -15.2474  -13.8396    5.4887 H         1 BCD         0.0584
    106 H29       -13.5863  -13.2727    5.1064 H         1 BCD         0.0584
    107 H30       -13.9420  -14.0667    2.9570 H         1 BCD         0.2095
    108 H31       -14.4519  -10.9904    7.4543 H         1 BCD         0.0938
    109 H32       -12.7359   -9.6825    8.5288 H         1 BCD         0.0671
    110 H33       -13.6696   -8.4366    6.1483 H         1 BCD         0.2101
    111 H34       -11.4520   -9.2618    5.8037 H         1 BCD         0.0648
    112 H35        -9.8429   -8.3503    7.2207 H         1 BCD         0.2100
    113 H36       -10.4012  -10.9589    8.0848 H         1 BCD         0.0651
    114 H37       -11.4974  -11.8786    5.3946 H         1 BCD         0.0647
    115 H38       -10.7540  -13.4311    7.9284 H         1 BCD         0.0584
    116 H39        -9.6721  -13.2535    6.5055 H         1 BCD         0.0584
    117 H40       -11.3108  -14.3186    5.2807 H         1 BCD         0.2095
    118 H41        -8.4732  -10.2517    8.0355 H         1 BCD         0.0938
    119 H42        -6.4929   -9.2042    7.0043 H         1 BCD         0.0671
    120 H43        -7.6863   -7.4704    6.0239 H         1 BCD         0.2101
    121 H44        -7.8284   -9.8067    4.3561 H         1 BCD         0.0648
    122 H45        -5.3135   -8.5937    4.9569 H         1 BCD         0.2100
    123 H46        -5.2511  -10.9923    5.4410 H         1 BCD         0.0651
    124 H47        -7.9652  -12.3286    5.0711 H         1 BCD         0.0647
    125 H48        -5.5135  -13.2537    6.6642 H         1 BCD         0.0584
    126 H49        -5.7525  -13.6721    4.9338 H         1 BCD         0.0584
    127 H50        -7.7164  -14.6575    5.5701 H         1 BCD         0.2095
    128 H51        -4.0435  -11.3705    3.7152 H         1 BCD         0.0938
    129 H52        -3.6959  -11.4119    1.3158 H         1 BCD         0.0671
    130 H53        -4.1854   -9.4077    2.2961 H         1 BCD         0.2101
    131 H54        -6.7114  -11.5143    0.9884 H         1 BCD         0.0648
    132 H55        -6.0070  -11.6460   -1.2346 H         1 BCD         0.2100
    133 H56        -4.6178  -13.6415    0.3253 H         1 BCD         0.0651
    134 H57        -6.6675  -13.5766    2.5813 H         1 BCD         0.0647
    135 H58        -6.2236  -15.8553    1.7410 H         1 BCD         0.0584
    136 H59        -5.5967  -15.6027    3.4053 H         1 BCD         0.0584
    137 H60        -3.4888  -15.2944    2.4327 H         1 BCD         0.2095
    138 H61        -5.4125  -15.3900   -0.5457 H         1 BCD         0.0938
    139 H62        -6.5488  -15.8223   -2.7033 H         1 BCD         0.0671
    140 H63        -6.0047  -13.8206   -3.6800 H         1 BCD         0.2101
    141 H64        -8.2803  -13.4171   -1.9981 H         1 BCD         0.0648
    142 H65        -7.8264  -13.7589   -4.2260 H         1 BCD         0.2100
    143 H66        -9.0062  -16.3437   -2.1980 H         1 BCD         0.0651
    144 H67        -8.8285  -14.6141    0.2645 H         1 BCD         0.0647
    145 H68       -10.6707  -16.3133    0.2949 H         1 BCD         0.0584
    146 H69        -9.3673  -16.7008    1.4686 H         1 BCD         0.0584
    147 H70        -8.5255  -18.1353   -0.1268 H         1 BCD         0.2095
@<TRIPOS>BOND
     1    1    2 1  
     2    1    9 1  
     3    1   73 1  
     4    2    3 1  
     5    2    4 1  
     6    4    5 1  
     7    4    6 1  
     8    6    7 1  
     9    6    8 1  
    10    7   12 1  
    11    8    9 1  
    12    8   10 1  
    13   10   11 1  
    14   12   13 1  
    15   12   20 1  
    16   13   14 1  
    17   13   15 1  
    18   15   16 1  
    19   15   17 1  
    20   17   18 1  
    21   17   19 1  
    22   18   23 1  
    23   19   20 1  
    24   19   21 1  
    25   21   22 1  
    26   23   24 1  
    27   23   31 1  
    28   24   25 1  
    29   24   26 1  
    30   26   27 1  
    31   26   28 1  
    32   28   29 1  
    33   28   30 1  
    34   29   34 1  
    35   30   31 1  
    36   30   32 1  
    37   32   33 1  
    38   34   35 1  
    39   34   42 1  
    40   35   36 1  
    41   35   37 1  
    42   37   38 1  
    43   37   39 1  
    44   39   40 1  
    45   39   41 1  
    46   40   45 1  
    47   41   42 1  
    48   41   43 1  
    49   43   44 1  
    50   45   46 1  
    51   45   53 1  
    52   46   47 1  
    53   46   48 1  
    54   48   49 1  
    55   48   50 1  
    56   50   51 1  
    57   50   52 1  
    58   51   56 1  
    59   52   53 1  
    60   52   54 1  
    61   54   55 1  
    62   56   57 1  
    63   56   64 1  
    64   57   58 1  
    65   57   59 1  
    66   59   60 1  
    67   59   61 1  
    68   61   62 1  
    69   61   63 1  
    70   62   67 1  
    71   63   64 1  
    72   63   65 1  
    73   65   66 1  
    74   67   68 1  
    75   67   75 1  
    76   68   69 1  
    77   68   70 1  
    78   70   71 1  
    79   70   72 1  
    80   72   73 1  
    81   72   74 1  
    82   74   75 1  
    83   74   76 1  
    84   76   77 1  
    85    1   78 1  
    86    2   79 1  
    87    3   80 1  
    88    4   81 1  
    89    5   82 1  
    90    6   83 1  
    91    8   84 1  
    92   10   85 1  
    93   10   86 1  
    94   11   87 1  
    95   12   88 1  
    96   13   89 1  
    97   14   90 1  
    98   15   91 1  
    99   16   92 1  
   100   17   93 1  
   101   19   94 1  
   102   21   95 1  
   103   21   96 1  
   104   22   97 1  
   105   23   98 1  
   106   24   99 1  
   107   25  100 1  
   108   26  101 1  
   109   27  102 1  
   110   28  103 1  
   111   30  104 1  
   112   32  105 1  
   113   32  106 1  
   114   33  107 1  
   115   34  108 1  
   116   35  109 1  
   117   36  110 1  
   118   37  111 1  
   119   38  112 1  
   120   39  113 1  
   121   41  114 1  
   122   43  115 1  
   123   43  116 1  
   124   44  117 1  
   125   45  118 1  
   126   46  119 1  
   127   47  120 1  
   128   48  121 1  
   129   49  122 1  
   130   50  123 1  
   131   52  124 1  
   132   54  125 1  
   133   54  126 1  
   134   55  127 1  
   135   56  128 1  
   136   57  129 1  
   137   58  130 1  
   138   59  131 1  
   139   60  132 1  
   140   61  133 1  
   141   63  134 1  
   142   65  135 1  
   143   65  136 1  
   144   66  137 1  
   145   67  138 1  
   146   68  139 1  
   147   69  140 1  
   148   70  141 1  
   149   71  142 1  
   150   72  143 1  
   151   74  144 1  
   152   76  145 1  
   153   76  146 1  
   154   77  147 1  
@<TRIPOS>SUBSTRUCTURE
     1 BCD         1

