1sld_ligand
  -I-interpret- 

 96 99  0  0  0  0  0  0  0  0999 V2000
    8.1590   -0.0420  -19.8590 C   0  0  0  0  0
    7.8100    0.4600  -18.7900 O   0  0  0  0  0
    7.2350    0.0310  -21.0660 C   0  0  0  0  0
    9.3130   -0.7040  -19.9710 N   0  0  0  0  0
   10.1070   -0.9770  -18.7920 C   0  0  0  0  0
   10.8520    0.2700  -18.3020 C   0  0  0  0  0
   11.5850    0.9850  -19.0130 O   0  0  0  0  0
   11.0730   -2.1000  -19.0960 C   0  0  0  0  0
   12.0640   -2.4580  -17.6320 S   0  0  0  0  0
   10.4880    0.5110  -17.0350 N   0  0  0  0  0
   10.7190    1.7700  -16.3450 C   0  0  0  0  0
   12.1510    1.9000  -15.9020 C   0  0  0  0  0
   12.6740    0.8560  -15.4930 O   0  0  0  0  0
    9.7460    1.7980  -15.1660 C   0  0  0  0  0
    9.7600    3.0700  -14.3340 C   0  0  0  0  0
   10.6880    3.2400  -13.3950 N   0  0  0  0  0
    8.9030    4.1200  -14.4910 C   0  0  0  0  0
   10.3890    4.4480  -12.9460 C   0  0  0  0  0
    9.3480    4.9640  -13.5910 N   0  0  0  0  0
   12.7760    3.0910  -15.8250 N   0  0  0  0  0
   14.1370    3.2220  -15.3610 C   0  0  0  0  0
   14.4390    2.7090  -13.9480 C   0  0  0  0  0
   15.5950    2.4310  -13.6120 O   0  0  0  0  0
   14.4100    4.7100  -15.5830 C   0  0  0  0  0
   13.1200    5.4340  -15.7510 C   0  0  0  0  0
   12.2850    4.3550  -16.3940 C   0  0  0  0  0
   13.4400    2.5530  -13.0580 N   0  0  0  0  0
   13.6740    1.9140  -11.7580 C   0  0  0  0  0
   14.0970    0.4530  -11.9150 C   0  0  0  0  0
   14.7670   -0.1200  -11.0460 O   0  0  0  0  0
   12.4070    1.9790  -10.9160 C   0  0  0  0  0
   12.6090    1.6190   -9.4400 C   0  0  0  0  0
   11.3400    1.6990   -8.6100 C   0  0  0  0  0
   10.5330    2.5870   -8.8400 O   0  0  0  0  0
   10.9990    0.8540   -7.6540 N   0  0  0  0  0
   13.6980   -0.1040  -13.0590 N   0  0  0  0  0
   13.8550   -1.4970  -13.3700 C   0  0  0  0  0
   14.9460   -1.6830  -14.4570 C   0  0  0  0  0
   15.8460   -2.5240  -14.2760 O   0  0  0  0  0
   12.3900   -2.0190  -13.7410 C   0  0  0  0  0
   11.4310   -1.7700  -12.5690 C   0  0  0  0  0
   11.6030   -2.4610  -11.3620 C   0  0  0  0  0
   10.4290   -0.7780  -12.6330 C   0  0  0  0  0
   10.7850   -2.1500  -10.2470 C   0  0  0  0  0
    9.6240   -0.4850  -11.5060 C   0  0  0  0  0
    9.7980   -1.1670  -10.3040 C   0  0  0  0  0
   15.0010   -0.9050  -15.5410 N   0  0  0  0  0
   15.9540   -1.1400  -16.6100 C   0  0  0  0  0
   16.4820    0.1780  -17.1740 C   0  0  0  0  0
   15.7870    0.9430  -17.8450 O   0  0  0  0  0
   15.2370   -1.9560  -17.6860 C   0  0  0  0  0
   13.6200   -1.2340  -18.1550 S   0  0  0  0  0
   17.7400    0.4980  -16.9180 N   0  0  0  0  0
    6.2942   -0.4674  -20.8324 H   0  0  0  0  0
    7.0430    1.0753  -21.3124 H   0  0  0  0  0
    7.7083   -0.4628  -21.9147 H   0  0  0  0  0
    9.6349   -1.0172  -20.8868 H   0  0  0  0  0
    9.4389   -1.2778  -17.9850 H   0  0  0  0  0
   11.7292   -1.8020  -19.9137 H   0  0  0  0  0
   10.5142   -2.9911  -19.3821 H   0  0  0  0  0
   10.0193   -0.2359  -16.5222 H   0  0  0  0  0
   10.5443    2.6197  -17.0049 H   0  0  0  0  0
   10.0436    0.9885  -14.4994 H   0  0  0  0  0
    8.7447    1.7153  -15.5887 H   0  0  0  0  0
    8.0677    4.2289  -15.1828 H   0  0  0  0  0
   10.9289    4.9563  -12.1471 H   0  0  0  0  0
   14.8160    2.5660  -15.9058 H   0  0  0  0  0
   15.0166    4.8374  -16.4796 H   0  0  0  0  0
   14.9425    5.1133  -14.7216 H   0  0  0  0  0
   13.1946    6.3501  -16.3369 H   0  0  0  0  0
   12.7043    5.8277  -14.8235 H   0  0  0  0  0
   12.3796    4.3690  -17.4798 H   0  0  0  0  0
   11.2230    4.4982  -16.1946 H   0  0  0  0  0
   12.5043    2.8849  -13.2919 H   0  0  0  0  0
   14.4826    2.4538  -11.2653 H   0  0  0  0  0
   11.7097    1.2509  -11.3304 H   0  0  0  0  0
   12.0537    3.0096  -10.9485 H   0  0  0  0  0
   13.3151    2.3376   -9.0240 H   0  0  0  0  0
   12.9575    0.5869   -9.4021 H   0  0  0  0  0
   10.1119    0.9694   -7.1639 H   0  0  0  0  0
   11.6227    0.0860   -7.4058 H   0  0  0  0  0
   13.2546    0.4955  -13.7550 H   0  0  0  0  0
   14.2272   -2.1018  -12.5430 H   0  0  0  0  0
   12.4324   -3.0882  -13.9485 H   0  0  0  0  0
   12.0300   -1.4825  -14.6189 H   0  0  0  0  0
   12.3647   -3.2365  -11.2808 H   0  0  0  0  0
   10.2730   -0.2303  -13.5624 H   0  0  0  0  0
   10.9323   -2.6967   -9.3156 H   0  0  0  0  0
    8.8567    0.2856  -11.5799 H   0  0  0  0  0
    9.1814   -0.9391   -9.4346 H   0  0  0  0  0
   14.3531   -0.1212  -15.6201 H   0  0  0  0  0
   16.8206   -1.6854  -16.2363 H   0  0  0  0  0
   15.0560   -2.9537  -17.2860 H   0  0  0  0  0
   15.8690   -1.9696  -18.5740 H   0  0  0  0  0
   18.1268    1.3716  -17.2752 H   0  0  0  0  0
   18.3230   -0.1289  -16.3635 H   0  0  0  0  0
  1  2  2  0  0  0
  1  3  1  0  0  0
  6  5  1  0  0  0
  5  8  1  0  0  0
  5  4  1  0  0  0
  8  9  1  0  0  0
  6  7  2  0  0  0
 12 11  1  0  0  0
 11 14  1  0  0  0
 11 10  1  0  0  0
 14 15  1  0  0  0
 15 17  4  0  0  0
 15 16  4  0  0  0
 16 18  4  0  0  0
 18 19  4  0  0  0
 17 19  4  0  0  0
 12 13  2  0  0  0
 21 20  1  0  0  0
 21 24  1  0  0  0
 22 21  1  0  0  0
 22 23  2  0  0  0
 24 25  1  0  0  0
 25 26  1  0  0  0
 20 26  1  0  0  0
 29 28  1  0  0  0
 28 31  1  0  0  0
 28 27  1  0  0  0
 31 32  1  0  0  0
 32 33  1  0  0  0
 33 34  2  0  0  0
 33 35  1  0  0  0
 29 30  2  0  0  0
 38 37  1  0  0  0
 37 40  1  0  0  0
 37 36  1  0  0  0
 40 41  1  0  0  0
 41 43  4  0  0  0
 41 42  4  0  0  0
 42 44  4  0  0  0
 44 46  4  0  0  0
 45 46  4  0  0  0
 43 45  4  0  0  0
 38 39  2  0  0  0
 48 49  1  0  0  0
 48 51  1  0  0  0
 47 48  1  0  0  0
 51 52  1  0  0  0
 49 50  2  0  0  0
  4  1  1  0  0  0
 10  6  1  0  0  0
 20 12  1  0  0  0
 27 22  1  0  0  0
 36 29  1  0  0  0
 38 47  1  0  0  0
  9 52  1  0  0  0
 49 53  1  0  0  0
  3 54  1  0  0  0
  3 55  1  0  0  0
  3 56  1  0  0  0
  4 57  1  0  0  0
  5 58  1  0  0  0
  8 59  1  0  0  0
  8 60  1  0  0  0
 10 61  1  0  0  0
 11 62  1  0  0  0
 14 63  1  0  0  0
 14 64  1  0  0  0
 17 65  1  0  0  0
 18 66  1  0  0  0
 21 67  1  0  0  0
 24 68  1  0  0  0
 24 69  1  0  0  0
 25 70  1  0  0  0
 25 71  1  0  0  0
 26 72  1  0  0  0
 26 73  1  0  0  0
 27 74  1  0  0  0
 28 75  1  0  0  0
 31 76  1  0  0  0
 31 77  1  0  0  0
 32 78  1  0  0  0
 32 79  1  0  0  0
 35 80  1  0  0  0
 35 81  1  0  0  0
 36 82  1  0  0  0
 37 83  1  0  0  0
 40 84  1  0  0  0
 40 85  1  0  0  0
 42 86  1  0  0  0
 43 87  1  0  0  0
 44 88  1  0  0  0
 45 89  1  0  0  0
 46 90  1  0  0  0
 47 91  1  0  0  0
 48 92  1  0  0  0
 51 93  1  0  0  0
 51 94  1  0  0  0
 53 95  1  0  0  0
 53 96  1  0  0  0
M  END
$$$$
