5ehv_ligand
  -I-interpret- 

 39 40  0  0  0  0  0  0  0  0999 V2000
   25.3860   10.1730   10.3710 O   0  0  0  0  0
   24.2240    9.6840   10.3380 C   0  0  0  0  0
   23.7880    9.1520    9.2820 O   0  0  0  0  0
   23.3400    9.7570   11.5650 C   0  0  0  0  0
   22.2460    8.9790   11.6350 C   0  0  0  0  0
   21.3690    9.0690   12.8570 C   0  0  0  0  0
   20.3800    8.1220   13.0630 C   0  0  0  0  0
   19.5870    8.2180   14.1950 C   0  0  0  0  0
   18.5930    7.2810   14.4220 O   0  0  0  0  0
   18.5000    6.1750   13.5260 C   0  0  0  0  0
   17.4350    5.2740   14.0930 C   0  0  0  0  0
   16.0930    5.6270   14.0030 C   0  0  0  0  0
   15.1360    4.8190   14.5550 C   0  0  0  0  0
   15.4890    3.6380   15.1680 C   0  0  0  0  0
   16.8140    3.2520   15.2590 C   0  0  0  0  0
   17.2200    1.9440   15.9390 C   0  0  0  0  0
   16.4050    0.7620   15.4200 C   0  0  0  0  0
   15.3450    0.4040   16.0480 O   0  0  0  0  0
   16.8000    0.0960   14.4040 O   0  0  0  0  0
   17.7860    4.0740   14.7060 C   0  0  0  0  0
   19.7530    9.2480   15.1070 C   0  0  0  0  0
   20.7340   10.1940   14.8830 C   0  0  0  0  0
   21.5450   10.1000   13.7590 C   0  0  0  0  0
   25.5553   10.5342   11.2442 H   0  0  0  0  0
   23.5881   10.4333   12.3830 H   0  0  0  0  0
   21.9979    8.2957   10.8228 H   0  0  0  0  0
   20.2279    7.3146   12.3467 H   0  0  0  0  0
   19.4538    5.6546   13.4391 H   0  0  0  0  0
   18.2460    6.5025   12.5178 H   0  0  0  0  0
   15.8035    6.5461   13.4935 H   0  0  0  0  0
   14.0873    5.1126   14.5089 H   0  0  0  0  0
   14.7130    2.9978   15.5877 H   0  0  0  0  0
   17.0392    2.0426   17.0094 H   0  0  0  0  0
   18.2721    1.7569   15.7239 H   0  0  0  0  0
   15.1895    1.0055   16.7799 H   0  0  0  0  0
   18.8339    3.7775   14.7520 H   0  0  0  0  0
   19.1173    9.3108   15.9902 H   0  0  0  0  0
   20.8718   11.0140   15.5878 H   0  0  0  0  0
   22.3237   10.8433   13.5882 H   0  0  0  0  0
  1  2  1  0  0  0
  2  3  2  0  0  0
  2  4  1  0  0  0
  4  5  2  0  0  0
  5  6  1  0  0  0
  6  7  4  0  0  0
  6 23  4  0  0  0
  7  8  4  0  0  0
  8  9  1  0  0  0
  8 21  4  0  0  0
  9 10  1  0  0  0
 10 11  1  0  0  0
 11 12  4  0  0  0
 11 20  4  0  0  0
 12 13  4  0  0  0
 13 14  4  0  0  0
 14 15  4  0  0  0
 15 16  1  0  0  0
 15 20  4  0  0  0
 16 17  1  0  0  0
 17 18  1  0  0  0
 17 19  2  0  0  0
 21 22  4  0  0  0
 22 23  4  0  0  0
  1 24  1  0  0  0
  4 25  1  0  0  0
  5 26  1  0  0  0
  7 27  1  0  0  0
 10 28  1  0  0  0
 10 29  1  0  0  0
 12 30  1  0  0  0
 13 31  1  0  0  0
 14 32  1  0  0  0
 16 33  1  0  0  0
 16 34  1  0  0  0
 18 35  1  0  0  0
 20 36  1  0  0  0
 21 37  1  0  0  0
 22 38  1  0  0  0
 23 39  1  0  0  0
M  END
$$$$
