4ock_ligand
  -I-interpret- 

 48 50  0  0  0  0  0  0  0  0999 V2000
  -31.0040    7.8080  -16.9090 P   0  0  0  0  0
  -32.0420    7.6280  -18.1310 O   0  0  0  0  0
  -30.1760    9.0270  -17.1230 O   0  0  0  0  0
  -30.0940    6.4990  -16.8080 O   0  0  0  0  0
  -32.8360    9.0590  -14.8140 P   0  0  0  0  0
  -33.9120    9.2880  -15.7960 O   0  0  0  0  0
  -33.4260    8.5630  -13.4160 O   0  0  0  0  0
  -31.7440    7.8220  -15.3370 N   0  0  0  0  0
  -30.6970   10.8840  -13.9800 P   0  0  0  0  0
  -29.5760   10.3380  -14.8290 O   0  0  0  0  0
  -30.6870   10.6120  -12.4810 O   0  0  0  0  0
  -32.1110   10.5100  -14.6480 O   0  0  0  0  0
  -30.7710   12.4770  -14.1630 O   0  0  0  0  0
  -30.9550   13.0870  -15.4330 C   0  0  0  0  0
  -30.0410   14.2990  -15.5660 C   0  0  0  0  0
  -30.2750   15.2740  -14.5320 O   0  0  0  0  0
  -28.5620   13.9620  -15.4480 C   0  0  0  0  0
  -27.9790   13.5890  -16.7030 O   0  0  0  0  0
  -27.9220   15.2340  -14.9710 C   0  0  0  0  0
  -27.7690   16.1350  -16.0690 O   0  0  0  0  0
  -29.0150   15.8260  -14.1230 C   0  0  0  0  0
  -28.8550   15.5680  -12.6770 N   0  0  0  0  0
  -29.3540   14.5500  -11.9550 C   0  0  0  0  0
  -29.0350   14.6790  -10.6380 N   0  0  0  0  0
  -28.3450   15.8360  -10.5430 C   0  0  0  0  0
  -27.7660   16.6200   -9.4600 C   0  0  0  0  0
  -27.8620   16.1520   -8.2000 N   0  0  0  0  0
  -27.1460   17.7890   -9.7680 N   0  0  0  0  0
  -27.0700   18.2560  -11.0290 C   0  0  0  0  0
  -27.6040   17.5940  -12.0740 N   0  0  0  0  0
  -28.2490   16.4210  -11.8770 C   0  0  0  0  0
  -32.5718    6.8407  -17.9860 H   0  0  0  0  0
  -30.6538    5.7313  -16.6705 H   0  0  0  0  0
  -32.7053    8.4223  -12.7976 H   0  0  0  0  0
  -31.5242    7.0641  -14.6907 H   0  0  0  0  0
  -31.4573   11.0191  -12.0779 H   0  0  0  0  0
  -31.9923   13.4076  -15.5301 H   0  0  0  0  0
  -30.7127   12.3674  -16.2151 H   0  0  0  0  0
  -30.2770   14.6814  -16.5591 H   0  0  0  0  0
  -28.4159   13.1129  -14.7803 H   0  0  0  0  0
  -27.0492   13.3870  -16.5752 H   0  0  0  0  0
  -26.9581   15.0707  -14.4891 H   0  0  0  0  0
  -27.3597   16.9468  -15.7607 H   0  0  0  0  0
  -28.9660   16.9049  -14.2704 H   0  0  0  0  0
  -29.9379   13.7284  -12.3699 H   0  0  0  0  0
  -28.3329   15.2653   -8.0198 H   0  0  0  0  0
  -27.4638   16.6844   -7.4265 H   0  0  0  0  0
  -26.5591   19.2016  -11.2103 H   0  0  0  0  0
  1  2  1  0  0  0
  1  3  2  0  0  0
  1  4  1  0  0  0
  8  1  1  0  0  0
  5  6  2  0  0  0
  5  7  1  0  0  0
  5  8  1  0  0  0
 12  5  1  0  0  0
  9 10  2  0  0  0
  9 11  1  0  0  0
  9 12  1  0  0  0
  9 13  1  0  0  0
 13 14  1  0  0  0
 14 15  1  0  0  0
 15 16  1  0  0  0
 15 17  1  0  0  0
 16 21  1  0  0  0
 17 18  1  0  0  0
 17 19  1  0  0  0
 19 20  1  0  0  0
 19 21  1  0  0  0
 21 22  1  0  0  0
 22 23  4  0  0  0
 22 31  4  0  0  0
 23 24  4  0  0  0
 24 25  4  0  0  0
 25 26  4  0  0  0
 25 31  4  0  0  0
 26 27  1  0  0  0
 26 28  4  0  0  0
 28 29  4  0  0  0
 29 30  4  0  0  0
 30 31  4  0  0  0
  2 32  1  0  0  0
  4 33  1  0  0  0
  7 34  1  0  0  0
  8 35  1  0  0  0
 11 36  1  0  0  0
 14 37  1  0  0  0
 14 38  1  0  0  0
 15 39  1  0  0  0
 17 40  1  0  0  0
 18 41  1  0  0  0
 19 42  1  0  0  0
 20 43  1  0  0  0
 21 44  1  0  0  0
 23 45  1  0  0  0
 27 46  1  0  0  0
 27 47  1  0  0  0
 29 48  1  0  0  0
M  END
$$$$
