### 
### Created by X-TOOL on Mon Sep 10 21:13:17 2018
### 

@<TRIPOS>MOLECULE
4ock_ligand
   44    46     1     0     0
SMALL
GAST_HUCK


@<TRIPOS>ATOM
      1 PG        -31.0040    7.8080  -16.9090 P.3       1 ANP         0.1803
      2 O1G       -32.0420    7.6280  -18.1310 O.co2     1 ANP        -0.5454
      3 O2G       -30.1760    9.0270  -17.1230 O.co2     1 ANP        -0.5454
      4 O3G       -30.0940    6.4990  -16.8080 O.co2     1 ANP        -0.5454
      5 PB        -32.8360    9.0590  -14.8140 P.3       1 ANP         0.2543
      6 O1B       -33.9120    9.2880  -15.7960 O.co2     1 ANP        -0.6257
      7 O2B       -33.4260    8.5630  -13.4160 O.co2     1 ANP        -0.6257
      8 N3B       -31.7440    7.8220  -15.3370 N.am      1 ANP        -0.1803
      9 PA        -30.6970   10.8840  -13.9800 P.3       1 ANP         0.2949
     10 O1A       -29.5760   10.3380  -14.8290 O.co2     1 ANP        -0.6129
     11 O2A       -30.6870   10.6120  -12.4810 O.co2     1 ANP        -0.6129
     12 O3A       -32.1110   10.5100  -14.6480 O.3       1 ANP        -0.1431
     13 O5'       -30.7710   12.4770  -14.1630 O.3       1 ANP        -0.2478
     14 C5'       -30.9550   13.0870  -15.4330 C.3       1 ANP         0.1128
     15 C4'       -30.0410   14.2990  -15.5660 C.3       1 ANP         0.1189
     16 O4'       -30.2750   15.2740  -14.5320 O.3       1 ANP        -0.3364
     17 C3'       -28.5620   13.9620  -15.4480 C.3       1 ANP         0.1149
     18 O3'       -27.9790   13.5890  -16.7030 O.3       1 ANP        -0.3864
     19 C2'       -27.9220   15.2340  -14.9710 C.3       1 ANP         0.1385
     20 O2'       -27.7690   16.1350  -16.0690 O.3       1 ANP        -0.3836
     21 C1'       -29.0150   15.8260  -14.1230 C.3       1 ANP         0.2010
     22 N9        -28.8550   15.5680  -12.6770 N.pl3     1 ANP        -0.1919
     23 C8        -29.3540   14.5500  -11.9550 C.2       1 ANP         0.1123
     24 N7        -29.0350   14.6790  -10.6380 N.2       1 ANP        -0.2958
     25 C5        -28.3450   15.8360  -10.5430 C.ar      1 ANP         0.1045
     26 C6        -27.7660   16.6200   -9.4600 C.ar      1 ANP         0.1298
     27 N6        -27.8620   16.1520   -8.2000 N.pl3     1 ANP        -0.3152
     28 N1        -27.1460   17.7890   -9.7680 N.ar      1 ANP        -0.2698
     29 C2        -27.0700   18.2560  -11.0290 C.ar      1 ANP         0.0533
     30 N3        -27.6040   17.5940  -12.0740 N.ar      1 ANP        -0.2714
     31 C4        -28.2490   16.4210  -11.8770 C.ar      1 ANP         0.1613
     32 H         -31.5285    7.0790  -14.7034 H         1 ANP         0.2132
     33 H         -32.0023   13.4076  -15.5349 H         1 ANP         0.0648
     34 H         -30.7150   12.3612  -16.2240 H         1 ANP         0.0648
     35 H         -30.2305   14.7546  -16.5491 H         1 ANP         0.0651
     36 H         -28.4138   13.1497  -14.7212 H         1 ANP         0.0648
     37 H         -28.0664   14.3080  -17.3177 H         1 ANP         0.2100
     38 H         -26.9780   15.0663  -14.4319 H         1 ANP         0.0676
     39 H         -27.2194   15.7340  -16.7321 H         1 ANP         0.2101
     40 H         -29.0233   16.9142  -14.2833 H         1 ANP         0.0996
     41 H         -29.9374   13.7292  -12.3695 H         1 ANP         0.1349
     42 H         -27.4599   16.6897   -7.4189 H         1 ANP         0.1820
     43 H         -28.3375   15.2566   -8.0180 H         1 ANP         0.1820
     44 H         -26.5619   19.1964  -11.2093 H         1 ANP         0.0996
@<TRIPOS>BOND
     1    1    2 ar 
     2    1    3 ar 
     3    1    4 ar 
     4    8    1 am 
     5    5    6 ar 
     6    5    7 ar 
     7    5    8 1  
     8   12    5 1  
     9    9   10 ar 
    10    9   11 ar 
    11    9   12 1  
    12    9   13 1  
    13   13   14 1  
    14   14   15 1  
    15   15   16 1  
    16   15   17 1  
    17   16   21 1  
    18   17   18 1  
    19   17   19 1  
    20   19   20 1  
    21   19   21 1  
    22   21   22 1  
    23   22   23 1  
    24   22   31 1  
    25   23   24 2  
    26   24   25 1  
    27   25   26 ar 
    28   25   31 ar 
    29   26   27 1  
    30   26   28 ar 
    31   28   29 ar 
    32   29   30 ar 
    33   30   31 ar 
    34    8   32 1  
    35   14   33 1  
    36   14   34 1  
    37   15   35 1  
    38   17   36 1  
    39   18   37 1  
    40   19   38 1  
    41   20   39 1  
    42   21   40 1  
    43   23   41 1  
    44   27   42 1  
    45   27   43 1  
    46   29   44 1  
@<TRIPOS>SUBSTRUCTURE
     1 ANP         1

