6jag_ligand
  -I-interpret- 

 45 46  0  0  0  0  0  0  0  0999 V2000
   -6.6520  -32.4990  -13.7710 C   0  0  0  0  0
   -8.0180  -32.1690  -13.1280 C   0  0  0  0  0
   -8.8080  -31.2110  -14.0150 C   0  0  0  0  0
   -7.9450  -29.9650  -14.2510 C   0  0  0  0  0
   -6.6480  -30.3840  -14.9320 C   0  0  0  0  0
   -5.7670  -29.1520  -15.1090 C   0  0  0  0  0
   -6.8960  -33.4220  -14.8210 O   0  0  0  0  0
   -8.8210  -33.3330  -12.9200 O   0  0  0  0  0
  -10.0130  -30.7860  -13.2940 O   0  0  0  0  0
   -8.6650  -28.9690  -15.0030 O   0  0  0  0  0
   -5.9350  -31.3260  -14.1180 O   0  0  0  0  0
   -4.5940  -29.4330  -15.9120 O   0  0  0  0  0
   -4.5150  -33.3730  -15.5710 C   0  0  0  0  0
   -5.8040  -34.1770  -15.3760 C   0  0  0  0  0
   -5.5180  -35.4370  -14.4740 C   0  0  0  0  0
   -6.5130  -36.4510  -14.9710 C   0  0  0  0  0
   -6.3950  -36.1750  -16.4850 C   0  0  0  0  0
   -7.5860  -36.6220  -17.2500 C   0  0  0  0  0
   -3.5310  -34.1790  -16.2380 O   0  0  0  0  0
   -6.2770  -34.7500  -16.5880 O   0  0  0  0  0
   -5.4370  -35.2860  -13.0590 O   0  0  0  0  0
   -6.1980  -37.8410  -14.6310 O   0  0  0  0  0
   -7.4040  -36.5230  -18.6800 O   0  0  0  0  0
   -5.9723  -32.9814  -13.0686 H   0  0  0  0  0
   -7.7962  -31.7153  -12.1621 H   0  0  0  0  0
   -9.0728  -31.6959  -14.9546 H   0  0  0  0  0
   -7.6977  -29.5011  -13.2962 H   0  0  0  0  0
   -6.8870  -30.8400  -15.8927 H   0  0  0  0  0
   -5.4347  -28.8266  -14.1232 H   0  0  0  0  0
   -6.3519  -28.3854  -15.6173 H   0  0  0  0  0
   -8.3450  -33.9534  -12.3631 H   0  0  0  0  0
  -10.5734  -31.5485  -13.1323 H   0  0  0  0  0
   -9.4713  -28.7380  -14.5360 H   0  0  0  0  0
   -4.0683  -28.6345  -15.9989 H   0  0  0  0  0
   -4.1304  -33.0694  -14.5973 H   0  0  0  0  0
   -4.7291  -32.4928  -16.1772 H   0  0  0  0  0
   -4.4788  -35.7436  -14.5932 H   0  0  0  0  0
   -7.5066  -36.3507  -14.5343 H   0  0  0  0  0
   -5.5492  -36.7209  -16.9031 H   0  0  0  0  0
   -8.4204  -35.9770  -16.9747 H   0  0  0  0  0
   -7.7634  -37.6699  -17.0083 H   0  0  0  0  0
   -2.7270  -33.6679  -16.3561 H   0  0  0  0  0
   -5.2591  -36.1394  -12.6569 H   0  0  0  0  0
   -6.8794  -38.4179  -14.9839 H   0  0  0  0  0
   -8.2003  -36.8232  -19.1243 H   0  0  0  0  0
  1  2  1  0  0  0
  7  1  1  0  0  0
  1 11  1  0  0  0
  2  3  1  0  0  0
  2  8  1  0  0  0
  3  4  1  0  0  0
  3  9  1  0  0  0
  5  4  1  0  0  0
  4 10  1  0  0  0
  5  6  1  0  0  0
 11  5  1  0  0  0
  6 12  1  0  0  0
 14  7  1  0  0  0
 14 13  1  0  0  0
 13 19  1  0  0  0
 14 15  1  0  0  0
 20 14  1  0  0  0
 16 15  1  0  0  0
 15 21  1  0  0  0
 17 16  1  0  0  0
 16 22  1  0  0  0
 18 17  1  0  0  0
 17 20  1  0  0  0
 23 18  1  0  0  0
  1 24  1  0  0  0
  2 25  1  0  0  0
  3 26  1  0  0  0
  4 27  1  0  0  0
  5 28  1  0  0  0
  6 29  1  0  0  0
  6 30  1  0  0  0
  8 31  1  0  0  0
  9 32  1  0  0  0
 10 33  1  0  0  0
 12 34  1  0  0  0
 13 35  1  0  0  0
 13 36  1  0  0  0
 15 37  1  0  0  0
 16 38  1  0  0  0
 17 39  1  0  0  0
 18 40  1  0  0  0
 18 41  1  0  0  0
 19 42  1  0  0  0
 21 43  1  0  0  0
 22 44  1  0  0  0
 23 45  1  0  0  0
M  END
$$$$
