5kjk_ligand
  -I-interpret- 

 74 78  0  0  0  0  0  0  0  0999 V2000
  -12.6300  -56.3730  -26.3770 C   0  0  0  0  0
  -12.2240  -57.6820  -26.5590 C   0  0  0  0  0
  -13.1650  -58.6960  -26.6840 C   0  0  0  0  0
  -16.3940  -56.6830  -26.3330 C   0  0  0  0  0
  -16.8480  -55.7650  -25.3850 C   0  0  0  0  0
  -18.2010  -55.4440  -25.3500 C   0  0  0  0  0
  -19.0660  -56.0950  -26.2190 C   0  0  0  0  0
  -18.5370  -56.9940  -27.1230 C   0  0  0  0  0
  -18.6620  -54.3610  -24.4330 C   0  0  0  0  0
  -20.3380  -53.6820  -22.7860 C   0  0  0  0  0
  -19.9440  -54.2420  -21.4410 C   0  0  0  0  0
  -18.4520  -54.5380  -21.2930 C   0  0  0  0  0
  -18.4730  -56.2390  -19.4770 C   0  0  0  0  0
  -16.5770  -54.9440  -19.7570 C   0  0  0  0  0
  -15.8540  -60.0170  -27.8730 C   0  0  0  0  0
  -17.3460  -60.2550  -28.0930 C   0  0  0  0  0
  -15.7190  -61.5430  -27.8300 C   0  0  0  0  0
  -17.6780  -64.0720  -27.1580 C   0  0  0  0  0
  -15.7560  -65.2710  -24.0910 C   0  0  0  0  0
  -15.4850  -65.2610  -26.8570 C   0  0  0  0  0
  -13.4140  -66.5530  -23.6730 Cl  0  0  0  0  0
  -14.6570  -65.8820  -24.6820 C   0  0  0  0  0
  -16.7090  -64.6560  -24.8850 C   0  0  0  0  0
  -14.5360  -65.8870  -26.0700 C   0  0  0  0  0
  -13.2300  -66.7240  -26.8510 Cl  0  0  0  0  0
  -16.5900  -64.6460  -26.2760 C   0  0  0  0  0
  -18.0220  -62.6060  -26.8750 C   0  0  0  0  0
  -17.1490  -61.6300  -27.5500 N   0  3  0  0  0
  -15.5220  -59.3460  -26.6130 O   0  0  0  0  0
  -14.5230  -58.3850  -26.6020 C   0  0  0  0  0
  -14.9580  -57.0610  -26.4210 C   0  0  0  0  0
  -13.9820  -56.0630  -26.3120 C   0  0  0  0  0
  -17.2230  -57.2780  -27.2100 N   0  0  0  0  0
  -17.9450  -53.3930  -24.1870 O   0  0  0  0  0
  -19.8570  -54.5350  -23.8610 N   0  0  0  0  0
  -18.0270  -54.9210  -19.9520 N   0  3  0  0  0
  -16.4180  -55.5600  -18.3900 C   0  0  0  0  0
  -17.5680  -56.5170  -18.2920 C   0  0  0  0  0
  -11.8863  -55.5816  -26.2842 H   0  0  0  0  0
  -11.1611  -57.9193  -26.6046 H   0  0  0  0  0
  -12.8456  -59.7257  -26.8447 H   0  0  0  0  0
  -16.1525  -55.3062  -24.6822 H   0  0  0  0  0
  -20.1381  -55.9007  -26.1882 H   0  0  0  0  0
  -19.2199  -57.5020  -27.8039 H   0  0  0  0  0
  -19.8957  -52.6921  -22.8980 H   0  0  0  0  0
  -21.4253  -53.6281  -22.8396 H   0  0  0  0  0
  -20.4713  -55.1885  -21.3216 H   0  0  0  0  0
  -20.1963  -53.4888  -20.6945 H   0  0  0  0  0
  -17.9236  -53.6167  -21.5383 H   0  0  0  0  0
  -18.2340  -55.3841  -21.9447 H   0  0  0  0  0
  -18.3983  -57.0066  -20.2473 H   0  0  0  0  0
  -19.5288  -56.2488  -19.2061 H   0  0  0  0  0
  -16.1297  -53.9522  -19.8239 H   0  0  0  0  0
  -16.0591  -55.5076  -20.5330 H   0  0  0  0  0
  -15.2590  -59.3940  -28.5408 H   0  0  0  0  0
  -17.8071  -60.0923  -29.0672 H   0  0  0  0  0
  -18.0940  -59.5827  -27.6728 H   0  0  0  0  0
  -14.9927  -62.0193  -27.1714 H   0  0  0  0  0
  -15.2815  -62.0870  -28.6671 H   0  0  0  0  0
  -18.5806  -64.6528  -26.9682 H   0  0  0  0  0
  -17.3141  -64.1208  -28.1843 H   0  0  0  0  0
  -15.8674  -65.2758  -23.0067 H   0  0  0  0  0
  -15.3668  -65.2491  -27.9405 H   0  0  0  0  0
  -17.5659  -64.1719  -24.4166 H   0  0  0  0  0
  -17.9017  -62.4522  -25.8026 H   0  0  0  0  0
  -19.0330  -62.4390  -27.2466 H   0  0  0  0  0
  -17.7683  -62.4050  -27.3126 H   0  0  0  0  0
  -14.2884  -55.0261  -26.1739 H   0  0  0  0  0
  -20.4536  -55.2939  -24.1904 H   0  0  0  0  0
  -18.4806  -54.1773  -19.4213 H   0  0  0  0  0
  -16.4302  -54.8142  -17.5951 H   0  0  0  0  0
  -15.4548  -56.0553  -18.2679 H   0  0  0  0  0
  -17.2158  -57.5484  -18.3074 H   0  0  0  0  0
  -18.1059  -56.3811  -17.3538 H   0  0  0  0  0
  2  1  4  0  0  0
  1 32  4  0  0  0
  3  2  4  0  0  0
 30  3  4  0  0  0
  4  5  4  0  0  0
 31  4  1  0  0  0
  4 33  4  0  0  0
  5  6  4  0  0  0
  6  7  4  0  0  0
  6  9  1  0  0  0
  8  7  4  0  0  0
 33  8  4  0  0  0
  9 34  2  0  0  0
  9 35  1  0  0  0
 10 11  1  0  0  0
 35 10  1  0  0  0
 11 12  1  0  0  0
 12 36  1  0  0  0
 36 13  1  0  0  0
 13 38  1  0  0  0
 36 14  1  0  0  0
 14 37  1  0  0  0
 15 16  1  0  0  0
 15 17  1  0  0  0
 29 15  1  0  0  0
 16 28  1  0  0  0
 17 28  1  0  0  0
 18 26  1  0  0  0
 27 18  1  0  0  0
 19 22  4  0  0  0
 23 19  4  0  0  0
 20 24  4  0  0  0
 26 20  4  0  0  0
 22 21  1  0  0  0
 24 22  4  0  0  0
 26 23  4  0  0  0
 24 25  1  0  0  0
 28 27  1  0  0  0
 30 29  1  0  0  0
 30 31  4  0  0  0
 31 32  4  0  0  0
 37 38  1  0  0  0
  1 39  1  0  0  0
  2 40  1  0  0  0
  3 41  1  0  0  0
  5 42  1  0  0  0
  7 43  1  0  0  0
  8 44  1  0  0  0
 10 45  1  0  0  0
 10 46  1  0  0  0
 11 47  1  0  0  0
 11 48  1  0  0  0
 12 49  1  0  0  0
 12 50  1  0  0  0
 13 51  1  0  0  0
 13 52  1  0  0  0
 14 53  1  0  0  0
 14 54  1  0  0  0
 15 55  1  0  0  0
 16 56  1  0  0  0
 16 57  1  0  0  0
 17 58  1  0  0  0
 17 59  1  0  0  0
 18 60  1  0  0  0
 18 61  1  0  0  0
 19 62  1  0  0  0
 20 63  1  0  0  0
 23 64  1  0  0  0
 27 65  1  0  0  0
 27 66  1  0  0  0
 28 67  1  0  0  0
 32 68  1  0  0  0
 35 69  1  0  0  0
 36 70  1  0  0  0
 37 71  1  0  0  0
 37 72  1  0  0  0
 38 73  1  0  0  0
 38 74  1  0  0  0
M  END
$$$$
