6qqw_ligand
  -I-interpret- 

 37 40  0  0  0  0  0  0  0  0999 V2000
  -24.3890   20.2630  -11.1850 C   0  0  0  0  0
  -22.1420   23.6430   -9.5340 C   0  0  0  0  0
  -21.9630   22.9830   -7.1840 C   0  0  0  0  0
  -20.9990   24.4640   -9.3960 C   0  0  0  0  0
  -24.9910   22.4150  -10.6460 C   0  0  0  0  0
  -25.4790   21.1080  -10.7850 C   0  0  0  0  0
  -17.8880   16.2210  -12.6520 N   0  0  0  0  0
  -18.7610   17.3420  -12.5510 C   0  0  0  0  0
  -18.4040   18.6100  -12.7270 N   0  0  0  0  0
  -19.4790   19.3690  -12.5460 N   0  0  0  0  0
  -20.5440   18.6170  -12.2870 C   0  0  0  0  0
  -20.1410   17.3360  -12.2400 C   0  0  0  0  0
  -21.9080   19.1630  -11.9590 C   0  0  0  0  0
  -23.0190   18.3250  -11.8680 C   0  0  0  0  0
  -24.2700   18.8710  -11.4800 C   0  0  0  0  0
  -23.3000   21.0840  -11.2730 C   0  0  0  0  0
  -22.0220   20.5190  -11.6640 C   0  0  0  0  0
  -23.7100   22.3930  -10.9390 N   0  0  0  0  0
  -22.8700   23.5580  -10.8960 C   0  0  0  0  0
  -22.6280   22.9080   -8.4230 C   0  0  0  0  0
  -20.8150   23.8000   -7.0470 C   0  0  0  0  0
  -20.3350   24.5440   -8.1510 C   0  0  0  0  0
  -22.3317   22.4127   -6.3314 H   0  0  0  0  0
  -20.6306   25.0344  -10.2487 H   0  0  0  0  0
  -25.5689   23.2902  -10.3490 H   0  0  0  0  0
  -26.5077   20.7886  -10.6183 H   0  0  0  0  0
  -16.9026   16.3605  -12.8756 H   0  0  0  0  0
  -18.2482   15.2788  -12.5007 H   0  0  0  0  0
  -20.7550   16.4657  -12.0084 H   0  0  0  0  0
  -22.9274   17.2623  -12.0924 H   0  0  0  0  0
  -25.1445   18.2245  -11.4068 H   0  0  0  0  0
  -21.1438   21.1615  -11.7273 H   0  0  0  0  0
  -22.1290   23.4927  -11.6927 H   0  0  0  0  0
  -23.4868   24.4471  -11.0265 H   0  0  0  0  0
  -23.5162   22.2850   -8.5280 H   0  0  0  0  0
  -20.2993   23.8562   -6.0884 H   0  0  0  0  0
  -19.4548   25.1775   -8.0413 H   0  0  0  0  0
  1  6  4  0  0  0
  1 15  4  0  0  0
 16  1  4  0  0  0
  2  4  4  0  0  0
 19  2  1  0  0  0
  2 20  4  0  0  0
 20  3  4  0  0  0
  3 21  4  0  0  0
  4 22  4  0  0  0
  5  6  4  0  0  0
 18  5  4  0  0  0
  8  7  1  0  0  0
  8  9  4  0  0  0
 12  8  4  0  0  0
 10  9  4  0  0  0
 11 10  4  0  0  0
 11 12  4  0  0  0
 13 11  1  0  0  0
 13 14  4  0  0  0
 17 13  4  0  0  0
 15 14  4  0  0  0
 16 17  4  0  0  0
 18 16  4  0  0  0
 18 19  1  0  0  0
 21 22  4  0  0  0
  3 23  1  0  0  0
  4 24  1  0  0  0
  5 25  1  0  0  0
  6 26  1  0  0  0
  7 27  1  0  0  0
  7 28  1  0  0  0
 12 29  1  0  0  0
 14 30  1  0  0  0
 15 31  1  0  0  0
 17 32  1  0  0  0
 19 33  1  0  0  0
 19 34  1  0  0  0
 20 35  1  0  0  0
 21 36  1  0  0  0
 22 37  1  0  0  0
M  END
$$$$
