2q2c_ligand
  -I-interpret- 

 20 20  0  0  0  0  0  0  0  0999 V2000
    2.8720   -0.7830    4.2710 N   0  3  0  0  0
    3.7530   -1.4240    5.2890 C   0  0  0  0  0
    4.5380   -0.3970    6.0930 C   0  0  0  0  0
    5.0920   -0.7160    7.1420 O   0  0  0  0  0
    4.6840   -2.4640    4.6430 C   0  0  0  0  0
    5.7350   -1.8850    3.7430 C   0  0  0  0  0
    6.9950   -2.4320    3.6300 N   0  0  0  0  0
    5.7150   -0.8160    2.9110 C   0  0  0  0  0
    7.7040   -1.7270    2.7660 C   0  0  0  0  0
    6.9490   -0.7430    2.3130 N   0  0  0  0  0
    4.6200    0.7770    5.7260 O   0  0  0  0  0
    2.2677   -0.1000    4.7278 H   0  0  0  0  0
    3.4478   -0.3150    3.5711 H   0  0  0  0  0
    2.3000   -1.4971    3.8201 H   0  0  0  0  0
    3.1048   -1.9478    5.9916 H   0  0  0  0  0
    4.0597   -3.1123    4.0281 H   0  0  0  0  0
    5.2043   -2.9735    5.4541 H   0  0  0  0  0
    4.8759   -0.1399    2.7469 H   0  0  0  0  0
    8.7362   -1.9242    2.4766 H   0  0  0  0  0
    4.1459    0.8862    4.8984 H   0  0  0  0  0
  1  2  1  0  0  0
  2  3  1  0  0  0
  2  5  1  0  0  0
  3  4  2  0  0  0
  3 11  1  0  0  0
  5  6  1  0  0  0
  6  7  4  0  0  0
  6  8  4  0  0  0
  7  9  4  0  0  0
  8 10  4  0  0  0
  9 10  4  0  0  0
  1 12  1  0  0  0
  1 13  1  0  0  0
  1 14  1  0  0  0
  2 15  1  0  0  0
  5 16  1  0  0  0
  5 17  1  0  0  0
  8 18  1  0  0  0
  9 19  1  0  0  0
 11 20  1  0  0  0
M  END
$$$$
