2uw7_ligand
  -I-interpret- 

 44 47  0  0  0  0  0  0  0  0999 V2000
   13.3080   13.6520    0.2310 Cl  0  0  0  0  0
   12.5840   12.4390    1.2390 C   0  0  0  0  0
   12.4030   11.1570    0.7530 C   0  0  0  0  0
   11.8280   10.1890    1.5470 C   0  0  0  0  0
   11.4430   10.4800    2.8540 C   0  0  0  0  0
   11.6280   11.7740    3.3350 C   0  0  0  0  0
   12.2010   12.7420    2.5360 C   0  0  0  0  0
   10.7800    9.4070    3.7340 C   0  0  0  0  0
   11.0630    7.9740    3.2340 C   0  0  0  0  0
   12.5010    7.5290    3.4500 C   0  0  0  0  0
   12.8340    7.6310    4.8990 N   0  3  0  0  0
   12.6760    9.0280    5.3980 C   0  0  0  0  0
   11.2370    9.4680    5.2020 C   0  0  0  0  0
    9.2500    9.5620    3.6540 C   0  0  0  0  0
    8.4740    9.8010    4.7850 C   0  0  0  0  0
    7.1020    9.8910    4.6860 C   0  0  0  0  0
    6.4720    9.7610    3.4540 C   0  0  0  0  0
    7.2430    9.4990    2.3320 C   0  0  0  0  0
    8.6130    9.4020    2.4300 C   0  0  0  0  0
    5.0070    9.7800    3.3540 C   0  0  0  0  0
    4.0830    9.6650    4.4010 C   0  0  0  0  0
    2.8310    9.6460    3.9410 N   0  0  0  0  0
    2.9510    9.6990    2.5900 N   0  0  0  0  0
    4.2420    9.7630    2.2140 C   0  0  0  0  0
   12.7163   10.9116   -0.2617 H   0  0  0  0  0
   11.6728    9.1862    1.1490 H   0  0  0  0  0
   11.3179   12.0237    4.3497 H   0  0  0  0  0
   12.3529   13.7484    2.9262 H   0  0  0  0  0
   10.8728    7.9580    2.1608 H   0  0  0  0  0
   10.4223    7.2973    3.7993 H   0  0  0  0  0
   13.1715    8.1677    2.8750 H   0  0  0  0  0
   12.6176    6.4967    3.1200 H   0  0  0  0  0
   13.8058    7.3493    5.0282 H   0  0  0  0  0
   12.1982    7.0274    5.4203 H   0  0  0  0  0
   13.3401    9.6916    4.8442 H   0  0  0  0  0
   12.9301    9.0691    6.4572 H   0  0  0  0  0
   10.6032    8.7903    5.7740 H   0  0  0  0  0
   11.1609   10.5050    5.5291 H   0  0  0  0  0
    8.9550    9.9178    5.7561 H   0  0  0  0  0
    6.5060   10.0656    5.5818 H   0  0  0  0  0
    6.7603    9.3686    1.3635 H   0  0  0  0  0
    9.2041    9.1974    1.5374 H   0  0  0  0  0
    4.3524    9.5995    5.4552 H   0  0  0  0  0
    4.6130    9.7955    1.1896 H   0  0  0  0  0
  1  2  1  0  0  0
  2  3  4  0  0  0
  2  7  4  0  0  0
  3  4  4  0  0  0
  4  5  4  0  0  0
  5  6  4  0  0  0
  5  8  1  0  0  0
  6  7  4  0  0  0
  8  9  1  0  0  0
  8 13  1  0  0  0
  8 14  1  0  0  0
  9 10  1  0  0  0
 10 11  1  0  0  0
 11 12  1  0  0  0
 12 13  1  0  0  0
 14 15  4  0  0  0
 14 19  4  0  0  0
 15 16  4  0  0  0
 16 17  4  0  0  0
 17 18  4  0  0  0
 17 20  1  0  0  0
 18 19  4  0  0  0
 20 21  4  0  0  0
 20 24  4  0  0  0
 21 22  4  0  0  0
 22 23  4  0  0  0
 23 24  4  0  0  0
  3 25  1  0  0  0
  4 26  1  0  0  0
  6 27  1  0  0  0
  7 28  1  0  0  0
  9 29  1  0  0  0
  9 30  1  0  0  0
 10 31  1  0  0  0
 10 32  1  0  0  0
 11 33  1  0  0  0
 11 34  1  0  0  0
 12 35  1  0  0  0
 12 36  1  0  0  0
 13 37  1  0  0  0
 13 38  1  0  0  0
 15 39  1  0  0  0
 16 40  1  0  0  0
 18 41  1  0  0  0
 19 42  1  0  0  0
 21 43  1  0  0  0
 24 44  1  0  0  0
M  END
$$$$
