5adq_ligand
  -I-interpret- 

 58 61  0  0  0  0  0  0  0  0999 V2000
    1.6450   -4.6320  -22.4800 C   0  0  0  0  0
    0.7210   -5.5090  -22.8430 N   0  0  0  0  0
    1.7090   -4.1640  -21.3630 O   0  0  0  0  0
    2.7090   -4.2890  -23.4660 C   0  0  0  0  0
   -4.0020   -9.1350  -20.2250 N   0  0  0  0  0
    2.6800   -4.9350  -24.5500 O   0  0  0  0  0
    3.7350   -4.5000  -25.3540 C   0  0  0  0  0
   -2.9150   -8.3210  -18.4820 O   0  0  0  0  0
    4.4380   -3.5510  -24.6480 C   0  0  0  0  0
   -2.0420  -13.8500  -24.0240 O   0  0  0  0  0
    3.7870   -3.4210  -23.4320 C   0  0  0  0  0
   -8.3320  -11.3790  -19.5740 O   0  0  0  0  0
   -0.1760   -6.1670  -22.0570 C   0  0  0  0  0
   -0.2530   -6.0350  -20.6850 C   0  0  0  0  0
   -1.1980   -6.7350  -19.9380 C   0  0  0  0  0
   -2.1300   -7.5720  -20.5610 C   0  0  0  0  0
   -2.0600   -7.7040  -21.9450 C   0  0  0  0  0
   -1.1080   -6.9950  -22.6880 C   0  0  0  0  0
   -3.0940   -8.3380  -19.6920 C   0  0  0  0  0
   -4.7370  -10.1030  -19.4640 C   0  0  0  0  0
   -5.5180  -11.0990  -20.3350 C   0  0  0  0  0
   -4.6080  -11.7920  -21.3580 C   0  0  0  0  0
   -4.5680  -11.4520  -22.7280 C   0  0  0  0  0
   -3.7260  -12.1170  -23.6360 C   0  0  0  0  0
   -2.8870  -13.1460  -23.1850 C   0  0  0  0  0
   -2.0340  -13.6610  -25.4540 C   0  0  0  0  0
   -2.9090  -13.4800  -21.8400 C   0  0  0  0  0
   -3.7430  -12.8270  -20.9420 C   0  0  0  0  0
   -6.6940  -10.4180  -21.0580 C   0  0  0  0  0
   -7.8880  -10.1520  -20.1520 C   0  0  0  0  0
   -7.3610  -11.9070  -18.6700 C   0  0  0  0  0
   -6.0570  -12.1930  -19.3900 C   0  0  0  0  0
    0.6753   -5.7187  -23.8402 H   0  0  0  0  0
   -4.1893   -9.0585  -21.2247 H   0  0  0  0  0
    3.9614   -4.8497  -26.3612 H   0  0  0  0  0
    5.3258   -3.0116  -24.9781 H   0  0  0  0  0
    4.0685   -2.7638  -22.6093 H   0  0  0  0  0
    0.4415   -5.3678  -20.1744 H   0  0  0  0  0
   -1.2114   -6.6291  -18.8532 H   0  0  0  0  0
   -2.7558   -8.3684  -22.4574 H   0  0  0  0  0
   -1.0938   -7.0904  -23.7737 H   0  0  0  0  0
   -5.4608   -9.5613  -18.8550 H   0  0  0  0  0
   -4.0179  -10.6739  -18.8766 H   0  0  0  0  0
   -5.2095  -10.6496  -23.0924 H   0  0  0  0  0
   -3.7252  -11.8334  -24.6885 H   0  0  0  0  0
   -3.0195  -13.8963  -25.8558 H   0  0  0  0  0
   -1.7858  -12.6241  -25.6808 H   0  0  0  0  0
   -1.2906  -14.3202  -25.9022 H   0  0  0  0  0
   -2.2560  -14.2743  -21.4784 H   0  0  0  0  0
   -3.7294  -13.1203  -19.8923 H   0  0  0  0  0
   -7.0257  -11.0891  -21.8503 H   0  0  0  0  0
   -6.3401   -9.4551  -21.4264 H   0  0  0  0  0
   -7.5955   -9.4630  -19.3597 H   0  0  0  0  0
   -8.6964   -9.7134  -20.7370 H   0  0  0  0  0
   -7.7417  -12.8372  -18.2481 H   0  0  0  0  0
   -7.1762  -11.1744  -17.8844 H   0  0  0  0  0
   -5.3058  -12.3048  -18.6081 H   0  0  0  0  0
   -6.2519  -13.0597  -20.0217 H   0  0  0  0  0
  2  1  1  0  0  0
  1  3  2  0  0  0
  1  4  1  0  0  0
 13  2  1  0  0  0
  4  6  4  0  0  0
  4 11  4  0  0  0
  5 19  1  0  0  0
 20  5  1  0  0  0
  6  7  4  0  0  0
  9  7  4  0  0  0
 19  8  2  0  0  0
 11  9  4  0  0  0
 25 10  1  0  0  0
 10 26  1  0  0  0
 30 12  1  0  0  0
 12 31  1  0  0  0
 14 13  4  0  0  0
 18 13  4  0  0  0
 15 14  4  0  0  0
 16 15  4  0  0  0
 16 17  4  0  0  0
 19 16  1  0  0  0
 17 18  4  0  0  0
 21 20  1  0  0  0
 21 22  1  0  0  0
 29 21  1  0  0  0
 21 32  1  0  0  0
 22 23  4  0  0  0
 22 28  4  0  0  0
 23 24  4  0  0  0
 24 25  4  0  0  0
 27 25  4  0  0  0
 28 27  4  0  0  0
 29 30  1  0  0  0
 31 32  1  0  0  0
  2 33  1  0  0  0
  5 34  1  0  0  0
  7 35  1  0  0  0
  9 36  1  0  0  0
 11 37  1  0  0  0
 14 38  1  0  0  0
 15 39  1  0  0  0
 17 40  1  0  0  0
 18 41  1  0  0  0
 20 42  1  0  0  0
 20 43  1  0  0  0
 23 44  1  0  0  0
 24 45  1  0  0  0
 26 46  1  0  0  0
 26 47  1  0  0  0
 26 48  1  0  0  0
 27 49  1  0  0  0
 28 50  1  0  0  0
 29 51  1  0  0  0
 29 52  1  0  0  0
 30 53  1  0  0  0
 30 54  1  0  0  0
 31 55  1  0  0  0
 31 56  1  0  0  0
 32 57  1  0  0  0
 32 58  1  0  0  0
M  END
$$$$
