### 
### Created by X-TOOL on Mon Sep 10 21:12:53 2018
### 

@<TRIPOS>MOLECULE
1zh7_ligand
  181   183     1     0     0
SMALL
GAST_HUCK


@<TRIPOS>ATOM
      1 N          86.9300   -7.8740   33.5350 N.4       1 SER         0.2396
      2 CA         87.9900   -7.8350   34.5800 C.3       1 SER         0.0885
      3 C          88.0590   -9.1740   35.3230 C.2       1 SER         0.2291
      4 O          88.9230  -10.0040   35.0380 O.2       1 SER        -0.3906
      5 CB         87.7060   -6.6930   35.5670 C.3       1 SER         0.1041
      6 OG         88.7890   -6.4860   36.4580 O.3       1 SER        -0.3870
      7 N          87.1370   -9.3820   36.2610 N.am      1 HIS        -0.2597
      8 CA         87.0920  -10.6120   37.0520 C.3       1 HIS         0.1372
      9 C          88.4740  -10.8760   37.6640 C.2       1 HIS         0.2079
     10 O          89.1290  -11.8740   37.3530 O.2       1 HIS        -0.3940
     11 CB         86.6590  -11.7940   36.1750 C.3       1 HIS         0.0145
     12 CG         86.0860  -12.9420   36.9480 C.2       1 HIS        -0.0027
     13 ND1        84.9910  -12.8080   37.7760 N.2       1 HIS        -0.3252
     14 CD2        86.4510  -14.2430   37.0150 C.2       1 HIS         0.0291
     15 CE1        84.7070  -13.9770   38.3210 C.2       1 HIS         0.0907
     16 NE2        85.5780  -14.8660   37.8760 N.pl3     1 HIS        -0.2752
     17 N          88.9200   -9.9730   38.5580 N.am      1 PRO        -0.2497
     18 CA         90.1980   -9.9720   39.2900 C.3       1 PRO         0.1338
     19 C          90.6830  -11.3640   39.6770 C.2       1 PRO         0.2042
     20 O          90.2540  -11.9180   40.6870 O.2       1 PRO        -0.3944
     21 CB         89.8890   -9.1150   40.5110 C.3       1 PRO        -0.0104
     22 CG         88.9240   -8.1250   39.9590 C.3       1 PRO        -0.0281
     23 CD         88.0100   -8.9510   39.1070 C.3       1 PRO         0.0369
     24 N          91.5980  -11.9120   38.8830 N.am      1 THR        -0.2613
     25 CA         92.1160  -13.2520   39.1300 C.3       1 THR         0.1565
     26 C          92.8350  -13.4780   40.4660 C.2       1 THR         0.2065
     27 O          92.2630  -14.0840   41.3720 O.2       1 THR        -0.3943
     28 CB         93.0330  -13.6990   37.9750 C.3       1 THR         0.0924
     29 OG1        93.6030  -14.9760   38.2880 O.3       1 THR        -0.3874
     30 CG2        94.1340  -12.6780   37.7340 C.3       1 THR        -0.0346
     31 N          94.0750  -13.0080   40.5990 N.am      1 ILE        -0.2634
     32 CA         94.8350  -13.2000   41.8410 C.3       1 ILE         0.1335
     33 C          94.1020  -12.7440   43.1070 C.2       1 ILE         0.2042
     34 O          94.1610  -13.4160   44.1360 O.2       1 ILE        -0.3944
     35 CB         96.1980  -12.4830   41.7960 C.3       1 ILE        -0.0037
     36 CG1        97.0780  -13.1000   40.7090 C.3       1 ILE        -0.0491
     37 CG2        96.8890  -12.5950   43.1400 C.3       1 ILE        -0.0582
     38 CD1        97.3780  -14.5850   40.9160 C.3       1 ILE        -0.0648
     39 N          93.4260  -11.6000   43.0230 N.am      1 LEU        -0.2637
     40 CA         92.6690  -11.0490   44.1460 C.3       1 LEU         0.1312
     41 C          91.5340  -12.0100   44.5090 C.2       1 LEU         0.2040
     42 O          91.1740  -12.1670   45.6810 O.2       1 LEU        -0.3944
     43 CB         92.0710   -9.7020   43.7490 C.3       1 LEU        -0.0101
     44 CG         91.9010   -8.5650   44.7570 C.3       1 LEU        -0.0425
     45 CD1        90.5850   -7.8620   44.4420 C.3       1 LEU        -0.0625
     46 CD2        91.9100   -9.0710   46.1830 C.3       1 LEU        -0.0625
     47 N          90.9670  -12.6510   43.4940 N.am      1 TYR        -0.2621
     48 CA         89.8760  -13.5880   43.7150 C.3       1 TYR         0.1390
     49 C          90.4000  -14.8180   44.4620 C.2       1 TYR         0.2058
     50 O          89.7800  -15.2810   45.4240 O.2       1 TYR        -0.3942
     51 CB         89.2700  -14.0040   42.3720 C.3       1 TYR         0.0163
     52 CG         87.9370  -14.6940   42.4800 C.ar      1 TYR        -0.0493
     53 CD1        86.7490  -13.9760   42.3750 C.ar      1 TYR        -0.0685
     54 CD2        87.8610  -16.0740   42.6910 C.ar      1 TYR        -0.0685
     55 CE1        85.5120  -14.6170   42.4750 C.ar      1 TYR        -0.0398
     56 CE2        86.6340  -16.7280   42.7960 C.ar      1 TYR        -0.0398
     57 CZ         85.4640  -15.9960   42.6850 C.ar      1 TYR         0.0805
     58 OH         84.2520  -16.6410   42.7790 O.3       1 TYR        -0.3376
     59 N          91.5420  -15.3390   44.0110 N.am      1 THR        -0.2612
     60 CA         92.1780  -16.5130   44.6190 C.3       1 THR         0.1565
     61 C          92.5010  -16.2230   46.0780 C.2       1 THR         0.2065
     62 O          92.4930  -17.1150   46.9260 O.2       1 THR        -0.3943
     63 CB         93.5050  -16.8780   43.8870 C.3       1 THR         0.0924
     64 OG1        93.2110  -17.4350   42.6010 O.3       1 THR        -0.3874
     65 CG2        94.3250  -17.8790   44.7000 C.3       1 THR        -0.0346
     66 N          92.7890  -14.9590   46.3490 N.am      1 LEU        -0.2636
     67 CA         93.1260  -14.5030   47.6830 C.3       1 LEU         0.1312
     68 C          91.8780  -14.2620   48.5290 C.2       1 LEU         0.2039
     69 O          91.8880  -14.5260   49.7260 O.2       1 LEU        -0.3944
     70 CB         93.9520  -13.2090   47.5840 C.3       1 LEU        -0.0101
     71 CG         95.4120  -13.2210   48.0510 C.3       1 LEU        -0.0425
     72 CD1        96.0790  -14.5390   47.6930 C.3       1 LEU        -0.0625
     73 CD2        96.1560  -12.0650   47.4120 C.3       1 LEU        -0.0625
     74 N          90.8030  -13.7810   47.9060 N.am      1 LEU        -0.2637
     75 CA         89.5740  -13.4820   48.6370 C.3       1 LEU         0.1312
     76 C          88.6110  -14.6310   48.8650 C.2       1 LEU         0.2034
     77 O          87.7830  -14.5770   49.7800 O.2       1 LEU        -0.3944
     78 CB         88.8180  -12.3390   47.9640 C.3       1 LEU        -0.0101
     79 CG         89.4970  -10.9740   48.0320 C.3       1 LEU        -0.0425
     80 CD1        88.5050   -9.9170   47.5770 C.3       1 LEU        -0.0625
     81 CD2        89.9620  -10.6900   49.4590 C.3       1 LEU        -0.0625
     82 N          88.6960  -15.6600   48.0320 N.am      1 SER        -0.2672
     83 CA         87.8230  -16.8160   48.1860 C.3       1 SER         0.1173
     84 C          88.4580  -17.8640   49.0970 C.2       1 SER         0.0623
     85 O          87.7900  -18.2940   50.0650 O.co2     1 SER        -0.5665
     86 CB         87.5170  -17.4440   46.8300 C.3       1 SER         0.0789
     87 OG         86.8500  -18.6850   47.0100 O.3       1 SER        -0.3910
     88 OXT        89.6180  -18.2450   48.8240 O.co2     1 SER        -0.5665
     89 H1         86.8974   -6.9875   33.0563 H         1 SER         0.2016
     90 H2         86.0379   -8.0550   33.9679 H         1 SER         0.2016
     91 H3         87.1371   -8.6057   32.8734 H         1 SER         0.2016
     92 H4         88.9596   -7.6511   34.0942 H         1 SER         0.1122
     93 H5         86.8074   -6.9419   36.1506 H         1 SER         0.0640
     94 H6         87.5299   -5.7673   34.9995 H         1 SER         0.0640
     95 H7         88.5780   -5.7747   37.0513 H         1 SER         0.2099
     96 H8         86.4521   -8.6734   36.4305 H         1 HIS         0.1886
     97 H9         86.3603  -10.4879   37.8639 H         1 HIS         0.0817
     98 H10        87.5376  -12.1540   35.6196 H         1 HIS         0.0420
     99 H11        85.8970  -11.4388   35.4657 H         1 HIS         0.0420
    100 H12        87.2808  -14.7096   36.4862 H         1 HIS         0.0729
    101 H13        83.8940  -14.1747   39.0180 H         1 HIS         0.1199
    102 H14        85.5995  -15.8634   38.1324 H         1 HIS         0.2361
    103 H15        90.9787   -9.4957   38.6788 H         1 PRO         0.0802
    104 H16        90.7948   -8.6205   40.8917 H         1 PRO         0.0313
    105 H17        89.4327   -9.7129   41.3137 H         1 PRO         0.0313
    106 H18        89.4435   -7.3667   39.3548 H         1 PRO         0.0287
    107 H19        88.3652   -7.6303   40.7671 H         1 PRO         0.0287
    108 H20        87.2131   -9.4111   39.7097 H         1 PRO         0.0524
    109 H21        87.5608   -8.3469   38.3049 H         1 PRO         0.0524
    110 H22        91.9384  -11.3932   38.0988 H         1 THR         0.1884
    111 H23        91.2415  -13.9193   39.1345 H         1 THR         0.0826
    112 H24        92.4312  -13.7910   37.0588 H         1 THR         0.0639
    113 H25        94.1684  -15.2522   37.5763 H         1 THR         0.2101
    114 H26        94.7746  -13.0179   36.9069 H         1 THR         0.0257
    115 H27        94.7395  -12.5695   38.6459 H         1 THR         0.0257
    116 H28        93.6844  -11.7081   37.4748 H         1 THR         0.0257
    117 H29        94.4964  -12.5148   39.8380 H         1 ILE         0.1883
    118 H30        95.0210  -14.2800   41.9362 H         1 ILE         0.0803
    119 H31        96.0351  -11.4200   41.5646 H         1 ILE         0.0345
    120 H32        98.0330  -12.5546   40.6869 H         1 ILE         0.0267
    121 H33        96.5662  -12.9826   39.7424 H         1 ILE         0.0267
    122 H34        96.2517  -12.1497   43.9182 H         1 ILE         0.0235
    123 H35        97.8503  -12.0615   43.1037 H         1 ILE         0.0235
    124 H36        97.0666  -13.6551   43.3738 H         1 ILE         0.0235
    125 H37        98.0130  -14.9487   40.0947 H         1 ILE         0.0230
    126 H38        96.4351  -15.1513   40.9288 H         1 ILE         0.0230
    127 H39        97.9018  -14.7233   41.8733 H         1 ILE         0.0230
    128 H40        93.4364  -11.0981   42.1581 H         1 LEU         0.1883
    129 H41        93.3353  -10.9174   45.0113 H         1 LEU         0.0800
    130 H42        91.0674   -9.9150   43.3523 H         1 LEU         0.0315
    131 H43        92.7076   -9.3073   42.9434 H         1 LEU         0.0315
    132 H44        92.7303   -7.8524   44.6364 H         1 LEU         0.0298
    133 H45        90.4318   -7.0356   45.1516 H         1 LEU         0.0232
    134 H46        89.7558   -8.5794   44.5301 H         1 LEU         0.0232
    135 H47        90.6181   -7.4638   43.4171 H         1 LEU         0.0232
    136 H48        92.8668   -9.5736   46.3877 H         1 LEU         0.0232
    137 H49        91.0840   -9.7835   46.3245 H         1 LEU         0.0232
    138 H50        91.7858   -8.2238   46.8735 H         1 LEU         0.0232
    139 H51        91.2947  -12.4874   42.5635 H         1 TYR         0.1885
    140 H52        89.0996  -13.1013   44.3236 H         1 TYR         0.0821
    141 H53        89.9727  -14.6886   41.8745 H         1 TYR         0.0453
    142 H54        89.1412  -13.1006   41.7578 H         1 TYR         0.0453
    143 H55        86.7844  -12.9047   42.2134 H         1 TYR         0.0530
    144 H56        88.7765  -16.6484   42.7748 H         1 TYR         0.0530
    145 H57        84.5942  -14.0465   42.3900 H         1 TYR         0.0525
    146 H58        86.5965  -17.7984   42.9628 H         1 TYR         0.0525
    147 H59        83.5497  -16.0084   42.6836 H         1 TYR         0.2458
    148 H60        91.9844  -14.9103   43.2233 H         1 THR         0.1884
    149 H61        91.4854  -17.3654   44.5585 H         1 THR         0.0826
    150 H62        94.0978  -15.9610   43.7536 H         1 THR         0.0639
    151 H63        94.0228  -17.6555   42.1595 H         1 THR         0.2101
    152 H64        95.2532  -18.1171   44.1598 H         1 THR         0.0257
    153 H65        93.7400  -18.7989   44.8467 H         1 THR         0.0257
    154 H66        94.5722  -17.4416   45.6786 H         1 THR         0.0257
    155 H67        92.7733  -14.2926   45.6036 H         1 LEU         0.1883
    156 H68        93.7343  -15.2769   48.1740 H         1 LEU         0.0800
    157 H69        93.4293  -12.4466   48.1803 H         1 LEU         0.0315
    158 H70        93.9547  -12.9086   46.5258 H         1 LEU         0.0315
    159 H71        95.4361  -13.0997   49.1440 H         1 LEU         0.0298
    160 H72        97.1239  -14.5263   48.0365 H         1 LEU         0.0232
    161 H73        96.0533  -14.6786   46.6022 H         1 LEU         0.0232
    162 H74        95.5426  -15.3660   48.1812 H         1 LEU         0.0232
    163 H75        95.6627  -11.1189   47.6794 H         1 LEU         0.0232
    164 H76        96.1506  -12.1850   46.3186 H         1 LEU         0.0232
    165 H77        97.1945  -12.0522   47.7744 H         1 LEU         0.0232
    166 H78        90.8381  -13.6216   46.9194 H         1 LEU         0.1883
    167 H79        89.8879  -13.1364   49.6330 H         1 LEU         0.0800
    168 H80        87.8336  -12.2525   48.4472 H         1 LEU         0.0315
    169 H81        88.6843  -12.5988   46.9035 H         1 LEU         0.0315
    170 H82        90.3697  -10.9664   47.3624 H         1 LEU         0.0298
    171 H83        88.9799   -8.9257   47.6203 H         1 LEU         0.0232
    172 H84        87.6253   -9.9313   48.2373 H         1 LEU         0.0232
    173 H85        88.1917  -10.1286   46.5440 H         1 LEU         0.0232
    174 H86        90.6786  -11.4637   49.7719 H         1 LEU         0.0232
    175 H87        89.0948  -10.6982   50.1357 H         1 LEU         0.0232
    176 H88        90.4475   -9.7037   49.4970 H         1 LEU         0.0232
    177 H89        89.3666  -15.6419   47.2904 H         1 SER         0.1876
    178 H90        86.8793  -16.4801   48.6405 H         1 SER         0.0749
    179 H91        88.4578  -17.6116   46.2853 H         1 SER         0.0599
    180 H92        86.8738  -16.7652   46.2508 H         1 SER         0.0599
    181 H93        86.6633  -19.0689   46.1613 H         1 SER         0.2096
@<TRIPOS>BOND
     1    1    2 1  
     2    2    3 1  
     3    2    5 1  
     4    3    4 2  
     5    3    7 am 
     6    5    6 1  
     7    7    8 1  
     8    8    9 1  
     9    8   11 1  
    10    9   10 2  
    11    9   17 am 
    12   11   12 1  
    13   12   13 1  
    14   12   14 2  
    15   13   15 2  
    16   14   16 1  
    17   15   16 1  
    18   17   18 1  
    19   17   23 1  
    20   18   19 1  
    21   18   21 1  
    22   19   20 2  
    23   19   24 am 
    24   21   22 1  
    25   22   23 1  
    26   24   25 1  
    27   25   26 1  
    28   25   28 1  
    29   26   27 2  
    30   26   31 am 
    31   28   29 1  
    32   28   30 1  
    33   31   32 1  
    34   32   33 1  
    35   32   35 1  
    36   33   34 2  
    37   33   39 am 
    38   35   36 1  
    39   35   37 1  
    40   36   38 1  
    41   39   40 1  
    42   40   41 1  
    43   40   43 1  
    44   41   42 2  
    45   41   47 am 
    46   43   44 1  
    47   44   45 1  
    48   44   46 1  
    49   47   48 1  
    50   48   49 1  
    51   48   51 1  
    52   49   50 2  
    53   49   59 am 
    54   51   52 1  
    55   52   53 ar 
    56   52   54 ar 
    57   53   55 ar 
    58   54   56 ar 
    59   55   57 ar 
    60   56   57 ar 
    61   57   58 1  
    62   59   60 1  
    63   60   61 1  
    64   60   63 1  
    65   61   62 2  
    66   61   66 am 
    67   63   64 1  
    68   63   65 1  
    69   66   67 1  
    70   67   68 1  
    71   67   70 1  
    72   68   69 2  
    73   68   74 am 
    74   70   71 1  
    75   71   72 1  
    76   71   73 1  
    77   74   75 1  
    78   75   76 1  
    79   75   78 1  
    80   76   77 2  
    81   76   82 am 
    82   78   79 1  
    83   79   80 1  
    84   79   81 1  
    85   82   83 1  
    86   83   84 1  
    87   83   86 1  
    88   84   85 ar 
    89   84   88 ar 
    90   86   87 1  
    91    1   89 1  
    92    1   90 1  
    93    1   91 1  
    94    2   92 1  
    95    5   93 1  
    96    5   94 1  
    97    6   95 1  
    98    7   96 1  
    99    8   97 1  
   100   11   98 1  
   101   11   99 1  
   102   14  100 1  
   103   15  101 1  
   104   16  102 1  
   105   18  103 1  
   106   21  104 1  
   107   21  105 1  
   108   22  106 1  
   109   22  107 1  
   110   23  108 1  
   111   23  109 1  
   112   24  110 1  
   113   25  111 1  
   114   28  112 1  
   115   29  113 1  
   116   30  114 1  
   117   30  115 1  
   118   30  116 1  
   119   31  117 1  
   120   32  118 1  
   121   35  119 1  
   122   36  120 1  
   123   36  121 1  
   124   37  122 1  
   125   37  123 1  
   126   37  124 1  
   127   38  125 1  
   128   38  126 1  
   129   38  127 1  
   130   39  128 1  
   131   40  129 1  
   132   43  130 1  
   133   43  131 1  
   134   44  132 1  
   135   45  133 1  
   136   45  134 1  
   137   45  135 1  
   138   46  136 1  
   139   46  137 1  
   140   46  138 1  
   141   47  139 1  
   142   48  140 1  
   143   51  141 1  
   144   51  142 1  
   145   53  143 1  
   146   54  144 1  
   147   55  145 1  
   148   56  146 1  
   149   58  147 1  
   150   59  148 1  
   151   60  149 1  
   152   63  150 1  
   153   64  151 1  
   154   65  152 1  
   155   65  153 1  
   156   65  154 1  
   157   66  155 1  
   158   67  156 1  
   159   70  157 1  
   160   70  158 1  
   161   71  159 1  
   162   72  160 1  
   163   72  161 1  
   164   72  162 1  
   165   73  163 1  
   166   73  164 1  
   167   73  165 1  
   168   74  166 1  
   169   75  167 1  
   170   78  168 1  
   171   78  169 1  
   172   79  170 1  
   173   80  171 1  
   174   80  172 1  
   175   80  173 1  
   176   81  174 1  
   177   81  175 1  
   178   81  176 1  
   179   82  177 1  
   180   83  178 1  
   181   86  179 1  
   182   86  180 1  
   183   87  181 1  
@<TRIPOS>SUBSTRUCTURE
     1 SER         1

