1zh7_ligand
  -I-interpret- 

181183  0  0  0  0  0  0  0  0999 V2000
   86.9300   -7.8740   33.5350 N   0  3  0  0  0
   87.9900   -7.8350   34.5800 C   0  0  0  0  0
   88.0590   -9.1740   35.3230 C   0  0  0  0  0
   88.9230  -10.0040   35.0380 O   0  0  0  0  0
   87.7060   -6.6930   35.5670 C   0  0  0  0  0
   88.7890   -6.4860   36.4580 O   0  0  0  0  0
   87.1370   -9.3820   36.2610 N   0  0  0  0  0
   87.0920  -10.6120   37.0520 C   0  0  0  0  0
   88.4740  -10.8760   37.6640 C   0  0  0  0  0
   89.1290  -11.8740   37.3530 O   0  0  0  0  0
   86.6590  -11.7940   36.1750 C   0  0  0  0  0
   86.0860  -12.9420   36.9480 C   0  0  0  0  0
   84.9910  -12.8080   37.7760 N   0  0  0  0  0
   86.4510  -14.2430   37.0150 C   0  0  0  0  0
   84.7070  -13.9770   38.3210 C   0  0  0  0  0
   85.5780  -14.8660   37.8760 N   0  0  0  0  0
   88.9200   -9.9730   38.5580 N   0  0  0  0  0
   90.1980   -9.9720   39.2900 C   0  0  0  0  0
   90.6830  -11.3640   39.6770 C   0  0  0  0  0
   90.2540  -11.9180   40.6870 O   0  0  0  0  0
   89.8890   -9.1150   40.5110 C   0  0  0  0  0
   88.9240   -8.1250   39.9590 C   0  0  0  0  0
   88.0100   -8.9510   39.1070 C   0  0  0  0  0
   91.5980  -11.9120   38.8830 N   0  0  0  0  0
   92.1160  -13.2520   39.1300 C   0  0  0  0  0
   92.8350  -13.4780   40.4660 C   0  0  0  0  0
   92.2630  -14.0840   41.3720 O   0  0  0  0  0
   93.0330  -13.6990   37.9750 C   0  0  0  0  0
   93.6030  -14.9760   38.2880 O   0  0  0  0  0
   94.1340  -12.6780   37.7340 C   0  0  0  0  0
   94.0750  -13.0080   40.5990 N   0  0  0  0  0
   94.8350  -13.2000   41.8410 C   0  0  0  0  0
   94.1020  -12.7440   43.1070 C   0  0  0  0  0
   94.1610  -13.4160   44.1360 O   0  0  0  0  0
   96.1980  -12.4830   41.7960 C   0  0  0  0  0
   97.0780  -13.1000   40.7090 C   0  0  0  0  0
   96.8890  -12.5950   43.1400 C   0  0  0  0  0
   97.3780  -14.5850   40.9160 C   0  0  0  0  0
   93.4260  -11.6000   43.0230 N   0  0  0  0  0
   92.6690  -11.0490   44.1460 C   0  0  0  0  0
   91.5340  -12.0100   44.5090 C   0  0  0  0  0
   91.1740  -12.1670   45.6810 O   0  0  0  0  0
   92.0710   -9.7020   43.7490 C   0  0  0  0  0
   91.9010   -8.5650   44.7570 C   0  0  0  0  0
   90.5850   -7.8620   44.4420 C   0  0  0  0  0
   91.9100   -9.0710   46.1830 C   0  0  0  0  0
   90.9670  -12.6510   43.4940 N   0  0  0  0  0
   89.8760  -13.5880   43.7150 C   0  0  0  0  0
   90.4000  -14.8180   44.4620 C   0  0  0  0  0
   89.7800  -15.2810   45.4240 O   0  0  0  0  0
   89.2700  -14.0040   42.3720 C   0  0  0  0  0
   87.9370  -14.6940   42.4800 C   0  0  0  0  0
   86.7490  -13.9760   42.3750 C   0  0  0  0  0
   87.8610  -16.0740   42.6910 C   0  0  0  0  0
   85.5120  -14.6170   42.4750 C   0  0  0  0  0
   86.6340  -16.7280   42.7960 C   0  0  0  0  0
   85.4640  -15.9960   42.6850 C   0  0  0  0  0
   84.2520  -16.6410   42.7790 O   0  0  0  0  0
   91.5420  -15.3390   44.0110 N   0  0  0  0  0
   92.1780  -16.5130   44.6190 C   0  0  0  0  0
   92.5010  -16.2230   46.0780 C   0  0  0  0  0
   92.4930  -17.1150   46.9260 O   0  0  0  0  0
   93.5050  -16.8780   43.8870 C   0  0  0  0  0
   93.2110  -17.4350   42.6010 O   0  0  0  0  0
   94.3250  -17.8790   44.7000 C   0  0  0  0  0
   92.7890  -14.9590   46.3490 N   0  0  0  0  0
   93.1260  -14.5030   47.6830 C   0  0  0  0  0
   91.8780  -14.2620   48.5290 C   0  0  0  0  0
   91.8880  -14.5260   49.7260 O   0  0  0  0  0
   93.9520  -13.2090   47.5840 C   0  0  0  0  0
   95.4120  -13.2210   48.0510 C   0  0  0  0  0
   96.0790  -14.5390   47.6930 C   0  0  0  0  0
   96.1560  -12.0650   47.4120 C   0  0  0  0  0
   90.8030  -13.7810   47.9060 N   0  0  0  0  0
   89.5740  -13.4820   48.6370 C   0  0  0  0  0
   88.6110  -14.6310   48.8650 C   0  0  0  0  0
   87.7830  -14.5770   49.7800 O   0  0  0  0  0
   88.8180  -12.3390   47.9640 C   0  0  0  0  0
   89.4970  -10.9740   48.0320 C   0  0  0  0  0
   88.5050   -9.9170   47.5770 C   0  0  0  0  0
   89.9620  -10.6900   49.4590 C   0  0  0  0  0
   88.6960  -15.6600   48.0320 N   0  0  0  0  0
   87.8230  -16.8160   48.1860 C   0  0  0  0  0
   88.4580  -17.8640   49.0970 C   0  0  0  0  0
   87.7900  -18.2940   50.0650 O   0  0  0  0  0
   87.5170  -17.4440   46.8300 C   0  0  0  0  0
   86.8500  -18.6850   47.0100 O   0  0  0  0  0
   89.6180  -18.2450   48.8240 O   0  0  0  0  0
   87.1246   -8.6341   32.8833 H   0  0  0  0  0
   86.0237   -8.0273   33.9772 H   0  0  0  0  0
   86.9181   -6.9872   33.0312 H   0  0  0  0  0
   88.9522   -7.6586   34.0993 H   0  0  0  0  0
   86.8258   -6.9575   36.1530 H   0  0  0  0  0
   87.5519   -5.7772   34.9963 H   0  0  0  0  0
   88.5757   -5.7672   37.0576 H   0  0  0  0  0
   86.4384   -8.6592   36.4339 H   0  0  0  0  0
   86.3624  -10.4976   37.8537 H   0  0  0  0  0
   87.5476  -12.1597   35.6605 H   0  0  0  0  0
   85.8797  -11.4327   35.5040 H   0  0  0  0  0
   87.2815  -14.7100   36.4857 H   0  0  0  0  0
   83.8932  -14.1749   39.0187 H   0  0  0  0  0
   91.0175   -9.5891   38.6818 H   0  0  0  0  0
   90.7742   -8.6556   40.9508 H   0  0  0  0  0
   89.4893   -9.6861   41.3490 H   0  0  0  0  0
   89.4184   -7.3361   39.3922 H   0  0  0  0  0
   88.3881   -7.5879   40.7416 H   0  0  0  0  0
   87.1765   -9.3776   39.6650 H   0  0  0  0  0
   87.5057   -8.3700   38.3349 H   0  0  0  0  0
   91.9453  -11.3829   38.0831 H   0  0  0  0  0
   91.2161  -13.8640   39.1909 H   0  0  0  0  0
   92.4401  -13.7782   37.0638 H   0  0  0  0  0
   94.1744  -15.2551   37.5688 H   0  0  0  0  0
   93.6872  -11.7175   37.4773 H   0  0  0  0  0
   94.7332  -12.5714   38.6383 H   0  0  0  0  0
   94.7680  -13.0159   36.9142 H   0  0  0  0  0
   94.5048  -12.5049   39.8227 H   0  0  0  0  0
   94.9694  -14.2801   41.8998 H   0  0  0  0  0
   96.0338  -11.4300   41.5671 H   0  0  0  0  0
   98.0318  -12.5727   40.7287 H   0  0  0  0  0
   96.5379  -13.0086   39.7667 H   0  0  0  0  0
   96.2664  -12.1340   43.9067 H   0  0  0  0  0
   97.0448  -13.6467   43.3805 H   0  0  0  0  0
   97.8511  -12.0846   43.0961 H   0  0  0  0  0
   97.8970  -14.7207   41.8649 H   0  0  0  0  0
   96.4429  -15.1450   40.9285 H   0  0  0  0  0
   98.0072  -14.9442   40.1016 H   0  0  0  0  0
   93.4366  -11.0880   42.1408 H   0  0  0  0  0
   93.3334  -10.9172   45.0000 H   0  0  0  0  0
   91.0480   -9.9487   43.4648 H   0  0  0  0  0
   92.7881   -9.3040   43.0311 H   0  0  0  0  0
   92.7383   -7.8724   44.6711 H   0  0  0  0  0
   90.6191   -7.4680   43.4263 H   0  0  0  0  0
   89.7642   -8.5739   44.5296 H   0  0  0  0  0
   90.4343   -7.0434   45.1458 H   0  0  0  0  0
   91.0913   -9.7770   46.3218 H   0  0  0  0  0
   92.8586   -9.5685   46.3847 H   0  0  0  0  0
   91.7866   -8.2307   46.8661 H   0  0  0  0  0
   91.3013  -12.4841   42.5449 H   0  0  0  0  0
   89.1029  -13.1095   44.3162 H   0  0  0  0  0
   89.9610  -14.7119   41.9143 H   0  0  0  0  0
   89.1131  -13.0925   41.7953 H   0  0  0  0  0
   86.7846  -12.8988   42.2125 H   0  0  0  0  0
   88.7815  -16.6516   42.7753 H   0  0  0  0  0
   84.5891  -14.0433   42.3895 H   0  0  0  0  0
   86.5963  -17.8044   42.9637 H   0  0  0  0  0
   84.4000  -17.5786   42.9224 H   0  0  0  0  0
   91.9933  -14.9017   43.2076 H   0  0  0  0  0
   91.4825  -17.3483   44.5368 H   0  0  0  0  0
   94.0906  -15.9661   43.7704 H   0  0  0  0  0
   94.0313  -17.6578   42.1549 H   0  0  0  0  0
   94.5692  -17.4444   45.6693 H   0  0  0  0  0
   93.7442  -18.7900   44.8447 H   0  0  0  0  0
   95.2444  -18.1141   44.1638 H   0  0  0  0  0
   92.7730  -14.2793   45.5886 H   0  0  0  0  0
   93.7099  -15.2821   48.1731 H   0  0  0  0  0
   93.4508  -12.5047   48.2480 H   0  0  0  0  0
   94.0003  -12.9879   46.5178 H   0  0  0  0  0
   95.4377  -13.1119   49.1352 H   0  0  0  0  0
   95.5466  -15.3575   48.1773 H   0  0  0  0  0
   96.0529  -14.6761   46.6120 H   0  0  0  0  0
   97.1142  -14.5252   48.0338 H   0  0  0  0  0
   96.1198  -12.1665   46.3273 H   0  0  0  0  0
   95.6873  -11.1259   47.7062 H   0  0  0  0  0
   97.1940  -12.0744   47.7446 H   0  0  0  0  0
   90.8388  -13.6185   46.8997 H   0  0  0  0  0
   89.9366  -13.2138   49.6293 H   0  0  0  0  0
   87.8692  -12.2408   48.4915 H   0  0  0  0  0
   88.7421  -12.5961   46.9075 H   0  0  0  0  0
   90.3715  -10.9599   47.3815 H   0  0  0  0  0
   88.1953  -10.1279   46.5534 H   0  0  0  0  0
   87.6339   -9.9322   48.2320 H   0  0  0  0  0
   88.9767   -8.9353   47.6203 H   0  0  0  0  0
   89.1016  -10.6961   50.1281 H   0  0  0  0  0
   90.6702  -11.4585   49.7687 H   0  0  0  0  0
   90.4448   -9.7134   49.4949 H   0  0  0  0  0
   89.3800  -15.6416   47.2755 H   0  0  0  0  0
   86.8947  -16.4689   48.6397 H   0  0  0  0  0
   86.9330  -17.8616   50.0782 H   0  0  0  0  0
   88.4507  -17.6128   46.2936 H   0  0  0  0  0
   86.8765  -16.7716   46.2593 H   0  0  0  0  0
   86.6614  -19.0730   46.1524 H   0  0  0  0  0
  1  2  1  0  0  0
  2  3  1  0  0  0
  2  5  1  0  0  0
  3  4  2  0  0  0
  3  7  1  0  0  0
  5  6  1  0  0  0
  7  8  1  0  0  0
  8  9  1  0  0  0
  8 11  1  0  0  0
  9 10  2  0  0  0
  9 17  1  0  0  0
 11 12  1  0  0  0
 12 13  4  0  0  0
 12 14  4  0  0  0
 13 15  4  0  0  0
 14 16  4  0  0  0
 15 16  4  0  0  0
 17 18  1  0  0  0
 17 23  1  0  0  0
 18 19  1  0  0  0
 18 21  1  0  0  0
 19 20  2  0  0  0
 19 24  1  0  0  0
 21 22  1  0  0  0
 22 23  1  0  0  0
 24 25  1  0  0  0
 25 26  1  0  0  0
 25 28  1  0  0  0
 26 27  2  0  0  0
 26 31  1  0  0  0
 28 29  1  0  0  0
 28 30  1  0  0  0
 31 32  1  0  0  0
 32 33  1  0  0  0
 32 35  1  0  0  0
 33 34  2  0  0  0
 33 39  1  0  0  0
 35 36  1  0  0  0
 35 37  1  0  0  0
 36 38  1  0  0  0
 39 40  1  0  0  0
 40 41  1  0  0  0
 40 43  1  0  0  0
 41 42  2  0  0  0
 41 47  1  0  0  0
 43 44  1  0  0  0
 44 45  1  0  0  0
 44 46  1  0  0  0
 47 48  1  0  0  0
 48 49  1  0  0  0
 48 51  1  0  0  0
 49 50  2  0  0  0
 49 59  1  0  0  0
 51 52  1  0  0  0
 52 53  4  0  0  0
 52 54  4  0  0  0
 53 55  4  0  0  0
 54 56  4  0  0  0
 55 57  4  0  0  0
 56 57  4  0  0  0
 57 58  1  0  0  0
 59 60  1  0  0  0
 60 61  1  0  0  0
 60 63  1  0  0  0
 61 62  2  0  0  0
 61 66  1  0  0  0
 63 64  1  0  0  0
 63 65  1  0  0  0
 66 67  1  0  0  0
 67 68  1  0  0  0
 67 70  1  0  0  0
 68 69  2  0  0  0
 68 74  1  0  0  0
 70 71  1  0  0  0
 71 72  1  0  0  0
 71 73  1  0  0  0
 74 75  1  0  0  0
 75 76  1  0  0  0
 75 78  1  0  0  0
 76 77  2  0  0  0
 76 82  1  0  0  0
 78 79  1  0  0  0
 79 80  1  0  0  0
 79 81  1  0  0  0
 82 83  1  0  0  0
 83 84  1  0  0  0
 83 86  1  0  0  0
 84 85  1  0  0  0
 84 88  2  0  0  0
 86 87  1  0  0  0
  1 89  1  0  0  0
  1 90  1  0  0  0
  1 91  1  0  0  0
  2 92  1  0  0  0
  5 93  1  0  0  0
  5 94  1  0  0  0
  6 95  1  0  0  0
  7 96  1  0  0  0
  8 97  1  0  0  0
 11 98  1  0  0  0
 11 99  1  0  0  0
 14100  1  0  0  0
 15101  1  0  0  0
 18102  1  0  0  0
 21103  1  0  0  0
 21104  1  0  0  0
 22105  1  0  0  0
 22106  1  0  0  0
 23107  1  0  0  0
 23108  1  0  0  0
 24109  1  0  0  0
 25110  1  0  0  0
 28111  1  0  0  0
 29112  1  0  0  0
 30113  1  0  0  0
 30114  1  0  0  0
 30115  1  0  0  0
 31116  1  0  0  0
 32117  1  0  0  0
 35118  1  0  0  0
 36119  1  0  0  0
 36120  1  0  0  0
 37121  1  0  0  0
 37122  1  0  0  0
 37123  1  0  0  0
 38124  1  0  0  0
 38125  1  0  0  0
 38126  1  0  0  0
 39127  1  0  0  0
 40128  1  0  0  0
 43129  1  0  0  0
 43130  1  0  0  0
 44131  1  0  0  0
 45132  1  0  0  0
 45133  1  0  0  0
 45134  1  0  0  0
 46135  1  0  0  0
 46136  1  0  0  0
 46137  1  0  0  0
 47138  1  0  0  0
 48139  1  0  0  0
 51140  1  0  0  0
 51141  1  0  0  0
 53142  1  0  0  0
 54143  1  0  0  0
 55144  1  0  0  0
 56145  1  0  0  0
 58146  1  0  0  0
 59147  1  0  0  0
 60148  1  0  0  0
 63149  1  0  0  0
 64150  1  0  0  0
 65151  1  0  0  0
 65152  1  0  0  0
 65153  1  0  0  0
 66154  1  0  0  0
 67155  1  0  0  0
 70156  1  0  0  0
 70157  1  0  0  0
 71158  1  0  0  0
 72159  1  0  0  0
 72160  1  0  0  0
 72161  1  0  0  0
 73162  1  0  0  0
 73163  1  0  0  0
 73164  1  0  0  0
 74165  1  0  0  0
 75166  1  0  0  0
 78167  1  0  0  0
 78168  1  0  0  0
 79169  1  0  0  0
 80170  1  0  0  0
 80171  1  0  0  0
 80172  1  0  0  0
 81173  1  0  0  0
 81174  1  0  0  0
 81175  1  0  0  0
 82176  1  0  0  0
 83177  1  0  0  0
 85178  1  0  0  0
 86179  1  0  0  0
 86180  1  0  0  0
 87181  1  0  0  0
M  END
$$$$
