4iqu_ligand
  -I-interpret- 

 38 39  0  0  0  0  0  0  0  0999 V2000
   18.8400    8.6700   18.6050 O   0  0  0  0  0
   20.6870    9.2140   13.8110 O   0  0  0  0  0
   12.5220    9.3800   21.8360 O   0  0  0  0  0
   18.6760    8.6680   13.5410 O   0  0  0  0  0
   20.5230    8.7140   16.6440 O   0  0  0  0  0
    6.9500    8.9560   18.6200 F   0  0  0  0  0
   16.4880    8.1160   18.2450 C   0  0  0  0  0
   16.0910    7.0040   19.2120 C   0  0  0  0  0
   18.0790    8.7680   16.4240 C   0  0  0  0  0
    9.0410    7.8180   18.7510 C   0  0  0  0  0
    8.5930    9.8500   20.1190 C   0  0  0  0  0
   10.3450    7.7370   19.3240 C   0  0  0  0  0
    9.8980    9.7610   20.6860 C   0  0  0  0  0
   13.4280    6.5690   21.1850 C   0  0  0  0  0
   13.7010    7.5690   19.2710 C   0  0  0  0  0
   14.3520    5.9610   20.4220 N   0  0  0  0  0
   17.9120    8.4800   17.8500 C   0  0  0  0  0
   19.5840    8.9820   14.3320 C   0  0  0  0  0
   19.4420    9.0950   15.8820 C   0  0  0  0  0
   12.1560    8.6050   20.8930 C   0  0  0  0  0
    8.1940    8.8780   19.1660 C   0  0  0  0  0
   14.8000    6.8750   19.5780 C   0  0  0  0  0
   10.8060    8.6950   20.2970 C   0  0  0  0  0
   13.0430    7.6280   20.4670 C   0  0  0  0  0
   17.8665    8.5087   14.0318 H   0  0  0  0  0
   21.3335    8.9738   16.2000 H   0  0  0  0  0
   16.1646    9.0091   18.7798 H   0  0  0  0  0
   16.0751    7.7564   17.3025 H   0  0  0  0  0
   16.8445    6.3203   19.6031 H   0  0  0  0  0
   17.4936    9.6721   16.2568 H   0  0  0  0  0
   17.8001    7.8411   15.9229 H   0  0  0  0  0
    8.7051    7.0868   18.0157 H   0  0  0  0  0
    7.9140   10.6506   20.4125 H   0  0  0  0  0
   11.0100    6.9294   19.0179 H   0  0  0  0  0
   10.2184   10.5008   21.4196 H   0  0  0  0  0
   13.0721    6.2660   22.1697 H   0  0  0  0  0
   13.4036    7.9841   18.3080 H   0  0  0  0  0
   19.5001   10.1730   16.0321 H   0  0  0  0  0
 17  1  2  0  0  0
 18  2  2  0  0  0
 20  3  2  0  0  0
 18  4  1  0  0  0
 19  5  1  0  0  0
 21  6  1  0  0  0
  8  7  1  0  0  0
  7 17  1  0  0  0
 22  8  2  0  0  0
 17  9  1  0  0  0
  9 19  1  0  0  0
 12 10  4  0  0  0
 10 21  4  0  0  0
 13 11  4  0  0  0
 11 21  4  0  0  0
 23 12  4  0  0  0
 23 13  4  0  0  0
 14 16  2  0  0  0
 24 14  1  0  0  0
 15 22  1  0  0  0
 24 15  2  0  0  0
 22 16  1  0  0  0
 19 18  1  0  0  0
 20 23  1  0  0  0
 20 24  1  0  0  0
  4 25  1  0  0  0
  5 26  1  0  0  0
  7 27  1  0  0  0
  7 28  1  0  0  0
  8 29  1  0  0  0
  9 30  1  0  0  0
  9 31  1  0  0  0
 10 32  1  0  0  0
 11 33  1  0  0  0
 12 34  1  0  0  0
 13 35  1  0  0  0
 14 36  1  0  0  0
 15 37  1  0  0  0
 19 38  1  0  0  0
M  END
$$$$
