3fkt_ligand
  -I-interpret- 

 71 75  0  0  0  0  0  0  0  0999 V2000
   34.8350   41.6210   -0.0400 C   0  0  0  0  0
   34.4260   42.9580    0.0910 C   0  0  0  0  0
   33.5250   43.4020    1.0740 C   0  0  0  0  0
   32.8660   40.0550    2.7710 C   0  0  0  0  0
   34.2920   44.9160   -1.4700 C   0  0  0  0  0
   34.8910   45.4960   -2.7380 C   0  0  0  0  0
   31.5780   39.8480   -2.2250 C   0  0  0  0  0
   30.4730   40.3190   -1.5080 C   0  0  0  0  0
   30.2770   41.6920   -1.3130 C   0  0  0  0  0
   31.1740   42.6420   -1.8010 C   0  0  0  0  0
   32.2830   42.1860   -2.5060 C   0  0  0  0  0
   32.4610   40.8160   -2.7000 C   0  0  0  0  0
   29.1670   39.7340    1.3990 C   0  0  0  0  0
   31.9090   38.4130    1.1060 C   0  0  0  0  0
   30.4720   40.2690    2.0240 C   0  0  0  0  0
   28.2140   37.9180   -0.0620 C   0  0  0  0  0
   28.5770   38.9670   -1.8740 C   0  0  0  0  0
   26.2760   35.0260   -0.0550 C   0  0  0  0  0
   24.0650   35.6830    1.8750 C   0  0  0  0  0
   33.4980   40.3460   -3.3670 F   0  0  0  0  0
   34.9680   43.7710   -0.8350 N   0  0  0  0  0
   33.2840   45.4210   -1.0090 O   0  0  0  0  0
   31.6400   39.3290    2.2380 N   0  3  0  0  0
   28.4450   39.2480   -3.0630 O   0  0  0  0  0
   29.5930   39.4000   -1.0620 N   0  0  0  0  0
   33.0130   42.4520    1.9730 C   0  0  0  0  0
   27.6930   38.1970   -1.2160 N   0  0  0  0  0
   33.4280   41.1120    1.8430 C   0  0  0  0  0
   27.4540   37.1750    0.9480 N   0  0  0  0  0
   34.3220   40.6820    0.8640 C   0  0  0  0  0
   29.4570   38.7550    0.2450 C   0  0  0  0  0
   30.6000   37.7760    0.6200 C   0  0  0  0  0
   25.3780   33.8980    0.4630 C   0  0  0  0  0
   26.5270   36.0520    1.0440 C   0  0  0  0  0
   25.2260   36.6530    1.5750 C   0  0  0  0  0
   24.0500   34.3910    1.0520 C   0  0  0  0  0
   35.5320   41.3223   -0.8230 H   0  0  0  0  0
   33.2328   44.4502    1.1367 H   0  0  0  0  0
   33.6451   39.3049    2.9068 H   0  0  0  0  0
   32.5609   40.5646    3.6849 H   0  0  0  0  0
   34.1602   45.4351   -3.5444 H   0  0  0  0  0
   35.1598   46.5385   -2.5675 H   0  0  0  0  0
   35.7818   44.9295   -3.0096 H   0  0  0  0  0
   31.7392   38.7846   -2.4021 H   0  0  0  0  0
   29.3975   42.0280   -0.7637 H   0  0  0  0  0
   31.0113   43.7070   -1.6353 H   0  0  0  0  0
   33.0087   42.8949   -2.9045 H   0  0  0  0  0
   28.6012   40.5775    1.0036 H   0  0  0  0  0
   28.6056   39.2050    2.1691 H   0  0  0  0  0
   32.5884   37.6270    1.4357 H   0  0  0  0  0
   32.3573   38.9772    0.2882 H   0  0  0  0  0
   30.1870   40.5872    3.0268 H   0  0  0  0  0
   30.8384   41.0054    1.3088 H   0  0  0  0  0
   25.7816   35.5171   -0.8931 H   0  0  0  0  0
   27.2298   34.6038   -0.3713 H   0  0  0  0  0
   23.1462   36.2159    1.6301 H   0  0  0  0  0
   24.1740   35.3839    2.9175 H   0  0  0  0  0
   35.9278   43.5781   -1.1213 H   0  0  0  0  0
   31.3515   38.6898    2.9786 H   0  0  0  0  0
   32.3106   42.7448    2.7534 H   0  0  0  0  0
   27.6277   37.5656    1.8741 H   0  0  0  0  0
   34.6165   39.6343    0.8029 H   0  0  0  0  0
   30.2267   37.1777    1.4512 H   0  0  0  0  0
   30.8469   37.2338   -0.2928 H   0  0  0  0  0
   25.9199   33.3889    1.2600 H   0  0  0  0  0
   25.1407   33.2542   -0.3840 H   0  0  0  0  0
   27.0730   35.3498    1.6740 H   0  0  0  0  0
   25.4820   37.1093    2.5312 H   0  0  0  0  0
   24.8626   37.3108    0.7855 H   0  0  0  0  0
   23.4130   34.6023    0.1931 H   0  0  0  0  0
   23.7327   33.6107    1.7438 H   0  0  0  0  0
  1  2  4  0  0  0
 30  1  4  0  0  0
  3  2  4  0  0  0
  2 21  1  0  0  0
 26  3  4  0  0  0
 23  4  1  0  0  0
  4 28  1  0  0  0
  5  6  1  0  0  0
 21  5  1  0  0  0
  5 22  2  0  0  0
  8  7  4  0  0  0
  7 12  4  0  0  0
  8  9  4  0  0  0
 25  8  1  0  0  0
  9 10  4  0  0  0
 10 11  4  0  0  0
 12 11  4  0  0  0
 12 20  1  0  0  0
 13 15  1  0  0  0
 31 13  1  0  0  0
 14 23  1  0  0  0
 32 14  1  0  0  0
 15 23  1  0  0  0
 16 27  2  0  0  0
 29 16  1  0  0  0
 16 31  1  0  0  0
 17 24  2  0  0  0
 25 17  1  0  0  0
 27 17  1  0  0  0
 33 18  1  0  0  0
 18 34  1  0  0  0
 19 35  1  0  0  0
 36 19  1  0  0  0
 31 25  1  0  0  0
 28 26  4  0  0  0
 28 30  4  0  0  0
 34 29  1  0  0  0
 31 32  1  0  0  0
 33 36  1  0  0  0
 34 35  1  0  0  0
  1 37  1  0  0  0
  3 38  1  0  0  0
  4 39  1  0  0  0
  4 40  1  0  0  0
  6 41  1  0  0  0
  6 42  1  0  0  0
  6 43  1  0  0  0
  7 44  1  0  0  0
  9 45  1  0  0  0
 10 46  1  0  0  0
 11 47  1  0  0  0
 13 48  1  0  0  0
 13 49  1  0  0  0
 14 50  1  0  0  0
 14 51  1  0  0  0
 15 52  1  0  0  0
 15 53  1  0  0  0
 18 54  1  0  0  0
 18 55  1  0  0  0
 19 56  1  0  0  0
 19 57  1  0  0  0
 21 58  1  0  0  0
 23 59  1  0  0  0
 26 60  1  0  0  0
 29 61  1  0  0  0
 30 62  1  0  0  0
 32 63  1  0  0  0
 32 64  1  0  0  0
 33 65  1  0  0  0
 33 66  1  0  0  0
 34 67  1  0  0  0
 35 68  1  0  0  0
 35 69  1  0  0  0
 36 70  1  0  0  0
 36 71  1  0  0  0
M  END
$$$$
