4cae_ligand
  -I-interpret- 

 54 58  0  0  0  0  0  0  0  0999 V2000
   21.6580   49.3420   63.5070 C   0  0  0  0  0
   22.9450   49.5620   64.1260 O   0  0  0  0  0
   24.0720   48.8350   63.8240 C   0  0  0  0  0
   25.2260   49.1650   64.5210 C   0  0  0  0  0
   26.4110   48.5210   64.3300 C   0  0  0  0  0
   26.5280   47.4810   63.3850 C   0  0  0  0  0
   25.3480   47.1050   62.6830 C   0  0  0  0  0
   24.1090   47.7870   62.8870 C   0  0  0  0  0
   25.4940   45.9780   61.6870 C   0  0  0  0  0
   25.3870   44.6370   62.4060 C   0  0  0  0  0
   24.2770   43.9200   62.7040 O   0  0  0  0  0
   24.7090   42.8340   63.3730 C   0  0  0  0  0
   25.9760   42.8030   63.6030 N   0  0  0  0  0
   26.4150   43.9810   62.9700 N   0  0  0  0  0
   23.7230   41.8390   63.8040 C   0  0  0  0  0
   22.1840   41.8120   63.0780 S   0  0  0  0  0
   21.6890   40.5500   64.0910 C   0  0  0  0  0
   20.4610   39.9780   64.0550 C   0  0  0  0  0
   20.1940   38.9090   64.9300 C   0  0  0  0  0
   21.1390   38.4500   65.8270 C   0  0  0  0  0
   22.4550   38.9430   65.9140 C   0  0  0  0  0
   22.7370   39.9960   65.0390 C   0  0  0  0  0
   23.9100   40.8310   64.8600 C   0  0  0  0  0
   25.0650   40.6150   65.5830 O   0  0  0  0  0
   24.8110   40.5490   67.0110 C   0  0  0  0  0
   25.6670   39.4340   67.5940 C   0  0  0  0  0
   27.1540   39.7090   67.3360 C   0  0  0  0  0
   27.5070   41.0000   67.9340 N   0  3  0  0  0
   26.6850   42.1320   67.4790 C   0  0  0  0  0
   25.1740   41.9330   67.6020 C   0  0  0  0  0
   21.7432   49.4932   62.4309 H   0  0  0  0  0
   21.3297   48.3220   63.7070 H   0  0  0  0  0
   20.9337   50.0454   63.9178 H   0  0  0  0  0
   25.1822   49.9729   65.2514 H   0  0  0  0  0
   27.2818   48.8140   64.9164 H   0  0  0  0  0
   27.4813   46.9860   63.1999 H   0  0  0  0  0
   23.2158   47.5024   62.3308 H   0  0  0  0  0
   26.4670   46.0500   61.2009 H   0  0  0  0  0
   24.7028   46.0513   60.9408 H   0  0  0  0  0
   19.6981   40.3376   63.3645 H   0  0  0  0  0
   19.2153   38.4302   64.8993 H   0  0  0  0  0
   20.8468   37.6542   66.5122 H   0  0  0  0  0
   23.1927   38.5372   66.6063 H   0  0  0  0  0
   23.7698   40.3275   67.2453 H   0  0  0  0  0
   25.3932   38.4917   67.1194 H   0  0  0  0  0
   25.4974   39.3822   68.6695 H   0  0  0  0  0
   27.3438   39.7350   66.2630 H   0  0  0  0  0
   27.7582   38.9185   67.7811 H   0  0  0  0  0
   28.4686   41.2017   67.6599 H   0  0  0  0  0
   27.3610   40.9118   68.9396 H   0  0  0  0  0
   26.8970   42.2653   66.4182 H   0  0  0  0  0
   26.9411   42.9793   68.1150 H   0  0  0  0  0
   24.8767   41.9798   68.6496 H   0  0  0  0  0
   24.6498   42.7188   67.0582 H   0  0  0  0  0
  1  2  1  0  0  0
  2  3  1  0  0  0
  3  4  4  0  0  0
  3  8  4  0  0  0
  4  5  4  0  0  0
  5  6  4  0  0  0
  6  7  4  0  0  0
  7  8  4  0  0  0
  7  9  1  0  0  0
  9 10  1  0  0  0
 10 11  4  0  0  0
 10 14  4  0  0  0
 11 12  4  0  0  0
 12 13  4  0  0  0
 12 15  1  0  0  0
 13 14  4  0  0  0
 15 16  4  0  0  0
 15 23  4  0  0  0
 16 17  4  0  0  0
 17 18  4  0  0  0
 17 22  4  0  0  0
 18 19  4  0  0  0
 19 20  4  0  0  0
 20 21  4  0  0  0
 21 22  4  0  0  0
 22 23  4  0  0  0
 23 24  1  0  0  0
 24 25  1  0  0  0
 25 26  1  0  0  0
 25 30  1  0  0  0
 26 27  1  0  0  0
 27 28  1  0  0  0
 28 29  1  0  0  0
 29 30  1  0  0  0
  1 31  1  0  0  0
  1 32  1  0  0  0
  1 33  1  0  0  0
  4 34  1  0  0  0
  5 35  1  0  0  0
  6 36  1  0  0  0
  8 37  1  0  0  0
  9 38  1  0  0  0
  9 39  1  0  0  0
 18 40  1  0  0  0
 19 41  1  0  0  0
 20 42  1  0  0  0
 21 43  1  0  0  0
 25 44  1  0  0  0
 26 45  1  0  0  0
 26 46  1  0  0  0
 27 47  1  0  0  0
 27 48  1  0  0  0
 28 49  1  0  0  0
 28 50  1  0  0  0
 29 51  1  0  0  0
 29 52  1  0  0  0
 30 53  1  0  0  0
 30 54  1  0  0  0
M  END
$$$$
