5ubt_ligand
  -I-interpret- 

 66 71  0  0  0  0  0  0  0  0999 V2000
   35.4340   15.1020   33.1370 C   0  0  0  0  0
   34.8810   16.3690   32.7600 C   0  0  0  0  0
   35.5800   17.4930   33.0200 N   0  0  0  0  0
   37.1310   13.8820   34.0830 C   0  0  0  0  0
   36.1420   13.0100   33.6570 C   0  0  0  0  0
   35.0820   13.7610   33.0670 C   0  0  0  0  0
   33.8560   13.1760   32.5010 C   0  0  0  0  0
   38.4170   13.5750   34.7500 C   0  0  0  0  0
   37.3950   16.3000   34.0220 N   0  0  0  0  0
   31.7730   12.6990   31.9630 C   0  0  0  0  0
   36.6760   15.1610   33.7530 N   0  0  0  0  0
   36.7760   17.3720   33.6280 C   0  0  0  0  0
   33.6920   16.4790   32.1560 N   0  0  0  0  0
   33.7900   12.1220   31.6330 N   0  0  0  0  0
   32.5000   11.8130   31.2890 N   0  0  0  0  0
   32.5470   13.5670   32.7280 C   0  0  0  0  0
   34.9430   11.3710   31.1000 C   0  0  0  0  0
   34.8800   11.3070   29.5750 C   0  0  0  0  0
   35.9060   10.3480   29.0210 C   0  0  0  0  0
   35.7810    9.0520   29.6140 O   0  0  0  0  0
   36.0420    9.1290   31.0190 C   0  0  0  0  0
   35.0110    9.9800   31.7240 C   0  0  0  0  0
   38.4810   12.5760   35.7170 C   0  0  0  0  0
   39.6790   12.2840   36.3440 C   0  0  0  0  0
   40.8320   12.9800   36.0180 C   0  0  0  0  0
   40.7920   13.9870   35.0490 C   0  0  0  0  0
   39.5750   14.2800   34.4170 C   0  0  0  0  0
   41.9510   14.6860   34.7210 N   0  0  0  0  0
   41.9920   16.1270   34.9990 C   0  0  0  0  0
   43.4260   16.6460   34.9370 C   0  0  0  0  0
   44.0390   16.2900   33.6450 N   0  0  0  0  0
   44.0390   14.8340   33.4360 C   0  0  0  0  0
   42.6140   14.3060   33.4700 C   0  0  0  0  0
   44.5520   17.1780   32.7370 C   0  0  0  0  0
   44.4950   18.6410   33.0630 C   0  0  0  0  0
   45.0440   16.7890   31.6850 O   0  0  0  0  0
   36.1694   11.9249   33.7566 H   0  0  0  0  0
   30.6846   12.7413   31.9209 H   0  0  0  0  0
   37.3001   18.3089   33.8166 H   0  0  0  0  0
   33.1460   15.6428   31.9487 H   0  0  0  0  0
   33.3317   17.3991   31.9029 H   0  0  0  0  0
   32.1984   14.3783   33.3670 H   0  0  0  0  0
   35.8602   11.8949   31.3690 H   0  0  0  0  0
   35.0856   12.3011   29.1781 H   0  0  0  0  0
   33.8887   10.9596   29.2838 H   0  0  0  0  0
   36.8997   10.7367   29.2437 H   0  0  0  0  0
   35.7483   10.2543   27.9465 H   0  0  0  0  0
   37.0231    9.5808   31.1651 H   0  0  0  0  0
   36.0032    8.1221   31.4345 H   0  0  0  0  0
   34.0355    9.5029   31.6294 H   0  0  0  0  0
   35.2915   10.0773   32.7728 H   0  0  0  0  0
   37.5815   12.0202   35.9819 H   0  0  0  0  0
   39.7163   11.5002   37.1005 H   0  0  0  0  0
   41.7711   12.7421   36.5176 H   0  0  0  0  0
   39.5329   15.0636   33.6605 H   0  0  0  0  0
   41.5950   16.3051   35.9984 H   0  0  0  0  0
   41.3953   16.6481   34.2503 H   0  0  0  0  0
   44.0044   16.1951   35.7433 H   0  0  0  0  0
   43.4183   17.7309   35.0420 H   0  0  0  0  0
   44.6178   14.3574   34.2272 H   0  0  0  0  0
   44.4821   14.6103   32.4656 H   0  0  0  0  0
   42.0600   14.7323   32.6337 H   0  0  0  0  0
   42.6392   13.2185   33.4005 H   0  0  0  0  0
   45.5066   19.0461   33.0878 H   0  0  0  0  0
   43.9133   19.1594   32.3008 H   0  0  0  0  0
   44.0238   18.7769   34.0364 H   0  0  0  0  0
  1  2  4  0  0  0
  6  1  4  0  0  0
  1 11  4  0  0  0
  2  3  4  0  0  0
  2 13  1  0  0  0
  3 12  4  0  0  0
  5  4  4  0  0  0
  4  8  1  0  0  0
  4 11  4  0  0  0
  6  5  4  0  0  0
  7  6  1  0  0  0
  7 14  4  0  0  0
 16  7  4  0  0  0
  8 23  4  0  0  0
  8 27  4  0  0  0
 11  9  4  0  0  0
  9 12  4  0  0  0
 10 15  4  0  0  0
 10 16  4  0  0  0
 14 15  4  0  0  0
 14 17  1  0  0  0
 17 18  1  0  0  0
 17 22  1  0  0  0
 18 19  1  0  0  0
 19 20  1  0  0  0
 20 21  1  0  0  0
 21 22  1  0  0  0
 23 24  4  0  0  0
 24 25  4  0  0  0
 25 26  4  0  0  0
 26 27  4  0  0  0
 26 28  1  0  0  0
 28 29  1  0  0  0
 28 33  1  0  0  0
 29 30  1  0  0  0
 30 31  1  0  0  0
 31 32  1  0  0  0
 31 34  1  0  0  0
 32 33  1  0  0  0
 34 35  1  0  0  0
 34 36  2  0  0  0
  5 37  1  0  0  0
 10 38  1  0  0  0
 12 39  1  0  0  0
 13 40  1  0  0  0
 13 41  1  0  0  0
 16 42  1  0  0  0
 17 43  1  0  0  0
 18 44  1  0  0  0
 18 45  1  0  0  0
 19 46  1  0  0  0
 19 47  1  0  0  0
 21 48  1  0  0  0
 21 49  1  0  0  0
 22 50  1  0  0  0
 22 51  1  0  0  0
 23 52  1  0  0  0
 24 53  1  0  0  0
 25 54  1  0  0  0
 27 55  1  0  0  0
 29 56  1  0  0  0
 29 57  1  0  0  0
 30 58  1  0  0  0
 30 59  1  0  0  0
 32 60  1  0  0  0
 32 61  1  0  0  0
 33 62  1  0  0  0
 33 63  1  0  0  0
 35 64  1  0  0  0
 35 65  1  0  0  0
 35 66  1  0  0  0
M  END
$$$$
