6fse_ligand
  -I-interpret- 

 58 60  0  0  0  0  0  0  0  0999 V2000
   31.7200   22.0440    8.2350 O   0  0  0  0  0
   31.7380   22.8090    9.2020 C   0  0  0  0  0
   30.5060   22.9250    9.9660 N   0  0  0  0  0
   30.3310   23.8220   11.1810 C   0  0  0  0  0
   29.6130   23.1790   12.3900 C   0  0  0  0  0
   29.2530   22.2200    9.6610 C   0  0  0  0  0
   28.5680   21.5280   10.8610 C   0  0  0  0  0
   28.3010   22.5080   11.9940 C   0  0  0  0  0
   27.8190   21.8350   13.2650 N   0  3  0  0  0
   28.7970   20.8370   13.7450 C   0  0  0  0  0
   28.1860   20.0430   14.9490 C   0  0  0  0  0
   26.8190   19.4940   14.6750 N   0  3  0  0  0
   26.2510   19.0260   15.9680 C   0  0  0  0  0
   26.9230   17.7190   16.2990 C   0  0  0  0  0
   25.9760   20.4630   14.1760 C   0  0  0  0  0
   26.5270   21.1660   12.9400 C   0  0  0  0  0
   33.1500   23.5920    9.5040 C   0  0  0  0  0
   34.2550   23.3720    8.5740 O   0  0  0  0  0
   35.3250   24.3000    8.5030 C   0  0  0  0  0
   36.0210   24.5540    7.3020 C   0  0  0  0  0
   37.0970   25.4780    7.2230 C   0  0  0  0  0
   37.6050   26.2440    8.2980 C   0  0  0  0  0
   38.8060   27.2610    8.1580 C   0  0  0  0  0
   36.8850   25.9650    9.4860 C   0  0  0  0  0
   35.8040   25.0450    9.5970 C   0  0  0  0  0
   29.7090   24.6579   10.8610 H   0  0  0  0  0
   31.3337   24.0825   11.5198 H   0  0  0  0  0
   29.3866   23.9676   13.1076 H   0  0  0  0  0
   30.2705   22.4164   12.8076 H   0  0  0  0  0
   29.5057   21.4318    8.9518 H   0  0  0  0  0
   28.5542   22.9734    9.2976 H   0  0  0  0  0
   29.2299   20.7451   11.2312 H   0  0  0  0  0
   27.6142   21.1208   10.5256 H   0  0  0  0  0
   27.5411   23.1943   11.6203 H   0  0  0  0  0
   27.7043   22.5256   14.0068 H   0  0  0  0  0
   29.7052   21.3453   14.0689 H   0  0  0  0  0
   29.0355   20.1449   12.9374 H   0  0  0  0  0
   28.0978   20.7359   15.7858 H   0  0  0  0  0
   28.8434   19.1970   15.1494 H   0  0  0  0  0
   26.8998   18.7433   13.9892 H   0  0  0  0  0
   25.1718   18.8950   15.8895 H   0  0  0  0  0
   26.4279   19.7598   16.7543 H   0  0  0  0  0
   26.7223   16.9979   15.5067 H   0  0  0  0  0
   27.9981   17.8763   16.3851 H   0  0  0  0  0
   26.5331   17.3405   17.2439 H   0  0  0  0  0
   25.8456   21.2169   14.9523 H   0  0  0  0  0
   25.0457   19.9731   13.8884 H   0  0  0  0  0
   26.6931   20.4297   12.1537 H   0  0  0  0  0
   25.8101   21.9157   12.6052 H   0  0  0  0  0
   33.4959   23.2131   10.4657 H   0  0  0  0  0
   32.9167   24.6546    9.4365 H   0  0  0  0  0
   35.7213   24.0205    6.4000 H   0  0  0  0  0
   37.5719   25.6078    6.2505 H   0  0  0  0  0
   39.6943   26.7278    7.8192 H   0  0  0  0  0
   38.5449   28.0320    7.4331 H   0  0  0  0  0
   39.0044   27.7223    9.1254 H   0  0  0  0  0
   37.1830   26.4983   10.3887 H   0  0  0  0  0
   35.3281   24.9122   10.5686 H   0  0  0  0  0
  1  2  2  0  0  0
  2  3  1  0  0  0
  2 17  1  0  0  0
  3  4  1  0  0  0
  3  6  1  0  0  0
  4  5  1  0  0  0
  5  8  1  0  0  0
  6  7  1  0  0  0
  7  8  1  0  0  0
  8  9  1  0  0  0
  9 10  1  0  0  0
  9 16  1  0  0  0
 10 11  1  0  0  0
 11 12  1  0  0  0
 12 13  1  0  0  0
 12 15  1  0  0  0
 13 14  1  0  0  0
 15 16  1  0  0  0
 17 18  1  0  0  0
 18 19  1  0  0  0
 19 20  4  0  0  0
 19 25  4  0  0  0
 20 21  4  0  0  0
 21 22  4  0  0  0
 22 23  1  0  0  0
 22 24  4  0  0  0
 24 25  4  0  0  0
  4 26  1  0  0  0
  4 27  1  0  0  0
  5 28  1  0  0  0
  5 29  1  0  0  0
  6 30  1  0  0  0
  6 31  1  0  0  0
  7 32  1  0  0  0
  7 33  1  0  0  0
  8 34  1  0  0  0
  9 35  1  0  0  0
 10 36  1  0  0  0
 10 37  1  0  0  0
 11 38  1  0  0  0
 11 39  1  0  0  0
 12 40  1  0  0  0
 13 41  1  0  0  0
 13 42  1  0  0  0
 14 43  1  0  0  0
 14 44  1  0  0  0
 14 45  1  0  0  0
 15 46  1  0  0  0
 15 47  1  0  0  0
 16 48  1  0  0  0
 16 49  1  0  0  0
 17 50  1  0  0  0
 17 51  1  0  0  0
 20 52  1  0  0  0
 21 53  1  0  0  0
 23 54  1  0  0  0
 23 55  1  0  0  0
 23 56  1  0  0  0
 24 57  1  0  0  0
 25 58  1  0  0  0
M  END
$$$$
