1o2w_ligand
  -I-interpret- 

 42 44  0  0  0  0  0  0  0  0999 V2000
   44.0710   -2.9590   26.4710 C   0  0  0  0  0
   44.4520   -1.5810   26.4460 C   0  0  0  0  0
   44.3730   -0.7600   27.5730 C   0  0  0  0  0
   43.9140   -1.3460   28.7220 C   0  0  0  0  0
   43.5430   -2.6330   28.7990 C   0  0  0  0  0
   43.5980   -3.4890   27.7060 C   0  0  0  0  0
   44.1750   -3.7460   25.3230 C   0  0  0  0  0
   43.9530   -5.0330   25.4110 N   0  0  0  0  0
   44.4890   -3.1740   24.1790 N   0  0  0  0  0
   43.7440   -0.8520   29.8950 N   0  0  0  0  0
   43.1360   -2.9770   30.0040 N   0  0  0  0  0
   43.2930   -1.8190   30.6260 C   0  0  0  0  0
   43.0220   -1.6460   32.0050 C   0  0  0  0  0
   42.5790   -2.7150   32.8110 C   0  0  0  0  0
   42.3030   -2.5710   34.1780 C   0  0  0  0  0
   41.7700   -3.8380   34.9550 C   0  0  0  0  0
   40.2780   -4.0050   34.4620 C   0  0  0  0  0
   40.0010   -4.9840   33.7930 O   0  0  0  0  0
   39.4440   -3.1620   34.7340 O   0  0  0  0  0
   41.9590   -3.7570   36.5780 C   0  0  0  0  0
   42.9600   -4.8000   37.2550 C   0  0  0  0  0
   43.1590   -5.9060   36.7880 O   0  0  0  0  0
   43.5510   -4.4730   38.2740 O   0  0  0  0  0
   42.4850   -1.3000   34.7560 C   0  0  0  0  0
   42.9240   -0.2000   34.0050 C   0  0  0  0  0
   43.1830   -0.3900   32.6390 C   0  0  0  0  0
   43.5940    0.6950   31.9010 O   0  0  0  0  0
   43.1810    1.5710   34.8510 Br  0  0  0  0  0
   44.8180   -1.1551   25.5118 H   0  0  0  0  0
   44.6612    0.2907   27.5396 H   0  0  0  0  0
   43.2896   -4.5310   27.7905 H   0  0  0  0  0
   44.0215   -5.6203   24.5799 H   0  0  0  0  0
   44.5647   -3.7364   23.3314 H   0  0  0  0  0
   44.6565   -2.1686   24.1406 H   0  0  0  0  0
   42.4455   -3.6945   32.3518 H   0  0  0  0  0
   42.3564   -4.7290   34.7306 H   0  0  0  0  0
   40.7839   -5.5291   33.6862 H   0  0  0  0  0
   40.9778   -3.9755   36.9994 H   0  0  0  0  0
   42.3826   -2.7724   36.7757 H   0  0  0  0  0
   43.2939   -3.5812   38.5195 H   0  0  0  0  0
   42.2787   -1.1672   35.8180 H   0  0  0  0  0
   43.6541    1.4646   32.4717 H   0  0  0  0  0
  1  2  4  0  0  0
  1  6  4  0  0  0
  1  7  1  0  0  0
  2  3  4  0  0  0
  3  4  4  0  0  0
  4  5  4  0  0  0
  4 10  4  0  0  0
  5  6  4  0  0  0
  5 11  4  0  0  0
  7  8  2  0  0  0
  7  9  1  0  0  0
 10 12  4  0  0  0
 11 12  4  0  0  0
 12 13  1  0  0  0
 13 14  4  0  0  0
 13 26  4  0  0  0
 14 15  4  0  0  0
 15 16  1  0  0  0
 15 24  4  0  0  0
 16 17  1  0  0  0
 16 20  1  0  0  0
 17 18  1  0  0  0
 17 19  2  0  0  0
 20 21  1  0  0  0
 21 22  2  0  0  0
 21 23  1  0  0  0
 24 25  4  0  0  0
 25 26  4  0  0  0
 25 28  1  0  0  0
 26 27  1  0  0  0
  2 29  1  0  0  0
  3 30  1  0  0  0
  6 31  1  0  0  0
  8 32  1  0  0  0
  9 33  1  0  0  0
  9 34  1  0  0  0
 14 35  1  0  0  0
 16 36  1  0  0  0
 18 37  1  0  0  0
 20 38  1  0  0  0
 20 39  1  0  0  0
 23 40  1  0  0  0
 24 41  1  0  0  0
 27 42  1  0  0  0
M  END
$$$$
