4zx4_ligand
  -I-interpret- 

 46 47  0  0  0  0  0  0  0  0999 V2000
   18.4920  117.5020  129.7370 C   0  0  0  0  0
   16.9840  117.6870  129.5760 C   0  0  0  0  0
   16.2420  116.3780  129.8260 C   0  0  0  0  0
   16.7610  118.1700  128.1260 C   0  0  0  0  0
   16.4630  118.8630  130.4350 C   0  0  0  0  0
   17.2560  119.7300  130.7690 O   0  0  0  0  0
   15.1400  118.8990  130.7070 N   0  0  0  0  0
   14.5020  120.1420  131.1880 C   0  0  0  0  0
   13.5130  120.5140  130.0770 C   0  0  0  0  0
   12.6940  119.6880  129.6810 O   0  0  0  0  0
   13.7870  121.6650  129.4960 N   0  0  0  0  0
   12.9760  122.1070  128.4570 O   0  0  0  0  0
   13.9750  120.2170  132.4770 C   0  0  0  0  0
   13.6890  121.5020  132.9140 C   0  0  0  0  0
   13.2240  121.7180  134.2010 C   0  0  0  0  0
   13.8400  119.1290  133.3330 C   0  0  0  0  0
   13.3610  119.3310  134.6250 C   0  0  0  0  0
   13.0330  120.6170  135.0530 C   0  0  0  0  0
   12.6570  120.8750  136.3770 C   0  0  0  0  0
   11.5580  120.3310  137.0330 C   0  0  0  0  0
   11.3560  120.6920  138.3810 C   0  0  0  0  0
   10.2990  120.1940  138.9960 F   0  0  0  0  0
   12.2500  121.5450  139.0600 C   0  0  0  0  0
   12.1100  121.9300  140.3830 F   0  0  0  0  0
   13.3430  122.0630  138.4150 C   0  0  0  0  0
   14.1850  122.8570  139.1520 F   0  0  0  0  0
   13.5430  121.7390  137.0690 C   0  0  0  0  0
   19.0039  118.4121  129.4242 H   0  0  0  0  0
   18.7219  117.2952  130.7822 H   0  0  0  0  0
   18.8224  116.6671  129.1190 H   0  0  0  0  0
   16.3522  116.0935  130.8724 H   0  0  0  0  0
   15.1854  116.5107  129.5936 H   0  0  0  0  0
   16.6600  115.5977  129.1900 H   0  0  0  0  0
   15.6997  118.3611  127.9672 H   0  0  0  0  0
   17.3256  119.0873  127.9591 H   0  0  0  0  0
   17.1009  117.4013  127.4320 H   0  0  0  0  0
   14.5756  118.0591  130.5789 H   0  0  0  0  0
   15.2939  120.8718  131.3566 H   0  0  0  0  0
   14.5828  122.2235  129.8044 H   0  0  0  0  0
   13.2989  122.9530  128.1382 H   0  0  0  0  0
   13.8310  122.3472  132.2405 H   0  0  0  0  0
   13.0091  122.7287  134.5481 H   0  0  0  0  0
   14.1067  118.1274  132.9957 H   0  0  0  0  0
   13.2426  118.4844  135.3013 H   0  0  0  0  0
   10.8769  119.6497  136.5231 H   0  0  0  0  0
   14.3985  122.1599  136.5407 H   0  0  0  0  0
  1  2  1  0  0  0
  2  3  1  0  0  0
  2  4  1  0  0  0
  2  5  1  0  0  0
  5  6  2  0  0  0
  5  7  1  0  0  0
  7  8  1  0  0  0
  8  9  1  0  0  0
  8 13  1  0  0  0
  9 10  2  0  0  0
  9 11  1  0  0  0
 11 12  1  0  0  0
 13 14  4  0  0  0
 13 16  4  0  0  0
 14 15  4  0  0  0
 15 18  4  0  0  0
 16 17  4  0  0  0
 17 18  4  0  0  0
 18 19  1  0  0  0
 19 20  4  0  0  0
 19 27  4  0  0  0
 20 21  4  0  0  0
 21 22  1  0  0  0
 21 23  4  0  0  0
 23 24  1  0  0  0
 23 25  4  0  0  0
 25 26  1  0  0  0
 25 27  4  0  0  0
  1 28  1  0  0  0
  1 29  1  0  0  0
  1 30  1  0  0  0
  3 31  1  0  0  0
  3 32  1  0  0  0
  3 33  1  0  0  0
  4 34  1  0  0  0
  4 35  1  0  0  0
  4 36  1  0  0  0
  7 37  1  0  0  0
  8 38  1  0  0  0
 11 39  1  0  0  0
 12 40  1  0  0  0
 14 41  1  0  0  0
 15 42  1  0  0  0
 16 43  1  0  0  0
 17 44  1  0  0  0
 20 45  1  0  0  0
 27 46  1  0  0  0
M  END
$$$$
