5e80_ligand
  -I-interpret- 

 56 59  0  0  0  0  0  0  0  0999 V2000
    1.7700   -7.8990   -7.9870 C   0  0  0  0  0
    1.4080   -8.2530   -9.2980 C   0  0  0  0  0
    2.1340   -9.2420   -9.9590 C   0  0  0  0  0
    3.4150   -9.9710   -9.1360 Cl  0  0  0  0  0
    1.8410   -9.6410  -11.2630 C   0  0  0  0  0
    0.7940   -9.0450  -11.9490 C   0  0  0  0  0
    0.0470   -8.0640  -11.3040 C   0  0  0  0  0
    0.3530   -7.6790   -9.9960 C   0  0  0  0  0
   -0.3940   -6.7320   -9.4370 N   0  0  0  0  0
   -1.1100   -6.9540   -8.3050 C   0  0  0  0  0
   -1.0640   -7.9640   -7.6020 O   0  0  0  0  0
   -1.9860   -5.7730   -7.9660 C   0  0  0  0  0
   -2.3280   -5.8040   -6.4890 C   0  0  0  0  0
   -1.8100   -4.5130   -5.9430 C   0  0  0  0  0
   -1.9540   -4.4660   -4.4680 N   0  0  0  0  0
   -1.5200   -3.3400   -3.8610 C   0  0  0  0  0
   -1.0520   -2.4170   -4.5170 O   0  0  0  0  0
   -2.4380   -5.4190   -3.7800 N   0  0  0  0  0
   -2.5320   -5.3070   -2.4360 C   0  0  0  0  0
   -3.0840   -6.3530   -1.6950 C   0  0  0  0  0
   -2.0870   -4.1920   -1.8370 C   0  0  0  0  0
   -2.0020   -3.7280   -0.6010 C   0  0  0  0  0
   -2.4550   -4.4630    0.6660 C   0  0  0  0  0
   -1.5840   -3.2110   -2.5560 C   0  0  0  0  0
   -1.2150   -2.2270   -1.7450 N   0  0  0  0  0
   -1.4490   -2.5200   -0.6290 N   0  0  0  0  0
   -1.1920   -1.7570    0.4170 C   0  0  0  0  0
   -0.4060   -2.2790    1.4390 C   0  0  0  0  0
   -0.1140   -1.5120    2.5540 C   0  0  0  0  0
   -0.5970   -0.2170    2.6180 C   0  0  0  0  0
   -1.3660    0.3100    1.5790 C   0  0  0  0  0
   -1.6710   -0.4590    0.4710 C   0  0  0  0  0
    1.6906   -8.7733   -7.3409 H   0  0  0  0  0
    2.7968   -7.5333   -7.9812 H   0  0  0  0  0
    1.1023   -7.1168   -7.6257 H   0  0  0  0  0
    2.4342  -10.4201  -11.7419 H   0  0  0  0  0
    0.5608   -9.3388  -12.9724 H   0  0  0  0  0
   -0.7856   -7.5909  -11.8246 H   0  0  0  0  0
   -0.4304   -5.8101   -9.8720 H   0  0  0  0  0
   -2.9036   -5.8214   -8.5523 H   0  0  0  0  0
   -1.4553   -4.8492   -8.1965 H   0  0  0  0  0
   -1.8792   -6.6623   -5.9891 H   0  0  0  0  0
   -3.4005   -5.9096   -6.3255 H   0  0  0  0  0
   -2.3832   -3.6938   -6.3772 H   0  0  0  0  0
   -0.7531   -4.4250   -6.1948 H   0  0  0  0  0
   -4.1090   -6.5271   -2.0224 H   0  0  0  0  0
   -2.4938   -7.2564   -1.8486 H   0  0  0  0  0
   -3.0788   -6.0896   -0.6373 H   0  0  0  0  0
   -3.5221   -4.6753    0.5995 H   0  0  0  0  0
   -1.9024   -5.3979    0.7594 H   0  0  0  0  0
   -2.2615   -3.8365    1.5367 H   0  0  0  0  0
   -0.0188   -3.2950    1.3618 H   0  0  0  0  0
    0.4858   -1.9211    3.3670 H   0  0  0  0  0
   -0.3745    0.3986    3.4896 H   0  0  0  0  0
   -1.7289    1.3359    1.6416 H   0  0  0  0  0
   -2.2744   -0.0529   -0.3409 H   0  0  0  0  0
  1  2  1  0  0  0
  2  3  4  0  0  0
  2  8  4  0  0  0
  3  4  1  0  0  0
  3  5  4  0  0  0
  5  6  4  0  0  0
  6  7  4  0  0  0
  7  8  4  0  0  0
  8  9  1  0  0  0
  9 10  1  0  0  0
 10 11  2  0  0  0
 10 12  1  0  0  0
 12 13  1  0  0  0
 13 14  1  0  0  0
 14 15  1  0  0  0
 15 16  1  0  0  0
 15 18  1  0  0  0
 16 17  2  0  0  0
 16 24  1  0  0  0
 18 19  2  0  0  0
 19 20  1  0  0  0
 19 21  1  0  0  0
 21 22  4  0  0  0
 21 24  4  0  0  0
 22 23  1  0  0  0
 22 26  4  0  0  0
 24 25  4  0  0  0
 25 26  4  0  0  0
 26 27  1  0  0  0
 27 28  4  0  0  0
 27 32  4  0  0  0
 28 29  4  0  0  0
 29 30  4  0  0  0
 30 31  4  0  0  0
 31 32  4  0  0  0
  1 33  1  0  0  0
  1 34  1  0  0  0
  1 35  1  0  0  0
  5 36  1  0  0  0
  6 37  1  0  0  0
  7 38  1  0  0  0
  9 39  1  0  0  0
 12 40  1  0  0  0
 12 41  1  0  0  0
 13 42  1  0  0  0
 13 43  1  0  0  0
 14 44  1  0  0  0
 14 45  1  0  0  0
 20 46  1  0  0  0
 20 47  1  0  0  0
 20 48  1  0  0  0
 23 49  1  0  0  0
 23 50  1  0  0  0
 23 51  1  0  0  0
 28 52  1  0  0  0
 29 53  1  0  0  0
 30 54  1  0  0  0
 31 55  1  0  0  0
 32 56  1  0  0  0
M  END
$$$$
