3h0b_ligand
  -I-interpret- 

 46 48  0  0  0  0  0  0  0  0999 V2000
    7.4150    5.7830   18.0910 C   0  0  0  0  0
    8.0960    5.7570   19.3010 C   0  0  0  0  0
    7.7450    4.8420   20.2820 C   0  0  0  0  0
    6.7100    3.9390   20.0920 C   0  0  0  0  0
    8.6770    2.2460   21.7390 N   0  0  0  0  0
    6.0310    3.9570   18.8860 C   0  0  0  0  0
    8.7770    7.5120   17.2400 C   0  0  0  0  0
    6.3670    2.9600   21.1830 C   0  0  0  0  0
    7.4550    1.9290   21.2620 C   0  0  0  0  0
    6.3830    4.8740   17.9010 C   0  0  0  0  0
    7.6560    6.6090   17.0760 O   0  0  0  0  0
    5.7010    4.8720   16.7440 F   0  0  0  0  0
    6.1120    3.5820   22.5570 C   0  0  0  0  0
    5.2560    2.6530   23.3780 C   0  0  0  0  0
    5.7990    2.0000   24.4810 C   0  0  0  0  0
    5.0020    1.1370   25.2290 C   0  0  0  0  0
    3.6740    0.9060   24.8900 C   0  0  0  0  0
    3.1460    1.5600   23.7820 C   0  0  0  0  0
    3.9310    2.4260   23.0260 C   0  0  0  0  0
    3.4930    3.0830   21.9570 O   0  0  0  0  0
    2.0540    3.2420   21.8410 C   0  0  0  0  0
    9.4860    1.1680   21.7100 C   0  0  0  0  0
    8.7630    0.1510   21.2020 N   0  0  0  0  0
    7.5170    0.5860   20.9150 C   0  0  0  0  0
   10.7650    1.1140   22.1110 N   0  0  0  0  0
    5.5240    0.5180   26.2920 N   0  0  0  0  0
    6.7180    1.0200   26.7920 O   0  0  0  0  0
    4.8430   -0.5760   26.8120 O   0  0  0  0  0
    8.9102    6.4591   19.4804 H   0  0  0  0  0
    8.2948    4.8324   21.2232 H   0  0  0  0  0
    5.2193    3.2516   18.7078 H   0  0  0  0  0
    8.6074    8.1452   18.1108 H   0  0  0  0  0
    9.6900    6.9337   17.3819 H   0  0  0  0  0
    8.8740    8.1340   16.3502 H   0  0  0  0  0
    5.4126    2.5107   20.9084 H   0  0  0  0  0
    5.5987    4.5357   22.4344 H   0  0  0  0  0
    7.0629    3.7436   23.0647 H   0  0  0  0  0
    6.8407    2.1630   24.7573 H   0  0  0  0  0
    3.0592    0.2265   25.4802 H   0  0  0  0  0
    2.1058    1.3926   23.5024 H   0  0  0  0  0
    1.5832    2.2597   21.8023 H   0  0  0  0  0
    1.6797    3.7920   22.7045 H   0  0  0  0  0
    1.8230    3.7932   20.9295 H   0  0  0  0  0
    6.7085   -0.0082   20.4891 H   0  0  0  0  0
   11.2181    1.9482   22.4841 H   0  0  0  0  0
   11.2843    0.2388   22.0428 H   0  0  0  0  0
  2  1  4  0  0  0
 10  1  4  0  0  0
  1 11  1  0  0  0
  3  2  4  0  0  0
  4  3  4  0  0  0
  4  6  4  0  0  0
  8  4  1  0  0  0
  9  5  4  0  0  0
  5 22  4  0  0  0
  6 10  4  0  0  0
 11  7  1  0  0  0
  8  9  1  0  0  0
  8 13  1  0  0  0
  9 24  4  0  0  0
 10 12  1  0  0  0
 13 14  1  0  0  0
 14 15  4  0  0  0
 14 19  4  0  0  0
 15 16  4  0  0  0
 16 17  4  0  0  0
 16 26  1  0  0  0
 17 18  4  0  0  0
 18 19  4  0  0  0
 19 20  1  0  0  0
 20 21  1  0  0  0
 22 23  4  0  0  0
 22 25  1  0  0  0
 23 24  4  0  0  0
 26 27  2  0  0  0
 26 28  2  0  0  0
  2 29  1  0  0  0
  3 30  1  0  0  0
  6 31  1  0  0  0
  7 32  1  0  0  0
  7 33  1  0  0  0
  7 34  1  0  0  0
  8 35  1  0  0  0
 13 36  1  0  0  0
 13 37  1  0  0  0
 15 38  1  0  0  0
 17 39  1  0  0  0
 18 40  1  0  0  0
 21 41  1  0  0  0
 21 42  1  0  0  0
 21 43  1  0  0  0
 24 44  1  0  0  0
 25 45  1  0  0  0
 25 46  1  0  0  0
M  END
$$$$
