5oh1_ligand
  -I-interpret- 

 33 34  0  0  0  0  0  0  0  0999 V2000
   26.4910  -17.9580    2.2310 C   0  0  0  0  0
   26.5200  -14.6830   -0.8410 C   0  0  0  0  0
   24.6930  -14.8850   -2.4770 C   0  0  0  0  0
   24.1770  -15.2170   -0.1710 C   0  0  0  0  0
   25.9040  -14.0720   -2.0950 C   0  0  0  0  0
   26.2110  -15.7350    1.2830 C   0  0  0  0  0
   25.4130  -13.3360    0.9230 C   0  0  0  0  0
   24.3880  -15.0290   -3.6540 O   0  0  0  0  0
   23.2520  -15.4100    0.6040 O   0  0  0  0  0
   23.9930  -15.4330   -1.4810 N   0  0  0  0  0
   25.5380  -14.7510    0.3330 C   0  0  0  0  0
   24.5310  -13.2140    2.1410 C   0  0  0  0  0
   27.2930  -15.3110    2.0670 C   0  0  0  0  0
   27.9510  -16.1850    2.9280 C   0  0  0  0  0
   27.5550  -17.5100    3.0110 C   0  0  0  0  0
   28.2120  -18.3430    3.8500 N   0  0  0  0  0
   25.8280  -17.0800    1.3690 C   0  0  0  0  0
   26.1739  -18.9990    2.2934 H   0  0  0  0  0
   27.3562  -14.0522   -0.5395 H   0  0  0  0  0
   26.8227  -15.7022   -1.0814 H   0  0  0  0  0
   26.6297  -14.0802   -2.9083 H   0  0  0  0  0
   25.6135  -13.0393   -1.9019 H   0  0  0  0  0
   24.9598  -12.7165    0.1490 H   0  0  0  0  0
   26.4148  -13.0409    1.2351 H   0  0  0  0  0
   23.2468  -16.0777   -1.7418 H   0  0  0  0  0
   23.5195  -13.5325    1.8889 H   0  0  0  0  0
   24.9243  -13.8456    2.9375 H   0  0  0  0  0
   24.5143  -12.1761    2.4734 H   0  0  0  0  0
   27.6261  -14.2752    2.0011 H   0  0  0  0  0
   28.7797  -15.8260    3.5383 H   0  0  0  0  0
   27.9312  -19.3210    3.9211 H   0  0  0  0  0
   28.9883  -17.9932    4.4117 H   0  0  0  0  0
   25.0037  -17.4458    0.7568 H   0  0  0  0  0
  1 15  4  0  0  0
 17  1  4  0  0  0
  2  5  1  0  0  0
 11  2  1  0  0  0
  5  3  1  0  0  0
  3  8  2  0  0  0
 10  3  1  0  0  0
  4  9  2  0  0  0
  4 10  1  0  0  0
 11  4  1  0  0  0
  6 11  1  0  0  0
  6 13  4  0  0  0
  6 17  4  0  0  0
 11  7  1  0  0  0
  7 12  1  0  0  0
 13 14  4  0  0  0
 14 15  4  0  0  0
 15 16  1  0  0  0
  1 18  1  0  0  0
  2 19  1  0  0  0
  2 20  1  0  0  0
  5 21  1  0  0  0
  5 22  1  0  0  0
  7 23  1  0  0  0
  7 24  1  0  0  0
 10 25  1  0  0  0
 12 26  1  0  0  0
 12 27  1  0  0  0
 12 28  1  0  0  0
 13 29  1  0  0  0
 14 30  1  0  0  0
 16 31  1  0  0  0
 16 32  1  0  0  0
 17 33  1  0  0  0
M  END
$$$$
