4zyt_ligand
  -I-interpret- 

 56 58  0  0  0  0  0  0  0  0999 V2000
  -21.1700   16.6520   16.0870 C   0  0  0  0  0
  -22.2040   15.8230   16.5240 C   0  0  0  0  0
  -20.3790   18.9160   15.1590 C   0  0  0  0  0
  -19.8640   21.3780   15.0240 C   0  0  0  0  0
  -20.6730   22.6020   14.6600 C   0  0  0  0  0
  -22.2920   16.7320   23.3870 N   0  0  0  0  0
  -25.1100   16.8000   21.1670 C   0  0  0  0  0
  -25.1810   15.6080   21.8540 C   0  0  0  0  0
  -24.1570   15.4000   22.7740 C   0  0  0  0  0
  -23.3970   16.5750   22.6320 C   0  0  0  0  0
  -22.7790   18.3820   15.6070 C   0  0  0  0  0
  -23.8030   17.5580   16.0380 C   0  0  0  0  0
  -21.9120   15.7920   24.2590 C   0  0  0  0  0
  -22.6250   14.6630   24.4130 N   0  0  0  0  0
  -23.7330   14.4470   23.6880 C   0  0  0  0  0
  -23.9980   17.3420   21.6990 N   0  0  0  0  0
  -24.3370   13.3900   23.8640 O   0  0  0  0  0
  -20.7430   15.9730   25.0480 N   0  0  0  0  0
  -21.4680   17.9280   15.6160 C   0  0  0  0  0
  -19.2980   18.5520   14.7370 O   0  0  0  0  0
  -20.7170   20.2920   15.3270 N   0  0  0  0  0
  -21.2690   22.5050   13.2740 C   0  0  0  0  0
  -21.7460   23.8880   12.8790 C   0  0  0  0  0
  -22.0460   24.1430   11.6830 O   0  0  0  0  0
  -21.8440   24.7870   13.7560 O   0  0  0  0  0
  -19.1200   21.7060   16.3010 C   0  0  0  0  0
  -19.3990   21.0840   17.3650 O   0  0  0  0  0
  -18.2360   22.6060   16.3080 O   0  0  0  0  0
  -26.0190   17.3590   20.0900 C   0  0  0  0  0
  -25.3760   17.1450   18.7220 C   0  0  0  0  0
  -25.1700   15.6660   18.4000 C   0  0  0  0  0
  -24.6610   15.4260   16.9800 C   0  0  0  0  0
  -23.5160   16.2830   16.4940 C   0  0  0  0  0
  -20.1376   16.3035   16.1141 H   0  0  0  0  0
  -21.9842   14.8191   16.8873 H   0  0  0  0  0
  -19.2071   21.1159   14.1946 H   0  0  0  0  0
  -20.0082   23.4655   14.6824 H   0  0  0  0  0
  -21.4914   22.6910   15.3744 H   0  0  0  0  0
  -21.7362   17.5819   23.2918 H   0  0  0  0  0
  -25.9782   14.8830   21.6898 H   0  0  0  0  0
  -23.0026   19.3906   15.2594 H   0  0  0  0  0
  -24.8337   17.9120   16.0186 H   0  0  0  0  0
  -20.4609   15.2539   25.7141 H   0  0  0  0  0
  -21.6440   20.5085   15.6933 H   0  0  0  0  0
  -22.1010   21.8009   13.2676 H   0  0  0  0  0
  -20.5236   22.1444   12.5652 H   0  0  0  0  0
  -21.5795   24.4318   14.6077 H   0  0  0  0  0
  -20.0869   20.4387   17.1861 H   0  0  0  0  0
  -26.1697   18.4253   20.2584 H   0  0  0  0  0
  -26.9809   16.8474   20.1240 H   0  0  0  0  0
  -24.3987   17.6277   18.7296 H   0  0  0  0  0
  -26.0412   17.5649   17.9674 H   0  0  0  0  0
  -26.1358   15.1694   18.4936 H   0  0  0  0  0
  -24.4204   15.2785   19.0900 H   0  0  0  0  0
  -25.5002   15.6593   16.3247 H   0  0  0  0  0
  -24.2848   14.4030   16.9727 H   0  0  0  0  0
  2  1  4  0  0  0
  1 19  4  0  0  0
 33  2  4  0  0  0
 19  3  1  0  0  0
  3 20  2  0  0  0
  3 21  1  0  0  0
  4  5  1  0  0  0
 21  4  1  0  0  0
  4 26  1  0  0  0
  5 22  1  0  0  0
 10  6  1  0  0  0
  6 13  1  0  0  0
  7  8  4  0  0  0
  7 16  4  0  0  0
 29  7  1  0  0  0
  8  9  4  0  0  0
 10  9  4  0  0  0
  9 15  1  0  0  0
 16 10  4  0  0  0
 12 11  4  0  0  0
 11 19  4  0  0  0
 33 12  4  0  0  0
 13 14  4  0  0  0
 13 18  2  0  0  0
 15 14  1  0  0  0
 15 17  2  0  0  0
 22 23  1  0  0  0
 23 24  2  0  0  0
 23 25  1  0  0  0
 26 27  1  0  0  0
 26 28  2  0  0  0
 30 29  1  0  0  0
 31 30  1  0  0  0
 32 31  1  0  0  0
 32 33  1  0  0  0
  1 34  1  0  0  0
  2 35  1  0  0  0
  4 36  1  0  0  0
  5 37  1  0  0  0
  5 38  1  0  0  0
  6 39  1  0  0  0
  8 40  1  0  0  0
 11 41  1  0  0  0
 12 42  1  0  0  0
 18 43  1  0  0  0
 21 44  1  0  0  0
 22 45  1  0  0  0
 22 46  1  0  0  0
 25 47  1  0  0  0
 27 48  1  0  0  0
 29 49  1  0  0  0
 29 50  1  0  0  0
 30 51  1  0  0  0
 30 52  1  0  0  0
 31 53  1  0  0  0
 31 54  1  0  0  0
 32 55  1  0  0  0
 32 56  1  0  0  0
M  END
$$$$
