4jik_ligand
  -I-interpret- 

 46 49  0  0  0  0  0  0  0  0999 V2000
   14.7660   -2.9850    8.2380 N   0  0  0  0  0
   15.1530   -2.0000    7.3650 C   0  0  0  0  0
   14.1210   -1.1750    7.1160 C   0  0  0  0  0
   13.0410   -1.6450    7.8430 N   0  0  0  0  0
   13.4920   -2.7540    8.5150 C   0  0  0  0  0
   11.7510   -1.2340    7.9920 C   0  0  0  0  0
   10.9030   -1.8390    8.7630 N   0  0  0  0  0
   11.3170   -2.9310    9.4290 C   0  0  0  0  0
   12.5880   -3.4330    9.3520 C   0  0  0  0  0
   12.9960   -4.5350   10.0400 N   0  0  0  0  0
   16.4990   -1.9590    6.8480 C   0  0  0  0  0
   11.2900   -0.0260    7.2650 C   0  0  0  0  0
   12.4670   -5.0050   11.2850 C   0  0  0  0  0
   12.7980   -4.0320   12.4410 C   0  0  0  0  0
   12.2150   -4.5370   13.6820 N   0  3  0  0  0
   12.7400   -5.8650   14.0300 C   0  0  0  0  0
   12.4120   -6.8700   12.8950 C   0  0  0  0  0
   13.0270   -6.3780   11.5870 C   0  0  0  0  0
   16.9450   -0.8470    6.0970 C   0  0  0  0  0
   18.2420   -0.8110    5.5990 C   0  0  0  0  0
   19.1060   -1.8780    5.8370 C   0  0  0  0  0
   18.6770   -2.9960    6.5830 C   0  0  0  0  0
   17.3690   -3.0330    7.0880 C   0  0  0  0  0
   20.7310   -1.8220    5.2240 Cl  0  0  0  0  0
   10.0500    0.3880    7.5580 N   0  0  0  0  0
   12.0050    0.5670    6.4580 O   0  0  0  0  0
   14.1326   -0.3011    6.4646 H   0  0  0  0  0
   10.5991   -3.4463   10.0671 H   0  0  0  0  0
   13.7535   -5.0797    9.6277 H   0  0  0  0  0
   11.3821   -5.0618   11.1968 H   0  0  0  0  0
   12.3847   -3.0482   12.2185 H   0  0  0  0  0
   13.8794   -3.9534   12.5524 H   0  0  0  0  0
   11.2060   -4.6142   13.5543 H   0  0  0  0  0
   12.4527   -3.8907   14.4345 H   0  0  0  0  0
   12.2791   -6.2043   14.9577 H   0  0  0  0  0
   13.8208   -5.8043   14.1580 H   0  0  0  0  0
   11.3309   -6.9496   12.7811 H   0  0  0  0  0
   12.8236   -7.8478   13.1451 H   0  0  0  0  0
   14.1118   -6.3270   11.6800 H   0  0  0  0  0
   12.7846   -7.0668   10.7777 H   0  0  0  0  0
   16.2682   -0.0138    5.9077 H   0  0  0  0  0
   18.5826    0.0498    5.0236 H   0  0  0  0  0
   19.3586   -3.8267    6.7660 H   0  0  0  0  0
   17.0297   -3.8933    7.6649 H   0  0  0  0  0
    9.6702    1.2201    7.1067 H   0  0  0  0  0
    9.4858   -0.1289    8.2324 H   0  0  0  0  0
  1  2  4  0  0  0
  1  5  4  0  0  0
  2  3  4  0  0  0
  2 11  1  0  0  0
  3  4  4  0  0  0
  4  5  4  0  0  0
  4  6  4  0  0  0
  5  9  4  0  0  0
  6  7  4  0  0  0
  6 12  1  0  0  0
  7  8  4  0  0  0
  8  9  4  0  0  0
  9 10  1  0  0  0
 10 13  1  0  0  0
 11 19  4  0  0  0
 11 23  4  0  0  0
 12 25  1  0  0  0
 12 26  2  0  0  0
 13 14  1  0  0  0
 13 18  1  0  0  0
 14 15  1  0  0  0
 15 16  1  0  0  0
 16 17  1  0  0  0
 17 18  1  0  0  0
 19 20  4  0  0  0
 20 21  4  0  0  0
 21 22  4  0  0  0
 21 24  1  0  0  0
 22 23  4  0  0  0
  3 27  1  0  0  0
  8 28  1  0  0  0
 10 29  1  0  0  0
 13 30  1  0  0  0
 14 31  1  0  0  0
 14 32  1  0  0  0
 15 33  1  0  0  0
 15 34  1  0  0  0
 16 35  1  0  0  0
 16 36  1  0  0  0
 17 37  1  0  0  0
 17 38  1  0  0  0
 18 39  1  0  0  0
 18 40  1  0  0  0
 19 41  1  0  0  0
 20 42  1  0  0  0
 22 43  1  0  0  0
 23 44  1  0  0  0
 25 45  1  0  0  0
 25 46  1  0  0  0
M  END
$$$$
