3d8z_ligand
  -I-interpret- 

 43 45  0  0  0  0  0  0  0  0999 V2000
   41.9880    0.3830   15.0870 C   0  0  0  0  0
   42.9030   -0.4170   16.0330 C   0  0  0  0  0
   42.6800   -1.8880   15.6540 C   0  0  0  0  0
   41.8290   -1.8330   14.3850 C   0  0  0  0  0
   41.0320   -0.6040   14.5520 N   0  3  0  0  0
   40.5490   -0.1410   13.2450 C   0  0  0  0  0
   39.0590   -0.4750   13.1820 C   0  0  0  0  0
   38.6530   -1.4030   12.1450 O   0  0  0  0  0
   38.1450    0.7510   12.9360 C   0  0  0  0  0
   37.6880    1.2010   14.2160 O   0  0  0  0  0
   36.9720    0.1420   12.1460 C   0  0  0  0  0
   37.2720   -1.3060   12.5220 C   0  0  0  0  0
   36.3800   -2.4790   12.3410 N   0  0  0  0  0
   36.7350   -3.5750   13.1390 C   0  0  0  0  0
   35.9840   -4.7380   13.1210 C   0  0  0  0  0
   36.4390   -5.8960   13.9990 C   0  0  0  0  0
   34.8510   -4.8150   12.3110 C   0  0  0  0  0
   34.1760   -5.8420   12.2850 O   0  0  0  0  0
   34.4710   -3.7170   11.5150 N   0  0  0  0  0
   35.2290   -2.5290   11.5260 C   0  0  0  0  0
   34.8850   -1.5780   10.8300 O   0  0  0  0  0
   42.5549    0.8672   14.2918 H   0  0  0  0  0
   41.4802    1.1946   15.6082 H   0  0  0  0  0
   42.6639   -0.2294   17.0798 H   0  0  0  0  0
   43.9480   -0.1265   15.9248 H   0  0  0  0  0
   42.1879   -2.4448   16.4515 H   0  0  0  0  0
   43.6204   -2.4148   15.4921 H   0  0  0  0  0
   41.2062   -2.7192   14.2631 H   0  0  0  0  0
   42.4343   -1.8162   13.4787 H   0  0  0  0  0
   40.2220   -0.7463   15.1554 H   0  0  0  0  0
   41.0907   -0.6306   12.4357 H   0  0  0  0  0
   40.7114    0.9306   13.1289 H   0  0  0  0  0
   38.9345   -0.9145   14.1717 H   0  0  0  0  0
   38.6154    1.5873   12.4188 H   0  0  0  0  0
   37.1162    1.9635   14.1005 H   0  0  0  0  0
   36.9242    0.3731   11.0819 H   0  0  0  0  0
   35.9751    0.5142   12.3823 H   0  0  0  0  0
   36.9988   -1.4572   13.5663 H   0  0  0  0  0
   37.6131   -3.5111   13.7817 H   0  0  0  0  0
   37.4428   -6.2015   13.7039 H   0  0  0  0  0
   36.4463   -5.5786   15.0418 H   0  0  0  0  0
   35.7525   -6.7339   13.8777 H   0  0  0  0  0
   33.6408   -3.7822   10.9260 H   0  0  0  0  0
  1  2  1  0  0  0
  1  5  1  0  0  0
  2  3  1  0  0  0
  3  4  1  0  0  0
  4  5  1  0  0  0
  5  6  1  0  0  0
  6  7  1  0  0  0
  7  8  1  0  0  0
  7  9  1  0  0  0
  8 12  1  0  0  0
  9 10  1  0  0  0
  9 11  1  0  0  0
 11 12  1  0  0  0
 12 13  1  0  0  0
 13 14  1  0  0  0
 13 20  1  0  0  0
 14 15  2  0  0  0
 15 16  1  0  0  0
 15 17  1  0  0  0
 17 18  2  0  0  0
 17 19  1  0  0  0
 19 20  1  0  0  0
 20 21  2  0  0  0
  1 22  1  0  0  0
  1 23  1  0  0  0
  2 24  1  0  0  0
  2 25  1  0  0  0
  3 26  1  0  0  0
  3 27  1  0  0  0
  4 28  1  0  0  0
  4 29  1  0  0  0
  5 30  1  0  0  0
  6 31  1  0  0  0
  6 32  1  0  0  0
  7 33  1  0  0  0
  9 34  1  0  0  0
 10 35  1  0  0  0
 11 36  1  0  0  0
 11 37  1  0  0  0
 12 38  1  0  0  0
 14 39  1  0  0  0
 16 40  1  0  0  0
 16 41  1  0  0  0
 16 42  1  0  0  0
 19 43  1  0  0  0
M  END
$$$$
