4ks1_ligand
  -I-interpret- 

 45 45  0  0  0  0  0  0  0  0999 V2000
  -26.7110  -22.7720  -12.1430 C   0  0  0  0  0
  -26.2550  -21.6000  -13.0150 C   0  0  0  0  0
  -26.6920  -20.1990  -12.4120 C   0  0  0  0  0
  -28.2460  -20.0430  -12.2700 C   0  0  0  0  0
  -28.6730  -18.5960  -11.9130 C   0  0  0  0  0
  -26.0690  -19.9600  -11.1330 O   0  0  0  0  0
  -24.6490  -19.8380  -11.1110 C   0  0  0  0  0
  -24.1310  -20.7130   -9.9490 C   0  0  0  0  0
  -22.7390  -20.4650   -9.6440 C   0  0  0  0  0
  -21.9920  -21.5340   -9.1230 C   0  0  0  0  0
  -22.4680  -22.7170   -9.1770 O   0  0  0  0  0
  -20.8440  -21.2930   -8.6200 O   0  0  0  0  0
  -22.0910  -19.2380   -9.9540 C   0  0  0  0  0
  -22.7140  -18.2730  -10.7840 C   0  0  0  0  0
  -22.2110  -16.9140  -10.5250 N   0  3  0  0  0
  -24.2790  -18.3720  -10.8490 C   0  0  0  0  0
  -24.7690  -17.5610  -11.9530 N   0  0  0  0  0
  -25.6010  -16.5070  -11.8030 C   0  0  0  0  0
  -26.0370  -16.1260  -10.7490 O   0  0  0  0  0
  -25.9850  -15.7920  -13.1010 C   0  0  0  0  0
  -26.2706  -22.6776  -11.1504 H   0  0  0  0  0
  -27.7979  -22.7616  -12.0621 H   0  0  0  0  0
  -26.3881  -23.7086  -12.5976 H   0  0  0  0  0
  -26.7184  -21.7065  -13.9958 H   0  0  0  0  0
  -25.1666  -21.6212  -13.0695 H   0  0  0  0  0
  -26.3503  -19.4547  -13.1313 H   0  0  0  0  0
  -28.5753  -20.6975  -11.4630 H   0  0  0  0  0
  -28.6966  -20.2974  -13.2293 H   0  0  0  0  0
  -28.2203  -18.3086  -10.9640 H   0  0  0  0  0
  -28.3392  -17.9162  -12.6969 H   0  0  0  0  0
  -29.7587  -18.5494  -11.8279 H   0  0  0  0  0
  -24.2113  -20.1541  -12.0579 H   0  0  0  0  0
  -24.2285  -21.7572  -10.2460 H   0  0  0  0  0
  -24.7168  -20.4734   -9.0616 H   0  0  0  0  0
  -20.6650  -20.3512   -8.6706 H   0  0  0  0  0
  -21.1001  -19.0365   -9.5471 H   0  0  0  0  0
  -22.4096  -18.5257  -11.7997 H   0  0  0  0  0
  -22.6847  -16.2541  -11.1419 H   0  0  0  0  0
  -22.3943  -16.6644   -9.5531 H   0  0  0  0  0
  -21.2067  -16.8851  -10.7011 H   0  0  0  0  0
  -24.7194  -18.0203   -9.9160 H   0  0  0  0  0
  -24.4664  -17.8025  -12.8967 H   0  0  0  0  0
  -27.0660  -15.8377  -13.2334 H   0  0  0  0  0
  -25.6679  -14.7505  -13.0481 H   0  0  0  0  0
  -25.4936  -16.2805  -13.9424 H   0  0  0  0  0
  1  2  1  0  0  0
  2  3  1  0  0  0
  3  4  1  0  0  0
  3  6  1  0  0  0
  4  5  1  0  0  0
  6  7  1  0  0  0
  7  8  1  0  0  0
  7 16  1  0  0  0
  8  9  1  0  0  0
  9 10  1  0  0  0
  9 13  2  0  0  0
 10 11  2  0  0  0
 10 12  1  0  0  0
 13 14  1  0  0  0
 14 15  1  0  0  0
 14 16  1  0  0  0
 16 17  1  0  0  0
 17 18  1  0  0  0
 18 19  2  0  0  0
 18 20  1  0  0  0
  1 21  1  0  0  0
  1 22  1  0  0  0
  1 23  1  0  0  0
  2 24  1  0  0  0
  2 25  1  0  0  0
  3 26  1  0  0  0
  4 27  1  0  0  0
  4 28  1  0  0  0
  5 29  1  0  0  0
  5 30  1  0  0  0
  5 31  1  0  0  0
  7 32  1  0  0  0
  8 33  1  0  0  0
  8 34  1  0  0  0
 12 35  1  0  0  0
 13 36  1  0  0  0
 14 37  1  0  0  0
 15 38  1  0  0  0
 15 39  1  0  0  0
 15 40  1  0  0  0
 16 41  1  0  0  0
 17 42  1  0  0  0
 20 43  1  0  0  0
 20 44  1  0  0  0
 20 45  1  0  0  0
M  END
$$$$
