6g1v_ligand
  -I-interpret- 

 44 47  0  0  0  0  0  0  0  0999 V2000
    6.4130   -5.6230   20.3120 C   0  0  0  0  0
    5.0320   -5.4500   20.4190 C   0  0  0  0  0
    4.3150   -6.2170   21.3240 C   0  0  0  0  0
    4.9540   -7.1600   22.1250 C   0  0  0  0  0
    6.3270   -7.3340   22.0280 C   0  0  0  0  0
    7.0730   -6.5610   21.1240 C   0  0  0  0  0
    2.2790   -5.1980   20.7250 C   0  0  0  0  0
    2.9240   -4.3940   19.7880 C   0  0  0  0  0
    4.3110   -4.5310   19.6500 C   0  0  0  0  0
    2.2170   -3.4370   19.0510 C   0  0  0  0  0
    0.7300   -3.7270   18.9870 C   0  0  0  0  0
    0.2150   -3.9460   20.4200 C   0  0  0  0  0
    0.8830   -5.1900   20.9610 C   0  0  0  0  0
    2.2760   -6.9020   22.3770 C   0  0  0  0  0
    2.3710   -2.0860   19.8110 C   0  0  0  0  0
    0.4890   -2.8610   21.2420 C   0  0  0  0  0
    1.5420   -1.9910   20.9820 C   0  0  0  0  0
    1.6290   -0.9280   21.8820 C   0  0  0  0  0
    3.0580   -0.5670   22.2070 C   0  0  0  0  0
    4.9770   -3.7630   18.7720 N   0  0  0  0  0
    2.9890   -6.0790   21.4220 N   0  0  0  0  0
    7.0940   -8.5070   23.0970 Cl  0  0  0  0  0
    6.9812   -5.0287   19.5964 H   0  0  0  0  0
    4.3761   -7.7607   22.8274 H   0  0  0  0  0
    8.1533   -6.6872   21.0527 H   0  0  0  0  0
    2.6107   -3.4289   18.0346 H   0  0  0  0  0
    0.5496   -4.6182   18.3859 H   0  0  0  0  0
    0.2064   -2.8891   18.5268 H   0  0  0  0  0
   -0.8690   -4.0585   20.3996 H   0  0  0  0  0
    0.7227   -5.2177   22.0388 H   0  0  0  0  0
    0.4501   -6.0529   20.4549 H   0  0  0  0  0
    2.4294   -7.9535   22.1344 H   0  0  0  0  0
    2.6518   -6.7007   23.3802 H   0  0  0  0  0
    1.2121   -6.6690   22.3326 H   0  0  0  0  0
    2.0697   -1.2900   19.1300 H   0  0  0  0  0
    3.4085   -2.0086   20.1361 H   0  0  0  0  0
   -0.1390   -2.6864   22.1156 H   0  0  0  0  0
    1.1374   -1.2278   22.8075 H   0  0  0  0  0
    1.1565   -0.0586   21.4247 H   0  0  0  0  0
    3.5567   -1.4281   22.6519 H   0  0  0  0  0
    3.5755   -0.2784   21.2922 H   0  0  0  0  0
    3.0701    0.2652   22.9108 H   0  0  0  0  0
    5.9882   -3.8569   18.6766 H   0  0  0  0  0
    4.4716   -3.0859   18.2006 H   0  0  0  0  0
  2  1  4  0  0  0
  1  6  4  0  0  0
  3  2  4  0  0  0
  2  9  4  0  0  0
  3  4  4  0  0  0
 21  3  4  0  0  0
  4  5  4  0  0  0
  5  6  4  0  0  0
  5 22  1  0  0  0
  7  8  4  0  0  0
  7 13  1  0  0  0
  7 21  4  0  0  0
  8  9  4  0  0  0
  8 10  1  0  0  0
  9 20  1  0  0  0
 10 11  1  0  0  0
 10 15  1  0  0  0
 11 12  1  0  0  0
 12 13  1  0  0  0
 12 16  1  0  0  0
 21 14  1  0  0  0
 15 17  1  0  0  0
 16 17  2  0  0  0
 17 18  1  0  0  0
 18 19  1  0  0  0
  1 23  1  0  0  0
  4 24  1  0  0  0
  6 25  1  0  0  0
 10 26  1  0  0  0
 11 27  1  0  0  0
 11 28  1  0  0  0
 12 29  1  0  0  0
 13 30  1  0  0  0
 13 31  1  0  0  0
 14 32  1  0  0  0
 14 33  1  0  0  0
 14 34  1  0  0  0
 15 35  1  0  0  0
 15 36  1  0  0  0
 16 37  1  0  0  0
 18 38  1  0  0  0
 18 39  1  0  0  0
 19 40  1  0  0  0
 19 41  1  0  0  0
 19 42  1  0  0  0
 20 43  1  0  0  0
 20 44  1  0  0  0
M  END
$$$$
