4i5p_ligand
  -I-interpret- 

 46 49  0  0  0  0  0  0  0  0999 V2000
   13.6090    4.2410   10.4520 O   0  0  0  0  0
   12.5080    4.8280   10.4470 C   0  0  0  0  0
   11.3260    4.1000   10.1720 N   0  0  0  0  0
   11.4120    2.6580    9.9060 C   0  0  0  0  0
   10.0810    4.7590   10.1500 C   0  0  0  0  0
    8.8870    4.0970    9.8920 C   0  0  0  0  0
    7.7400    4.7840    9.8900 N   0  0  0  0  0
   12.5170    6.2950   10.6720 C   0  0  0  0  0
   13.2640    6.8310    9.4360 C   0  0  0  0  0
   12.5340    6.6030    8.1150 C   0  0  0  0  0
   11.1990    6.9530   10.6910 N   0  0  0  0  0
   11.0450    8.4010   10.9860 C   0  0  0  0  0
   10.9190    9.3610    9.8130 C   0  0  0  0  0
   11.2600   10.7260   10.4150 C   0  0  0  0  0
   12.0940   10.4770   11.6730 C   0  0  0  0  0
   12.1470    8.9700   11.8860 C   0  0  0  0  0
   10.0230    6.2180   10.4260 C   0  0  0  0  0
    8.8210    6.8270   10.4050 N   0  0  0  0  0
    7.6980    6.1180   10.1450 C   0  0  0  0  0
    6.3920    6.8280   10.1170 C   0  0  0  0  0
    5.1400    6.4600    9.6690 C   0  0  0  0  0
    4.3440    7.5630    9.8920 C   0  0  0  0  0
    5.1360    8.5550   10.4410 C   0  0  0  0  0
    6.4010    8.0880   10.5730 N   0  0  0  0  0
   10.8201    2.1176   10.6447 H   0  0  0  0  0
   11.0269    2.4504    8.9076 H   0  0  0  0  0
   12.4526    2.3397    9.9689 H   0  0  0  0  0
    8.8854    3.0254    9.6927 H   0  0  0  0  0
   12.9499    6.4968   11.6518 H   0  0  0  0  0
   14.2115    6.2956    9.3760 H   0  0  0  0  0
   13.3663    7.9085    9.5647 H   0  0  0  0  0
   12.3879    5.5337    7.9620 H   0  0  0  0  0
   11.5657    7.1027    8.1455 H   0  0  0  0  0
   13.1289    7.0104    7.2976 H   0  0  0  0  0
   10.0772    8.3645   11.4862 H   0  0  0  0  0
    9.9241    9.3421    9.3681 H   0  0  0  0  0
   11.5807    9.0957    8.9885 H   0  0  0  0  0
   10.3497   11.2721   10.6625 H   0  0  0  0  0
   11.8189   11.3296    9.6999 H   0  0  0  0  0
   11.6460   10.9713   12.5350 H   0  0  0  0  0
   13.0983   10.8839   11.5549 H   0  0  0  0  0
   13.1253    8.5612   11.6330 H   0  0  0  0  0
   11.9905    8.7049   12.9316 H   0  0  0  0  0
    4.8448    5.5053    9.2337 H   0  0  0  0  0
    3.2788    7.6398    9.6742 H   0  0  0  0  0
    4.7971    9.5521   10.7222 H   0  0  0  0  0
  1  2  2  0  0  0
  2  3  1  0  0  0
  2  8  1  0  0  0
  3  4  1  0  0  0
  3  5  1  0  0  0
  5  6  4  0  0  0
  5 17  4  0  0  0
  6  7  4  0  0  0
  7 19  4  0  0  0
  8  9  1  0  0  0
  8 11  1  0  0  0
  9 10  1  0  0  0
 11 12  1  0  0  0
 11 17  1  0  0  0
 12 13  1  0  0  0
 12 16  1  0  0  0
 13 14  1  0  0  0
 14 15  1  0  0  0
 15 16  1  0  0  0
 17 18  4  0  0  0
 18 19  4  0  0  0
 19 20  1  0  0  0
 20 21  4  0  0  0
 20 24  4  0  0  0
 21 22  4  0  0  0
 22 23  4  0  0  0
 23 24  4  0  0  0
  4 25  1  0  0  0
  4 26  1  0  0  0
  4 27  1  0  0  0
  6 28  1  0  0  0
  8 29  1  0  0  0
  9 30  1  0  0  0
  9 31  1  0  0  0
 10 32  1  0  0  0
 10 33  1  0  0  0
 10 34  1  0  0  0
 12 35  1  0  0  0
 13 36  1  0  0  0
 13 37  1  0  0  0
 14 38  1  0  0  0
 14 39  1  0  0  0
 15 40  1  0  0  0
 15 41  1  0  0  0
 16 42  1  0  0  0
 16 43  1  0  0  0
 21 44  1  0  0  0
 22 45  1  0  0  0
 23 46  1  0  0  0
M  END
$$$$
