2ogy_ligand
  -I-interpret- 

 58 60  0  0  0  0  0  0  0  0999 V2000
   -9.2630   76.3060  121.3150 N   0  0  0  0  0
   -8.5850   77.3990  120.8580 C   0  0  0  0  0
   -8.1560   78.3200  121.7590 N   0  0  0  0  0
   -8.3300   77.5840  119.5250 N   0  0  0  0  0
   -8.7290   76.7050  118.5670 C   0  0  0  0  0
   -8.4730   76.9120  117.3720 O   0  0  0  0  0
   -9.4800   75.4800  118.9790 C   0  0  0  0  0
   -9.9450   74.4870  118.0270 N   0  0  0  0  0
  -10.1440   73.1320  118.6510 C   0  0  0  0  0
  -10.8860   73.1940  120.0340 C   0  0  0  0  0
  -10.3900   74.2530  120.9250 N   0  0  0  0  0
   -9.7230   75.3410  120.4630 C   0  0  0  0  0
   -8.7660   72.4400  118.8140 C   0  0  0  0  0
   -8.8650   70.9940  118.9260 N   0  0  0  0  0
  -11.1930   74.9590  117.3840 C   0  0  0  0  0
   -9.3870   68.2930  115.7430 C   0  0  0  0  0
   -9.5400   67.8750  117.0990 C   0  0  0  0  0
   -9.3600   68.7960  118.1530 C   0  0  0  0  0
   -9.0260   70.1440  117.8660 C   0  0  0  0  0
   -8.8730   70.5610  116.4930 C   0  0  0  0  0
   -9.0550   69.6380  115.4430 C   0  0  0  0  0
   -9.5810   67.2980  114.6400 C   0  0  0  0  0
   -8.7690   67.2500  113.7310 O   0  0  0  0  0
  -10.6590   66.5100  114.7260 N   0  0  0  0  0
  -11.1160   65.4600  113.8250 C   0  0  0  0  0
  -12.2900   64.6760  114.4480 C   0  0  0  0  0
  -12.1370   63.1840  114.1260 C   0  0  0  0  0
  -13.2850   62.3730  114.7310 C   0  0  0  0  0
  -14.4000   62.9700  114.7530 O   0  0  0  0  0
  -13.1350   61.2030  115.1710 O   0  0  0  0  0
  -11.4750   66.0330  112.4620 C   0  0  0  0  0
  -12.0830   67.1260  112.3980 O   0  0  0  0  0
  -11.1480   65.4050  111.4350 O   0  0  0  0  0
   -8.3426   78.1866  122.7529 H   0  0  0  0  0
   -7.6472   79.1452  121.4419 H   0  0  0  0  0
   -7.8180   78.4182  119.2380 H   0  0  0  0  0
  -10.7848   72.5554  117.9839 H   0  0  0  0  0
  -10.7187   72.2412  120.5362 H   0  0  0  0  0
  -11.9360   73.4047  119.8309 H   0  0  0  0  0
  -10.5533   74.1668  121.9281 H   0  0  0  0  0
   -8.3139   72.8136  119.7328 H   0  0  0  0  0
   -8.1752   72.6642  117.9259 H   0  0  0  0  0
   -8.8107   70.5850  119.8588 H   0  0  0  0  0
  -11.9563   75.1154  118.1463 H   0  0  0  0  0
  -10.9998   75.8971  116.8637 H   0  0  0  0  0
  -11.5381   74.2107  116.6705 H   0  0  0  0  0
   -9.7971   66.8394  117.3216 H   0  0  0  0  0
   -9.4776   68.4715  119.1869 H   0  0  0  0  0
   -8.6152   71.5956  116.2664 H   0  0  0  0  0
   -8.9411   69.9567  114.4069 H   0  0  0  0  0
  -11.2482   66.6677  115.5435 H   0  0  0  0  0
  -10.2985   64.7550  113.6739 H   0  0  0  0  0
  -13.2304   65.0419  114.0360 H   0  0  0  0  0
  -12.2876   64.8164  115.5289 H   0  0  0  0  0
  -11.1970   62.8292  114.5487 H   0  0  0  0  0
  -12.1506   63.0563  113.0436 H   0  0  0  0  0
  -14.3002   63.8460  114.3732 H   0  0  0  0  0
  -12.2458   67.4528  113.2859 H   0  0  0  0  0
  1  2  2  0  0  0
 12  1  1  0  0  0
  2  3  1  0  0  0
  4  2  1  0  0  0
  5  4  1  0  0  0
  5  6  2  0  0  0
  7  5  1  0  0  0
  8  7  1  0  0  0
  7 12  2  0  0  0
  9  8  1  0  0  0
  8 15  1  0  0  0
  9 10  1  0  0  0
 13  9  1  0  0  0
 10 11  1  0  0  0
 11 12  1  0  0  0
 14 13  1  0  0  0
 19 14  1  0  0  0
 17 16  4  0  0  0
 16 21  4  0  0  0
 16 22  1  0  0  0
 18 17  4  0  0  0
 18 19  4  0  0  0
 19 20  4  0  0  0
 20 21  4  0  0  0
 22 23  2  0  0  0
 22 24  1  0  0  0
 24 25  1  0  0  0
 25 26  1  0  0  0
 25 31  1  0  0  0
 26 27  1  0  0  0
 27 28  1  0  0  0
 28 29  1  0  0  0
 28 30  2  0  0  0
 31 32  1  0  0  0
 31 33  2  0  0  0
  3 34  1  0  0  0
  3 35  1  0  0  0
  4 36  1  0  0  0
  9 37  1  0  0  0
 10 38  1  0  0  0
 10 39  1  0  0  0
 11 40  1  0  0  0
 13 41  1  0  0  0
 13 42  1  0  0  0
 14 43  1  0  0  0
 15 44  1  0  0  0
 15 45  1  0  0  0
 15 46  1  0  0  0
 17 47  1  0  0  0
 18 48  1  0  0  0
 20 49  1  0  0  0
 21 50  1  0  0  0
 24 51  1  0  0  0
 25 52  1  0  0  0
 26 53  1  0  0  0
 26 54  1  0  0  0
 27 55  1  0  0  0
 27 56  1  0  0  0
 29 57  1  0  0  0
 32 58  1  0  0  0
M  END
$$$$
