3tza_ligand
  -I-interpret- 

 35 35  0  0  0  0  0  0  0  0999 V2000
   -7.4540   27.6210   56.5340 N   0  0  0  0  0
   -3.8980   27.5870   57.2760 C   0  0  0  0  0
   -5.2440   27.9180   57.3640 C   0  0  0  0  0
   -6.1580   27.3220   56.4980 C   0  0  0  0  0
   -1.9620   26.3680   56.2940 C   0  0  0  0  0
   -1.7160   24.9950   56.8920 C   0  0  0  0  0
   -4.5090   25.5050   53.0010 C   0  0  0  0  0
    0.1040   24.3840   55.5150 O   0  0  0  0  0
   -0.2490   24.6280   56.6920 C   0  0  0  0  0
    0.4820   24.6060   57.7100 O   0  0  0  0  0
   -2.0510   25.0420   58.3160 N   0  3  0  0  0
   -3.4570   26.6700   56.3220 C   0  0  0  0  0
   -5.7480   29.0520   58.5740 Cl  0  0  0  0  0
   -8.4290   26.6620   56.1380 O   0  0  0  0  0
   -7.8500   28.9390   56.8480 O   0  0  0  0  0
   -5.7160   26.4170   55.5430 C   0  0  0  0  0
   -4.3720   26.0810   55.4490 C   0  0  0  0  0
   -3.9890   25.0700   54.3680 C   0  0  0  0  0
   -5.9850   25.1250   52.8300 C   0  0  0  0  0
   -6.6880   25.8970   52.1530 O   0  0  0  0  0
   -6.3860   24.0830   53.3880 O   0  0  0  0  0
   -3.1817   28.0468   57.9568 H   0  0  0  0  0
   -1.6054   26.3865   55.2642 H   0  0  0  0  0
   -1.4271   27.1198   56.8743 H   0  0  0  0  0
   -2.3347   24.2403   56.4066 H   0  0  0  0  0
   -3.9263   25.0031   52.2286 H   0  0  0  0  0
   -4.4142   26.5877   52.9184 H   0  0  0  0  0
   -0.0408   24.8317   58.4829 H   0  0  0  0  0
   -3.0347   25.2888   58.4247 H   0  0  0  0  0
   -1.8804   24.1276   58.7346 H   0  0  0  0  0
   -1.4706   25.7422   58.7777 H   0  0  0  0  0
   -6.4330   25.9643   54.8581 H   0  0  0  0  0
   -2.9020   25.0024   54.3226 H   0  0  0  0  0
   -4.4314   24.1060   54.6192 H   0  0  0  0  0
   -5.6538   23.6651   53.8471 H   0  0  0  0  0
  4  1  1  0  0  0
  1 14  2  0  0  0
  1 15  2  0  0  0
  2  3  4  0  0  0
 12  2  4  0  0  0
  4  3  4  0  0  0
  3 13  1  0  0  0
 16  4  4  0  0  0
  5  6  1  0  0  0
 12  5  1  0  0  0
  6  9  1  0  0  0
  6 11  1  0  0  0
 18  7  1  0  0  0
  7 19  1  0  0  0
  9  8  2  0  0  0
  9 10  1  0  0  0
 17 12  4  0  0  0
 17 16  4  0  0  0
 17 18  1  0  0  0
 19 20  2  0  0  0
 19 21  1  0  0  0
  2 22  1  0  0  0
  5 23  1  0  0  0
  5 24  1  0  0  0
  6 25  1  0  0  0
  7 26  1  0  0  0
  7 27  1  0  0  0
 10 28  1  0  0  0
 11 29  1  0  0  0
 11 30  1  0  0  0
 11 31  1  0  0  0
 16 32  1  0  0  0
 18 33  1  0  0  0
 18 34  1  0  0  0
 21 35  1  0  0  0
M  END
$$$$
