3sh1_ligand
  -I-interpret- 

100107  0  0  0  0  0  0  0  0999 V2000
   24.5880  -35.3950   14.3890 O   0  0  0  0  0
   24.5210  -36.0530   15.4200 C   0  0  0  0  0
   23.4140  -37.0180   15.8060 C   0  0  0  0  0
   24.2210  -38.0370   16.6280 C   0  0  0  0  0
   23.3310  -38.8500   17.5730 C   0  0  0  0  0
   25.1730  -37.0660   17.3000 C   0  0  0  0  0
   25.6250  -37.1470   18.4210 O   0  0  0  0  0
   25.4330  -36.0850   16.4150 N   0  0  0  0  0
   26.5440  -35.2100   16.4920 C   0  0  0  0  0
   27.8330  -35.7470   16.4610 C   0  0  0  0  0
   28.9570  -34.9460   16.5210 C   0  0  0  0  0
   28.8090  -33.5720   16.6090 C   0  0  0  0  0
   27.5510  -33.0040   16.6320 C   0  0  0  0  0
   26.3970  -33.8000   16.5710 C   0  0  0  0  0
   25.0640  -33.1420   16.5960 C   0  0  0  0  0
   24.0460  -33.7900   16.7600 O   0  0  0  0  0
   24.9630  -31.8070   16.4250 O   0  0  0  0  0
   23.6660  -31.1540   16.3780 C   0  0  0  0  0
   23.9490  -29.6690   16.1690 C   0  0  0  0  0
   24.9120  -29.2450   17.2720 C   0  0  0  0  0
   26.0080  -28.2940   16.7690 C   0  0  0  0  0
   25.5420  -27.3330   15.6830 C   0  0  0  0  0
   24.7980  -26.2600   16.2610 O   0  0  0  0  0
   25.7290  -25.5150   17.0580 C   0  0  0  0  0
   24.7760  -27.9680   14.5520 C   0  0  0  0  0
   24.5850  -29.4790   14.7680 C   0  0  0  0  0
   23.2890  -27.5150   14.3750 C   0  0  0  0  0
   22.6100  -27.5840   15.6560 N   0  3  0  0  0
   21.2330  -27.1310   15.4830 C   0  0  0  0  0
   21.0580  -25.6800   15.9320 C   0  0  0  0  0
   22.6410  -28.8730   16.3200 C   0  0  0  0  0
   25.5420  -27.6350   13.2840 C   0  0  0  0  0
   25.6350  -26.1160   13.0770 C   0  0  0  0  0
   25.2550  -25.8660   11.5900 C   0  0  0  0  0
   23.7410  -25.5490   11.5780 C   0  0  0  0  0
   23.4150  -24.6460   10.5190 O   0  0  0  0  0
   23.0840  -23.3940   11.1300 C   0  0  0  0  0
   22.8270  -26.7710   11.6150 C   0  0  0  0  0
   24.9320  -28.2120   11.9790 C   0  0  0  0  0
   25.4640  -27.2310   10.8930 C   0  0  0  0  0
   24.7530  -27.3460    9.6700 O   0  0  0  0  0
   25.6550  -26.9200    8.6500 C   0  0  0  0  0
   23.4100  -28.1450   11.9370 C   0  0  0  0  0
   22.9260  -29.0990   10.9550 O   0  0  0  0  0
   22.8100  -28.5560   13.3110 C   0  0  0  0  0
   21.3890  -28.7050   13.1720 O   0  0  0  0  0
   23.4430  -29.8900   13.7990 C   0  0  0  0  0
   23.9230  -30.7580   12.7760 O   0  0  0  0  0
   24.8600  -31.6570   13.3880 C   0  0  0  0  0
   22.8760  -37.4469   14.9606 H   0  0  0  0  0
   22.5854  -36.5596   16.3459 H   0  0  0  0  0
   24.7178  -38.8390   16.0820 H   0  0  0  0  0
   23.9573  -39.4440   18.2386 H   0  0  0  0  0
   22.7137  -38.1717   18.1620 H   0  0  0  0  0
   22.6909  -39.5108   16.9885 H   0  0  0  0  0
   27.9555  -36.8276   16.3875 H   0  0  0  0  0
   29.9515  -35.3916   16.4993 H   0  0  0  0  0
   29.6917  -32.9346   16.6605 H   0  0  0  0  0
   27.4526  -31.9205   16.6986 H   0  0  0  0  0
   23.1057  -31.3232   17.2975 H   0  0  0  0  0
   23.0512  -31.5556   15.5725 H   0  0  0  0  0
   25.3977  -30.1424   17.6553 H   0  0  0  0  0
   24.3370  -28.7194   18.0344 H   0  0  0  0  0
   26.7985  -28.9093   16.3394 H   0  0  0  0  0
   26.3288  -27.6914   17.6187 H   0  0  0  0  0
   26.4534  -26.9538   15.2208 H   0  0  0  0  0
   26.1469  -26.1637   17.8278 H   0  0  0  0  0
   26.5311  -25.1402   16.4222 H   0  0  0  0  0
   25.2141  -24.6769   17.5276 H   0  0  0  0  0
   25.5203  -30.0239   14.6404 H   0  0  0  0  0
   23.1087  -26.4895   14.0526 H   0  0  0  0  0
   23.1333  -26.9720   16.2821 H   0  0  0  0  0
   20.5840  -27.7607   16.0916 H   0  0  0  0  0
   20.9786  -27.1975   14.4252 H   0  0  0  0  0
   21.3198  -25.5932   16.9865 H   0  0  0  0  0
   21.7096  -25.0369   15.3405 H   0  0  0  0  0
   20.0203  -25.3791   15.7880 H   0  0  0  0  0
   22.5211  -28.6749   17.3851 H   0  0  0  0  0
   21.8576  -29.4760   15.8609 H   0  0  0  0  0
   26.5153  -28.0977   13.4475 H   0  0  0  0  0
   26.6366  -25.7467   13.2974 H   0  0  0  0  0
   24.9658  -25.5825   13.7520 H   0  0  0  0  0
   25.8258  -25.0676   11.1158 H   0  0  0  0  0
   23.5380  -25.0495   12.5253 H   0  0  0  0  0
   22.2337  -23.5308   11.7982 H   0  0  0  0  0
   23.9401  -23.0312   11.6989 H   0  0  0  0  0
   22.8271  -22.6703   10.3564 H   0  0  0  0  0
   22.4523  -26.8641   10.5957 H   0  0  0  0  0
   22.1328  -26.5696   12.4309 H   0  0  0  0  0
   25.1972  -29.2628   11.8625 H   0  0  0  0  0
   26.4956  -27.4119   10.5909 H   0  0  0  0  0
   25.9528  -25.8884    8.8378 H   0  0  0  0  0
   26.5367  -27.5609    8.6556 H   0  0  0  0  0
   25.1622  -26.9864    7.6800 H   0  0  0  0  0
   23.2872  -29.9671   11.1488 H   0  0  0  0  0
   21.2017  -29.3629   12.4984 H   0  0  0  0  0
   22.6667  -30.4891   14.2750 H   0  0  0  0  0
   25.6798  -31.0849   13.8224 H   0  0  0  0  0
   24.3577  -32.2260   14.1703 H   0  0  0  0  0
   25.2514  -32.3403   12.6343 H   0  0  0  0  0
  1  2  2  0  0  0
  2  3  1  0  0  0
  2  8  1  0  0  0
  3  4  1  0  0  0
  4  5  1  0  0  0
  4  6  1  0  0  0
  6  7  2  0  0  0
  6  8  1  0  0  0
  8  9  1  0  0  0
  9 10  4  0  0  0
  9 14  4  0  0  0
 10 11  4  0  0  0
 11 12  4  0  0  0
 12 13  4  0  0  0
 13 14  4  0  0  0
 14 15  1  0  0  0
 15 16  2  0  0  0
 15 17  1  0  0  0
 17 18  1  0  0  0
 18 19  1  0  0  0
 19 20  1  0  0  0
 19 26  1  0  0  0
 19 31  1  0  0  0
 20 21  1  0  0  0
 21 22  1  0  0  0
 22 23  1  0  0  0
 22 25  1  0  0  0
 23 24  1  0  0  0
 25 26  1  0  0  0
 25 27  1  0  0  0
 25 32  1  0  0  0
 26 47  1  0  0  0
 27 28  1  0  0  0
 27 45  1  0  0  0
 28 29  1  0  0  0
 28 31  1  0  0  0
 29 30  1  0  0  0
 32 33  1  0  0  0
 32 39  1  0  0  0
 33 34  1  0  0  0
 34 35  1  0  0  0
 34 40  1  0  0  0
 35 36  1  0  0  0
 35 38  1  0  0  0
 36 37  1  0  0  0
 38 43  1  0  0  0
 39 40  1  0  0  0
 39 43  1  0  0  0
 40 41  1  0  0  0
 41 42  1  0  0  0
 43 44  1  0  0  0
 43 45  1  0  0  0
 45 46  1  0  0  0
 45 47  1  0  0  0
 47 48  1  0  0  0
 48 49  1  0  0  0
  3 50  1  0  0  0
  3 51  1  0  0  0
  4 52  1  0  0  0
  5 53  1  0  0  0
  5 54  1  0  0  0
  5 55  1  0  0  0
 10 56  1  0  0  0
 11 57  1  0  0  0
 12 58  1  0  0  0
 13 59  1  0  0  0
 18 60  1  0  0  0
 18 61  1  0  0  0
 20 62  1  0  0  0
 20 63  1  0  0  0
 21 64  1  0  0  0
 21 65  1  0  0  0
 22 66  1  0  0  0
 24 67  1  0  0  0
 24 68  1  0  0  0
 24 69  1  0  0  0
 26 70  1  0  0  0
 27 71  1  0  0  0
 28 72  1  0  0  0
 29 73  1  0  0  0
 29 74  1  0  0  0
 30 75  1  0  0  0
 30 76  1  0  0  0
 30 77  1  0  0  0
 31 78  1  0  0  0
 31 79  1  0  0  0
 32 80  1  0  0  0
 33 81  1  0  0  0
 33 82  1  0  0  0
 34 83  1  0  0  0
 35 84  1  0  0  0
 37 85  1  0  0  0
 37 86  1  0  0  0
 37 87  1  0  0  0
 38 88  1  0  0  0
 38 89  1  0  0  0
 39 90  1  0  0  0
 40 91  1  0  0  0
 42 92  1  0  0  0
 42 93  1  0  0  0
 42 94  1  0  0  0
 44 95  1  0  0  0
 46 96  1  0  0  0
 47 97  1  0  0  0
 49 98  1  0  0  0
 49 99  1  0  0  0
 49100  1  0  0  0
M  END
$$$$
