### 
### Created by X-TOOL on Mon Sep 10 21:13:07 2018
### 

@<TRIPOS>MOLECULE
3sh1_ligand
   99   106     1     0     0
SMALL
GAST_HUCK


@<TRIPOS>ATOM
      1 O8         24.5880  -35.3950   14.3890 O.2       1 MLK        -0.3744
      2 C8         24.5210  -36.0530   15.4200 C.2       1 MLK         0.2359
      3 C9         23.4140  -37.0180   15.8060 C.3       1 MLK         0.0686
      4 C10        24.2210  -38.0370   16.6280 C.3       1 MLK         0.0744
      5 C12        23.3310  -38.8500   17.5730 C.3       1 MLK        -0.0422
      6 C11        25.1730  -37.0660   17.3000 C.2       1 MLK         0.2384
      7 O11        25.6250  -37.1470   18.4210 O.2       1 MLK        -0.3741
      8 N7         25.4330  -36.0850   16.4150 N.am      1 MLK        -0.1277
      9 C6         26.5440  -35.2100   16.4920 C.ar      1 MLK         0.1179
     10 C5         27.8330  -35.7470   16.4610 C.ar      1 MLK        -0.0292
     11 C4         28.9570  -34.9460   16.5210 C.ar      1 MLK        -0.0688
     12 C3         28.8090  -33.5720   16.6090 C.ar      1 MLK        -0.0695
     13 C2         27.5510  -33.0040   16.6320 C.ar      1 MLK        -0.0521
     14 C1         26.3970  -33.8000   16.5710 C.ar      1 MLK         0.0872
     15 C13        25.0640  -33.1420   16.5960 C.2       1 MLK         0.2546
     16 O13        24.0460  -33.7900   16.7600 O.2       1 MLK        -0.3652
     17 O14        24.9630  -31.8070   16.4250 O.3       1 MLK        -0.2794
     18 C15        23.6660  -31.1540   16.3780 C.3       1 MLK         0.0794
     19 C16        23.9490  -29.6690   16.1690 C.3       1 MLK        -0.0142
     20 C21        24.9120  -29.2450   17.2720 C.3       1 MLK        -0.0441
     21 C20        26.0080  -28.2940   16.7690 C.3       1 MLK        -0.0256
     22 C19        25.5420  -27.3330   15.6830 C.3       1 MLK         0.0630
     23 O19        24.7980  -26.2600   16.2610 O.3       1 MLK        -0.3793
     24 C22        25.7290  -25.5150   17.0580 C.3       1 MLK         0.0368
     25 C18        24.7760  -27.9680   14.5520 C.3       1 MLK        -0.0070
     26 C17        24.5850  -29.4790   14.7680 C.3       1 MLK         0.0009
     27 C26        23.2890  -27.5150   14.3750 C.3       1 MLK        -0.0568
     28 N23        22.6100  -27.5840   15.6560 N.4       1 MLK         0.4077
     29 C24        21.2330  -27.1310   15.4830 C.3       1 MLK        -0.1153
     30 C25        21.0580  -25.6800   15.9320 C.3       1 MLK        -0.0839
     31 C23        22.6410  -28.8730   16.3200 C.3       1 MLK        -0.1039
     32 C30        25.5420  -27.6350   13.2840 C.3       1 MLK        -0.0259
     33 C33        25.6350  -26.1160   13.0770 C.3       1 MLK        -0.0417
     34 C34        25.2550  -25.8660   11.5900 C.3       1 MLK         0.0123
     35 C35        23.7410  -25.5490   11.5780 C.3       1 MLK         0.0662
     36 O35        23.4150  -24.6460   10.5190 O.3       1 MLK        -0.3793
     37 C37        23.0840  -23.3940   11.1300 C.3       1 MLK         0.0368
     38 C36        22.8270  -26.7710   11.6150 C.3       1 MLK         0.0058
     39 C31        24.9320  -28.2120   11.9790 C.3       1 MLK         0.0206
     40 C38        25.4640  -27.2310   10.8930 C.3       1 MLK         0.0693
     41 O38        24.7530  -27.3460    9.6700 O.3       1 MLK        -0.3790
     42 C39        25.6550  -26.9200    8.6500 C.3       1 MLK         0.0368
     43 C32        23.4100  -28.1450   11.9370 C.3       1 MLK         0.1031
     44 O32        22.9260  -29.0990   10.9550 O.3       1 MLK        -0.3852
     45 C27        22.8100  -28.5560   13.3110 C.3       1 MLK         0.1064
     46 O27        21.3890  -28.7050   13.1720 O.3       1 MLK        -0.3849
     47 C28        23.4430  -29.8900   13.7990 C.3       1 MLK         0.0918
     48 O28        23.9230  -30.7580   12.7760 O.3       1 MLK        -0.3766
     49 C29        24.8600  -31.6570   13.3880 C.3       1 MLK         0.0369
     50 H          22.8760  -37.4469   14.9606 H         1 MLK         0.0541
     51 H          22.5854  -36.5596   16.3459 H         1 MLK         0.0541
     52 H          24.7178  -38.8390   16.0820 H         1 MLK         0.0571
     53 H          23.9573  -39.4440   18.2386 H         1 MLK         0.0259
     54 H          22.7137  -38.1717   18.1620 H         1 MLK         0.0259
     55 H          22.6909  -39.5108   16.9885 H         1 MLK         0.0259
     56 H          27.9555  -36.8276   16.3875 H         1 MLK         0.0534
     57 H          29.9515  -35.3916   16.4993 H         1 MLK         0.0619
     58 H          29.6917  -32.9346   16.6605 H         1 MLK         0.0515
     59 H          27.4526  -31.9205   16.6986 H         1 MLK         0.0636
     60 H          23.1057  -31.3232   17.2975 H         1 MLK         0.0616
     61 H          23.0512  -31.5556   15.5725 H         1 MLK         0.0616
     62 H          25.3977  -30.1424   17.6553 H         1 MLK         0.0272
     63 H          24.3370  -28.7194   18.0344 H         1 MLK         0.0272
     64 H          26.7985  -28.9093   16.3394 H         1 MLK         0.0290
     65 H          26.3288  -27.6914   17.6187 H         1 MLK         0.0290
     66 H          26.4534  -26.9538   15.2208 H         1 MLK         0.0601
     67 H          26.1469  -26.1637   17.8278 H         1 MLK         0.0524
     68 H          26.5311  -25.1402   16.4222 H         1 MLK         0.0524
     69 H          25.2141  -24.6769   17.5276 H         1 MLK         0.0524
     70 H          25.5203  -30.0239   14.6404 H         1 MLK         0.0338
     71 H          23.1087  -26.4895   14.0526 H         1 MLK         0.0089
     72 H          20.5840  -27.7607   16.0916 H         1 MLK         0.0014
     73 H          20.9786  -27.1975   14.4252 H         1 MLK         0.0014
     74 H          21.3198  -25.5932   16.9865 H         1 MLK         0.0210
     75 H          21.7096  -25.0369   15.3405 H         1 MLK         0.0210
     76 H          20.0203  -25.3791   15.7880 H         1 MLK         0.0210
     77 H          22.5211  -28.6749   17.3851 H         1 MLK         0.0023
     78 H          21.8576  -29.4760   15.8609 H         1 MLK         0.0023
     79 H          26.5153  -28.0977   13.4475 H         1 MLK         0.0311
     80 H          26.6366  -25.7467   13.2974 H         1 MLK         0.0272
     81 H          24.9658  -25.5825   13.7520 H         1 MLK         0.0272
     82 H          25.8258  -25.0676   11.1158 H         1 MLK         0.0351
     83 H          23.5380  -25.0495   12.5253 H         1 MLK         0.0600
     84 H          22.2337  -23.5308   11.7982 H         1 MLK         0.0524
     85 H          23.9401  -23.0312   11.6989 H         1 MLK         0.0524
     86 H          22.8271  -22.6703   10.3564 H         1 MLK         0.0524
     87 H          22.4523  -26.8641   10.5957 H         1 MLK         0.0319
     88 H          22.1328  -26.5696   12.4309 H         1 MLK         0.0319
     89 H          25.1972  -29.2628   11.8625 H         1 MLK         0.0358
     90 H          26.4956  -27.4119   10.5909 H         1 MLK         0.0603
     91 H          25.9528  -25.8884    8.8378 H         1 MLK         0.0524
     92 H          26.5367  -27.5609    8.6556 H         1 MLK         0.0524
     93 H          25.1622  -26.9864    7.6800 H         1 MLK         0.0524
     94 H          23.2063  -29.9828   11.2039 H         1 MLK         0.2103
     95 H          21.2019  -29.3838   12.5194 H         1 MLK         0.2103
     96 H          22.6667  -30.4891   14.2750 H         1 MLK         0.0628
     97 H          25.6798  -31.0849   13.8224 H         1 MLK         0.0524
     98 H          24.3577  -32.2260   14.1703 H         1 MLK         0.0524
     99 H          25.2514  -32.3403   12.6343 H         1 MLK         0.0524
@<TRIPOS>BOND
     1    1    2 2  
     2    2    3 1  
     3    2    8 am 
     4    3    4 1  
     5    4    5 1  
     6    4    6 1  
     7    6    7 2  
     8    6    8 am 
     9    8    9 1  
    10    9   10 ar 
    11    9   14 ar 
    12   10   11 ar 
    13   11   12 ar 
    14   12   13 ar 
    15   13   14 ar 
    16   14   15 1  
    17   15   16 2  
    18   15   17 1  
    19   17   18 1  
    20   18   19 1  
    21   19   20 1  
    22   19   26 1  
    23   19   31 1  
    24   20   21 1  
    25   21   22 1  
    26   22   23 1  
    27   22   25 1  
    28   23   24 1  
    29   25   26 1  
    30   25   27 1  
    31   25   32 1  
    32   26   47 1  
    33   27   28 1  
    34   27   45 1  
    35   28   29 1  
    36   28   31 1  
    37   29   30 1  
    38   32   33 1  
    39   32   39 1  
    40   33   34 1  
    41   34   35 1  
    42   34   40 1  
    43   35   36 1  
    44   35   38 1  
    45   36   37 1  
    46   38   43 1  
    47   39   40 1  
    48   39   43 1  
    49   40   41 1  
    50   41   42 1  
    51   43   44 1  
    52   43   45 1  
    53   45   46 1  
    54   45   47 1  
    55   47   48 1  
    56   48   49 1  
    57    3   50 1  
    58    3   51 1  
    59    4   52 1  
    60    5   53 1  
    61    5   54 1  
    62    5   55 1  
    63   10   56 1  
    64   11   57 1  
    65   12   58 1  
    66   13   59 1  
    67   18   60 1  
    68   18   61 1  
    69   20   62 1  
    70   20   63 1  
    71   21   64 1  
    72   21   65 1  
    73   22   66 1  
    74   24   67 1  
    75   24   68 1  
    76   24   69 1  
    77   26   70 1  
    78   27   71 1  
    79   29   72 1  
    80   29   73 1  
    81   30   74 1  
    82   30   75 1  
    83   30   76 1  
    84   31   77 1  
    85   31   78 1  
    86   32   79 1  
    87   33   80 1  
    88   33   81 1  
    89   34   82 1  
    90   35   83 1  
    91   37   84 1  
    92   37   85 1  
    93   37   86 1  
    94   38   87 1  
    95   38   88 1  
    96   39   89 1  
    97   40   90 1  
    98   42   91 1  
    99   42   92 1  
   100   42   93 1  
   101   44   94 1  
   102   46   95 1  
   103   47   96 1  
   104   49   97 1  
   105   49   98 1  
   106   49   99 1  
@<TRIPOS>SUBSTRUCTURE
     1 MLK         1

