2vtl_ligand
  -I-interpret- 

 22 23  0  0  0  0  0  0  0  0999 V2000
   27.9710    7.4380   64.2760 O   0  0  0  0  0
   28.4240    6.4680   64.8110 C   0  0  0  0  0
   29.5830    6.4870   65.4960 N   0  0  0  0  0
   30.5080    7.5370   65.5400 C   0  0  0  0  0
   30.7720    8.2960   64.3990 C   0  0  0  0  0
   31.6830    9.3330   64.4490 C   0  0  0  0  0
   32.3420    9.6160   65.6300 C   0  0  0  0  0
   32.0880    8.8690   66.7630 C   0  0  0  0  0
   31.1830    7.8310   66.7210 C   0  0  0  0  0
   27.7530    5.1670   64.7050 C   0  0  0  0  0
   26.6060    4.8700   63.9800 C   0  0  0  0  0
   26.3960    3.5520   64.1780 C   0  0  0  0  0
   27.3880    3.1130   64.9720 N   0  0  0  0  0
   28.2460    4.1110   65.2970 N   0  0  0  0  0
   29.8099    5.6527   66.0372 H   0  0  0  0  0
   30.2575    8.0697   63.4651 H   0  0  0  0  0
   31.8819    9.9277   63.5574 H   0  0  0  0  0
   33.0645   10.4313   65.6673 H   0  0  0  0  0
   32.6052    9.1013   67.6939 H   0  0  0  0  0
   30.9950    7.2379   67.6160 H   0  0  0  0  0
   26.0053    5.5540   63.3805 H   0  0  0  0  0
   25.5782    2.9568   63.7717 H   0  0  0  0  0
  1  2  2  0  0  0
  2  3  1  0  0  0
  2 10  1  0  0  0
  3  4  1  0  0  0
  4  5  4  0  0  0
  4  9  4  0  0  0
  5  6  4  0  0  0
  6  7  4  0  0  0
  7  8  4  0  0  0
  8  9  4  0  0  0
 10 11  4  0  0  0
 10 14  4  0  0  0
 11 12  4  0  0  0
 12 13  4  0  0  0
 13 14  4  0  0  0
  3 15  1  0  0  0
  5 16  1  0  0  0
  6 17  1  0  0  0
  7 18  1  0  0  0
  8 19  1  0  0  0
  9 20  1  0  0  0
 11 21  1  0  0  0
 12 22  1  0  0  0
M  END
$$$$
