6dm8_ligand
  -I-interpret- 

 89 95  0  0  0  0  0  0  0  0999 V2000
 -199.6380   -4.3950   23.1890 C   0  0  0  0  0
 -198.5080   -3.8950   25.3720 C   0  0  0  0  0
 -197.3950   -5.6790   29.6640 C   0  0  0  0  0
 -197.6800   -2.8400   24.8100 C   0  0  0  0  0
 -199.7920   -2.0270   23.6840 C   0  0  0  0  0
 -200.2980   -5.2760   25.4680 C   0  0  0  0  0
 -201.5150   -5.9910   25.2720 C   0  0  0  0  0
 -202.0710   -6.5960   26.4080 C   0  0  0  0  0
 -203.5350   -7.4650   26.2310 Cl  0  0  0  0  0
 -201.5010   -6.5370   27.6800 C   0  0  0  0  0
 -200.3130   -5.8300   27.8460 C   0  0  0  0  0
 -199.7060   -5.2000   26.7420 C   0  0  0  0  0
 -198.5150   -4.4330   26.6510 C   0  0  0  0  0
 -197.7600   -3.9380   27.8500 C   0  0  0  0  0
 -196.8390   -5.0120   28.4160 C   0  0  0  0  0
 -196.8450   -6.9810   29.6230 O   0  0  0  0  0
 -196.4760   -2.7630   25.0560 O   0  0  0  0  0
 -198.3680   -1.9320   23.9730 N   0  0  0  0  0
 -199.4590   -4.5640   24.6340 N   0  0  0  0  0
 -200.2060   -3.0880   22.6900 C   0  0  0  0  0
 -203.5990   -5.5790   22.4080 N   0  0  0  0  0
 -204.5620   -4.8800   21.5870 C   0  0  0  0  0
 -203.1090   -5.1500   23.6050 C   0  0  0  0  0
 -203.5440   -3.8600   24.2030 C   0  0  0  0  0
 -202.2230   -6.1410   24.0160 C   0  0  0  0  0
 -202.2470   -7.1250   22.9960 C   0  0  0  0  0
 -201.4950   -8.4010   22.9110 C   0  0  0  0  0
 -203.0970   -6.7700   22.0140 N   0  0  0  0  0
 -197.6390   -9.9320   32.4390 C   0  0  0  0  0
 -197.9660  -11.1710   33.5990 Cl  0  0  0  0  0
 -197.7520   -8.5870   32.8320 C   0  0  0  0  0
 -198.1480   -8.2220   34.2380 C   0  0  0  0  0
 -197.4860   -7.5890   31.8780 C   0  0  0  0  0
 -197.1140   -7.9140   30.5750 C   0  0  0  0  0
 -197.0100   -9.2610   30.1950 C   0  0  0  0  0
 -197.2680  -10.2920   31.1270 C   0  0  0  0  0
 -197.1520  -11.7430   30.7290 C   0  0  0  0  0
 -196.1550    1.0600   21.9100 C   0  0  0  0  0
 -195.8960   -0.3080   21.7620 C   0  0  0  0  0
 -194.8240   -0.7790   20.8640 C   0  0  0  0  0
 -194.6060   -1.9370   20.5430 O   0  0  0  0  0
 -194.0800    0.2440   20.4170 O   0  0  0  0  0
 -196.6510   -1.2290   22.4590 C   0  0  0  0  0
 -197.6940   -0.8450   23.3430 C   0  0  0  0  0
 -197.9760    0.5470   23.5050 C   0  0  0  0  0
 -197.1950    1.4590   22.7800 C   0  0  0  0  0
 -197.6420    2.7290   23.1020 N   0  0  0  0  0
 -197.0690    3.9290   22.5440 C   0  0  0  0  0
 -198.6750    2.6850   23.9930 C   0  0  0  0  0
 -198.8990    1.3490   24.2570 C   0  0  0  0  0
 -200.3638   -5.1543   22.8979 H   0  0  0  0  0
 -198.6352   -4.4535   22.7658 H   0  0  0  0  0
 -198.4848   -5.6888   29.6792 H   0  0  0  0  0
 -197.1277   -5.1437   30.5751 H   0  0  0  0  0
 -200.0761   -1.0715   23.2431 H   0  0  0  0  0
 -200.2754   -2.2886   24.6253 H   0  0  0  0  0
 -201.9757   -7.0339   28.5261 H   0  0  0  0  0
 -199.8521   -5.7640   28.8315 H   0  0  0  0  0
 -198.4800   -3.6612   28.6201 H   0  0  0  0  0
 -197.1504   -3.0871   27.5458 H   0  0  0  0  0
 -196.7214   -5.7822   27.6537 H   0  0  0  0  0
 -195.8991   -4.5318   28.6884 H   0  0  0  0  0
 -201.2916   -3.1420   22.6090 H   0  0  0  0  0
 -199.8289   -2.8556   21.6941 H   0  0  0  0  0
 -205.4860   -4.7440   22.1490 H   0  0  0  0  0
 -204.1595   -3.9068   21.3060 H   0  0  0  0  0
 -204.7640   -5.4641   20.6891 H   0  0  0  0  0
 -203.2954   -3.0442   23.5242 H   0  0  0  0  0
 -204.6213   -3.8821   24.3673 H   0  0  0  0  0
 -203.0331   -3.7114   25.1543 H   0  0  0  0  0
 -200.4252   -8.1923   22.9226 H   0  0  0  0  0
 -201.7528   -9.0306   23.7626 H   0  0  0  0  0
 -201.7563   -8.9143   21.9856 H   0  0  0  0  0
 -199.1332   -8.6345   34.4553 H   0  0  0  0  0
 -197.4190   -8.6314   34.9373 H   0  0  0  0  0
 -198.1775   -7.1368   34.3357 H   0  0  0  0  0
 -197.5725   -6.5405   32.1632 H   0  0  0  0  0
 -196.7280   -9.5142   29.1730 H   0  0  0  0  0
 -196.4011  -12.2301   31.3510 H   0  0  0  0  0
 -198.1149  -12.2345   30.8676 H   0  0  0  0  0
 -196.8565  -11.8087   29.6819 H   0  0  0  0  0
 -195.5679    1.8004   21.3666 H   0  0  0  0  0
 -194.4139    1.0656   20.7845 H   0  0  0  0  0
 -196.4391   -2.2899   22.3262 H   0  0  0  0  0
 -196.0118    3.9804   22.8044 H   0  0  0  0  0
 -197.1769    3.9113   21.4595 H   0  0  0  0  0
 -197.5867    4.7991   22.9478 H   0  0  0  0  0
 -199.2146    3.5344   24.4119 H   0  0  0  0  0
 -199.6608    0.9618   24.9336 H   0  0  0  0  0
  1 19  1  0  0  0
 20  1  1  0  0  0
  4  2  1  0  0  0
  2 13  4  0  0  0
  2 19  4  0  0  0
 15  3  1  0  0  0
  3 16  1  0  0  0
  4 17  2  0  0  0
 18  4  1  0  0  0
 18  5  1  0  0  0
  5 20  1  0  0  0
  6  7  4  0  0  0
  6 12  4  0  0  0
 19  6  4  0  0  0
  7  8  4  0  0  0
  7 25  1  0  0  0
  8  9  1  0  0  0
  8 10  4  0  0  0
 11 10  4  0  0  0
 12 11  4  0  0  0
 13 12  4  0  0  0
 13 14  1  0  0  0
 14 15  1  0  0  0
 16 34  1  0  0  0
 44 18  1  0  0  0
 21 22  1  0  0  0
 23 21  4  0  0  0
 28 21  4  0  0  0
 23 24  1  0  0  0
 25 23  4  0  0  0
 25 26  4  0  0  0
 26 27  1  0  0  0
 26 28  4  0  0  0
 29 30  1  0  0  0
 31 29  4  0  0  0
 36 29  4  0  0  0
 31 32  1  0  0  0
 33 31  4  0  0  0
 34 33  4  0  0  0
 34 35  4  0  0  0
 35 36  4  0  0  0
 36 37  1  0  0  0
 39 38  4  0  0  0
 38 46  4  0  0  0
 39 40  1  0  0  0
 43 39  4  0  0  0
 40 41  2  0  0  0
 40 42  1  0  0  0
 43 44  4  0  0  0
 44 45  4  0  0  0
 45 46  4  0  0  0
 45 50  4  0  0  0
 46 47  4  0  0  0
 47 48  1  0  0  0
 47 49  4  0  0  0
 49 50  4  0  0  0
  1 51  1  0  0  0
  1 52  1  0  0  0
  3 53  1  0  0  0
  3 54  1  0  0  0
  5 55  1  0  0  0
  5 56  1  0  0  0
 10 57  1  0  0  0
 11 58  1  0  0  0
 14 59  1  0  0  0
 14 60  1  0  0  0
 15 61  1  0  0  0
 15 62  1  0  0  0
 20 63  1  0  0  0
 20 64  1  0  0  0
 22 65  1  0  0  0
 22 66  1  0  0  0
 22 67  1  0  0  0
 24 68  1  0  0  0
 24 69  1  0  0  0
 24 70  1  0  0  0
 27 71  1  0  0  0
 27 72  1  0  0  0
 27 73  1  0  0  0
 32 74  1  0  0  0
 32 75  1  0  0  0
 32 76  1  0  0  0
 33 77  1  0  0  0
 35 78  1  0  0  0
 37 79  1  0  0  0
 37 80  1  0  0  0
 37 81  1  0  0  0
 38 82  1  0  0  0
 42 83  1  0  0  0
 43 84  1  0  0  0
 48 85  1  0  0  0
 48 86  1  0  0  0
 48 87  1  0  0  0
 49 88  1  0  0  0
 50 89  1  0  0  0
M  END
$$$$
