5enh_ligand
  -I-interpret- 

 30 30  0  0  0  0  0  0  0  0999 V2000
  -27.2280    3.8530   -6.2760 C   0  0  0  0  0
  -28.1280    3.4330   -5.3050 C   0  0  0  0  0
  -28.1930    2.0930   -4.9620 C   0  0  0  0  0
  -27.3680    1.1670   -5.5760 C   0  0  0  0  0
  -26.4730    1.5850   -6.5580 C   0  0  0  0  0
  -26.7720    6.1080   -5.6230 C   0  0  0  0  0
  -23.1090    3.1920   -9.5340 O   0  0  0  0  0
  -23.0330    3.5400   -8.3610 C   0  0  0  0  0
  -21.7310    3.9550   -7.7410 C   0  0  0  0  0
  -24.1040    3.5700   -7.5630 N   0  0  0  0  0
  -25.4640    3.3720   -8.0510 C   0  0  0  0  0
  -26.3910    2.9360   -6.9350 C   0  0  0  0  0
  -25.6280    0.7470   -7.2350 O   0  0  0  0  0
  -25.4670   -0.5830   -6.7440 C   0  0  0  0  0
  -27.0680    5.1610   -6.6460 O   0  0  0  0  0
  -28.7806    4.1555   -4.8149 H   0  0  0  0  0
  -28.9008    1.7644   -4.2010 H   0  0  0  0  0
  -27.4183    0.1157   -5.2925 H   0  0  0  0  0
  -27.5793    6.1140   -4.8906 H   0  0  0  0  0
  -25.8379    5.8323   -5.1337 H   0  0  0  0  0
  -26.6733    7.0995   -6.0650 H   0  0  0  0  0
  -21.0229    3.1283   -7.7983 H   0  0  0  0  0
  -21.3318    4.8150   -8.2787 H   0  0  0  0  0
  -21.8959    4.2221   -6.6972 H   0  0  0  0  0
  -23.9641    3.7391   -6.5669 H   0  0  0  0  0
  -25.4491    2.5936   -8.8138 H   0  0  0  0  0
  -25.8283    4.3162   -8.4559 H   0  0  0  0  0
  -25.0773   -0.5487   -5.7266 H   0  0  0  0  0
  -26.4321   -1.0897   -6.7479 H   0  0  0  0  0
  -24.7691   -1.1231   -7.3837 H   0  0  0  0  0
  1  2  4  0  0  0
 12  1  4  0  0  0
  1 15  1  0  0  0
  2  3  4  0  0  0
  4  3  4  0  0  0
  5  4  4  0  0  0
 12  5  4  0  0  0
  5 13  1  0  0  0
 15  6  1  0  0  0
  8  7  2  0  0  0
  8  9  1  0  0  0
 10  8  1  0  0  0
 11 10  1  0  0  0
 11 12  1  0  0  0
 13 14  1  0  0  0
  2 16  1  0  0  0
  3 17  1  0  0  0
  4 18  1  0  0  0
  6 19  1  0  0  0
  6 20  1  0  0  0
  6 21  1  0  0  0
  9 22  1  0  0  0
  9 23  1  0  0  0
  9 24  1  0  0  0
 10 25  1  0  0  0
 11 26  1  0  0  0
 11 27  1  0  0  0
 14 28  1  0  0  0
 14 29  1  0  0  0
 14 30  1  0  0  0
M  END
$$$$
