3ps1_ligand
  -I-interpret- 

 45 46  0  0  0  0  0  0  0  0999 V2000
   31.1800   -9.5670  -10.7370 C   0  0  0  0  0
   31.2290   -7.3220  -13.8030 C   0  0  0  0  0
   30.5710   -6.1010  -16.1550 C   0  0  0  0  0
   29.8660   -4.8160  -18.4500 C   0  0  0  0  0
   29.1240   -3.4550  -20.7630 C   0  0  0  0  0
   30.4690   -3.4720  -20.3650 C   0  0  0  0  0
   32.6250   -7.3850  -11.7380 C   0  0  0  0  0
   30.7580  -10.1020   -5.7090 C   0  0  0  0  0
   29.3580  -10.0740   -6.2250 C   0  0  0  0  0
   30.3710  -12.7360   -7.2580 O   0  0  0  0  0
   31.3690  -12.3010   -6.7130 C   0  0  0  0  0
   32.2980  -13.2280   -6.1670 N   0  0  0  0  0
   31.9980  -14.4920   -6.2370 O   0  0  0  0  0
   31.6510  -10.8280   -6.6770 C   0  0  0  0  0
   31.4730  -10.3240   -8.0220 N   0  0  0  0  0
   32.5160   -9.5750   -8.6470 C   0  0  0  0  0
   33.4560   -9.1640   -7.9950 O   0  0  0  0  0
   32.2340   -9.0240  -10.0010 C   0  0  0  0  0
   30.8450   -9.0290  -11.9840 C   0  0  0  0  0
   31.5880   -7.9460  -12.4850 C   0  0  0  0  0
   30.9410   -6.7910  -14.8690 C   0  0  0  0  0
   30.2500   -5.5240  -17.1860 C   0  0  0  0  0
   28.5190   -4.7910  -18.8360 C   0  0  0  0  0
   28.1510   -4.1140  -19.9990 C   0  0  0  0  0
   28.7430   -2.7540  -21.9460 N   0  0  0  0  0
   30.8400   -4.1480  -19.2030 C   0  0  0  0  0
   32.9650   -7.9290  -10.4910 C   0  0  0  0  0
   30.7620  -10.7310   -4.4920 O   0  0  0  0  0
   30.6170  -10.4115  -10.3396 H   0  0  0  0  0
   31.2222   -2.9582  -20.9624 H   0  0  0  0  0
   33.1706   -6.5239  -12.1239 H   0  0  0  0  0
   31.1341   -9.0850   -5.5976 H   0  0  0  0  0
   29.3367   -9.5608   -7.1864 H   0  0  0  0  0
   28.9972  -11.0951   -6.3487 H   0  0  0  0  0
   28.7211   -9.5458   -5.5155 H   0  0  0  0  0
   32.6697  -10.6581   -6.3284 H   0  0  0  0  0
   30.6030  -10.5037   -8.5233 H   0  0  0  0  0
   30.0181   -9.4444  -12.5600 H   0  0  0  0  0
   27.7650   -5.2964  -18.2325 H   0  0  0  0  0
   27.1074   -4.0975  -20.3134 H   0  0  0  0  0
   29.4479   -2.2671  -22.4996 H   0  0  0  0  0
   27.7658   -2.7398  -22.2380 H   0  0  0  0  0
   31.8818   -4.1565  -18.8826 H   0  0  0  0  0
   33.7854   -7.5079   -9.9098 H   0  0  0  0  0
   31.6582  -10.7556   -4.1487 H   0  0  0  0  0
 18  1  4  0  0  0
  1 19  4  0  0  0
 20  2  1  0  0  0
  2 21  3  0  0  0
 21  3  1  0  0  0
  3 22  3  0  0  0
 22  4  1  0  0  0
  4 23  4  0  0  0
  4 26  4  0  0  0
  6  5  4  0  0  0
  5 24  4  0  0  0
  5 25  1  0  0  0
 26  6  4  0  0  0
  7 20  4  0  0  0
 27  7  4  0  0  0
  8  9  1  0  0  0
 14  8  1  0  0  0
  8 28  1  0  0  0
 11 10  2  0  0  0
 11 12  1  0  0  0
 14 11  1  0  0  0
 12 13  2  0  0  0
 15 14  1  0  0  0
 16 15  1  0  0  0
 16 17  2  0  0  0
 18 16  1  0  0  0
 18 27  4  0  0  0
 19 20  4  0  0  0
 23 24  4  0  0  0
  1 29  1  0  0  0
  6 30  1  0  0  0
  7 31  1  0  0  0
  8 32  1  0  0  0
  9 33  1  0  0  0
  9 34  1  0  0  0
  9 35  1  0  0  0
 14 36  1  0  0  0
 15 37  1  0  0  0
 19 38  1  0  0  0
 23 39  1  0  0  0
 24 40  1  0  0  0
 25 41  1  0  0  0
 25 42  1  0  0  0
 26 43  1  0  0  0
 27 44  1  0  0  0
 28 45  1  0  0  0
M  END
$$$$
