3ikg_ligand
  -I-interpret- 

 47 49  0  0  0  0  0  0  0  0999 V2000
   13.4030    2.9040    1.2500 N   0  0  0  0  0
   14.6550    2.8290    1.9910 C   0  0  0  0  0
   15.3620    1.4970    1.6700 C   0  0  0  0  0
   16.7550    1.6470    1.9640 O   0  0  0  0  0
   12.2710    3.3140    1.8620 C   0  0  0  0  0
   12.2510    3.6510    3.0290 O   0  0  0  0  0
   17.1040    0.5510    3.1200 P   0  0  0  0  0
   17.2570   -0.7630    2.4660 O   0  0  0  0  0
   18.4940    0.9640    3.8200 O   0  0  0  0  0
   15.9330    0.5610    4.2060 O   0  0  0  0  0
   11.1110    3.5410    0.9990 C   0  0  0  0  0
   10.7530    2.9720   -0.1710 C   0  0  0  0  0
    9.5580    3.3770   -0.7900 C   0  0  0  0  0
    8.8240    4.3850   -0.1110 C   0  0  0  0  0
    9.8020    4.7120    1.3240 S   0  0  0  0  0
    9.0090    2.9030   -1.9960 C   0  0  0  0  0
    7.8610    3.4460   -2.4870 C   0  0  0  0  0
    7.1620    4.4400   -1.7990 C   0  0  0  0  0
    7.6600    4.9250   -0.6130 C   0  0  0  0  0
   15.5440    3.9520    1.3930 C   0  0  0  0  0
   14.0100    5.9760    1.0000 C   0  0  0  0  0
   15.0540    5.3630    1.7270 C   0  0  0  0  0
   15.6370    6.0690    2.7830 C   0  0  0  0  0
   15.2010    7.3600    3.1050 C   0  0  0  0  0
   14.1720    7.9740    2.3710 C   0  0  0  0  0
   13.5650    7.2670    1.3290 C   0  0  0  0  0
   15.8910    8.1440    4.2250 C   0  0  0  0  0
   13.3812    2.6454    0.2636 H   0  0  0  0  0
   14.4876    2.9156    3.0646 H   0  0  0  0  0
   15.2263    1.2450    0.6183 H   0  0  0  0  0
   14.9369    0.6931    2.2710 H   0  0  0  0  0
   18.3951    1.8188    4.2456 H   0  0  0  0  0
   15.8728    1.4334    4.6020 H   0  0  0  0  0
   11.3818    2.2089   -0.6296 H   0  0  0  0  0
    9.5046    2.0982   -2.5390 H   0  0  0  0  0
    7.4766    3.0947   -3.4446 H   0  0  0  0  0
    6.2263    4.8293   -2.2003 H   0  0  0  0  0
    7.1432    5.7226   -0.0792 H   0  0  0  0  0
   15.5203    3.8455    0.3085 H   0  0  0  0  0
   16.5410    3.8423    1.8197 H   0  0  0  0  0
   13.5436    5.4405    0.1731 H   0  0  0  0  0
   16.4388    5.6101    3.3615 H   0  0  0  0  0
   13.8515    8.9878    2.6109 H   0  0  0  0  0
   12.7448    7.7184    0.7708 H   0  0  0  0  0
   15.8004    7.5933    5.1613 H   0  0  0  0  0
   16.9449    8.2747    3.9793 H   0  0  0  0  0
   15.4171    9.1201    4.3288 H   0  0  0  0  0
  1  2  1  0  0  0
  1  5  1  0  0  0
  2  3  1  0  0  0
  2 20  1  0  0  0
  3  4  1  0  0  0
  4  7  1  0  0  0
  5  6  2  0  0  0
  5 11  1  0  0  0
  7  8  2  0  0  0
  7  9  1  0  0  0
  7 10  1  0  0  0
 11 12  4  0  0  0
 11 15  4  0  0  0
 12 13  4  0  0  0
 13 14  4  0  0  0
 13 16  4  0  0  0
 14 15  4  0  0  0
 14 19  4  0  0  0
 16 17  4  0  0  0
 17 18  4  0  0  0
 18 19  4  0  0  0
 20 22  1  0  0  0
 22 21  4  0  0  0
 21 26  4  0  0  0
 22 23  4  0  0  0
 23 24  4  0  0  0
 24 25  4  0  0  0
 24 27  1  0  0  0
 25 26  4  0  0  0
  1 28  1  0  0  0
  2 29  1  0  0  0
  3 30  1  0  0  0
  3 31  1  0  0  0
  9 32  1  0  0  0
 10 33  1  0  0  0
 12 34  1  0  0  0
 16 35  1  0  0  0
 17 36  1  0  0  0
 18 37  1  0  0  0
 19 38  1  0  0  0
 20 39  1  0  0  0
 20 40  1  0  0  0
 21 41  1  0  0  0
 23 42  1  0  0  0
 25 43  1  0  0  0
 26 44  1  0  0  0
 27 45  1  0  0  0
 27 46  1  0  0  0
 27 47  1  0  0  0
M  END
$$$$
