4np9_ligand
  -I-interpret- 

 39 39  0  0  0  0  0  0  0  0999 V2000
   14.4520    1.6120   38.9690 C   0  0  0  0  0
   13.4470    1.0010   37.9960 C   0  0  0  0  0
   12.1280    0.6360   38.6610 C   0  0  0  0  0
   11.5700    1.7320   39.5800 C   0  0  0  0  0
   12.6610    2.2760   40.4720 C   0  0  0  0  0
   13.8180    2.8010   39.6740 C   0  0  0  0  0
   15.6650    2.0110   38.3270 O   0  0  0  0  0
   13.1870    1.9350   36.9330 O   0  0  0  0  0
   11.1620    0.3520   37.6660 O   0  0  0  0  0
   10.5530    1.2170   40.4180 O   0  0  0  0  0
   12.1610    3.3150   41.3260 O   0  0  0  0  0
   14.7220    3.4380   40.5710 O   0  0  0  0  0
   17.0270    1.7850   39.1470 P   0  0  0  0  0
   17.3950    0.3270   39.1440 O   0  0  0  0  0
   16.8120    2.2370   40.5870 O   0  0  0  0  0
   18.1460    2.5990   38.5290 O   0  0  0  0  0
    9.2440    2.1200   40.7850 P   0  0  0  0  0
    8.5720    2.5790   39.5110 O   0  0  0  0  0
    9.6010    3.3340   41.6090 O   0  0  0  0  0
    8.2730    1.2810   41.5850 O   0  0  0  0  0
   12.7230    3.3790   42.8100 P   0  0  0  0  0
   13.7350    4.5040   42.8920 O   0  0  0  0  0
   13.3970    2.0870   43.1900 O   0  0  0  0  0
   11.5850    3.6450   43.7750 O   0  0  0  0  0
   14.7159    0.8425   39.6945 H   0  0  0  0  0
   13.8894    0.0808   37.6145 H   0  0  0  0  0
   12.3345   -0.2330   39.2857 H   0  0  0  0  0
   11.1683    2.5179   38.9403 H   0  0  0  0  0
   13.0096    1.4452   41.0855 H   0  0  0  0  0
   13.5173    3.5344   38.9258 H   0  0  0  0  0
   14.0141    2.1715   36.5069 H   0  0  0  0  0
   11.4970   -0.3328   37.0825 H   0  0  0  0  0
   15.4710    3.7815   40.0784 H   0  0  0  0  0
   16.5765    3.1676   40.5973 H   0  0  0  0  0
   17.9047    3.5282   38.5341 H   0  0  0  0  0
    8.3406    1.8141   38.9791 H   0  0  0  0  0
    8.0322    0.5019   41.0784 H   0  0  0  0  0
   13.3122    5.3315   42.6509 H   0  0  0  0  0
   11.1513    4.4679   43.5376 H   0  0  0  0  0
  1  2  1  0  0  0
  1  6  1  0  0  0
  1  7  1  0  0  0
  2  3  1  0  0  0
  2  8  1  0  0  0
  3  4  1  0  0  0
  3  9  1  0  0  0
  4  5  1  0  0  0
  4 10  1  0  0  0
  5  6  1  0  0  0
  5 11  1  0  0  0
  6 12  1  0  0  0
  7 13  1  0  0  0
 10 17  1  0  0  0
 11 21  1  0  0  0
 13 14  2  0  0  0
 13 15  1  0  0  0
 13 16  1  0  0  0
 17 18  1  0  0  0
 17 19  2  0  0  0
 17 20  1  0  0  0
 21 22  1  0  0  0
 21 23  2  0  0  0
 21 24  1  0  0  0
  1 25  1  0  0  0
  2 26  1  0  0  0
  3 27  1  0  0  0
  4 28  1  0  0  0
  5 29  1  0  0  0
  6 30  1  0  0  0
  8 31  1  0  0  0
  9 32  1  0  0  0
 12 33  1  0  0  0
 15 34  1  0  0  0
 16 35  1  0  0  0
 18 36  1  0  0  0
 20 37  1  0  0  0
 22 38  1  0  0  0
 24 39  1  0  0  0
M  END
$$$$
