### 
### Created by X-TOOL on Mon Sep 10 21:13:10 2018
### 

@<TRIPOS>MOLECULE
3v7d_ligand
  160   161     1     0     0
SMALL
GAST_HUCK


@<TRIPOS>ATOM
      1 N          28.5500   46.8350  -31.0490 N.4       1 PHE         0.2394
      2 CA         27.8930   46.3090  -29.8570 C.3       1 PHE         0.0744
      3 C          26.3880   46.5620  -29.9140 C.2       1 PHE         0.2289
      4 O          25.9500   47.7060  -30.0410 O.2       1 PHE        -0.3905
      5 CB         28.4950   46.9360  -28.5970 C.3       1 PHE         0.0416
      6 CG         27.9270   46.3920  -27.3140 C.ar      1 PHE        -0.0353
      7 CD1        27.8980   45.0270  -27.0770 C.ar      1 PHE        -0.0600
      8 CD2        27.4410   47.2480  -26.3360 C.ar      1 PHE        -0.0600
      9 CE1        27.3820   44.5230  -25.8950 C.ar      1 PHE        -0.0686
     10 CE2        26.9270   46.7520  -25.1490 C.ar      1 PHE        -0.0686
     11 CZ         26.8960   45.3880  -24.9300 C.ar      1 PHE        -0.0687
     12 N          25.6050   45.4900  -29.8190 N.am      1 ASN        -0.2587
     13 CA         24.1480   45.5820  -29.9200 C.3       1 ASN         0.1477
     14 C          23.4380   45.7950  -28.5790 C.2       1 ASN         0.2061
     15 O          22.2070   45.7870  -28.5110 O.2       1 ASN        -0.3942
     16 CB         23.5750   44.3500  -30.6330 C.3       1 ASN         0.0773
     17 CG         23.9440   43.0440  -29.9420 C.2       1 ASN         0.1780
     18 OD1        24.4100   43.0360  -28.8010 O.2       1 ASN        -0.3970
     19 ND2        23.7320   41.9310  -30.6350 N.am      1 ASN        -0.3007
     20 N          24.2210   45.9720  -27.5180 N.am      1 GLY        -0.2663
     21 CA         23.6770   46.2570  -26.2010 C.3       1 GLY         0.1201
     22 C          23.3750   45.0320  -25.3590 C.2       1 GLY         0.2007
     23 O          23.1250   45.1420  -24.1570 O.2       1 GLY        -0.3947
     24 N          23.4010   43.8600  -25.9840 N.am      1 LEU        -0.2640
     25 CA         23.0310   42.6280  -25.2990 C.3       1 LEU         0.1312
     26 C          24.2210   41.6780  -25.1760 C.2       1 LEU         0.2040
     27 O          24.6190   41.0400  -26.1520 O.2       1 LEU        -0.3944
     28 CB         21.8840   41.9480  -26.0470 C.3       1 LEU        -0.0101
     29 CG         20.7800   42.8950  -26.5290 C.3       1 LEU        -0.0425
     30 CD1        19.8230   42.1690  -27.4460 C.3       1 LEU        -0.0625
     31 CD2        20.0290   43.5210  -25.3570 C.3       1 LEU        -0.0625
     32 N          24.7920   41.5910  -23.9790 N.am      1 THR        -0.2613
     33 CA         25.9140   40.6920  -23.7390 C.3       1 THR         0.1565
     34 C          25.4540   39.2490  -23.9100 C.2       1 THR         0.2065
     35 O          24.3250   38.9050  -23.5600 O.2       1 THR        -0.3943
     36 CB         26.4930   40.8550  -22.3160 C.3       1 THR         0.0924
     37 OG1        26.5850   42.2440  -21.9760 O.3       1 THR        -0.3874
     38 CG2        27.8750   40.2270  -22.2270 C.3       1 THR        -0.0346
     39 N          26.3260   38.4100  -24.4560 N.am      1 SEP        -0.2612
     40 CA         26.0200   36.9940  -24.6220 C.3       1 SEP         0.1588
     41 CB         25.7470   36.6760  -26.0950 C.3       1 SEP         0.1184
     42 OG         25.2630   35.3550  -26.2510 O.3       1 SEP        -0.2714
     43 C          27.1600   36.1300  -24.0980 C.2       1 SEP         0.2090
     44 O          28.3290   36.5060  -24.1920 O.2       1 SEP        -0.3941
     45 P          23.7760   35.4290  -26.8590 P.3       1 SEP         0.2010
     46 O1P        23.0400   36.7730  -26.3450 O.co2     1 SEP        -0.5537
     47 O2P        23.8930   35.4440  -28.4640 O.co2     1 SEP        -0.5537
     48 O3P        22.9580   34.1300  -26.3750 O.co2     1 SEP        -0.5537
     49 N          26.8180   34.9750  -23.5170 N.am      1 PRO        -0.2498
     50 CA         27.8350   33.9940  -23.1300 C.3       1 PRO         0.1338
     51 C          28.6850   33.5950  -24.3230 C.2       1 PRO         0.2041
     52 O          28.2350   33.7260  -25.4590 O.2       1 PRO        -0.3944
     53 CB         27.0040   32.7870  -22.7040 C.3       1 PRO        -0.0104
     54 CG         25.7030   33.3500  -22.2790 C.3       1 PRO        -0.0281
     55 CD         25.4600   34.5500  -23.1370 C.3       1 PRO         0.0369
     56 N          29.8950   33.1110  -24.0830 N.am      1 GLN        -0.2636
     57 CA         30.7070   32.6280  -25.1900 C.3       1 GLN         0.1330
     58 C          30.3710   31.1760  -25.5110 C.2       1 GLN         0.2040
     59 O          29.7660   30.4770  -24.6990 O.2       1 GLN        -0.3944
     60 CB         32.2000   32.8030  -24.9040 C.3       1 GLN         0.0045
     61 CG         32.6600   34.2550  -24.9410 C.3       1 GLN         0.0412
     62 CD         34.1680   34.3960  -24.9140 C.2       1 GLN         0.1737
     63 OE1        34.8870   33.4570  -24.5700 O.2       1 GLN        -0.3973
     64 NE2        34.6570   35.5750  -25.2840 N.am      1 GLN        -0.3009
     65 N          30.7500   30.7430  -26.7080 N.am      1 ARG        -0.2637
     66 CA         30.5210   29.3730  -27.1530 C.3       1 ARG         0.1310
     67 C          31.1600   28.3620  -26.1990 C.2       1 ARG         0.2034
     68 O          32.1970   28.6330  -25.5940 O.2       1 ARG        -0.3944
     69 CB         31.0620   29.1970  -28.5760 C.3       1 ARG        -0.0092
     70 CG         30.9050   27.8000  -29.1780 C.3       1 ARG        -0.0156
     71 CD         29.4520   27.3280  -29.1700 C.3       1 ARG         0.0627
     72 NE         29.2850   26.0570  -29.8780 N.pl3     1 ARG        -0.2723
     73 CZ         29.5060   24.8600  -29.3400 C.cat     1 ARG         0.2882
     74 NH1        29.9050   24.7590  -28.0810 N.pl3     1 ARG        -0.2849
     75 NH2        29.3320   23.7600  -30.0620 N.pl3     1 ARG        -0.2849
     76 N          30.5180   27.2070  -26.0540 N.am      1 SEP        -0.2669
     77 CA         31.0190   26.1300  -25.2090 C.3       1 SEP         0.1219
     78 CB         29.8690   25.1980  -24.8200 C.3       1 SEP         0.1129
     79 OG         28.8210   25.9080  -24.1820 O.3       1 SEP        -0.2720
     80 C          32.0980   25.3370  -25.9430 C.2       1 SEP         0.0627
     81 O          33.1610   25.0400  -25.3940 O.co2     1 SEP        -0.5665
     82 P          27.5780   26.0850  -25.1890 P.3       1 SEP         0.2009
     83 O1P        27.7780   27.4340  -26.0440 O.co2     1 SEP        -0.5537
     84 O2P        27.5060   24.8220  -26.1830 O.co2     1 SEP        -0.5537
     85 O3P        26.2140   26.1860  -24.3440 O.co2     1 SEP        -0.5537
     86 OXT        31.9420   24.9680  -27.1090 O.co2     1 SEP        -0.5665
     87 H1         29.5408   46.6583  -30.9921 H         1 PHE         0.2017
     88 H2         28.3888   47.8281  -31.1110 H         1 PHE         0.2017
     89 H3         28.1744   46.3819  -31.8673 H         1 PHE         0.2017
     90 H4         28.0606   45.2225  -29.8190 H         1 PHE         0.1122
     91 H5         28.3084   48.0196  -28.6263 H         1 PHE         0.0507
     92 H6         29.5792   46.7504  -28.6019 H         1 PHE         0.0507
     93 H7         28.2840   44.3453  -27.8262 H         1 PHE         0.0557
     94 H8         27.4638   48.3188  -26.5030 H         1 PHE         0.0557
     95 H9         27.3587   43.4525  -25.7257 H         1 PHE         0.0599
     96 H10        26.5501   47.4322  -24.3939 H         1 PHE         0.0599
     97 H11        26.4916   44.9960  -24.0038 H         1 PHE         0.0559
     98 H12        26.0252   44.5942  -29.6742 H         1 ASN         0.1886
     99 H13        23.9264   46.4609  -30.5433 H         1 ASN         0.0826
    100 H14        23.9648   44.3259  -31.6613 H         1 ASN         0.0551
    101 H15        22.4787   44.4367  -30.6584 H         1 ASN         0.0551
    102 H16        23.9546   41.0423  -30.2341 H         1 ASN         0.1814
    103 H17        23.3498   41.9817  -31.5577 H         1 ASN         0.1814
    104 H18        25.2126   45.9070  -27.6301 H         1 GLY         0.1881
    105 H19        22.7419   46.8214  -26.3317 H         1 GLY         0.0763
    106 H20        24.4055   46.8755  -25.6563 H         1 GLY         0.0763
    107 H21        23.6800   43.8224  -26.9436 H         1 LEU         0.1883
    108 H22        22.6873   42.8836  -24.2858 H         1 LEU         0.0800
    109 H23        21.4288   41.2063  -25.3742 H         1 LEU         0.0315
    110 H24        22.3040   41.4369  -26.9258 H         1 LEU         0.0315
    111 H25        21.2540   43.7064  -27.1007 H         1 LEU         0.0298
    112 H26        19.0386   42.8635  -27.7815 H         1 LEU         0.0232
    113 H27        19.3624   41.3294  -26.9049 H         1 LEU         0.0232
    114 H28        20.3713   41.7858  -28.3192 H         1 LEU         0.0232
    115 H29        20.7416   44.0439  -24.7022 H         1 LEU         0.0232
    116 H30        19.5172   42.7322  -24.7861 H         1 LEU         0.0232
    117 H31        19.2870   44.2381  -25.7380 H         1 LEU         0.0232
    118 H32        24.4451   42.1533  -23.2283 H         1 THR         0.1884
    119 H33        26.7043   40.9123  -24.4717 H         1 THR         0.0826
    120 H34        25.8244   40.3530  -21.6012 H         1 THR         0.0639
    121 H35        26.9419   42.3315  -21.0999 H         1 THR         0.2101
    122 H36        28.2700   40.3530  -21.2081 H         1 THR         0.0257
    123 H37        28.5482   40.7188  -22.9446 H         1 THR         0.0257
    124 H38        27.8066   39.1550  -22.4637 H         1 THR         0.0257
    125 H39        27.2131   38.7571  -24.7604 H         1 SEP         0.1884
    126 H40        25.1143   36.7640  -24.0416 H         1 SEP         0.0827
    127 H41        26.6813   36.7857  -26.6652 H         1 SEP         0.0662
    128 H42        24.9966   37.3813  -26.4815 H         1 SEP         0.0662
    129 H43        28.4690   34.3691  -22.3131 H         1 PRO         0.0802
    130 H44        27.4882   32.2591  -21.8692 H         1 PRO         0.0313
    131 H45        26.8685   32.0936  -23.5471 H         1 PRO         0.0313
    132 H46        25.7432   33.6423  -21.2193 H         1 PRO         0.0287
    133 H47        24.9025   32.6098  -22.4252 H         1 PRO         0.0287
    134 H48        24.8667   34.2860  -24.0249 H         1 PRO         0.0524
    135 H49        24.9433   35.3400  -22.5723 H         1 PRO         0.0524
    136 H50        30.2477   33.0779  -23.1478 H         1 GLN         0.1883
    137 H51        30.4632   33.2336  -26.0753 H         1 GLN         0.0801
    138 H52        32.7675   32.2387  -25.6587 H         1 GLN         0.0337
    139 H53        32.4131   32.3957  -23.9047 H         1 GLN         0.0337
    140 H54        32.2429   34.7778  -24.0677 H         1 GLN         0.0504
    141 H55        32.2804   34.7202  -25.8627 H         1 GLN         0.0504
    142 H56        35.6452   35.7279  -25.2865 H         1 GLN         0.1814
    143 H57        34.0367   36.3093  -25.5599 H         1 GLN         0.1814
    144 H58        31.2094   31.3799  -27.3271 H         1 ARG         0.1883
    145 H59        29.4363   29.1906  -27.1679 H         1 ARG         0.0800
    146 H60        32.1347   29.4402  -28.5621 H         1 ARG         0.0313
    147 H61        30.5334   29.9074  -29.2286 H         1 ARG         0.0313
    148 H62        31.5106   27.0921  -28.5931 H         1 ARG         0.0301
    149 H63        31.2653   27.8195  -30.2171 H         1 ARG         0.0301
    150 H64        28.8278   28.0911  -29.6579 H         1 ARG         0.0689
    151 H65        29.1259   27.1994  -28.1274 H         1 ARG         0.0689
    152 H66        28.9752   26.0919  -30.8597 H         1 ARG         0.2642
    153 H67        30.0752   23.8311  -27.6676 H         1 ARG         0.2615
    154 H68        30.0451   25.6084  -27.5154 H         1 ARG         0.2615
    155 H69        29.0219   23.8307  -31.0417 H         1 ARG         0.2615
    156 H70        29.5071   22.8357  -29.6426 H         1 ARG         0.2615
    157 H71        29.6570   27.0716  -26.5442 H         1 SEP         0.1876
    158 H72        31.4534   26.5648  -24.2967 H         1 SEP         0.0753
    159 H73        30.2493   24.4277  -24.1330 H         1 SEP         0.0654
    160 H74        29.4750   24.7176  -25.7277 H         1 SEP         0.0654
@<TRIPOS>BOND
     1    1    2 1  
     2    2    3 1  
     3    2    5 1  
     4    3    4 2  
     5    3   12 am 
     6    5    6 1  
     7    6    7 ar 
     8    6    8 ar 
     9    7    9 ar 
    10    8   10 ar 
    11    9   11 ar 
    12   10   11 ar 
    13   12   13 1  
    14   13   14 1  
    15   13   16 1  
    16   14   15 2  
    17   14   20 am 
    18   16   17 1  
    19   17   18 2  
    20   17   19 am 
    21   20   21 1  
    22   21   22 1  
    23   22   23 2  
    24   22   24 am 
    25   24   25 1  
    26   25   26 1  
    27   25   28 1  
    28   26   27 2  
    29   26   32 am 
    30   28   29 1  
    31   29   30 1  
    32   29   31 1  
    33   32   33 1  
    34   33   34 1  
    35   33   36 1  
    36   34   35 2  
    37   34   39 am 
    38   36   37 1  
    39   36   38 1  
    40   39   40 1  
    41   40   41 1  
    42   40   43 1  
    43   41   42 1  
    44   42   45 1  
    45   43   44 2  
    46   43   49 am 
    47   45   46 ar 
    48   45   47 ar 
    49   45   48 ar 
    50   49   50 1  
    51   49   55 1  
    52   50   51 1  
    53   50   53 1  
    54   51   52 2  
    55   51   56 am 
    56   53   54 1  
    57   54   55 1  
    58   56   57 1  
    59   57   58 1  
    60   57   60 1  
    61   58   59 2  
    62   58   65 am 
    63   60   61 1  
    64   61   62 1  
    65   62   63 2  
    66   62   64 am 
    67   65   66 1  
    68   66   67 1  
    69   66   69 1  
    70   67   68 2  
    71   67   76 am 
    72   69   70 1  
    73   70   71 1  
    74   71   72 1  
    75   72   73 ar 
    76   73   74 ar 
    77   73   75 ar 
    78   76   77 1  
    79   77   78 1  
    80   77   80 1  
    81   78   79 1  
    82   79   82 1  
    83   80   81 ar 
    84   80   86 ar 
    85   82   83 ar 
    86   82   84 ar 
    87   82   85 ar 
    88    1   87 1  
    89    1   88 1  
    90    1   89 1  
    91    2   90 1  
    92    5   91 1  
    93    5   92 1  
    94    7   93 1  
    95    8   94 1  
    96    9   95 1  
    97   10   96 1  
    98   11   97 1  
    99   12   98 1  
   100   13   99 1  
   101   16  100 1  
   102   16  101 1  
   103   19  102 1  
   104   19  103 1  
   105   20  104 1  
   106   21  105 1  
   107   21  106 1  
   108   24  107 1  
   109   25  108 1  
   110   28  109 1  
   111   28  110 1  
   112   29  111 1  
   113   30  112 1  
   114   30  113 1  
   115   30  114 1  
   116   31  115 1  
   117   31  116 1  
   118   31  117 1  
   119   32  118 1  
   120   33  119 1  
   121   36  120 1  
   122   37  121 1  
   123   38  122 1  
   124   38  123 1  
   125   38  124 1  
   126   39  125 1  
   127   40  126 1  
   128   41  127 1  
   129   41  128 1  
   130   50  129 1  
   131   53  130 1  
   132   53  131 1  
   133   54  132 1  
   134   54  133 1  
   135   55  134 1  
   136   55  135 1  
   137   56  136 1  
   138   57  137 1  
   139   60  138 1  
   140   60  139 1  
   141   61  140 1  
   142   61  141 1  
   143   64  142 1  
   144   64  143 1  
   145   65  144 1  
   146   66  145 1  
   147   69  146 1  
   148   69  147 1  
   149   70  148 1  
   150   70  149 1  
   151   71  150 1  
   152   71  151 1  
   153   72  152 1  
   154   74  153 1  
   155   74  154 1  
   156   75  155 1  
   157   75  156 1  
   158   76  157 1  
   159   77  158 1  
   160   78  159 1  
   161   78  160 1  
@<TRIPOS>SUBSTRUCTURE
     1 PHE         1

