3v7d_ligand
  -I-interpret- 

164165  0  0  0  0  0  0  0  0999 V2000
   28.5500   46.8350  -31.0490 N   0  3  0  0  0
   27.8930   46.3090  -29.8570 C   0  0  0  0  0
   26.3880   46.5620  -29.9140 C   0  0  0  0  0
   25.9500   47.7060  -30.0410 O   0  0  0  0  0
   28.4950   46.9360  -28.5970 C   0  0  0  0  0
   27.9270   46.3920  -27.3140 C   0  0  0  0  0
   27.8980   45.0270  -27.0770 C   0  0  0  0  0
   27.4410   47.2480  -26.3360 C   0  0  0  0  0
   27.3820   44.5230  -25.8950 C   0  0  0  0  0
   26.9270   46.7520  -25.1490 C   0  0  0  0  0
   26.8960   45.3880  -24.9300 C   0  0  0  0  0
   25.6050   45.4900  -29.8190 N   0  0  0  0  0
   24.1480   45.5820  -29.9200 C   0  0  0  0  0
   23.4380   45.7950  -28.5790 C   0  0  0  0  0
   22.2070   45.7870  -28.5110 O   0  0  0  0  0
   23.5750   44.3500  -30.6330 C   0  0  0  0  0
   23.9440   43.0440  -29.9420 C   0  0  0  0  0
   24.4100   43.0360  -28.8010 O   0  0  0  0  0
   23.7320   41.9310  -30.6350 N   0  0  0  0  0
   24.2210   45.9720  -27.5180 N   0  0  0  0  0
   23.6770   46.2570  -26.2010 C   0  0  0  0  0
   23.3750   45.0320  -25.3590 C   0  0  0  0  0
   23.1250   45.1420  -24.1570 O   0  0  0  0  0
   23.4010   43.8600  -25.9840 N   0  0  0  0  0
   23.0310   42.6280  -25.2990 C   0  0  0  0  0
   24.2210   41.6780  -25.1760 C   0  0  0  0  0
   24.6190   41.0400  -26.1520 O   0  0  0  0  0
   21.8840   41.9480  -26.0470 C   0  0  0  0  0
   20.7800   42.8950  -26.5290 C   0  0  0  0  0
   19.8230   42.1690  -27.4460 C   0  0  0  0  0
   20.0290   43.5210  -25.3570 C   0  0  0  0  0
   24.7920   41.5910  -23.9790 N   0  0  0  0  0
   25.9140   40.6920  -23.7390 C   0  0  0  0  0
   25.4540   39.2490  -23.9100 C   0  0  0  0  0
   24.3250   38.9050  -23.5600 O   0  0  0  0  0
   26.4930   40.8550  -22.3160 C   0  0  0  0  0
   26.5850   42.2440  -21.9760 O   0  0  0  0  0
   27.8750   40.2270  -22.2270 C   0  0  0  0  0
   26.3260   38.4100  -24.4560 N   0  0  0  0  0
   26.0200   36.9940  -24.6220 C   0  0  0  0  0
   25.7470   36.6760  -26.0950 C   0  0  0  0  0
   25.2630   35.3550  -26.2510 O   0  0  0  0  0
   27.1600   36.1300  -24.0980 C   0  0  0  0  0
   28.3290   36.5060  -24.1920 O   0  0  0  0  0
   23.7760   35.4290  -26.8590 P   0  0  0  0  0
   23.0400   36.7730  -26.3450 O   0  0  0  0  0
   23.8930   35.4440  -28.4640 O   0  0  0  0  0
   22.9580   34.1300  -26.3750 O   0  0  0  0  0
   26.8180   34.9750  -23.5170 N   0  0  0  0  0
   27.8350   33.9940  -23.1300 C   0  0  0  0  0
   28.6850   33.5950  -24.3230 C   0  0  0  0  0
   28.2350   33.7260  -25.4590 O   0  0  0  0  0
   27.0040   32.7870  -22.7040 C   0  0  0  0  0
   25.7030   33.3500  -22.2790 C   0  0  0  0  0
   25.4600   34.5500  -23.1370 C   0  0  0  0  0
   29.8950   33.1110  -24.0830 N   0  0  0  0  0
   30.7070   32.6280  -25.1900 C   0  0  0  0  0
   30.3710   31.1760  -25.5110 C   0  0  0  0  0
   29.7660   30.4770  -24.6990 O   0  0  0  0  0
   32.2000   32.8030  -24.9040 C   0  0  0  0  0
   32.6600   34.2550  -24.9410 C   0  0  0  0  0
   34.1680   34.3960  -24.9140 C   0  0  0  0  0
   34.8870   33.4570  -24.5700 O   0  0  0  0  0
   34.6570   35.5750  -25.2840 N   0  0  0  0  0
   30.7500   30.7430  -26.7080 N   0  0  0  0  0
   30.5210   29.3730  -27.1530 C   0  0  0  0  0
   31.1600   28.3620  -26.1990 C   0  0  0  0  0
   32.1970   28.6330  -25.5940 O   0  0  0  0  0
   31.0620   29.1970  -28.5760 C   0  0  0  0  0
   30.9050   27.8000  -29.1780 C   0  0  0  0  0
   29.4520   27.3280  -29.1700 C   0  0  0  0  0
   29.2850   26.0570  -29.8780 N   0  0  0  0  0
   29.5060   24.8600  -29.3400 C   0  0  0  0  0
   29.9050   24.7590  -28.0810 N   0  0  0  0  0
   29.3320   23.7600  -30.0620 N   0  0  0  0  0
   30.5180   27.2070  -26.0540 N   0  0  0  0  0
   31.0190   26.1300  -25.2090 C   0  0  0  0  0
   29.8690   25.1980  -24.8200 C   0  0  0  0  0
   28.8210   25.9080  -24.1820 O   0  0  0  0  0
   32.0980   25.3370  -25.9430 C   0  0  0  0  0
   33.1610   25.0400  -25.3940 O   0  0  0  0  0
   27.5780   26.0850  -25.1890 P   0  0  0  0  0
   27.7780   27.4340  -26.0440 O   0  0  0  0  0
   27.5060   24.8220  -26.1830 O   0  0  0  0  0
   26.2140   26.1860  -24.3440 O   0  0  0  0  0
   31.9420   24.9680  -27.1090 O   0  0  0  0  0
   28.1384   46.4082  -31.8790 H   0  0  0  0  0
   28.4236   47.8464  -31.0871 H   0  0  0  0  0
   29.5457   46.6167  -31.0113 H   0  0  0  0  0
   28.0564   45.2319  -29.8212 H   0  0  0  0  0
   28.2686   48.0019  -28.6255 H   0  0  0  0  0
   29.5614   46.7106  -28.6006 H   0  0  0  0  0
   28.2862   44.3415  -27.8304 H   0  0  0  0  0
   27.4640   48.3247  -26.5039 H   0  0  0  0  0
   27.3586   43.4466  -25.7248 H   0  0  0  0  0
   26.5480   47.4360  -24.3897 H   0  0  0  0  0
   26.4894   44.9938  -23.9986 H   0  0  0  0  0
   26.0336   44.5763  -29.6713 H   0  0  0  0  0
   23.9524   46.4770  -30.5106 H   0  0  0  0  0
   23.9905   44.3238  -31.6404 H   0  0  0  0  0
   22.4884   44.4358  -30.6267 H   0  0  0  0  0
   23.9568   41.0244  -30.2252 H   0  0  0  0  0
   23.3444   41.9828  -31.5771 H   0  0  0  0  0
   25.2324   45.9057  -27.6323 H   0  0  0  0  0
   22.7311   46.7764  -26.3549 H   0  0  0  0  0
   24.4319   46.8317  -25.6643 H   0  0  0  0  0
   23.6856   43.8216  -26.9627 H   0  0  0  0  0
   22.7065   42.8821  -24.2899 H   0  0  0  0  0
   21.4204   41.2509  -25.3490 H   0  0  0  0  0
   22.3152   41.4866  -26.9354 H   0  0  0  0  0
   21.2548   43.7022  -27.0868 H   0  0  0  0  0
   20.3675   41.7898  -28.3107 H   0  0  0  0  0
   19.3673   41.3373  -26.9086 H   0  0  0  0  0
   19.0463   42.8581  -27.7777 H   0  0  0  0  0
   19.5717   42.7335  -24.7579 H   0  0  0  0  0
   20.7269   44.0886  -24.7415 H   0  0  0  0  0
   19.2540   44.1863  -25.7375 H   0  0  0  0  0
   24.4382   42.1645  -23.2133 H   0  0  0  0  0
   26.6928   40.9429  -24.4591 H   0  0  0  0  0
   25.8247   40.3514  -21.6175 H   0  0  0  0  0
   26.9457   42.3324  -21.0907 H   0  0  0  0  0
   27.8058   39.1648  -22.4618 H   0  0  0  0  0
   28.5410   40.7151  -22.9385 H   0  0  0  0  0
   28.2653   40.3525  -21.2170 H   0  0  0  0  0
   27.2308   38.7640  -24.7665 H   0  0  0  0  0
   25.1243   36.7686  -24.0432 H   0  0  0  0  0
   26.6794   36.7734  -26.6511 H   0  0  0  0  0
   24.9930   37.3695  -26.4672 H   0  0  0  0  0
   22.9751   36.7547  -25.3874 H   0  0  0  0  0
   22.8946   34.1317  -25.4171 H   0  0  0  0  0
   28.5098   34.3758  -22.3638 H   0  0  0  0  0
   27.4846   32.2283  -21.9009 H   0  0  0  0  0
   26.8881   32.0690  -23.5158 H   0  0  0  0  0
   25.7211   33.6217  -21.2236 H   0  0  0  0  0
   24.9038   32.6180  -22.3959 H   0  0  0  0  0
   24.8325   34.3286  -24.0003 H   0  0  0  0  0
   24.9053   35.3317  -22.6180 H   0  0  0  0  0
   30.2548   33.0772  -23.1291 H   0  0  0  0  0
   30.4720   33.2306  -26.0674 H   0  0  0  0  0
   32.7471   32.2663  -25.6791 H   0  0  0  0  0
   32.3873   32.4256  -23.8987 H   0  0  0  0  0
   32.2630   34.7528  -24.0563 H   0  0  0  0  0
   32.3010   34.6945  -25.8716 H   0  0  0  0  0
   35.6652   35.7297  -25.2905 H   0  0  0  0  0
   34.0241   36.3253  -25.5615 H   0  0  0  0  0
   31.2186   31.3926  -27.3395 H   0  0  0  0  0
   29.4476   29.1837  -27.1532 H   0  0  0  0  0
   32.1332   29.3922  -28.5250 H   0  0  0  0  0
   30.4875   29.8723  -29.2100 H   0  0  0  0  0
   31.4909   27.1042  -28.5775 H   0  0  0  0  0
   31.2439   27.8369  -30.2133 H   0  0  0  0  0
   28.8459   28.0812  -29.6735 H   0  0  0  0  0
   29.1458   27.1841  -28.1338 H   0  0  0  0  0
   28.9783   26.0915  -30.8502 H   0  0  0  0  0
   30.0437   25.6001  -27.5209 H   0  0  0  0  0
   29.5054   22.8446  -29.6467 H   0  0  0  0  0
   29.0249   23.8300  -31.0322 H   0  0  0  0  0
   29.6397   27.0689  -26.5540 H   0  0  0  0  0
   31.4529   26.5649  -24.3086 H   0  0  0  0  0
   30.2506   24.4478  -24.1274 H   0  0  0  0  0
   29.4742   24.7385  -25.7261 H   0  0  0  0  0
   28.5924   27.3739  -26.5486 H   0  0  0  0  0
   28.3219   24.7649  -26.6857 H   0  0  0  0  0
   31.0822   25.2577  -27.4228 H   0  0  0  0  0
  1  2  1  0  0  0
  2  3  1  0  0  0
  2  5  1  0  0  0
  3  4  2  0  0  0
  3 12  1  0  0  0
  5  6  1  0  0  0
  6  7  4  0  0  0
  6  8  4  0  0  0
  7  9  4  0  0  0
  8 10  4  0  0  0
  9 11  4  0  0  0
 10 11  4  0  0  0
 12 13  1  0  0  0
 13 14  1  0  0  0
 13 16  1  0  0  0
 14 15  2  0  0  0
 14 20  1  0  0  0
 16 17  1  0  0  0
 17 18  2  0  0  0
 17 19  1  0  0  0
 20 21  1  0  0  0
 21 22  1  0  0  0
 22 23  2  0  0  0
 22 24  1  0  0  0
 24 25  1  0  0  0
 25 26  1  0  0  0
 25 28  1  0  0  0
 26 27  2  0  0  0
 26 32  1  0  0  0
 28 29  1  0  0  0
 29 30  1  0  0  0
 29 31  1  0  0  0
 32 33  1  0  0  0
 33 34  1  0  0  0
 33 36  1  0  0  0
 34 35  2  0  0  0
 34 39  1  0  0  0
 36 37  1  0  0  0
 36 38  1  0  0  0
 39 40  1  0  0  0
 40 41  1  0  0  0
 40 43  1  0  0  0
 41 42  1  0  0  0
 42 45  1  0  0  0
 43 44  2  0  0  0
 43 49  1  0  0  0
 45 46  1  0  0  0
 45 47  2  0  0  0
 45 48  1  0  0  0
 49 50  1  0  0  0
 49 55  1  0  0  0
 50 51  1  0  0  0
 50 53  1  0  0  0
 51 52  2  0  0  0
 51 56  1  0  0  0
 53 54  1  0  0  0
 54 55  1  0  0  0
 56 57  1  0  0  0
 57 58  1  0  0  0
 57 60  1  0  0  0
 58 59  2  0  0  0
 58 65  1  0  0  0
 60 61  1  0  0  0
 61 62  1  0  0  0
 62 63  2  0  0  0
 62 64  1  0  0  0
 65 66  1  0  0  0
 66 67  1  0  0  0
 66 69  1  0  0  0
 67 68  2  0  0  0
 67 76  1  0  0  0
 69 70  1  0  0  0
 70 71  1  0  0  0
 71 72  1  0  0  0
 72 73  1  0  0  0
 73 74  2  0  0  0
 73 75  1  0  0  0
 76 77  1  0  0  0
 77 78  1  0  0  0
 77 80  1  0  0  0
 78 79  1  0  0  0
 79 82  1  0  0  0
 80 81  2  0  0  0
 80 86  1  0  0  0
 82 83  1  0  0  0
 82 84  1  0  0  0
 82 85  2  0  0  0
  1 87  1  0  0  0
  1 88  1  0  0  0
  1 89  1  0  0  0
  2 90  1  0  0  0
  5 91  1  0  0  0
  5 92  1  0  0  0
  7 93  1  0  0  0
  8 94  1  0  0  0
  9 95  1  0  0  0
 10 96  1  0  0  0
 11 97  1  0  0  0
 12 98  1  0  0  0
 13 99  1  0  0  0
 16100  1  0  0  0
 16101  1  0  0  0
 19102  1  0  0  0
 19103  1  0  0  0
 20104  1  0  0  0
 21105  1  0  0  0
 21106  1  0  0  0
 24107  1  0  0  0
 25108  1  0  0  0
 28109  1  0  0  0
 28110  1  0  0  0
 29111  1  0  0  0
 30112  1  0  0  0
 30113  1  0  0  0
 30114  1  0  0  0
 31115  1  0  0  0
 31116  1  0  0  0
 31117  1  0  0  0
 32118  1  0  0  0
 33119  1  0  0  0
 36120  1  0  0  0
 37121  1  0  0  0
 38122  1  0  0  0
 38123  1  0  0  0
 38124  1  0  0  0
 39125  1  0  0  0
 40126  1  0  0  0
 41127  1  0  0  0
 41128  1  0  0  0
 46129  1  0  0  0
 48130  1  0  0  0
 50131  1  0  0  0
 53132  1  0  0  0
 53133  1  0  0  0
 54134  1  0  0  0
 54135  1  0  0  0
 55136  1  0  0  0
 55137  1  0  0  0
 56138  1  0  0  0
 57139  1  0  0  0
 60140  1  0  0  0
 60141  1  0  0  0
 61142  1  0  0  0
 61143  1  0  0  0
 64144  1  0  0  0
 64145  1  0  0  0
 65146  1  0  0  0
 66147  1  0  0  0
 69148  1  0  0  0
 69149  1  0  0  0
 70150  1  0  0  0
 70151  1  0  0  0
 71152  1  0  0  0
 71153  1  0  0  0
 72154  1  0  0  0
 74155  1  0  0  0
 75156  1  0  0  0
 75157  1  0  0  0
 76158  1  0  0  0
 77159  1  0  0  0
 78160  1  0  0  0
 78161  1  0  0  0
 83162  1  0  0  0
 84163  1  0  0  0
 86164  1  0  0  0
M  END
$$$$
