4bcj_ligand
  -I-interpret- 

 38 40  0  0  0  0  0  0  0  0999 V2000
   51.1980  -20.2920  -12.3620 C   0  0  0  0  0
   50.6860  -19.0090  -11.9580 N   0  0  0  0  0
   51.3500  -17.8500  -12.3830 C   0  0  0  0  0
   50.8800  -16.8010  -13.1360 N   0  0  0  0  0
   51.8280  -15.8170  -13.3530 C   0  0  0  0  0
   51.5010  -14.5890  -14.1700 C   0  0  0  0  0
   53.0980  -16.0330  -12.7680 C   0  0  0  0  0
   54.3060  -15.1360  -12.7720 C   0  0  0  0  0
   55.5460  -15.6460  -12.7490 N   0  0  0  0  0
   56.5960  -14.7810  -12.7300 C   0  0  0  0  0
   57.9330  -15.3480  -12.7610 N   0  0  0  0  0
   58.2140  -16.7020  -12.2620 C   0  0  0  0  0
   59.4880  -16.9570  -11.7360 C   0  0  0  0  0
   59.7850  -18.2270  -11.2420 C   0  0  0  0  0
   61.0530  -18.4410  -10.7010 O   0  0  0  0  0
   58.8130  -19.2900  -11.2860 C   0  0  0  0  0
   57.5630  -19.0390  -11.8170 C   0  0  0  0  0
   57.2560  -17.7320  -12.3120 C   0  0  0  0  0
   56.4650  -13.4060  -12.7140 N   0  0  0  0  0
   55.2240  -12.8530  -12.7010 C   0  0  0  0  0
   54.1050  -13.6990  -12.7130 C   0  0  0  0  0
   52.6880  -13.1470  -12.6190 C   0  0  0  0  0
   51.6210  -12.7320  -12.6060 N   0  0  0  0  0
   52.9500  -17.5170  -12.0330 S   0  0  0  0  0
   51.1950  -20.3567  -13.4501 H   0  0  0  0  0
   52.2170  -20.4078  -11.9927 H   0  0  0  0  0
   50.5684  -21.0797  -11.9481 H   0  0  0  0  0
   49.8536  -18.9442  -11.3720 H   0  0  0  0  0
   51.2121  -14.8904  -15.1769 H   0  0  0  0  0
   50.6780  -14.0503  -13.7004 H   0  0  0  0  0
   52.3778  -13.9435  -14.2202 H   0  0  0  0  0
   58.6988  -14.7908  -13.1398 H   0  0  0  0  0
   60.2407  -16.1689  -11.7132 H   0  0  0  0  0
   61.1224  -19.3503  -10.4011 H   0  0  0  0  0
   59.0614  -20.2805  -10.9047 H   0  0  0  0  0
   56.8154  -19.8311  -11.8587 H   0  0  0  0  0
   56.2703  -17.5320  -12.7320 H   0  0  0  0  0
   55.1000  -11.7703  -12.6816 H   0  0  0  0  0
  1  2  1  0  0  0
  2  3  1  0  0  0
  3  4  4  0  0  0
  3 24  4  0  0  0
  4  5  4  0  0  0
  5  6  1  0  0  0
  5  7  4  0  0  0
  7  8  1  0  0  0
  7 24  4  0  0  0
  8  9  4  0  0  0
  8 21  4  0  0  0
  9 10  4  0  0  0
 10 11  1  0  0  0
 10 19  4  0  0  0
 11 12  1  0  0  0
 12 13  4  0  0  0
 12 18  4  0  0  0
 13 14  4  0  0  0
 14 15  1  0  0  0
 14 16  4  0  0  0
 16 17  4  0  0  0
 17 18  4  0  0  0
 19 20  4  0  0  0
 20 21  4  0  0  0
 21 22  1  0  0  0
 22 23  3  0  0  0
  1 25  1  0  0  0
  1 26  1  0  0  0
  1 27  1  0  0  0
  2 28  1  0  0  0
  6 29  1  0  0  0
  6 30  1  0  0  0
  6 31  1  0  0  0
 11 32  1  0  0  0
 13 33  1  0  0  0
 15 34  1  0  0  0
 16 35  1  0  0  0
 17 36  1  0  0  0
 18 37  1  0  0  0
 20 38  1  0  0  0
M  END
$$$$
