1kpm_ligand
  -I-interpret- 

 77 78  0  0  0  0  0  0  0  0999 V2000
    6.4100   15.4090   39.0000 C   0  0  0  0  0
   15.6250   22.8830   46.6720 C   0  0  0  0  0
   15.2380   22.6240   45.3140 C   0  0  0  0  0
   16.1790   22.1020   44.3810 C   0  0  0  0  0
   17.5320   21.8290   44.7840 C   0  0  0  0  0
   17.9320   22.0880   46.1540 C   0  0  0  0  0
   16.9750   22.6150   47.0900 C   0  0  0  0  0
   14.6190   23.3940   47.6800 C   0  0  0  0  0
   15.7370   21.8570   43.0440 O   0  0  0  0  0
   14.8120   22.7590   42.2560 C   0  0  0  0  0
   13.7770   22.8900   44.7740 C   0  0  0  0  0
   13.5950   23.2010   43.2290 C   0  0  0  0  0
   18.4970   21.3400   43.7060 C   0  0  0  0  0
   19.3070   21.7440   46.3150 C   0  0  0  0  0
   17.2020   22.8260   48.4770 O   0  0  0  0  0
   14.8550   23.9000   41.2740 C   0  0  0  0  0
   13.6530   21.3680   42.0150 C   0  0  0  0  0
   12.5960   19.8320   41.2430 C   0  0  0  0  0
   12.5480   18.9170   39.5940 C   0  0  0  0  0
   11.1700   19.1320   38.4550 C   0  0  0  0  0
    9.9120   19.9660   38.5420 C   0  0  0  0  0
   10.7310   17.6220   38.5650 C   0  0  0  0  0
    9.5110   16.9300   38.6600 C   0  0  0  0  0
    9.0100   15.7420   38.1530 C   0  0  0  0  0
    7.4820   15.2990   37.9070 C   0  0  0  0  0
    7.3990   13.7670   37.6660 C   0  0  0  0  0
    5.9430   13.2970   37.4420 C   0  0  0  0  0
    5.9220   11.8050   37.2250 C   0  0  0  0  0
    4.4690   11.3050   36.9960 C   0  0  0  0  0
    3.8600   11.9620   35.7320 C   0  0  0  0  0
    4.4680    9.7770   36.8000 C   0  0  0  0  0
    5.4552   15.0596   38.6071 H   0  0  0  0  0
    6.6992   14.7961   39.8537 H   0  0  0  0  0
    6.3170   16.4491   39.3126 H   0  0  0  0  0
   14.2198   24.3498   47.3405 H   0  0  0  0  0
   13.8067   22.6738   47.7779 H   0  0  0  0  0
   15.1082   23.5253   48.6452 H   0  0  0  0  0
   13.4384   23.7883   45.2903 H   0  0  0  0  0
   13.2328   21.9615   44.9468 H   0  0  0  0  0
   12.7260   22.6279   42.9056 H   0  0  0  0  0
   13.5199   24.2852   43.1457 H   0  0  0  0  0
   18.1249   20.4068   43.2833 H   0  0  0  0  0
   18.5730   22.0915   42.9202 H   0  0  0  0  0
   19.4795   21.1739   44.1479 H   0  0  0  0  0
   19.8675   22.6269   46.6222 H   0  0  0  0  0
   19.3998   20.9700   47.0768 H   0  0  0  0  0
   19.7007   21.3732   45.3686 H   0  0  0  0  0
   18.1186   22.6291   48.6837 H   0  0  0  0  0
   15.1121   23.5179   40.2861 H   0  0  0  0  0
   13.8780   24.3817   41.2357 H   0  0  0  0  0
   15.6059   24.6233   41.5920 H   0  0  0  0  0
   14.3521   20.6770   42.4861 H   0  0  0  0  0
   12.8332   22.0585   41.8171 H   0  0  0  0  0
   13.0194   19.0324   41.8509 H   0  0  0  0  0
   11.6294   20.3306   41.1710 H   0  0  0  0  0
   13.4060   19.3097   39.0484 H   0  0  0  0  0
   12.4964   17.8654   39.8763 H   0  0  0  0  0
   11.5516   19.7129   37.6153 H   0  0  0  0  0
    9.2429   19.6984   37.7242 H   0  0  0  0  0
    9.4173   19.7767   39.4946 H   0  0  0  0  0
   10.1720   21.0221   38.4697 H   0  0  0  0  0
   11.0081   17.3076   37.5588 H   0  0  0  0  0
   11.0963   17.4288   39.5736 H   0  0  0  0  0
    8.7850   17.4539   39.2818 H   0  0  0  0  0
    9.7597   14.9990   37.8810 H   0  0  0  0  0
    7.2615   16.0136   37.1140 H   0  0  0  0  0
    8.2633   13.1029   37.6560 H   0  0  0  0  0
    5.0664   13.9448   37.4411 H   0  0  0  0  0
    6.3288   11.3142   38.1091 H   0  0  0  0  0
    6.5195   11.5681   36.3447 H   0  0  0  0  0
    3.8748   11.5749   37.8691 H   0  0  0  0  0
    3.8462   13.0446   35.8576 H   0  0  0  0  0
    4.4645   11.7035   34.8626 H   0  0  0  0  0
    2.8423   11.5985   35.5896 H   0  0  0  0  0
    5.0782    9.5227   35.9333 H   0  0  0  0  0
    4.8790    9.2977   37.6885 H   0  0  0  0  0
    3.4461    9.4332   36.6399 H   0  0  0  0  0
  1 25  1  0  0  0
 25 26  1  0  0  0
 25 24  1  0  0  0
 24 23  2  0  0  0
 23 22  1  0  0  0
 22 20  1  0  0  0
 20 21  1  0  0  0
 20 19  1  0  0  0
 19 18  1  0  0  0
 18 17  1  0  0  0
 17 10  1  0  0  0
 10 16  1  0  0  0
 10 12  1  0  0  0
 10  9  1  0  0  0
  9  4  1  0  0  0
  4  5  4  0  0  0
  4  3  4  0  0  0
  3 11  1  0  0  0
  3  2  4  0  0  0
  2  8  1  0  0  0
  2  7  4  0  0  0
  7 15  1  0  0  0
  7  6  4  0  0  0
  6 14  1  0  0  0
  6  5  4  0  0  0
  5 13  1  0  0  0
 11 12  1  0  0  0
 26 27  2  0  0  0
 27 28  1  0  0  0
 28 29  1  0  0  0
 29 31  1  0  0  0
 29 30  1  0  0  0
  1 32  1  0  0  0
  1 33  1  0  0  0
  1 34  1  0  0  0
  8 35  1  0  0  0
  8 36  1  0  0  0
  8 37  1  0  0  0
 11 38  1  0  0  0
 11 39  1  0  0  0
 12 40  1  0  0  0
 12 41  1  0  0  0
 13 42  1  0  0  0
 13 43  1  0  0  0
 13 44  1  0  0  0
 14 45  1  0  0  0
 14 46  1  0  0  0
 14 47  1  0  0  0
 15 48  1  0  0  0
 16 49  1  0  0  0
 16 50  1  0  0  0
 16 51  1  0  0  0
 17 52  1  0  0  0
 17 53  1  0  0  0
 18 54  1  0  0  0
 18 55  1  0  0  0
 19 56  1  0  0  0
 19 57  1  0  0  0
 20 58  1  0  0  0
 21 59  1  0  0  0
 21 60  1  0  0  0
 21 61  1  0  0  0
 22 62  1  0  0  0
 22 63  1  0  0  0
 23 64  1  0  0  0
 24 65  1  0  0  0
 25 66  1  0  0  0
 26 67  1  0  0  0
 27 68  1  0  0  0
 28 69  1  0  0  0
 28 70  1  0  0  0
 29 71  1  0  0  0
 30 72  1  0  0  0
 30 73  1  0  0  0
 30 74  1  0  0  0
 31 75  1  0  0  0
 31 76  1  0  0  0
 31 77  1  0  0  0
M  END
$$$$
