4ycm_ligand
  -I-interpret- 

 95 96  0  0  0  0  0  0  0  0999 V2000
   27.5030  -19.3610   64.5460 C   0  0  0  0  0
   27.6550  -18.1220   63.8600 O   0  0  0  0  0
   28.0450  -18.2970   62.4890 C   0  0  0  0  0
   27.6070  -16.9730   61.8450 C   0  0  0  0  0
   27.0960  -16.9840   60.4370 C   0  0  0  0  0
   26.6620  -15.8180   59.9530 C   0  0  0  0  0
   26.6650  -15.5680   58.4780 C   0  0  0  0  0
   25.7030  -16.5210   57.9630 O   0  0  0  0  0
   25.4570  -16.9430   56.5990 C   0  0  0  0  0
   26.7480  -17.5160   55.9470 C   0  0  0  0  0
   27.8170  -16.5570   55.8840 O   0  0  0  0  0
   26.4730  -17.9950   54.4930 C   0  0  0  0  0
   27.5510  -18.8070   53.9760 O   0  0  0  0  0
   28.7440  -18.1310   53.5250 C   0  0  0  0  0
   25.2840  -18.9810   54.4800 C   0  0  0  0  0
   24.8700  -19.1930   53.1110 O   0  0  0  0  0
   24.0760  -18.4270   55.2760 C   0  0  0  0  0
   22.9760  -19.5190   55.3780 C   0  0  0  0  0
   23.4920  -20.7150   55.9890 O   0  0  0  0  0
   24.4460  -17.9690   56.6030 O   0  0  0  0  0
   26.3410  -14.0830   58.1470 C   0  0  0  0  0
   27.0380  -13.7530   56.8610 C   0  0  0  0  0
   26.4590  -13.5400   55.8070 O   0  0  0  0  0
   28.3560  -13.6260   57.0490 O   0  0  0  0  0
   29.1510  -13.6440   55.8550 C   0  0  0  0  0
   30.5360  -14.0660   56.4010 C   0  0  0  0  0
   30.6100  -15.5190   56.8080 C   0  0  0  0  0
   31.0800  -15.9610   57.9820 C   0  0  0  0  0
   31.1980  -17.4010   58.3000 C   0  0  0  0  0
   31.7270  -17.8740   59.4380 C   0  0  0  0  0
   31.8390  -19.3510   59.7500 C   0  0  0  0  0
   31.5150  -19.6710   61.2360 C   0  0  0  0  0
   31.7200  -21.1780   61.5440 C   0  0  0  0  0
   30.0680  -19.3110   61.4900 C   0  0  0  0  0
   29.5540  -18.4590   62.3970 C   0  0  0  0  0
   30.3560  -17.6600   63.4130 C   0  0  0  0  0
   29.1490  -12.2760   55.2050 C   0  0  0  0  0
   29.5580  -11.8710   53.9810 C   0  0  0  0  0
   29.3060  -10.4320   53.5710 C   0  0  0  0  0
   30.2310  -12.6520   52.8610 C   0  0  0  0  0
   30.7070  -14.0750   52.9950 C   0  0  0  0  0
   31.9370  -14.4750   52.6550 C   0  0  0  0  0
   32.4740  -15.7960   53.1150 C   0  0  0  0  0
   26.7358  -19.9569   64.0515 H   0  0  0  0  0
   28.4497  -19.9011   64.5319 H   0  0  0  0  0
   27.2076  -19.1698   65.5776 H   0  0  0  0  0
   27.6087  -19.1754   62.0135 H   0  0  0  0  0
   28.5110  -16.3650   61.8107 H   0  0  0  0  0
   26.7640  -16.6335   62.4469 H   0  0  0  0  0
   27.0794  -17.8955   59.8394 H   0  0  0  0  0
   26.3045  -15.0460   60.6344 H   0  0  0  0  0
   27.6398  -15.7126   58.0123 H   0  0  0  0  0
   25.1304  -16.0772   56.0230 H   0  0  0  0  0
   27.0483  -18.3466   56.5858 H   0  0  0  0  0
   28.5851  -16.9621   55.4747 H   0  0  0  0  0
   26.3170  -17.0853   53.9132 H   0  0  0  0  0
   28.4883  -17.4457   52.7168 H   0  0  0  0  0
   29.1784  -17.5717   54.3536 H   0  0  0  0  0
   29.4631  -18.8669   53.1652 H   0  0  0  0  0
   25.6088  -19.9117   54.9453 H   0  0  0  0  0
   24.1307  -19.8051   53.0926 H   0  0  0  0  0
   23.6964  -17.5606   54.7343 H   0  0  0  0  0
   22.6293  -19.7611   54.3734 H   0  0  0  0  0
   22.1599  -19.1371   55.9913 H   0  0  0  0  0
   22.7949  -21.3730   56.0405 H   0  0  0  0  0
   26.6831  -13.4278   58.9481 H   0  0  0  0  0
   25.2652  -13.9376   58.0488 H   0  0  0  0  0
   28.7982  -14.3122   55.0694 H   0  0  0  0  0
   30.7323  -13.4675   57.2906 H   0  0  0  0  0
   31.2619  -13.9134   55.6024 H   0  0  0  0  0
   30.2549  -16.2622   56.0941 H   0  0  0  0  0
   31.3872  -15.2318   58.7316 H   0  0  0  0  0
   30.8335  -18.1199   57.5662 H   0  0  0  0  0
   32.0945  -17.1596   60.1747 H   0  0  0  0  0
   32.8664  -19.6590   59.5557 H   0  0  0  0  0
   31.1195  -19.8821   59.1268 H   0  0  0  0  0
   32.1847  -19.0978   61.8771 H   0  0  0  0  0
   31.0613  -21.7702   60.9088 H   0  0  0  0  0
   32.7571  -21.4499   61.3476 H   0  0  0  0  0
   31.4851  -21.3687   62.5912 H   0  0  0  0  0
   29.3406  -19.8105   60.8501 H   0  0  0  0  0
   30.9062  -18.3443   64.0588 H   0  0  0  0  0
   31.0568  -17.0092   62.8901 H   0  0  0  0  0
   29.6776  -17.0560   64.0156 H   0  0  0  0  0
   28.7485  -11.4797   55.8324 H   0  0  0  0  0
   28.2343  -10.2336   53.5861 H   0  0  0  0  0
   29.8104   -9.7632   54.2684 H   0  0  0  0  0
   29.6929  -10.2691   52.5651 H   0  0  0  0  0
   31.1592  -12.1014   52.7080 H   0  0  0  0  0
   29.4403  -12.7322   52.1150 H   0  0  0  0  0
   30.0129  -14.8171   53.3895 H   0  0  0  0  0
   32.5584  -13.8301   52.0337 H   0  0  0  0  0
   32.4911  -15.8203   54.2046 H   0  0  0  0  0
   31.8346  -16.5963   52.7425 H   0  0  0  0  0
   33.4856  -15.9290   52.7314 H   0  0  0  0  0
  1  2  1  0  0  0
  2  3  1  0  0  0
  3  4  1  0  0  0
  3 35  1  0  0  0
  4  5  1  0  0  0
  5  6  2  0  0  0
  6  7  1  0  0  0
  7  8  1  0  0  0
  7 21  1  0  0  0
  8  9  1  0  0  0
  9 10  1  0  0  0
  9 20  1  0  0  0
 10 11  1  0  0  0
 10 12  1  0  0  0
 12 13  1  0  0  0
 12 15  1  0  0  0
 13 14  1  0  0  0
 15 16  1  0  0  0
 15 17  1  0  0  0
 17 18  1  0  0  0
 17 20  1  0  0  0
 18 19  1  0  0  0
 21 22  1  0  0  0
 22 23  2  0  0  0
 22 24  1  0  0  0
 24 25  1  0  0  0
 25 26  1  0  0  0
 25 37  1  0  0  0
 26 27  1  0  0  0
 27 28  2  0  0  0
 28 29  1  0  0  0
 29 30  2  0  0  0
 30 31  1  0  0  0
 31 32  1  0  0  0
 32 33  1  0  0  0
 32 34  1  0  0  0
 34 35  2  0  0  0
 35 36  1  0  0  0
 37 38  2  0  0  0
 38 39  1  0  0  0
 38 40  1  0  0  0
 40 41  1  0  0  0
 41 42  2  0  0  0
 42 43  1  0  0  0
  1 44  1  0  0  0
  1 45  1  0  0  0
  1 46  1  0  0  0
  3 47  1  0  0  0
  4 48  1  0  0  0
  4 49  1  0  0  0
  5 50  1  0  0  0
  6 51  1  0  0  0
  7 52  1  0  0  0
  9 53  1  0  0  0
 10 54  1  0  0  0
 11 55  1  0  0  0
 12 56  1  0  0  0
 14 57  1  0  0  0
 14 58  1  0  0  0
 14 59  1  0  0  0
 15 60  1  0  0  0
 16 61  1  0  0  0
 17 62  1  0  0  0
 18 63  1  0  0  0
 18 64  1  0  0  0
 19 65  1  0  0  0
 21 66  1  0  0  0
 21 67  1  0  0  0
 25 68  1  0  0  0
 26 69  1  0  0  0
 26 70  1  0  0  0
 27 71  1  0  0  0
 28 72  1  0  0  0
 29 73  1  0  0  0
 30 74  1  0  0  0
 31 75  1  0  0  0
 31 76  1  0  0  0
 32 77  1  0  0  0
 33 78  1  0  0  0
 33 79  1  0  0  0
 33 80  1  0  0  0
 34 81  1  0  0  0
 36 82  1  0  0  0
 36 83  1  0  0  0
 36 84  1  0  0  0
 37 85  1  0  0  0
 39 86  1  0  0  0
 39 87  1  0  0  0
 39 88  1  0  0  0
 40 89  1  0  0  0
 40 90  1  0  0  0
 41 91  1  0  0  0
 42 92  1  0  0  0
 43 93  1  0  0  0
 43 94  1  0  0  0
 43 95  1  0  0  0
M  END
$$$$
