3pj8_ligand
  -I-interpret- 

 51 53  0  0  0  0  0  0  0  0999 V2000
   11.1770   10.3100  -11.5830 C   0  0  0  0  0
   12.0910   10.3960  -12.7450 C   0  0  0  0  0
   13.3190    9.5920  -12.6890 C   0  0  0  0  0
   13.6010    8.7900  -11.6140 N   0  0  0  0  0
   12.6980    8.7580  -10.5770 C   0  0  0  0  0
   11.5490    9.5020  -10.5730 N   0  0  0  0  0
   12.0930   11.0730  -13.9130 N   0  0  0  0  0
   13.2450   10.7550  -14.6600 N   0  0  0  0  0
   14.0070    9.8830  -13.9780 C   0  0  0  0  0
   15.3130    9.2500  -14.3210 C   0  0  0  0  0
   15.1580    7.7330  -14.4780 C   0  0  0  0  0
   16.3970    9.5970  -13.2980 C   0  0  0  0  0
   10.0270   11.0220  -11.5370 N   0  0  0  0  0
    9.0420   10.7800  -10.4920 C   0  0  0  0  0
    9.0530   11.9090   -9.4830 C   0  0  0  0  0
    9.3700   11.6450   -8.1570 C   0  0  0  0  0
    9.3860   12.6750   -7.2270 C   0  0  0  0  0
    9.0850   13.9710   -7.6260 C   0  0  0  0  0
    8.7680   14.2410   -8.9500 C   0  0  0  0  0
    8.7570   13.2100   -9.8780 C   0  0  0  0  0
   12.8930    8.0020   -9.4650 N   0  0  0  0  0
   13.7100    6.8020   -9.3950 C   0  0  0  0  0
   15.1040    7.1570   -8.8900 C   0  0  0  0  0
   15.0160    8.1630   -7.7660 C   0  0  0  0  0
   13.8180    6.0990  -10.7430 C   0  0  0  0  0
   15.0520    6.4970  -11.3520 O   0  0  0  0  0
   15.6362    9.6572  -15.2790 H   0  0  0  0  0
   14.7955    7.3073  -13.5423 H   0  0  0  0  0
   14.4447    7.5225  -15.2749 H   0  0  0  0  0
   16.1240    7.2943  -14.7280 H   0  0  0  0  0
   16.5360   10.6777  -13.2702 H   0  0  0  0  0
   16.0920    9.2432  -12.3132 H   0  0  0  0  0
   17.3324    9.1164  -13.5845 H   0  0  0  0  0
    9.8481   11.7365  -12.2426 H   0  0  0  0  0
    9.2864    9.8475   -9.9834 H   0  0  0  0  0
    8.0524   10.7187  -10.9448 H   0  0  0  0  0
    9.6066   10.6274   -7.8462 H   0  0  0  0  0
    9.6341   12.4675   -6.1861 H   0  0  0  0  0
    9.0978   14.7800   -6.8956 H   0  0  0  0  0
    8.5288   15.2585   -9.2592 H   0  0  0  0  0
    8.5157   13.4197  -10.9201 H   0  0  0  0  0
   12.4274    8.3015   -8.6083 H   0  0  0  0  0
   13.2232    6.1148   -8.7030 H   0  0  0  0  0
   15.6792    7.5888   -9.7090 H   0  0  0  0  0
   15.5889    6.2533   -8.5208 H   0  0  0  0  0
   14.5273    9.0678   -8.1274 H   0  0  0  0  0
   14.4374    7.7391   -6.9452 H   0  0  0  0  0
   16.0200    8.4052   -7.4174 H   0  0  0  0  0
   12.9775    6.3746  -11.3800 H   0  0  0  0  0
   13.7968    5.0178  -10.6067 H   0  0  0  0  0
   15.1408    6.0648  -12.2046 H   0  0  0  0  0
  1  2  4  0  0  0
  1  6  4  0  0  0
  1 13  1  0  0  0
  2  3  4  0  0  0
  2  7  4  0  0  0
  3  4  4  0  0  0
  3  9  4  0  0  0
  4  5  4  0  0  0
  5  6  4  0  0  0
  5 21  1  0  0  0
  7  8  4  0  0  0
  8  9  4  0  0  0
  9 10  1  0  0  0
 10 11  1  0  0  0
 10 12  1  0  0  0
 13 14  1  0  0  0
 14 15  1  0  0  0
 15 16  4  0  0  0
 15 20  4  0  0  0
 16 17  4  0  0  0
 17 18  4  0  0  0
 18 19  4  0  0  0
 19 20  4  0  0  0
 21 22  1  0  0  0
 22 23  1  0  0  0
 22 25  1  0  0  0
 23 24  1  0  0  0
 25 26  1  0  0  0
 10 27  1  0  0  0
 11 28  1  0  0  0
 11 29  1  0  0  0
 11 30  1  0  0  0
 12 31  1  0  0  0
 12 32  1  0  0  0
 12 33  1  0  0  0
 13 34  1  0  0  0
 14 35  1  0  0  0
 14 36  1  0  0  0
 16 37  1  0  0  0
 17 38  1  0  0  0
 18 39  1  0  0  0
 19 40  1  0  0  0
 20 41  1  0  0  0
 21 42  1  0  0  0
 22 43  1  0  0  0
 23 44  1  0  0  0
 23 45  1  0  0  0
 24 46  1  0  0  0
 24 47  1  0  0  0
 24 48  1  0  0  0
 25 49  1  0  0  0
 25 50  1  0  0  0
 26 51  1  0  0  0
M  END
$$$$
