6prc_ligand
  -I-interpret- 

 32 32  0  0  0  0  0  0  0  0999 V2000
  132.1620   70.8490   -2.7220 N   0  0  0  0  0
  131.5570   69.7910   -2.2450 C   0  0  0  0  0
  131.2300   69.8650   -0.5320 Cl  0  0  0  0  0
  131.1660   68.6770   -2.8340 N   0  0  0  0  0
  131.4760   68.6810   -4.1640 C   0  0  0  0  0
  132.0950   69.6650   -4.8100 N   0  0  0  0  0
  132.4120   70.7240   -4.0550 C   0  0  0  0  0
  131.1100   67.5990   -4.8670 N   0  0  0  0  0
  130.4050   66.4260   -4.3700 C   0  0  0  0  0
  131.1720   65.6720   -3.3290 C   0  0  0  0  0
  131.7750   65.0570   -2.5430 N   0  0  0  0  0
  130.2860   65.3830   -5.4860 C   0  0  0  0  0
  128.9030   64.8120   -5.7040 C   0  0  0  0  0
  129.0590   66.8690   -3.7540 C   0  0  0  0  0
  133.0310   71.7780   -4.6260 N   0  0  0  0  0
  133.4340   72.9970   -3.9230 C   0  0  0  0  0
  133.5770   74.1430   -4.8680 C   0  0  0  0  0
  131.3519   67.5977   -5.8579 H   0  0  0  0  0
  130.9233   64.5473   -5.1970 H   0  0  0  0  0
  130.5610   65.8884   -6.4118 H   0  0  0  0  0
  128.5650   64.3232   -4.7903 H   0  0  0  0  0
  128.2154   65.6173   -5.9625 H   0  0  0  0  0
  128.9351   64.0853   -6.5158 H   0  0  0  0  0
  129.2469   67.5603   -2.9325 H   0  0  0  0  0
  128.4573   67.3637   -4.5164 H   0  0  0  0  0
  128.5267   65.9944   -3.3801 H   0  0  0  0  0
  133.2337   71.7211   -5.6240 H   0  0  0  0  0
  134.3965   72.8197   -3.4431 H   0  0  0  0  0
  132.6672   73.2449   -3.1891 H   0  0  0  0  0
  134.3350   73.9046   -5.6142 H   0  0  0  0  0
  132.6230   74.3255   -5.3627 H   0  0  0  0  0
  133.8771   75.0330   -4.3150 H   0  0  0  0  0
  1  2  4  0  0  0
  1  7  4  0  0  0
  2  3  1  0  0  0
  2  4  4  0  0  0
  4  5  4  0  0  0
  5  6  4  0  0  0
  5  8  1  0  0  0
  6  7  4  0  0  0
  7 15  1  0  0  0
  8  9  1  0  0  0
  9 10  1  0  0  0
  9 12  1  0  0  0
  9 14  1  0  0  0
 10 11  3  0  0  0
 12 13  1  0  0  0
 15 16  1  0  0  0
 16 17  1  0  0  0
  8 18  1  0  0  0
 12 19  1  0  0  0
 12 20  1  0  0  0
 13 21  1  0  0  0
 13 22  1  0  0  0
 13 23  1  0  0  0
 14 24  1  0  0  0
 14 25  1  0  0  0
 14 26  1  0  0  0
 15 27  1  0  0  0
 16 28  1  0  0  0
 16 29  1  0  0  0
 17 30  1  0  0  0
 17 31  1  0  0  0
 17 32  1  0  0  0
M  END
$$$$
