1gi9_ligand
  -I-interpret- 

 34 36  0  0  0  0  0  0  0  0999 V2000
    8.7430    1.8370   24.6990 C   0  0  0  0  0
    9.5440    1.6220   23.5520 C   0  0  0  0  0
   10.1750    2.6690   22.8830 C   0  0  0  0  0
    9.9800    3.9360   23.3850 C   0  0  0  0  0
    9.2320    4.1920   24.4800 C   0  0  0  0  0
    8.6020    3.1670   25.1510 C   0  0  0  0  0
    8.1150    0.7900   25.3680 C   0  0  0  0  0
    7.5460    1.0320   26.5170 N   0  0  0  0  0
    8.0760   -0.4230   24.8740 N   0  0  0  0  0
   10.4120    5.0800   23.0040 N   0  0  0  0  0
    9.1810    5.4660   24.7810 N   0  0  0  0  0
    9.9390    5.9890   23.8170 C   0  0  0  0  0
   10.2220    7.3480   23.6410 C   0  0  0  0  0
    9.8990    8.3340   24.5960 C   0  0  0  0  0
   10.1950    9.6930   24.3940 C   0  0  0  0  0
    9.9030   10.6870   25.3250 O   0  0  0  0  0
    9.6530   10.3160   26.6740 C   0  0  0  0  0
   10.8230   10.0670   23.2080 C   0  0  0  0  0
   11.1510    9.1200   22.2520 C   0  0  0  0  0
   10.8540    7.7810   22.4630 C   0  0  0  0  0
   11.1930    6.8740   21.4800 O   0  0  0  0  0
    9.6713    0.6053   23.1802 H   0  0  0  0  0
   10.7941    2.4930   22.0033 H   0  0  0  0  0
    7.9951    3.3827   26.0303 H   0  0  0  0  0
    7.0765    0.2804   27.0220 H   0  0  0  0  0
    7.6039   -1.1676   25.3869 H   0  0  0  0  0
    8.5177   -0.6226   23.9765 H   0  0  0  0  0
    9.4044    8.0328   25.5195 H   0  0  0  0  0
    8.7951    9.6447   26.7118 H   0  0  0  0  0
   10.5297    9.8105   27.0789 H   0  0  0  0  0
    9.4432   11.2093   27.2622 H   0  0  0  0  0
   11.0588   11.1163   23.0305 H   0  0  0  0  0
   11.6445    9.4278   21.3301 H   0  0  0  0  0
   11.6130    7.3361   20.7509 H   0  0  0  0  0
  1  7  1  0  0  0
  1  6  4  0  0  0
  1  2  4  0  0  0
  2  3  4  0  0  0
  3  4  4  0  0  0
  4 10  4  0  0  0
  4  5  4  0  0  0
  5 11  4  0  0  0
  5  6  4  0  0  0
 11 12  4  0  0  0
 12 13  1  0  0  0
 12 10  4  0  0  0
 13 20  4  0  0  0
 13 14  4  0  0  0
 14 15  4  0  0  0
 15 18  4  0  0  0
 15 16  1  0  0  0
 16 17  1  0  0  0
 18 19  4  0  0  0
 19 20  4  0  0  0
 20 21  1  0  0  0
  7  9  1  0  0  0
  7  8  2  0  0  0
  2 22  1  0  0  0
  3 23  1  0  0  0
  6 24  1  0  0  0
  8 25  1  0  0  0
  9 26  1  0  0  0
  9 27  1  0  0  0
 14 28  1  0  0  0
 17 29  1  0  0  0
 17 30  1  0  0  0
 17 31  1  0  0  0
 18 32  1  0  0  0
 19 33  1  0  0  0
 21 34  1  0  0  0
M  END
$$$$
