1bl6_ligand
  -I-interpret- 

 38 41  0  0  0  0  0  0  0  0999 V2000
    7.9390   10.9520   30.2500 F   0  0  0  0  0
    6.2980   12.3920   31.2320 C   0  0  0  0  0
    6.6870   11.4820   30.2200 C   0  0  0  0  0
    5.7760   11.1240   29.1840 C   0  0  0  0  0
    4.4670   11.6800   29.1780 C   0  0  0  0  0
    4.0450   12.6090   30.2120 C   0  0  0  0  0
    4.9960   12.9490   31.2300 C   0  0  0  0  0
    0.2710    9.1030   28.8640 C   0  0  0  0  0
    0.6480    8.2870   29.8690 N   0  0  0  0  0
    1.2490    8.7450   30.9850 C   0  0  0  0  0
    1.5150   10.1290   31.1540 C   0  0  0  0  0
    1.1360   11.0470   30.1130 C   0  0  0  0  0
    0.4990   10.5010   28.9430 C   0  0  0  0  0
    0.3390   13.4600   30.3260 N   0  0  0  0  0
    1.3880   12.4630   30.2470 C   0  0  0  0  0
    2.7190   13.1680   30.2370 C   0  0  0  0  0
    2.5030   14.5560   30.3210 N   0  0  0  0  0
    1.1320   14.6060   30.3640 C   0  0  0  0  0
   -1.1850   13.4020   30.3410 C   0  0  0  0  0
   -1.8380   13.2980   28.9070 C   0  0  0  0  0
   -1.0040   13.4460   27.6070 C   0  0  0  0  0
   -1.9320   14.5780   28.0580 C   0  0  0  0  0
    7.0038   12.6653   32.0164 H   0  0  0  0  0
    6.0805   10.4288   28.4016 H   0  0  0  0  0
    3.7703   11.4051   28.3861 H   0  0  0  0  0
    4.7117   13.6485   32.0161 H   0  0  0  0  0
   -0.2138    8.6844   27.9821 H   0  0  0  0  0
    1.5347    8.0431   31.7684 H   0  0  0  0  0
    1.9999   10.4915   32.0604 H   0  0  0  0  0
    0.1949   11.1553   28.1260 H   0  0  0  0  0
    0.6447   15.5787   30.4304 H   0  0  0  0  0
   -1.5394   14.3293   30.7912 H   0  0  0  0  0
   -1.4690   12.5051   30.8914 H   0  0  0  0  0
   -2.5222   12.5345   29.2772 H   0  0  0  0  0
   -0.7880   12.8755   26.7037 H   0  0  0  0  0
    0.0262   13.3149   27.2761 H   0  0  0  0  0
   -1.8833   15.6566   28.2076 H   0  0  0  0  0
   -2.7077   15.2116   27.6280 H   0  0  0  0  0
  1  3  1  0  0  0
  3  2  4  0  0  0
  3  4  4  0  0  0
  4  5  4  0  0  0
  5  6  4  0  0  0
  6 16  1  0  0  0
  6  7  4  0  0  0
  7  2  4  0  0  0
 16 17  4  0  0  0
 16 15  4  0  0  0
 15 14  4  0  0  0
 15 12  1  0  0  0
 12 13  4  0  0  0
 12 11  4  0  0  0
 11 10  4  0  0  0
 10  9  4  0  0  0
  9  8  4  0  0  0
  8 13  4  0  0  0
 14 18  4  0  0  0
 14 19  1  0  0  0
 19 20  1  0  0  0
 20 22  1  0  0  0
 20 21  1  0  0  0
 21 22  1  0  0  0
 18 17  4  0  0  0
  2 23  1  0  0  0
  4 24  1  0  0  0
  5 25  1  0  0  0
  7 26  1  0  0  0
  8 27  1  0  0  0
 10 28  1  0  0  0
 11 29  1  0  0  0
 13 30  1  0  0  0
 18 31  1  0  0  0
 19 32  1  0  0  0
 19 33  1  0  0  0
 20 34  1  0  0  0
 21 35  1  0  0  0
 21 36  1  0  0  0
 22 37  1  0  0  0
 22 38  1  0  0  0
M  END
$$$$
