6o5x_ligand
  -I-interpret- 

130130  0  0  0  0  0  0  0  0999 V2000
  -15.8540    3.1440  -30.6150 N   0  3  0  0  0
  -15.4100    1.9270  -29.9500 C   0  0  0  0  0
  -16.1000    1.7170  -28.6430 C   0  0  0  0  0
  -16.6340    2.6990  -28.1120 O   0  0  0  0  0
  -13.9230    2.0560  -29.7510 C   0  0  0  0  0
  -13.3450    2.9910  -28.7780 C   0  0  0  0  0
  -11.8190    3.0250  -28.8120 C   0  0  0  0  0
  -11.2170    4.1950  -28.1850 N   0  0  0  0  0
   -9.9820    4.6280  -28.4880 C   0  0  0  0  0
   -9.4120    5.6040  -27.7850 N   0  0  0  0  0
   -9.3560    4.1190  -29.4540 N   0  0  0  0  0
  -16.0840    0.5390  -28.1940 N   0  0  0  0  0
  -16.8350    0.1270  -27.0020 C   0  0  0  0  0
  -15.9340   -0.5470  -26.0410 C   0  0  0  0  0
  -15.5380   -1.7330  -26.1320 O   0  0  0  0  0
  -18.0520   -0.7570  -27.3610 C   0  0  0  0  0
  -18.9700   -0.0920  -28.3960 C   0  0  0  0  0
  -18.7450   -1.2130  -26.0520 C   0  0  0  0  0
  -15.6420    0.1350  -24.9920 N   0  0  0  0  0
  -14.6770   -0.3820  -23.9750 C   0  0  0  0  0
  -15.4190   -0.7010  -22.6620 C   0  0  0  0  0
  -13.5480    0.6190  -23.7120 C   0  0  0  0  0
  -12.8610    1.0690  -25.0000 C   0  0  0  0  0
  -12.3340   -0.0940  -25.8530 C   0  0  0  0  0
  -11.8080    2.0490  -24.7270 C   0  0  0  0  0
  -16.5270   -1.6860  -22.8110 N   0  3  0  0  0
  -16.9190   -2.6020  -21.7370 C   0  0  0  0  0
  -15.7410   -3.4290  -21.3030 C   0  0  0  0  0
  -14.9580   -3.9680  -22.1610 O   0  0  0  0  0
  -18.1130   -3.4350  -22.2190 C   0  0  0  0  0
  -18.3310   -4.6620  -21.4230 C   0  0  0  0  0
  -17.9920   -5.9430  -21.8440 C   0  0  0  0  0
  -18.8910   -4.4700  -20.1850 C   0  0  0  0  0
  -18.2250   -6.9940  -20.9690 C   0  0  0  0  0
  -19.1060   -5.5300  -19.2830 C   0  0  0  0  0
  -18.7930   -6.8070  -19.6980 C   0  0  0  0  0
  -15.6000   -3.6290  -20.0280 N   0  0  0  0  0
  -14.5800   -4.4970  -19.4770 C   0  0  0  0  0
  -15.0900   -5.1710  -18.2190 C   0  0  0  0  0
  -15.7300   -4.4950  -17.3820 O   0  0  0  0  0
  -13.2820   -3.7570  -19.1950 C   0  0  0  0  0
  -12.1580   -4.4520  -18.5580 C   0  0  0  0  0
  -12.2010   -4.6490  -17.0660 C   0  0  0  0  0
  -11.6030   -5.6460  -16.5690 O   0  0  0  0  0
  -12.8740   -3.9010  -16.3790 O   0  0  0  0  0
  -14.7850   -6.4280  -18.1000 N   0  0  0  0  0
  -15.0740   -7.1320  -16.8510 C   0  0  0  0  0
  -13.9780   -8.0850  -16.5340 C   0  0  0  0  0
  -13.2330   -8.6570  -17.3890 O   0  0  0  0  0
  -16.3860   -7.8470  -17.0310 C   0  0  0  0  0
  -13.8470   -8.4410  -15.2760 N   0  0  0  0  0
  -12.8340   -9.3560  -14.8440 C   0  0  0  0  0
  -13.4340  -10.7640  -14.9060 C   0  0  0  0  0
  -14.6190  -11.0310  -14.4940 O   0  0  0  0  0
  -12.6400   -9.0480  -13.3480 C   0  0  0  0  0
  -11.6770   -9.9180  -12.6120 C   0  0  0  0  0
  -10.2340  -10.0750  -13.1560 C   0  0  0  0  0
   -9.1950   -9.0730  -12.6430 C   0  0  0  0  0
  -12.6880  -11.6670  -15.5210 N   0  0  0  0  0
  -16.8612    3.0975  -30.7695 H   0  0  0  0  0
  -15.6356    3.9495  -30.0286 H   0  0  0  0  0
  -15.3752    3.2344  -31.5111 H   0  0  0  0  0
  -15.6550    1.0592  -30.5624 H   0  0  0  0  0
  -13.5686    2.4336  -30.7101 H   0  0  0  0  0
  -13.6302    1.0775  -29.3703 H   0  0  0  0  0
  -13.6465    2.6620  -27.7836 H   0  0  0  0  0
  -13.7038    3.9900  -29.0257 H   0  0  0  0  0
  -11.5272    3.0445  -29.8620 H   0  0  0  0  0
  -11.4716    2.1548  -28.2551 H   0  0  0  0  0
  -11.7563    4.7067  -27.4866 H   0  0  0  0  0
   -8.4779    5.9315  -28.0314 H   0  0  0  0  0
   -9.9093    6.0245  -26.9999 H   0  0  0  0  0
   -9.7864    3.3777  -30.0068 H   0  0  0  0  0
  -15.5234   -0.1599  -28.6815 H   0  0  0  0  0
  -17.2354    1.0232  -26.5280 H   0  0  0  0  0
  -17.7234   -1.6613  -27.8732 H   0  0  0  0  0
  -19.3431    0.8509  -27.9962 H   0  0  0  0  0
  -18.4076    0.0968  -29.3105 H   0  0  0  0  0
  -19.8088   -0.7531  -28.6137 H   0  0  0  0  0
  -18.0393   -1.7840  -25.4487 H   0  0  0  0  0
  -19.0767   -0.3374  -25.4940 H   0  0  0  0  0
  -19.6047   -1.8371  -26.2959 H   0  0  0  0  0
  -16.0772    1.0466  -24.8508 H   0  0  0  0  0
  -14.2284   -1.2937  -24.3694 H   0  0  0  0  0
  -15.8616    0.2301  -22.3081 H   0  0  0  0  0
  -14.6905   -1.1371  -21.9785 H   0  0  0  0  0
  -12.8028    0.1311  -23.0838 H   0  0  0  0  0
  -13.9800    1.4982  -23.2340 H   0  0  0  0  0
  -13.6339    1.5517  -25.5981 H   0  0  0  0  0
  -11.6058   -0.6647  -25.2767 H   0  0  0  0  0
  -13.1643   -0.7416  -26.1348 H   0  0  0  0  0
  -11.8592    0.3016  -26.7508 H   0  0  0  0  0
  -12.2434    2.9227  -24.2421 H   0  0  0  0  0
  -11.0597    1.6033  -24.0716 H   0  0  0  0  0
  -11.3397    2.3480  -25.6648 H   0  0  0  0  0
  -16.1885   -2.3118  -23.5419 H   0  0  0  0  0
  -17.3510   -1.0967  -22.9299 H   0  0  0  0  0
  -17.2377   -2.0547  -20.8499 H   0  0  0  0  0
  -17.9082   -3.7405  -23.2451 H   0  0  0  0  0
  -19.0057   -2.8171  -22.1223 H   0  0  0  0  0
  -17.5577   -6.1157  -22.8287 H   0  0  0  0  0
  -19.1796   -3.4614  -19.8893 H   0  0  0  0  0
  -17.9570   -8.0038  -21.2798 H   0  0  0  0  0
  -19.5078   -5.3463  -18.2866 H   0  0  0  0  0
  -18.9839   -7.6608  -19.0479 H   0  0  0  0  0
  -16.2352   -3.1542  -19.3865 H   0  0  0  0  0
  -14.3587   -5.2554  -20.2280 H   0  0  0  0  0
  -13.5618   -2.9834  -18.4799 H   0  0  0  0  0
  -12.9069   -3.4837  -20.1813 H   0  0  0  0  0
  -11.2878   -3.8216  -18.7409 H   0  0  0  0  0
  -12.1619   -5.4562  -18.9820 H   0  0  0  0  0
  -11.1283   -6.1111  -17.2618 H   0  0  0  0  0
  -14.3450   -6.9229  -18.8758 H   0  0  0  0  0
  -15.1433   -6.4348  -16.0160 H   0  0  0  0  0
  -17.1677   -7.1196  -17.2496 H   0  0  0  0  0
  -16.3033   -8.5528  -17.8575 H   0  0  0  0  0
  -16.6339   -8.3846  -16.1158 H   0  0  0  0  0
  -14.4882   -8.0527  -14.5843 H   0  0  0  0  0
  -11.9209   -9.2809  -15.4346 H   0  0  0  0  0
  -13.6108   -9.2052  -12.8779 H   0  0  0  0  0
  -12.2354   -8.0372  -13.2967 H   0  0  0  0  0
  -12.1065  -10.9184  -12.6656 H   0  0  0  0  0
  -11.5586   -9.4428  -11.6382 H   0  0  0  0  0
  -10.2992   -9.9166  -14.2325 H   0  0  0  0  0
   -9.8934  -11.0568  -12.8271 H   0  0  0  0  0
   -9.5048   -8.0623  -12.9085 H   0  0  0  0  0
   -9.1153   -9.1570  -11.5592 H   0  0  0  0  0
   -8.2282   -9.2892  -13.0976 H   0  0  0  0  0
  -13.0516  -12.6067  -15.6794 H   0  0  0  0  0
  -11.7492  -11.4235  -15.8368 H   0  0  0  0  0
  1  2  1  0  0  0
  2  3  1  0  0  0
  2  5  1  0  0  0
  3  4  2  0  0  0
  3 12  1  0  0  0
  5  6  1  0  0  0
  6  7  1  0  0  0
  7  8  1  0  0  0
  8  9  1  0  0  0
  9 10  1  0  0  0
  9 11  2  0  0  0
 12 13  1  0  0  0
 13 14  1  0  0  0
 13 16  1  0  0  0
 14 15  2  0  0  0
 14 19  1  0  0  0
 16 17  1  0  0  0
 16 18  1  0  0  0
 19 20  1  0  0  0
 20 21  1  0  0  0
 20 22  1  0  0  0
 21 26  1  0  0  0
 22 23  1  0  0  0
 23 24  1  0  0  0
 23 25  1  0  0  0
 26 27  1  0  0  0
 27 28  1  0  0  0
 27 30  1  0  0  0
 28 29  2  0  0  0
 28 37  1  0  0  0
 30 31  1  0  0  0
 31 32  4  0  0  0
 31 33  4  0  0  0
 32 34  4  0  0  0
 33 35  4  0  0  0
 34 36  4  0  0  0
 35 36  4  0  0  0
 37 38  1  0  0  0
 38 39  1  0  0  0
 38 41  1  0  0  0
 39 40  2  0  0  0
 39 46  1  0  0  0
 41 42  1  0  0  0
 42 43  1  0  0  0
 43 44  1  0  0  0
 43 45  2  0  0  0
 46 47  1  0  0  0
 47 48  1  0  0  0
 47 50  1  0  0  0
 48 49  2  0  0  0
 48 51  1  0  0  0
 51 52  1  0  0  0
 52 53  1  0  0  0
 52 55  1  0  0  0
 53 54  2  0  0  0
 53 59  1  0  0  0
 55 56  1  0  0  0
 56 57  1  0  0  0
 57 58  1  0  0  0
  1 60  1  0  0  0
  1 61  1  0  0  0
  1 62  1  0  0  0
  2 63  1  0  0  0
  5 64  1  0  0  0
  5 65  1  0  0  0
  6 66  1  0  0  0
  6 67  1  0  0  0
  7 68  1  0  0  0
  7 69  1  0  0  0
  8 70  1  0  0  0
 10 71  1  0  0  0
 10 72  1  0  0  0
 11 73  1  0  0  0
 12 74  1  0  0  0
 13 75  1  0  0  0
 16 76  1  0  0  0
 17 77  1  0  0  0
 17 78  1  0  0  0
 17 79  1  0  0  0
 18 80  1  0  0  0
 18 81  1  0  0  0
 18 82  1  0  0  0
 19 83  1  0  0  0
 20 84  1  0  0  0
 21 85  1  0  0  0
 21 86  1  0  0  0
 22 87  1  0  0  0
 22 88  1  0  0  0
 23 89  1  0  0  0
 24 90  1  0  0  0
 24 91  1  0  0  0
 24 92  1  0  0  0
 25 93  1  0  0  0
 25 94  1  0  0  0
 25 95  1  0  0  0
 26 96  1  0  0  0
 26 97  1  0  0  0
 27 98  1  0  0  0
 30 99  1  0  0  0
 30100  1  0  0  0
 32101  1  0  0  0
 33102  1  0  0  0
 34103  1  0  0  0
 35104  1  0  0  0
 36105  1  0  0  0
 37106  1  0  0  0
 38107  1  0  0  0
 41108  1  0  0  0
 41109  1  0  0  0
 42110  1  0  0  0
 42111  1  0  0  0
 44112  1  0  0  0
 46113  1  0  0  0
 47114  1  0  0  0
 50115  1  0  0  0
 50116  1  0  0  0
 50117  1  0  0  0
 51118  1  0  0  0
 52119  1  0  0  0
 55120  1  0  0  0
 55121  1  0  0  0
 56122  1  0  0  0
 56123  1  0  0  0
 57124  1  0  0  0
 57125  1  0  0  0
 58126  1  0  0  0
 58127  1  0  0  0
 58128  1  0  0  0
 59129  1  0  0  0
 59130  1  0  0  0
M  END
$$$$
