2vo5_ligand
  -I-interpret- 

 42 44  0  0  0  0  0  0  0  0999 V2000
   28.0980   44.6850   -0.0200 O   0  0  0  0  0
   27.5320   45.9020   -0.4860 C   0  0  0  0  0
   28.0950   47.0940    0.2520 C   0  0  0  0  0
   29.3600   46.7230    0.7310 O   0  0  0  0  0
   28.1710   48.2240   -0.7810 C   0  0  0  0  0
   28.4180   49.4660   -0.0720 O   0  0  0  0  0
   26.7880   48.3040   -1.4660 C   0  0  0  0  0
   26.4000   49.6390   -2.1070 C   0  0  0  0  0
   27.1900   49.8270   -3.2700 O   0  0  0  0  0
   26.6230   47.1130   -2.4160 C   0  0  0  0  0
   29.3090   47.9170   -1.7690 C   0  0  0  0  0
   29.0330   46.6270   -2.4470 N   0  3  0  0  0
   27.6950   46.1220   -2.0130 C   0  0  0  0  0
   29.0480   46.7000   -3.9540 C   0  0  0  0  0
   30.2710   47.3530   -4.5820 C   0  0  0  0  0
   31.5620   46.8800   -4.3340 C   0  0  0  0  0
   32.6840   47.4960   -4.9300 C   0  0  0  0  0
   30.1230   48.4760   -5.4090 C   0  0  0  0  0
   31.2340   49.1100   -5.9950 C   0  0  0  0  0
   32.5200   48.6130   -5.7630 C   0  0  0  0  0
   27.9625   44.6126    0.9276 H   0  0  0  0  0
   26.4652   45.8116   -0.2816 H   0  0  0  0  0
   27.4959   47.4214    1.1017 H   0  0  0  0  0
   29.2631   46.0154    1.3725 H   0  0  0  0  0
   29.2761   49.4234    0.3563 H   0  0  0  0  0
   26.0615   48.2454   -0.6556 H   0  0  0  0  0
   26.5737   50.4535   -1.4038 H   0  0  0  0  0
   25.3430   49.6305   -2.3729 H   0  0  0  0  0
   26.9566   50.6618   -3.6825 H   0  0  0  0  0
   26.7301   47.4154   -3.4577 H   0  0  0  0  0
   25.6270   46.6767   -2.3401 H   0  0  0  0  0
   30.2537   47.8513   -1.2293 H   0  0  0  0  0
   29.3736   48.7131   -2.5107 H   0  0  0  0  0
   29.7896   45.9992   -2.1751 H   0  0  0  0  0
   27.6010   45.1519   -2.5010 H   0  0  0  0  0
   28.1944   47.3155   -4.2378 H   0  0  0  0  0
   29.0366   45.6695   -4.3091 H   0  0  0  0  0
   31.7047   46.0254   -3.6726 H   0  0  0  0  0
   33.6827   47.1018   -4.7420 H   0  0  0  0  0
   29.1240   48.8668   -5.6023 H   0  0  0  0  0
   31.0925   49.9860   -6.6280 H   0  0  0  0  0
   33.3858   49.0881   -6.2243 H   0  0  0  0  0
  1  2  1  0  0  0
  2  3  1  0  0  0
  2 13  1  0  0  0
  3  4  1  0  0  0
  3  5  1  0  0  0
  5  6  1  0  0  0
  5  7  1  0  0  0
  5 11  1  0  0  0
  7  8  1  0  0  0
  7 10  1  0  0  0
  8  9  1  0  0  0
 10 13  1  0  0  0
 11 12  1  0  0  0
 12 13  1  0  0  0
 12 14  1  0  0  0
 14 15  1  0  0  0
 15 16  4  0  0  0
 15 18  4  0  0  0
 16 17  4  0  0  0
 17 20  4  0  0  0
 18 19  4  0  0  0
 19 20  4  0  0  0
  1 21  1  0  0  0
  2 22  1  0  0  0
  3 23  1  0  0  0
  4 24  1  0  0  0
  6 25  1  0  0  0
  7 26  1  0  0  0
  8 27  1  0  0  0
  8 28  1  0  0  0
  9 29  1  0  0  0
 10 30  1  0  0  0
 10 31  1  0  0  0
 11 32  1  0  0  0
 11 33  1  0  0  0
 12 34  1  0  0  0
 13 35  1  0  0  0
 14 36  1  0  0  0
 14 37  1  0  0  0
 16 38  1  0  0  0
 17 39  1  0  0  0
 18 40  1  0  0  0
 19 41  1  0  0  0
 20 42  1  0  0  0
M  END
$$$$
