6dgt_ligand
  -I-interpret- 

 49 54  0  0  0  0  0  0  0  0999 V2000
   42.8180   60.7080  132.2640 N   0  0  0  0  0
   42.2020   61.4180  133.2720 C   0  0  0  0  0
   41.3180   60.9780  134.2410 C   0  0  0  0  0
   41.2250   63.2550  135.1610 C   0  0  0  0  0
   44.4550   61.2350  130.4980 C   0  0  0  0  0
   40.8680   59.6060  134.2670 C   0  0  0  0  0
   40.5200   57.5710  133.6750 C   0  0  0  0  0
   42.3250   66.0360  128.5900 C   0  0  0  0  0
   41.6930   64.9040  129.0540 C   0  0  0  0  0
   43.4740   64.6370  130.7200 C   0  0  0  0  0
   44.0960   65.7720  130.2370 C   0  0  0  0  0
   43.5070   66.4620  129.1770 C   0  0  0  0  0
   44.1030   63.9730  131.8180 C   0  0  0  0  0
   45.2660   64.3940  132.3980 C   0  0  0  0  0
   45.7680   65.5120  131.8130 C   0  0  0  0  0
   45.2290   66.1840  130.7920 N   0  0  0  0  0
   43.4900   62.8090  132.2730 N   0  0  0  0  0
   43.5880   61.5650  131.6470 C   0  0  0  0  0
   42.5990   62.7390  133.3020 C   0  0  0  0  0
   40.8170   61.9040  135.1390 C   0  0  0  0  0
   42.1280   63.7130  134.2000 C   0  0  0  0  0
   42.2700   64.2450  130.1000 C   0  0  0  0  0
   41.5980   63.1860  130.5410 F   0  0  0  0  0
   44.0210   67.6010  128.6640 F   0  0  0  0  0
   40.6140   64.1400  136.1250 C   0  0  0  0  0
   41.2530   58.6480  133.3750 N   0  0  0  0  0
   39.7240   57.8180  134.6610 N   0  0  0  0  0
   39.9500   59.1040  135.0650 N   0  0  0  0  0
   41.2410   65.2860  136.5170 C   0  0  0  0  0
   40.6680   66.1790  137.3820 C   0  0  0  0  0
   39.4480   65.9350  137.9030 N   0  0  0  0  0
   38.8300   64.7790  137.5400 C   0  0  0  0  0
   39.3670   63.8630  136.6580 C   0  0  0  0  0
   42.4560   65.5760  136.0660 F   0  0  0  0  0
   41.4070   67.3140  137.6930 N   0  0  0  0  0
   45.1729   60.4701  130.7941 H   0  0  0  0  0
   43.8422   60.8618  129.6774 H   0  0  0  0  0
   44.9876   62.1304  130.1774 H   0  0  0  0  0
   40.5855   56.6140  133.1573 H   0  0  0  0  0
   41.8958   66.5978  127.7604 H   0  0  0  0  0
   40.7669   64.5480  128.6027 H   0  0  0  0  0
   45.7396   63.8875  133.2390 H   0  0  0  0  0
   46.7035   65.8995  132.2165 H   0  0  0  0  0
   40.0722   61.5746  135.8635 H   0  0  0  0  0
   42.4461   64.7543  134.1493 H   0  0  0  0  0
   37.8525   64.5631  137.9713 H   0  0  0  0  0
   38.8282   62.9539  136.3908 H   0  0  0  0  0
   42.3304   67.4499  137.2816 H   0  0  0  0  0
   41.0260   68.0112  138.3327 H   0  0  0  0  0
  1  2  4  0  0  0
 18  1  4  0  0  0
  2  3  4  0  0  0
  2 19  4  0  0  0
  3  6  1  0  0  0
  3 20  4  0  0  0
 20  4  4  0  0  0
  4 21  4  0  0  0
  4 25  1  0  0  0
 18  5  1  0  0  0
  6 26  4  0  0  0
  6 28  4  0  0  0
 26  7  4  0  0  0
  7 27  4  0  0  0
  9  8  4  0  0  0
 12  8  4  0  0  0
 22  9  4  0  0  0
 10 11  4  0  0  0
 13 10  4  0  0  0
 10 22  4  0  0  0
 11 12  4  0  0  0
 11 16  4  0  0  0
 12 24  1  0  0  0
 13 14  4  0  0  0
 17 13  1  0  0  0
 14 15  4  0  0  0
 15 16  4  0  0  0
 17 18  4  0  0  0
 17 19  4  0  0  0
 19 21  4  0  0  0
 22 23  1  0  0  0
 25 29  4  0  0  0
 25 33  4  0  0  0
 27 28  4  0  0  0
 29 30  4  0  0  0
 29 34  1  0  0  0
 30 31  4  0  0  0
 30 35  1  0  0  0
 31 32  4  0  0  0
 32 33  4  0  0  0
  5 36  1  0  0  0
  5 37  1  0  0  0
  5 38  1  0  0  0
  7 39  1  0  0  0
  8 40  1  0  0  0
  9 41  1  0  0  0
 14 42  1  0  0  0
 15 43  1  0  0  0
 20 44  1  0  0  0
 21 45  1  0  0  0
 32 46  1  0  0  0
 33 47  1  0  0  0
 35 48  1  0  0  0
 35 49  1  0  0  0
M  END
$$$$
