3ljz_ligand
  -I-interpret- 

 61 65  0  0  0  0  0  0  0  0999 V2000
   74.1930   89.0030   45.7660 C   0  0  0  0  0
   72.4240   89.3650   47.8260 C   0  0  0  0  0
   73.5830   90.2300   45.9040 C   0  0  0  0  0
   73.9220   87.9700   46.6350 C   0  0  0  0  0
   73.0310   88.1380   47.6830 C   0  0  0  0  0
   72.6960   90.3930   46.9520 C   0  0  0  0  0
   73.8710   91.3110   44.9740 C   0  0  0  0  0
   72.6810   87.0450   48.6570 C   0  0  0  0  0
   74.5100   93.3180   43.1930 C   0  0  0  0  0
   73.2750   92.5540   45.1010 C   0  0  0  0  0
   74.7780   91.1140   43.9420 C   0  0  0  0  0
   75.1140   92.1000   43.0320 C   0  0  0  0  0
   73.6130   93.5370   44.1970 C   0  0  0  0  0
   73.1170   94.8180   44.1800 O   0  0  0  0  0
   74.7100   94.4180   42.4010 O   0  0  0  0  0
   73.8400   95.3670   43.0520 C   0  0  0  0  0
   73.7200   85.9510   48.8380 C   0  0  0  0  0
   74.6310   86.3160   49.9670 C   0  0  0  0  0
   73.0580   84.6560   49.2650 C   0  0  0  0  0
   72.3880   84.0500   48.0840 C   0  0  0  0  0
   72.9990   83.7440   47.0760 O   0  0  0  0  0
   71.0360   83.8940   48.2760 N   0  0  0  0  0
   70.3290   84.1230   47.0710 O   0  0  0  0  0
   74.2270   86.4080   51.1190 O   0  0  0  0  0
   75.9240   86.5230   49.5530 N   0  0  0  0  0
   76.9970   86.4600   50.5300 C   0  0  0  0  0
   78.2800   85.8540   50.0690 C   0  0  0  0  0
   77.5030   87.8070   51.0090 C   0  0  0  0  0
   77.6770   88.6330   49.8770 O   0  0  0  0  0
   78.9070   87.6000   51.5300 C   0  0  0  0  0
   80.8390   85.0520   49.5100 C   0  0  0  0  0
   78.4640   84.7930   49.2060 C   0  0  0  0  0
   79.3440   86.4980   50.6390 C   0  0  0  0  0
   80.6410   86.1170   50.3700 C   0  0  0  0  0
   79.7620   84.4010   48.9360 C   0  0  0  0  0
   74.9032   88.8468   44.9541 H   0  0  0  0  0
   71.7189   89.5247   48.6418 H   0  0  0  0  0
   74.4147   87.0076   46.4969 H   0  0  0  0  0
   72.2021   91.3550   47.0889 H   0  0  0  0  0
   71.7906   86.5571   48.2605 H   0  0  0  0  0
   72.5727   87.5262   49.6290 H   0  0  0  0  0
   72.5561   92.7501   45.8965 H   0  0  0  0  0
   75.2480   90.1354   43.8440 H   0  0  0  0  0
   75.8248   91.9163   42.2263 H   0  0  0  0  0
   74.4655   96.1761   43.4292 H   0  0  0  0  0
   73.1015   95.6882   42.3175 H   0  0  0  0  0
   74.2480   85.8379   47.8911 H   0  0  0  0  0
   72.3233   84.8558   50.0450 H   0  0  0  0  0
   73.8078   83.9692   49.6578 H   0  0  0  0  0
   70.6014   83.6470   49.1651 H   0  0  0  0  0
   69.3885   84.0093   47.2265 H   0  0  0  0  0
   76.1280   86.7183   48.5729 H   0  0  0  0  0
   76.4818   85.8649   51.2840 H   0  0  0  0  0
   76.8182   88.2267   51.7459 H   0  0  0  0  0
   77.9977   89.4936   50.1565 H   0  0  0  0  0
   78.9666   87.3730   52.5944 H   0  0  0  0  0
   79.5385   88.4878   51.4961 H   0  0  0  0  0
   81.8529   84.7227   49.2825 H   0  0  0  0  0
   77.6149   84.2815   48.7527 H   0  0  0  0  0
   81.4848   86.6390   50.8212 H   0  0  0  0  0
   79.9396   83.5650   48.2595 H   0  0  0  0  0
  1  3  4  0  0  0
  4  1  4  0  0  0
  5  2  4  0  0  0
  2  6  4  0  0  0
  6  3  4  0  0  0
  3  7  1  0  0  0
  5  4  4  0  0  0
  8  5  1  0  0  0
  7 10  4  0  0  0
  7 11  4  0  0  0
 17  8  1  0  0  0
 12  9  4  0  0  0
 13  9  4  0  0  0
  9 15  1  0  0  0
 10 13  4  0  0  0
 11 12  4  0  0  0
 13 14  1  0  0  0
 14 16  1  0  0  0
 15 16  1  0  0  0
 18 17  1  0  0  0
 17 19  1  0  0  0
 18 24  2  0  0  0
 25 18  1  0  0  0
 19 20  1  0  0  0
 20 21  2  0  0  0
 20 22  1  0  0  0
 22 23  1  0  0  0
 26 25  1  0  0  0
 27 26  1  0  0  0
 26 28  1  0  0  0
 32 27  4  0  0  0
 27 33  4  0  0  0
 28 29  1  0  0  0
 30 28  1  0  0  0
 33 30  1  0  0  0
 31 34  4  0  0  0
 35 31  4  0  0  0
 32 35  4  0  0  0
 33 34  4  0  0  0
  1 36  1  0  0  0
  2 37  1  0  0  0
  4 38  1  0  0  0
  6 39  1  0  0  0
  8 40  1  0  0  0
  8 41  1  0  0  0
 10 42  1  0  0  0
 11 43  1  0  0  0
 12 44  1  0  0  0
 16 45  1  0  0  0
 16 46  1  0  0  0
 17 47  1  0  0  0
 19 48  1  0  0  0
 19 49  1  0  0  0
 22 50  1  0  0  0
 23 51  1  0  0  0
 25 52  1  0  0  0
 26 53  1  0  0  0
 28 54  1  0  0  0
 29 55  1  0  0  0
 30 56  1  0  0  0
 30 57  1  0  0  0
 31 58  1  0  0  0
 32 59  1  0  0  0
 34 60  1  0  0  0
 35 61  1  0  0  0
M  END
$$$$
