2v2q_ligand
  -I-interpret- 

 51 54  0  0  0  0  0  0  0  0999 V2000
   12.9440   -9.9710   14.9610 O   0  0  0  0  0
   13.0410   -9.0370   15.7620 C   0  0  0  0  0
   12.3190   -7.9140   15.5500 N   0  0  0  0  0
   12.3730   -6.8650   16.3910 C   0  0  0  0  0
   11.6480   -5.7770   16.1530 N   0  0  0  0  0
   13.1900   -6.8970   17.5220 C   0  0  0  0  0
   13.9540   -8.0270   17.7840 C   0  0  0  0  0
   13.8960   -9.1240   16.9000 N   0  0  0  0  0
   14.7180  -10.3600   17.1830 C   0  0  0  0  0
   15.2460  -10.4160   18.5600 O   0  0  0  0  0
   15.9510  -10.4870   16.2580 C   0  0  0  0  0
   15.9890  -11.8010   15.6740 O   0  0  0  0  0
   17.1610  -10.2830   17.1680 C   0  0  0  0  0
   17.8180  -11.5390   17.2980 O   0  0  0  0  0
   16.5610   -9.8010   18.5160 C   0  0  0  0  0
   17.3020  -10.0920   19.8640 C   0  0  0  0  0
   18.2310  -11.2300   19.7370 N   0  0  0  0  0
   19.5410  -11.1410   19.9820 C   0  0  0  0  0
   20.1120  -10.1100   20.3370 O   0  0  0  0  0
   20.3390  -12.4420   19.7890 C   0  0  0  0  0
   19.5050  -13.7070   20.0450 C   0  0  0  0  0
   19.1260  -13.8430   21.5220 C   0  0  0  0  0
   18.2900  -13.0430   22.1840 N   0  0  0  0  0
   18.2060  -13.4680   23.4380 C   0  0  0  0  0
   17.4910  -13.0090   24.5430 C   0  0  0  0  0
   17.6050  -13.6780   25.7610 C   0  0  0  0  0
   18.4300  -14.7990   25.8700 C   0  0  0  0  0
   19.1460  -15.2540   24.7630 C   0  0  0  0  0
   19.0300  -14.5830   23.5470 C   0  0  0  0  0
   19.5760  -14.7840   22.3520 N   0  0  0  0  0
   11.7160   -7.8603   14.7291 H   0  0  0  0  0
   11.6944   -4.9834   16.7920 H   0  0  0  0  0
   13.2283   -6.0407   18.1954 H   0  0  0  0  0
   14.5933   -8.0655   18.6660 H   0  0  0  0  0
   14.0089  -11.1699   17.0116 H   0  0  0  0  0
   15.9290   -9.7644   15.4423 H   0  0  0  0  0
   16.7561  -11.8734   15.1013 H   0  0  0  0  0
   17.8916   -9.5642   16.7970 H   0  0  0  0  0
   18.5851  -11.4403   17.8667 H   0  0  0  0  0
   16.6149   -8.7127   18.4889 H   0  0  0  0  0
   16.5570  -10.3379   20.6207 H   0  0  0  0  0
   17.8761   -9.2074   20.1397 H   0  0  0  0  0
   17.8536  -12.1321   19.4470 H   0  0  0  0  0
   21.1592  -12.4361   20.5069 H   0  0  0  0  0
   20.6758  -12.4724   18.7528 H   0  0  0  0  0
   20.0999  -14.5750   19.7609 H   0  0  0  0  0
   18.5883  -13.6395   19.4591 H   0  0  0  0  0
   16.8475  -12.1336   24.4556 H   0  0  0  0  0
   17.0490  -13.3252   26.6296 H   0  0  0  0  0
   18.5148  -15.3204   26.8235 H   0  0  0  0  0
   19.7916  -16.1281   24.8483 H   0  0  0  0  0
  1  2  2  0  0  0
  2  3  1  0  0  0
  2  8  1  0  0  0
  3  4  1  0  0  0
  4  5  2  0  0  0
  4  6  1  0  0  0
  6  7  2  0  0  0
  7  8  1  0  0  0
  8  9  1  0  0  0
  9 10  1  0  0  0
  9 11  1  0  0  0
 10 15  1  0  0  0
 11 12  1  0  0  0
 11 13  1  0  0  0
 13 14  1  0  0  0
 13 15  1  0  0  0
 15 16  1  0  0  0
 16 17  1  0  0  0
 17 18  1  0  0  0
 18 19  2  0  0  0
 18 20  1  0  0  0
 20 21  1  0  0  0
 21 22  1  0  0  0
 22 23  4  0  0  0
 22 30  4  0  0  0
 23 24  4  0  0  0
 24 25  4  0  0  0
 24 29  4  0  0  0
 25 26  4  0  0  0
 26 27  4  0  0  0
 27 28  4  0  0  0
 28 29  4  0  0  0
 29 30  4  0  0  0
  3 31  1  0  0  0
  5 32  1  0  0  0
  6 33  1  0  0  0
  7 34  1  0  0  0
  9 35  1  0  0  0
 11 36  1  0  0  0
 12 37  1  0  0  0
 13 38  1  0  0  0
 14 39  1  0  0  0
 15 40  1  0  0  0
 16 41  1  0  0  0
 16 42  1  0  0  0
 17 43  1  0  0  0
 20 44  1  0  0  0
 20 45  1  0  0  0
 21 46  1  0  0  0
 21 47  1  0  0  0
 25 48  1  0  0  0
 26 49  1  0  0  0
 27 50  1  0  0  0
 28 51  1  0  0  0
M  END
$$$$
