4iq6_ligand
  -I-interpret- 

 41 44  0  0  0  0  0  0  0  0999 V2000
   40.8950   -5.4570  -35.6210 C   0  0  0  0  0
   40.0090   -6.4270  -35.1990 C   0  0  0  0  0
   37.4520   -8.0540  -34.2280 C   0  0  0  0  0
   37.2720  -10.2230  -35.1320 C   0  0  0  0  0
   41.4280   -5.5230  -36.8910 C   0  0  0  0  0
   38.9510   -9.1600  -37.3540 C   0  0  0  0  0
   39.7010   -7.4250  -36.1160 C   0  0  0  0  0
   37.8820   -8.9870  -35.1380 C   0  0  0  0  0
   38.8440   -8.5620  -36.1200 C   0  0  0  0  0
   40.2940   -7.3670  -37.3670 C   0  0  0  0  0
   36.4810   -8.3290  -33.2900 C   0  0  0  0  0
   36.2940  -10.4340  -34.1800 C   0  0  0  0  0
   38.5190   -4.8500  -29.7810 C   0  0  0  0  0
   39.2100   -5.6730  -30.8550 C   0  0  0  0  0
   37.2680   -5.5420  -29.2490 C   0  0  0  0  0
   38.2410   -6.0530  -31.9590 C   0  0  0  0  0
   36.3370   -6.0410  -30.3520 C   0  0  0  0  0
   37.0730   -6.8690  -31.4040 C   0  0  0  0  0
   41.1640   -6.4550  -37.8170 N   0  0  0  0  0
   35.8770   -9.5340  -33.2710 N   0  0  0  0  0
   39.8580   -8.4450  -38.0790 N   0  0  0  0  0
   36.1050   -7.2600  -32.4340 N   0  0  0  0  0
   35.4990  -11.9600  -34.1570 Cl  0  0  0  0  0
   41.1725   -4.6417  -34.9529 H   0  0  0  0  0
   39.5738   -6.4114  -34.1997 H   0  0  0  0  0
   37.8952   -7.0584  -34.2481 H   0  0  0  0  0
   37.5489  -10.9986  -35.8461 H   0  0  0  0  0
   42.1335   -4.7400  -37.1691 H   0  0  0  0  0
   38.4096  -10.0440  -37.6909 H   0  0  0  0  0
   38.2217   -3.8974  -30.2195 H   0  0  0  0  0
   39.2144   -4.7177  -28.9522 H   0  0  0  0  0
   39.5968   -6.5852  -30.4008 H   0  0  0  0  0
   40.0150   -5.0782  -31.2866 H   0  0  0  0  0
   36.7152   -4.8127  -28.6568 H   0  0  0  0  0
   37.5913   -6.4096  -28.6738 H   0  0  0  0  0
   38.7700   -6.6559  -32.6971 H   0  0  0  0  0
   37.8485   -5.1414  -32.4096 H   0  0  0  0  0
   35.9052   -5.1718  -30.8481 H   0  0  0  0  0
   35.5792   -6.6756  -29.8926 H   0  0  0  0  0
   37.4981   -7.7789  -30.9803 H   0  0  0  0  0
   35.2062   -6.7876  -32.5308 H   0  0  0  0  0
  2  1  4  0  0  0
  1  5  4  0  0  0
  7  2  4  0  0  0
  3  8  4  0  0  0
 11  3  4  0  0  0
  8  4  4  0  0  0
 12  4  4  0  0  0
 19  5  4  0  0  0
  9  6  4  0  0  0
  6 21  4  0  0  0
  9  7  4  0  0  0
  7 10  4  0  0  0
  8  9  1  0  0  0
 10 19  4  0  0  0
 10 21  4  0  0  0
 11 20  4  0  0  0
 22 11  1  0  0  0
 20 12  4  0  0  0
 12 23  1  0  0  0
 14 13  1  0  0  0
 15 13  1  0  0  0
 16 14  1  0  0  0
 17 15  1  0  0  0
 18 16  1  0  0  0
 18 17  1  0  0  0
 18 22  1  0  0  0
  1 24  1  0  0  0
  2 25  1  0  0  0
  3 26  1  0  0  0
  4 27  1  0  0  0
  5 28  1  0  0  0
  6 29  1  0  0  0
 13 30  1  0  0  0
 13 31  1  0  0  0
 14 32  1  0  0  0
 14 33  1  0  0  0
 15 34  1  0  0  0
 15 35  1  0  0  0
 16 36  1  0  0  0
 16 37  1  0  0  0
 17 38  1  0  0  0
 17 39  1  0  0  0
 18 40  1  0  0  0
 22 41  1  0  0  0
M  END
$$$$
