3p2e_ligand
  -I-interpret- 

 47 49  0  0  0  0  0  0  0  0999 V2000
   10.3760    8.8670    2.8770 N   0  3  0  0  0
   11.4310    9.6150    2.4340 C   0  0  0  0  0
   10.9290   10.7780    1.5740 C   0  0  0  0  0
   11.8990   11.4510    0.6490 C   0  0  0  0  0
   11.2960   12.7830   -0.3350 S   0  0  0  0  0
   12.3280   10.0360    3.6780 C   0  0  0  0  0
   13.4040   10.1580    3.2680 O   0  0  0  0  0
   11.9490   10.1940    4.7500 O   0  0  0  0  0
    9.7410   12.3670   -1.1350 C   0  0  0  0  0
    9.9310   10.9770   -1.9020 C   0  0  0  0  0
    8.5970   10.7010   -2.3490 O   0  0  0  0  0
   10.8320   11.0260   -3.1190 C   0  0  0  0  0
   11.8980   10.0300   -3.0150 O   0  0  0  0  0
    9.8550   10.8250   -4.3350 C   0  0  0  0  0
   10.3830   10.1440   -5.4520 O   0  0  0  0  0
    8.6730   10.0850   -3.6730 C   0  0  0  0  0
    7.3490   10.2710   -4.3890 N   0  0  0  0  0
    6.7920   11.4800   -4.8290 C   0  0  0  0  0
    5.6510   11.3120   -5.4730 N   0  0  0  0  0
    5.4880    9.8870   -5.4260 C   0  0  0  0  0
    4.3980    9.1340   -5.9840 C   0  0  0  0  0
    3.3710    9.7240   -6.6400 N   0  0  0  0  0
    4.4980    7.7670   -5.7900 N   0  0  0  0  0
    5.5640    7.1660   -5.1090 C   0  0  0  0  0
    6.6140    7.9060   -4.5730 N   0  0  0  0  0
    6.4880    9.2570   -4.7830 C   0  0  0  0  0
    9.7970    8.5941    2.0828 H   0  0  0  0  0
   10.7262    8.0321    3.3468 H   0  0  0  0  0
    9.8204    9.4186    3.5307 H   0  0  0  0  0
   12.0793    9.0375    1.7749 H   0  0  0  0  0
   10.6281   11.5491    2.2832 H   0  0  0  0  0
   10.1676   10.3458    0.9248 H   0  0  0  0  0
   12.2114   10.6824   -0.0579 H   0  0  0  0  0
   12.6645   11.8849    1.2922 H   0  0  0  0  0
   13.4124    9.9563    2.3295 H   0  0  0  0  0
    9.4611   13.1494   -1.8404 H   0  0  0  0  0
    8.9484   12.2799   -0.3918 H   0  0  0  0  0
   10.4006   10.2444   -1.2456 H   0  0  0  0  0
   11.3753   11.9642   -3.2319 H   0  0  0  0  0
   12.4562   10.0778   -3.7946 H   0  0  0  0  0
    9.5935   11.7746   -4.8019 H   0  0  0  0  0
    9.7088   10.0761   -6.1320 H   0  0  0  0  0
    8.8406    9.0080   -3.6777 H   0  0  0  0  0
    7.2510   12.4537   -4.6581 H   0  0  0  0  0
    3.3527   10.7376   -6.7523 H   0  0  0  0  0
    2.6156    9.1548   -7.0219 H   0  0  0  0  0
    5.5717    6.0820   -4.9948 H   0  0  0  0  0
  1  2  1  0  0  0
  2  3  1  0  0  0
  2  6  1  0  0  0
  3  4  1  0  0  0
  4  5  1  0  0  0
  5  9  1  0  0  0
  6  7  1  0  0  0
  6  8  2  0  0  0
  9 10  1  0  0  0
 10 11  1  0  0  0
 10 12  1  0  0  0
 11 16  1  0  0  0
 12 13  1  0  0  0
 12 14  1  0  0  0
 14 15  1  0  0  0
 14 16  1  0  0  0
 16 17  1  0  0  0
 17 18  4  0  0  0
 17 26  4  0  0  0
 18 19  4  0  0  0
 19 20  4  0  0  0
 20 21  4  0  0  0
 20 26  4  0  0  0
 21 22  1  0  0  0
 21 23  4  0  0  0
 23 24  4  0  0  0
 24 25  4  0  0  0
 25 26  4  0  0  0
  1 27  1  0  0  0
  1 28  1  0  0  0
  1 29  1  0  0  0
  2 30  1  0  0  0
  3 31  1  0  0  0
  3 32  1  0  0  0
  4 33  1  0  0  0
  4 34  1  0  0  0
  7 35  1  0  0  0
  9 36  1  0  0  0
  9 37  1  0  0  0
 10 38  1  0  0  0
 12 39  1  0  0  0
 13 40  1  0  0  0
 14 41  1  0  0  0
 15 42  1  0  0  0
 16 43  1  0  0  0
 18 44  1  0  0  0
 22 45  1  0  0  0
 22 46  1  0  0  0
 24 47  1  0  0  0
M  END
$$$$
