2jbk_ligand
  -I-interpret- 

 21 21  0  0  0  0  0  0  0  0999 V2000
   17.0760   44.6590   41.0060 C   0  0  0  0  0
   16.0110   44.6090   42.0580 C   0  0  0  0  0
   14.6370   45.1680   41.6950 C   0  0  0  0  0
   13.7490   46.8120   40.0210 C   0  0  0  0  0
   14.3880   48.6370   41.0480 C   0  0  0  0  0
   16.4780   45.3590   43.2350 N   0  3  0  0  0
   14.6770   46.4200   40.9440 N   0  0  0  0  0
   13.6170   48.1190   40.0910 N   0  0  0  0  0
   17.0400   43.8150   40.0890 O   0  0  0  0  0
   17.9560   45.5410   41.1380 O   0  0  0  0  0
   13.2360   46.0400   39.2840 O   0  0  0  0  0
   14.5360   49.8000   41.3920 O   0  0  0  0  0
   15.0550   47.6160   41.6480 O   0  0  0  0  0
   15.8600   43.5421   42.2227 H   0  0  0  0  0
   14.1161   45.3716   42.6306 H   0  0  0  0  0
   14.1473   44.4290   41.0608 H   0  0  0  0  0
   17.3975   45.0157   43.5125 H   0  0  0  0  0
   16.5397   46.3502   43.0025 H   0  0  0  0  0
   15.8193   45.2290   44.0028 H   0  0  0  0  0
   13.0024   48.6672   39.4892 H   0  0  0  0  0
   17.7657   46.0670   41.9182 H   0  0  0  0  0
  1  2  1  0  0  0
  1  9  2  0  0  0
  1 10  1  0  0  0
  2  3  1  0  0  0
  2  6  1  0  0  0
  3  7  1  0  0  0
  7  4  1  0  0  0
  4  8  1  0  0  0
  4 11  2  0  0  0
  8  5  1  0  0  0
  5 12  2  0  0  0
  5 13  1  0  0  0
  7 13  1  0  0  0
  2 14  1  0  0  0
  3 15  1  0  0  0
  3 16  1  0  0  0
  6 17  1  0  0  0
  6 18  1  0  0  0
  6 19  1  0  0  0
  8 20  1  0  0  0
 10 21  1  0  0  0
M  END
$$$$
