6ax1_ligand
  -I-interpret- 

 28 30  0  0  0  0  0  0  0  0999 V2000
  -16.2750  -13.1470  -18.0620 N   0  0  0  0  0
  -11.7160  -12.9130  -13.9630 C   0  0  0  0  0
  -11.3990  -12.2630  -16.4090 N   0  0  0  0  0
  -12.1070  -12.8740  -15.3960 C   0  0  0  0  0
  -12.0870  -13.7110  -11.6900 C   0  0  0  0  0
  -14.1790  -13.3100  -18.3400 C   0  0  0  0  0
  -13.2490  -13.1100  -17.2380 C   0  0  0  0  0
  -10.9420  -13.0240  -11.2590 C   0  0  0  0  0
  -10.1770  -12.2770  -12.1740 C   0  0  0  0  0
  -10.5530  -12.2200  -13.5220 C   0  0  0  0  0
  -12.4760  -13.6610  -13.0280 C   0  0  0  0  0
  -13.3230  -13.4350  -15.9380 N   0  0  0  0  0
  -12.1030  -12.4140  -17.5360 O   0  0  0  0  0
  -15.3620  -14.3030  -18.0810 C   0  0  0  0  0
  -15.2330  -12.1500  -18.3670 C   0  0  0  0  0
  -17.5860  -13.1730  -18.6430 C   0  0  0  0  0
  -18.2750  -12.1440  -18.7930 O   0  0  0  0  0
  -12.6753  -14.2866  -10.9753 H   0  0  0  0  0
  -13.4771  -13.5265  -19.1453 H   0  0  0  0  0
  -10.6439  -13.0691  -10.2115 H   0  0  0  0  0
   -9.2906  -11.7420  -11.8332 H   0  0  0  0  0
   -9.9567  -11.6465  -14.2317 H   0  0  0  0  0
  -13.3661  -14.1979  -13.3561 H   0  0  0  0  0
  -15.5408  -15.1468  -18.7475 H   0  0  0  0  0
  -15.3310  -15.0057  -17.2483 H   0  0  0  0  0
  -15.1067  -11.2631  -17.7461 H   0  0  0  0  0
  -15.3217  -11.4930  -19.2322 H   0  0  0  0  0
  -17.9965  -14.1296  -18.9662 H   0  0  0  0  0
 14  1  1  0  0  0
 15  1  1  0  0  0
  1 16  1  0  0  0
  4  2  1  0  0  0
  2 10  4  0  0  0
  2 11  4  0  0  0
  4  3  4  0  0  0
  3 13  4  0  0  0
 12  4  4  0  0  0
  5  8  4  0  0  0
 11  5  4  0  0  0
  7  6  1  0  0  0
  6 14  1  0  0  0
  6 15  1  0  0  0
  7 12  4  0  0  0
  7 13  4  0  0  0
  8  9  4  0  0  0
  9 10  4  0  0  0
 16 17  2  0  0  0
  5 18  1  0  0  0
  6 19  1  0  0  0
  8 20  1  0  0  0
  9 21  1  0  0  0
 10 22  1  0  0  0
 11 23  1  0  0  0
 14 24  1  0  0  0
 14 25  1  0  0  0
 15 26  1  0  0  0
 15 27  1  0  0  0
 16 28  1  0  0  0
M  END
$$$$
