4b78_ligand
  -I-interpret- 

 51 54  0  0  0  0  0  0  0  0999 V2000
    5.7780    6.0540  -25.2560 C   0  0  0  0  0
    6.9100    5.4230  -24.6540 O   0  0  0  0  0
    6.5490    4.5460  -23.6390 C   0  0  0  0  0
    5.2740    4.0530  -23.4720 C   0  0  0  0  0
    5.0370    3.1930  -22.4100 C   0  0  0  0  0
    6.0240    2.8120  -21.5160 C   0  0  0  0  0
    7.2920    3.3280  -21.7370 C   0  0  0  0  0
    7.5650    4.1850  -22.7740 C   0  0  0  0  0
    5.6960    1.8680  -20.3770 C   0  0  0  0  0
    6.5920    2.2390  -19.1690 C   0  0  0  0  0
    5.6470    2.3550  -17.9750 C   0  0  0  0  0
    4.3370    2.5000  -18.6790 C   0  0  0  0  0
    4.3240    2.1860  -19.9340 N   0  0  0  0  0
    3.2030    2.8740  -18.0180 N   0  0  0  0  0
    5.7790    3.4660  -17.1110 O   0  0  0  0  0
    6.9640    3.3370  -16.3300 C   0  0  0  0  0
    5.9110    0.4020  -20.6880 C   0  0  0  0  0
    6.6830   -0.0040  -21.7640 C   0  0  0  0  0
    6.8900   -1.3440  -22.0350 C   0  0  0  0  0
    6.3510   -2.3090  -21.2070 C   0  0  0  0  0
    5.5760   -1.9470  -20.1190 C   0  0  0  0  0
    5.3710   -0.5910  -19.8900 C   0  0  0  0  0
    5.0500   -2.9510  -19.1850 C   0  0  0  0  0
    5.8470   -4.0070  -18.7570 C   0  0  0  0  0
    5.4160   -4.9090  -17.8050 C   0  0  0  0  0
    4.1420   -4.7430  -17.3130 C   0  0  0  0  0
    3.3080   -3.7700  -17.7090 N   0  0  0  0  0
    3.7860   -2.9010  -18.6230 C   0  0  0  0  0
    5.1245    5.2936  -25.6836 H   0  0  0  0  0
    5.2336    6.6191  -24.4994 H   0  0  0  0  0
    6.1155    6.7289  -26.0426 H   0  0  0  0  0
    4.4724    4.3313  -24.1562 H   0  0  0  0  0
    4.0297    2.7996  -22.2729 H   0  0  0  0  0
    8.1004    3.0431  -21.0636 H   0  0  0  0  0
    8.5725    4.5768  -22.9139 H   0  0  0  0  0
    7.1290    3.1714  -19.3434 H   0  0  0  0  0
    7.3600    1.4849  -18.9968 H   0  0  0  0  0
    5.8187    1.5125  -17.3050 H   0  0  0  0  0
    3.4938    2.1619  -20.5261 H   0  0  0  0  0
    3.2355    3.0629  -17.0162 H   0  0  0  0  0
    6.9088    2.4245  -15.7364 H   0  0  0  0  0
    7.8297    3.2905  -16.9906 H   0  0  0  0  0
    7.0566    4.1978  -15.6677 H   0  0  0  0  0
    7.1364    0.7478  -22.4100 H   0  0  0  0  0
    7.4793   -1.6391  -22.9032 H   0  0  0  0  0
    6.5373   -3.3632  -21.4119 H   0  0  0  0  0
    4.7550   -0.2959  -19.0406 H   0  0  0  0  0
    6.8419   -4.1261  -19.1861 H   0  0  0  0  0
    6.0580   -5.7186  -17.4578 H   0  0  0  0  0
    3.7894   -5.4439  -16.5564 H   0  0  0  0  0
    3.1250   -2.0961  -18.9444 H   0  0  0  0  0
  1  2  1  0  0  0
  2  3  1  0  0  0
  3  4  4  0  0  0
  3  8  4  0  0  0
  4  5  4  0  0  0
  5  6  4  0  0  0
  6  7  4  0  0  0
  6  9  1  0  0  0
  7  8  4  0  0  0
  9 10  1  0  0  0
  9 13  1  0  0  0
  9 17  1  0  0  0
 10 11  1  0  0  0
 11 12  1  0  0  0
 11 15  1  0  0  0
 12 13  1  0  0  0
 12 14  2  0  0  0
 15 16  1  0  0  0
 17 18  4  0  0  0
 17 22  4  0  0  0
 18 19  4  0  0  0
 19 20  4  0  0  0
 20 21  4  0  0  0
 21 22  4  0  0  0
 21 23  1  0  0  0
 23 24  4  0  0  0
 23 28  4  0  0  0
 24 25  4  0  0  0
 25 26  4  0  0  0
 26 27  4  0  0  0
 27 28  4  0  0  0
  1 29  1  0  0  0
  1 30  1  0  0  0
  1 31  1  0  0  0
  4 32  1  0  0  0
  5 33  1  0  0  0
  7 34  1  0  0  0
  8 35  1  0  0  0
 10 36  1  0  0  0
 10 37  1  0  0  0
 11 38  1  0  0  0
 13 39  1  0  0  0
 14 40  1  0  0  0
 16 41  1  0  0  0
 16 42  1  0  0  0
 16 43  1  0  0  0
 18 44  1  0  0  0
 19 45  1  0  0  0
 20 46  1  0  0  0
 22 47  1  0  0  0
 24 48  1  0  0  0
 25 49  1  0  0  0
 26 50  1  0  0  0
 28 51  1  0  0  0
M  END
$$$$
