6evr_ligand
  -I-interpret- 

 51 53  0  0  0  0  0  0  0  0999 V2000
    9.6070   35.3660   10.8690 C   0  0  0  0  0
   12.9760   32.5630   15.8450 O   0  0  0  0  0
   10.2120   35.5880   14.6490 C   0  0  0  0  0
    7.9850   34.4000   14.8210 C   0  0  0  0  0
    7.0970   35.4500   14.5930 C   0  0  0  0  0
    5.9460   35.2470   13.8370 C   0  0  0  0  0
    5.6320   33.9740   13.3810 C   0  0  0  0  0
    6.4690   32.9140   13.6720 C   0  0  0  0  0
    7.6550   33.1340   14.3770 C   0  0  0  0  0
   12.7330   33.7360   16.0280 C   0  0  0  0  0
   13.3300   34.4360   19.7240 C   0  0  0  0  0
   14.0380   35.6390   19.6300 C   0  0  0  0  0
   14.4120   36.1420   18.4030 C   0  0  0  0  0
   14.0120   35.4750   17.2460 C   0  0  0  0  0
   12.3220   34.0190   13.6440 C   0  0  0  0  0
   10.9190   33.9140   13.0800 C   0  0  0  0  0
   10.2340   35.2110   13.2150 N   0  0  0  0  0
   13.1640   34.3710   17.3230 C   0  0  0  0  0
   12.8280   33.8560   18.5720 C   0  0  0  0  0
    9.6200   35.9290   12.2620 C   0  0  0  0  0
    9.0010   36.9290   12.5560 O   0  0  0  0  0
   12.2710   34.5240   15.0350 N   0  0  0  0  0
   11.6240   35.8280   15.1490 C   0  0  0  0  0
    9.3110   34.6570   15.4890 C   0  0  0  0  0
   14.5980   36.3910   21.1330 S   0  0  0  0  0
   14.8120   35.2980   22.0300 O   0  0  0  0  0
   13.6350   37.4430   21.4730 O   0  0  0  0  0
   16.0040   37.1290   20.8260 N   0  0  0  0  0
    8.5844   35.1109   10.5911 H   0  0  0  0  0
    9.9990   36.1091   10.1745 H   0  0  0  0  0
   10.2283   34.4711   10.8344 H   0  0  0  0  0
    9.7141   36.5491   14.7775 H   0  0  0  0  0
    7.3051   36.4357   15.0091 H   0  0  0  0  0
    5.2918   36.0869   13.6032 H   0  0  0  0  0
    4.7275   33.8111   12.7949 H   0  0  0  0  0
    6.2041   31.9064   13.3517 H   0  0  0  0  0
    8.3261   32.2991   14.5786 H   0  0  0  0  0
   13.1756   33.9612   20.6929 H   0  0  0  0  0
   15.0126   37.0493   18.3378 H   0  0  0  0  0
   14.3649   35.8192   16.2738 H   0  0  0  0  0
   12.9039   34.7088   13.0328 H   0  0  0  0  0
   12.7865   33.0330   13.6369 H   0  0  0  0  0
   10.3642   33.1526   13.6282 H   0  0  0  0  0
   10.9717   33.6401   12.0263 H   0  0  0  0  0
   12.1668   32.9924   18.6429 H   0  0  0  0  0
   11.6396   36.2069   16.1709 H   0  0  0  0  0
   12.1400   36.5950   14.5714 H   0  0  0  0  0
    9.1215   35.1404   16.4474 H   0  0  0  0  0
    9.8237   33.7023   15.6068 H   0  0  0  0  0
   16.8633   36.7891   21.2577 H   0  0  0  0  0
   16.0314   37.9344   20.2007 H   0  0  0  0  0
 20  1  1  0  0  0
 10  2  2  0  0  0
 17  3  1  0  0  0
  3 23  1  0  0  0
  3 24  1  0  0  0
  4  5  4  0  0  0
  4  9  4  0  0  0
 24  4  1  0  0  0
  5  6  4  0  0  0
  6  7  4  0  0  0
  8  7  4  0  0  0
  9  8  4  0  0  0
 10 18  1  0  0  0
 22 10  1  0  0  0
 12 11  4  0  0  0
 11 19  4  0  0  0
 13 12  4  0  0  0
 12 25  1  0  0  0
 14 13  4  0  0  0
 18 14  4  0  0  0
 16 15  1  0  0  0
 15 22  1  0  0  0
 17 16  1  0  0  0
 17 20  1  0  0  0
 18 19  4  0  0  0
 20 21  2  0  0  0
 22 23  1  0  0  0
 25 26  2  0  0  0
 25 27  2  0  0  0
 25 28  1  0  0  0
  1 29  1  0  0  0
  1 30  1  0  0  0
  1 31  1  0  0  0
  3 32  1  0  0  0
  5 33  1  0  0  0
  6 34  1  0  0  0
  7 35  1  0  0  0
  8 36  1  0  0  0
  9 37  1  0  0  0
 11 38  1  0  0  0
 13 39  1  0  0  0
 14 40  1  0  0  0
 15 41  1  0  0  0
 15 42  1  0  0  0
 16 43  1  0  0  0
 16 44  1  0  0  0
 19 45  1  0  0  0
 23 46  1  0  0  0
 23 47  1  0  0  0
 24 48  1  0  0  0
 24 49  1  0  0  0
 28 50  1  0  0  0
 28 51  1  0  0  0
M  END
$$$$
