### 
### Created by X-TOOL on Mon Sep 10 21:13:07 2018
### 

@<TRIPOS>MOLECULE
3arb_ligand
  126   126     1     0     0
SMALL
GAST_HUCK


@<TRIPOS>ATOM
      1 N2        -11.1910  -45.4960  -63.7310 N.am      1 FEE        -0.2791
      2 C3         -9.1790  -46.8470  -63.5470 C.3       1 FEE         0.1059
      3 C4         -9.7520  -47.9640  -64.4300 C.3       1 FEE         0.0833
      4 C5         -9.6370  -47.7020  -65.9360 C.3       1 FEE        -0.0243
      5 C6         -9.8230  -48.9650  -66.7800 C.3       1 FEE        -0.0506
      6 C7        -11.2960  -49.3040  -67.0170 C.3       1 FEE        -0.0532
      7 C8        -11.6060  -49.5600  -68.4910 C.3       1 FEE        -0.0559
      8 C9        -11.0660  -50.8930  -68.9770 C.3       1 FEE        -0.0653
      9 C1         -9.3060  -44.4950  -62.6710 C.3       1 FEE         0.0762
     10 CAX       -20.0100  -44.9660  -72.8240 C.3       1 FEE        -0.0653
     11 CAW       -21.0750  -43.9960  -73.3280 C.3       1 FEE        -0.0559
     12 CAV       -20.8680  -42.5840  -72.7810 C.3       1 FEE        -0.0533
     13 CAU       -21.6930  -41.5560  -73.5510 C.3       1 FEE        -0.0531
     14 CAT       -20.9310  -40.2480  -73.7430 C.3       1 FEE        -0.0531
     15 CAS       -20.4390  -40.0810  -75.1790 C.3       1 FEE        -0.0531
     16 CAR       -19.1780  -39.2220  -75.2510 C.3       1 FEE        -0.0531
     17 CAQ       -18.1240  -39.8420  -76.1640 C.3       1 FEE        -0.0531
     18 CAP       -16.7190  -39.6410  -75.6030 C.3       1 FEE        -0.0531
     19 CAO       -15.6640  -40.4160  -76.3900 C.3       1 FEE        -0.0531
     20 CAN       -14.8400  -41.3320  -75.4870 C.3       1 FEE        -0.0531
     21 CAM       -14.7540  -42.7420  -76.0690 C.3       1 FEE        -0.0531
     22 CAL       -13.9710  -43.6950  -75.1670 C.3       1 FEE        -0.0531
     23 CAK       -14.7230  -45.0090  -74.9700 C.3       1 FEE        -0.0531
     24 CAJ       -14.2920  -45.7140  -73.6860 C.3       1 FEE        -0.0531
     25 CAI       -15.4510  -45.8430  -72.7040 C.3       1 FEE        -0.0531
     26 CAH       -14.9920  -46.4180  -71.3670 C.3       1 FEE        -0.0531
     27 CAG       -15.2930  -45.4500  -70.2260 C.3       1 FEE        -0.0531
     28 CAF       -14.9550  -46.0470  -68.8620 C.3       1 FEE        -0.0531
     29 CAE       -14.7780  -44.9410  -67.8250 C.3       1 FEE        -0.0529
     30 CAD       -14.1950  -45.4800  -66.5240 C.3       1 FEE        -0.0510
     31 CAC       -14.2650  -44.4250  -65.4250 C.3       1 FEE        -0.0361
     32 CAB       -13.4750  -44.8380  -64.1850 C.3       1 FEE         0.0372
     33 CAA       -11.9840  -44.6340  -64.3730 C.2       1 FEE         0.1764
     34 OAA       -11.5600  -43.7250  -65.0750 O.2       1 FEE        -0.3971
     35 C2         -9.7290  -45.4370  -63.8010 C.3       1 FEE         0.0936
     36 O3         -7.7530  -46.8260  -63.6870 O.3       1 FEE        -0.3869
     37 O4         -9.0800  -49.1860  -64.1010 O.3       1 FEE        -0.3892
     38 O1A        -9.9520  -44.9000  -61.4710 O.3       1 FEE        -0.3463
     39 C1A        -9.4990  -44.2280  -60.3040 C.3       1 FEE         0.1880
     40 O6A       -10.0230  -42.8910  -60.2230 O.3       1 FEE        -0.3405
     41 C5M       -11.4500  -42.7570  -60.1000 C.3       1 FEE         0.1130
     42 C6A       -11.8130  -41.2770  -59.9850 C.3       1 FEE         0.0730
     43 O5A       -11.7310  -40.6490  -61.2720 O.3       1 FEE        -0.3924
     44 C4A       -11.9840  -43.5660  -58.9140 C.3       1 FEE         0.1119
     45 O4A       -11.6070  -42.9430  -57.6750 O.3       1 FEE        -0.3865
     46 C3A       -11.4690  -45.0060  -58.9680 C.3       1 FEE         0.1141
     47 O3A       -11.8530  -45.7290  -57.7970 O.3       1 FEE        -0.3864
     48 C2A        -9.9500  -45.0340  -59.0890 C.3       1 FEE         0.1341
     49 O2A        -9.5090  -46.3870  -59.2090 O.3       1 FEE        -0.3841
     50 H         -11.6227  -46.2280  -63.1668 H         1 FEE         0.1856
     51 H          -9.4971  -47.0954  -62.5344 H         1 FEE         0.0643
     52 H         -10.8209  -48.0174  -64.2232 H         1 FEE         0.0620
     53 H          -8.6356  -47.3179  -66.1302 H         1 FEE         0.0291
     54 H         -10.4242  -47.0002  -66.2115 H         1 FEE         0.0291
     55 H          -9.3701  -49.7975  -66.2415 H         1 FEE         0.0266
     56 H          -9.3590  -48.7906  -67.7508 H         1 FEE         0.0266
     57 H         -11.8942  -48.4537  -66.6897 H         1 FEE         0.0265
     58 H         -11.5260  -50.2132  -66.4616 H         1 FEE         0.0265
     59 H         -11.1314  -48.7721  -69.0758 H         1 FEE         0.0263
     60 H         -12.6895  -49.5735  -68.6089 H         1 FEE         0.0263
     61 H          -9.9832  -50.9117  -68.8535 H         1 FEE         0.0230
     62 H         -11.5133  -51.6988  -68.3950 H         1 FEE         0.0230
     63 H         -11.3151  -51.0222  -70.0302 H         1 FEE         0.0230
     64 H          -9.5909  -43.4720  -62.9168 H         1 FEE         0.0585
     65 H          -8.2246  -44.5367  -62.5406 H         1 FEE         0.0585
     66 H         -19.0260  -44.6190  -73.1392 H         1 FEE         0.0230
     67 H         -20.0488  -45.0128  -71.7357 H         1 FEE         0.0230
     68 H         -20.1973  -45.9566  -73.2384 H         1 FEE         0.0230
     69 H         -22.0482  -44.3529  -72.9909 H         1 FEE         0.0263
     70 H         -21.0101  -43.9533  -74.4152 H         1 FEE         0.0263
     71 H         -19.8139  -42.3262  -72.8837 H         1 FEE         0.0265
     72 H         -21.1854  -42.5688  -71.7383 H         1 FEE         0.0265
     73 H         -22.5975  -41.3453  -72.9804 H         1 FEE         0.0265
     74 H         -21.9219  -41.9670  -74.5343 H         1 FEE         0.0265
     75 H         -20.0633  -40.2580  -73.0834 H         1 FEE         0.0265
     76 H         -21.6056  -39.4228  -73.5147 H         1 FEE         0.0265
     77 H         -21.2226  -39.5878  -75.7542 H         1 FEE         0.0265
     78 H         -20.2041  -41.0680  -75.5774 H         1 FEE         0.0265
     79 H         -18.7592  -39.1420  -74.2478 H         1 FEE         0.0265
     80 H         -19.4498  -38.2461  -75.6534 H         1 FEE         0.0265
     81 H         -18.1812  -39.3585  -77.1392 H         1 FEE         0.0265
     82 H         -18.3174  -40.9119  -76.2416 H         1 FEE         0.0265
     83 H         -16.7098  -40.0053  -74.5757 H         1 FEE         0.0265
     84 H         -16.4776  -38.5801  -75.6680 H         1 FEE         0.0265
     85 H         -14.9892  -39.6982  -76.8563 H         1 FEE         0.0265
     86 H         -16.1739  -41.0333  -77.1296 H         1 FEE         0.0265
     87 H         -15.3215  -41.3856  -74.5106 H         1 FEE         0.0265
     88 H         -13.8318  -40.9261  -75.4038 H         1 FEE         0.0265
     89 H         -14.2371  -42.6816  -77.0267 H         1 FEE         0.0265
     90 H         -15.7681  -43.1286  -76.1699 H         1 FEE         0.0265
     91 H         -13.8354  -43.2219  -74.1944 H         1 FEE         0.0265
     92 H         -13.0112  -43.9098  -75.6368 H         1 FEE         0.0265
     93 H         -14.5019  -45.6629  -75.8136 H         1 FEE         0.0265
     94 H         -15.7886  -44.7899  -74.9024 H         1 FEE         0.0265
     95 H         -13.5048  -45.1246  -73.2158 H         1 FEE         0.0265
     96 H         -13.9429  -46.7144  -73.9417 H         1 FEE         0.0265
     97 H         -16.1926  -46.5170  -73.1327 H         1 FEE         0.0265
     98 H         -15.8659  -44.8505  -72.5282 H         1 FEE         0.0265
     99 H         -13.9160  -46.5869  -71.4089 H         1 FEE         0.0265
    100 H         -15.5252  -47.3511  -71.1850 H         1 FEE         0.0265
    101 H         -16.3593  -45.2247  -70.2437 H         1 FEE         0.0265
    102 H         -14.6830  -44.5578  -70.3672 H         1 FEE         0.0265
    103 H         -14.0253  -46.6103  -68.9420 H         1 FEE         0.0265
    104 H         -15.7698  -46.6997  -68.5488 H         1 FEE         0.0265
    105 H         -15.7559  -44.5094  -67.6115 H         1 FEE         0.0265
    106 H         -14.0907  -44.1974  -68.2284 H         1 FEE         0.0265
    107 H         -13.1515  -45.7481  -66.6895 H         1 FEE         0.0267
    108 H         -14.7715  -46.3514  -66.2135 H         1 FEE         0.0267
    109 H         -15.3091  -44.3001  -65.1382 H         1 FEE         0.0290
    110 H         -13.8347  -43.5010  -65.8114 H         1 FEE         0.0290
    111 H         -13.6553  -45.8971  -64.0011 H         1 FEE         0.0502
    112 H         -13.8025  -44.2203  -63.3488 H         1 FEE         0.0502
    113 H          -9.3606  -45.0885  -64.7658 H         1 FEE         0.0605
    114 H          -7.4041  -47.7063  -63.5290 H         1 FEE         0.2100
    115 H          -8.1536  -49.1156  -64.3429 H         1 FEE         0.2099
    116 H          -8.4124  -44.1486  -60.3385 H         1 FEE         0.0937
    117 H         -11.9245  -43.1629  -60.9934 H         1 FEE         0.0647
    118 H         -11.1161  -40.7892  -59.3035 H         1 FEE         0.0584
    119 H         -12.8312  -41.1864  -59.6065 H         1 FEE         0.0584
    120 H         -11.9606  -39.7206  -61.1890 H         1 FEE         0.2095
    121 H         -13.0721  -43.5897  -58.9744 H         1 FEE         0.0647
    122 H         -11.9479  -43.4600  -56.9414 H         1 FEE         0.2100
    123 H         -11.9118  -45.4774  -59.8454 H         1 FEE         0.0648
    124 H         -11.5195  -46.6275  -57.8533 H         1 FEE         0.2100
    125 H          -9.5126  -44.5870  -58.1963 H         1 FEE         0.0671
    126 H          -9.9009  -46.7819  -59.9913 H         1 FEE         0.2101
@<TRIPOS>BOND
     1   33    1 am 
     2    1   35 1  
     3    2    3 1  
     4   35    2 1  
     5    2   36 1  
     6    3    4 1  
     7    3   37 1  
     8    4    5 1  
     9    5    6 1  
    10    6    7 1  
    11    7    8 1  
    12   35    9 1  
    13    9   38 1  
    14   11   10 1  
    15   12   11 1  
    16   13   12 1  
    17   14   13 1  
    18   15   14 1  
    19   16   15 1  
    20   17   16 1  
    21   18   17 1  
    22   19   18 1  
    23   20   19 1  
    24   21   20 1  
    25   22   21 1  
    26   23   22 1  
    27   24   23 1  
    28   25   24 1  
    29   26   25 1  
    30   27   26 1  
    31   28   27 1  
    32   29   28 1  
    33   30   29 1  
    34   31   30 1  
    35   32   31 1  
    36   32   33 1  
    37   33   34 2  
    38   38   39 1  
    39   39   40 1  
    40   39   48 1  
    41   40   41 1  
    42   41   42 1  
    43   41   44 1  
    44   42   43 1  
    45   44   45 1  
    46   44   46 1  
    47   46   47 1  
    48   46   48 1  
    49   48   49 1  
    50    1   50 1  
    51    2   51 1  
    52    3   52 1  
    53    4   53 1  
    54    4   54 1  
    55    5   55 1  
    56    5   56 1  
    57    6   57 1  
    58    6   58 1  
    59    7   59 1  
    60    7   60 1  
    61    8   61 1  
    62    8   62 1  
    63    8   63 1  
    64    9   64 1  
    65    9   65 1  
    66   10   66 1  
    67   10   67 1  
    68   10   68 1  
    69   11   69 1  
    70   11   70 1  
    71   12   71 1  
    72   12   72 1  
    73   13   73 1  
    74   13   74 1  
    75   14   75 1  
    76   14   76 1  
    77   15   77 1  
    78   15   78 1  
    79   16   79 1  
    80   16   80 1  
    81   17   81 1  
    82   17   82 1  
    83   18   83 1  
    84   18   84 1  
    85   19   85 1  
    86   19   86 1  
    87   20   87 1  
    88   20   88 1  
    89   21   89 1  
    90   21   90 1  
    91   22   91 1  
    92   22   92 1  
    93   23   93 1  
    94   23   94 1  
    95   24   95 1  
    96   24   96 1  
    97   25   97 1  
    98   25   98 1  
    99   26   99 1  
   100   26  100 1  
   101   27  101 1  
   102   27  102 1  
   103   28  103 1  
   104   28  104 1  
   105   29  105 1  
   106   29  106 1  
   107   30  107 1  
   108   30  108 1  
   109   31  109 1  
   110   31  110 1  
   111   32  111 1  
   112   32  112 1  
   113   35  113 1  
   114   36  114 1  
   115   37  115 1  
   116   39  116 1  
   117   41  117 1  
   118   42  118 1  
   119   42  119 1  
   120   43  120 1  
   121   44  121 1  
   122   45  122 1  
   123   46  123 1  
   124   47  124 1  
   125   48  125 1  
   126   49  126 1  
@<TRIPOS>SUBSTRUCTURE
     1 FEE         1

