3arb_ligand
  -I-interpret- 

126126  0  0  0  0  0  0  0  0999 V2000
  -11.1910  -45.4960  -63.7310 N   0  0  0  0  0
   -9.1790  -46.8470  -63.5470 C   0  0  0  0  0
   -9.7520  -47.9640  -64.4300 C   0  0  0  0  0
   -9.6370  -47.7020  -65.9360 C   0  0  0  0  0
   -9.8230  -48.9650  -66.7800 C   0  0  0  0  0
  -11.2960  -49.3040  -67.0170 C   0  0  0  0  0
  -11.6060  -49.5600  -68.4910 C   0  0  0  0  0
  -11.0660  -50.8930  -68.9770 C   0  0  0  0  0
   -9.3060  -44.4950  -62.6710 C   0  0  0  0  0
  -20.0100  -44.9660  -72.8240 C   0  0  0  0  0
  -21.0750  -43.9960  -73.3280 C   0  0  0  0  0
  -20.8680  -42.5840  -72.7810 C   0  0  0  0  0
  -21.6930  -41.5560  -73.5510 C   0  0  0  0  0
  -20.9310  -40.2480  -73.7430 C   0  0  0  0  0
  -20.4390  -40.0810  -75.1790 C   0  0  0  0  0
  -19.1780  -39.2220  -75.2510 C   0  0  0  0  0
  -18.1240  -39.8420  -76.1640 C   0  0  0  0  0
  -16.7190  -39.6410  -75.6030 C   0  0  0  0  0
  -15.6640  -40.4160  -76.3900 C   0  0  0  0  0
  -14.8400  -41.3320  -75.4870 C   0  0  0  0  0
  -14.7540  -42.7420  -76.0690 C   0  0  0  0  0
  -13.9710  -43.6950  -75.1670 C   0  0  0  0  0
  -14.7230  -45.0090  -74.9700 C   0  0  0  0  0
  -14.2920  -45.7140  -73.6860 C   0  0  0  0  0
  -15.4510  -45.8430  -72.7040 C   0  0  0  0  0
  -14.9920  -46.4180  -71.3670 C   0  0  0  0  0
  -15.2930  -45.4500  -70.2260 C   0  0  0  0  0
  -14.9550  -46.0470  -68.8620 C   0  0  0  0  0
  -14.7780  -44.9410  -67.8250 C   0  0  0  0  0
  -14.1950  -45.4800  -66.5240 C   0  0  0  0  0
  -14.2650  -44.4250  -65.4250 C   0  0  0  0  0
  -13.4750  -44.8380  -64.1850 C   0  0  0  0  0
  -11.9840  -44.6340  -64.3730 C   0  0  0  0  0
  -11.5600  -43.7250  -65.0750 O   0  0  0  0  0
   -9.7290  -45.4370  -63.8010 C   0  0  0  0  0
   -7.7530  -46.8260  -63.6870 O   0  0  0  0  0
   -9.0800  -49.1860  -64.1010 O   0  0  0  0  0
   -9.9520  -44.9000  -61.4710 O   0  0  0  0  0
   -9.4990  -44.2280  -60.3040 C   0  0  0  0  0
  -10.0230  -42.8910  -60.2230 O   0  0  0  0  0
  -11.4500  -42.7570  -60.1000 C   0  0  0  0  0
  -11.8130  -41.2770  -59.9850 C   0  0  0  0  0
  -11.7310  -40.6490  -61.2720 O   0  0  0  0  0
  -11.9840  -43.5660  -58.9140 C   0  0  0  0  0
  -11.6070  -42.9430  -57.6750 O   0  0  0  0  0
  -11.4690  -45.0060  -58.9680 C   0  0  0  0  0
  -11.8530  -45.7290  -57.7970 O   0  0  0  0  0
   -9.9500  -45.0340  -59.0890 C   0  0  0  0  0
   -9.5090  -46.3870  -59.2090 O   0  0  0  0  0
  -11.6227  -46.2280  -63.1668 H   0  0  0  0  0
   -9.4971  -47.0954  -62.5344 H   0  0  0  0  0
  -10.8209  -48.0174  -64.2232 H   0  0  0  0  0
   -8.6356  -47.3179  -66.1302 H   0  0  0  0  0
  -10.4242  -47.0002  -66.2115 H   0  0  0  0  0
   -9.3701  -49.7975  -66.2415 H   0  0  0  0  0
   -9.3590  -48.7906  -67.7508 H   0  0  0  0  0
  -11.8942  -48.4537  -66.6897 H   0  0  0  0  0
  -11.5260  -50.2132  -66.4616 H   0  0  0  0  0
  -11.1314  -48.7721  -69.0758 H   0  0  0  0  0
  -12.6895  -49.5735  -68.6089 H   0  0  0  0  0
   -9.9832  -50.9117  -68.8535 H   0  0  0  0  0
  -11.5133  -51.6988  -68.3950 H   0  0  0  0  0
  -11.3151  -51.0222  -70.0302 H   0  0  0  0  0
   -9.5909  -43.4720  -62.9168 H   0  0  0  0  0
   -8.2246  -44.5367  -62.5406 H   0  0  0  0  0
  -19.0260  -44.6190  -73.1392 H   0  0  0  0  0
  -20.0488  -45.0128  -71.7357 H   0  0  0  0  0
  -20.1973  -45.9566  -73.2384 H   0  0  0  0  0
  -22.0482  -44.3529  -72.9909 H   0  0  0  0  0
  -21.0101  -43.9533  -74.4152 H   0  0  0  0  0
  -19.8139  -42.3262  -72.8837 H   0  0  0  0  0
  -21.1854  -42.5688  -71.7383 H   0  0  0  0  0
  -22.5975  -41.3453  -72.9804 H   0  0  0  0  0
  -21.9219  -41.9670  -74.5343 H   0  0  0  0  0
  -20.0633  -40.2580  -73.0834 H   0  0  0  0  0
  -21.6056  -39.4228  -73.5147 H   0  0  0  0  0
  -21.2226  -39.5878  -75.7542 H   0  0  0  0  0
  -20.2041  -41.0680  -75.5774 H   0  0  0  0  0
  -18.7592  -39.1420  -74.2478 H   0  0  0  0  0
  -19.4498  -38.2461  -75.6534 H   0  0  0  0  0
  -18.1812  -39.3585  -77.1392 H   0  0  0  0  0
  -18.3174  -40.9119  -76.2416 H   0  0  0  0  0
  -16.7098  -40.0053  -74.5757 H   0  0  0  0  0
  -16.4776  -38.5801  -75.6680 H   0  0  0  0  0
  -14.9892  -39.6982  -76.8563 H   0  0  0  0  0
  -16.1739  -41.0333  -77.1296 H   0  0  0  0  0
  -15.3215  -41.3856  -74.5106 H   0  0  0  0  0
  -13.8318  -40.9261  -75.4038 H   0  0  0  0  0
  -14.2371  -42.6816  -77.0267 H   0  0  0  0  0
  -15.7681  -43.1286  -76.1699 H   0  0  0  0  0
  -13.8354  -43.2219  -74.1944 H   0  0  0  0  0
  -13.0112  -43.9098  -75.6368 H   0  0  0  0  0
  -14.5019  -45.6629  -75.8136 H   0  0  0  0  0
  -15.7886  -44.7899  -74.9024 H   0  0  0  0  0
  -13.5048  -45.1246  -73.2158 H   0  0  0  0  0
  -13.9429  -46.7144  -73.9417 H   0  0  0  0  0
  -16.1926  -46.5170  -73.1327 H   0  0  0  0  0
  -15.8659  -44.8505  -72.5282 H   0  0  0  0  0
  -13.9160  -46.5869  -71.4089 H   0  0  0  0  0
  -15.5252  -47.3511  -71.1850 H   0  0  0  0  0
  -16.3593  -45.2247  -70.2437 H   0  0  0  0  0
  -14.6830  -44.5578  -70.3672 H   0  0  0  0  0
  -14.0253  -46.6103  -68.9420 H   0  0  0  0  0
  -15.7698  -46.6997  -68.5488 H   0  0  0  0  0
  -15.7559  -44.5094  -67.6115 H   0  0  0  0  0
  -14.0907  -44.1974  -68.2284 H   0  0  0  0  0
  -13.1515  -45.7481  -66.6895 H   0  0  0  0  0
  -14.7715  -46.3514  -66.2135 H   0  0  0  0  0
  -15.3091  -44.3001  -65.1382 H   0  0  0  0  0
  -13.8347  -43.5010  -65.8114 H   0  0  0  0  0
  -13.6553  -45.8971  -64.0011 H   0  0  0  0  0
  -13.8025  -44.2203  -63.3488 H   0  0  0  0  0
   -9.3606  -45.0885  -64.7658 H   0  0  0  0  0
   -7.4041  -47.7063  -63.5290 H   0  0  0  0  0
   -9.1542  -49.3466  -63.1574 H   0  0  0  0  0
   -8.4124  -44.1486  -60.3385 H   0  0  0  0  0
  -11.9245  -43.1629  -60.9934 H   0  0  0  0  0
  -11.1161  -40.7892  -59.3035 H   0  0  0  0  0
  -12.8312  -41.1864  -59.6065 H   0  0  0  0  0
  -11.9606  -39.7206  -61.1890 H   0  0  0  0  0
  -13.0721  -43.5897  -58.9744 H   0  0  0  0  0
  -11.9479  -43.4600  -56.9414 H   0  0  0  0  0
  -11.9118  -45.4774  -59.8454 H   0  0  0  0  0
  -11.5195  -46.6275  -57.8533 H   0  0  0  0  0
   -9.5126  -44.5870  -58.1963 H   0  0  0  0  0
   -9.7971  -46.8856  -58.4409 H   0  0  0  0  0
 33  1  1  0  0  0
  1 35  1  0  0  0
  2  3  1  0  0  0
 35  2  1  0  0  0
  2 36  1  0  0  0
  3  4  1  0  0  0
  3 37  1  0  0  0
  4  5  1  0  0  0
  5  6  1  0  0  0
  6  7  1  0  0  0
  7  8  1  0  0  0
 35  9  1  0  0  0
  9 38  1  0  0  0
 11 10  1  0  0  0
 12 11  1  0  0  0
 13 12  1  0  0  0
 14 13  1  0  0  0
 15 14  1  0  0  0
 16 15  1  0  0  0
 17 16  1  0  0  0
 18 17  1  0  0  0
 19 18  1  0  0  0
 20 19  1  0  0  0
 21 20  1  0  0  0
 22 21  1  0  0  0
 23 22  1  0  0  0
 24 23  1  0  0  0
 25 24  1  0  0  0
 26 25  1  0  0  0
 27 26  1  0  0  0
 28 27  1  0  0  0
 29 28  1  0  0  0
 30 29  1  0  0  0
 31 30  1  0  0  0
 32 31  1  0  0  0
 32 33  1  0  0  0
 33 34  2  0  0  0
 38 39  1  0  0  0
 39 40  1  0  0  0
 39 48  1  0  0  0
 40 41  1  0  0  0
 41 42  1  0  0  0
 41 44  1  0  0  0
 42 43  1  0  0  0
 44 45  1  0  0  0
 44 46  1  0  0  0
 46 47  1  0  0  0
 46 48  1  0  0  0
 48 49  1  0  0  0
  1 50  1  0  0  0
  2 51  1  0  0  0
  3 52  1  0  0  0
  4 53  1  0  0  0
  4 54  1  0  0  0
  5 55  1  0  0  0
  5 56  1  0  0  0
  6 57  1  0  0  0
  6 58  1  0  0  0
  7 59  1  0  0  0
  7 60  1  0  0  0
  8 61  1  0  0  0
  8 62  1  0  0  0
  8 63  1  0  0  0
  9 64  1  0  0  0
  9 65  1  0  0  0
 10 66  1  0  0  0
 10 67  1  0  0  0
 10 68  1  0  0  0
 11 69  1  0  0  0
 11 70  1  0  0  0
 12 71  1  0  0  0
 12 72  1  0  0  0
 13 73  1  0  0  0
 13 74  1  0  0  0
 14 75  1  0  0  0
 14 76  1  0  0  0
 15 77  1  0  0  0
 15 78  1  0  0  0
 16 79  1  0  0  0
 16 80  1  0  0  0
 17 81  1  0  0  0
 17 82  1  0  0  0
 18 83  1  0  0  0
 18 84  1  0  0  0
 19 85  1  0  0  0
 19 86  1  0  0  0
 20 87  1  0  0  0
 20 88  1  0  0  0
 21 89  1  0  0  0
 21 90  1  0  0  0
 22 91  1  0  0  0
 22 92  1  0  0  0
 23 93  1  0  0  0
 23 94  1  0  0  0
 24 95  1  0  0  0
 24 96  1  0  0  0
 25 97  1  0  0  0
 25 98  1  0  0  0
 26 99  1  0  0  0
 26100  1  0  0  0
 27101  1  0  0  0
 27102  1  0  0  0
 28103  1  0  0  0
 28104  1  0  0  0
 29105  1  0  0  0
 29106  1  0  0  0
 30107  1  0  0  0
 30108  1  0  0  0
 31109  1  0  0  0
 31110  1  0  0  0
 32111  1  0  0  0
 32112  1  0  0  0
 35113  1  0  0  0
 36114  1  0  0  0
 37115  1  0  0  0
 39116  1  0  0  0
 41117  1  0  0  0
 42118  1  0  0  0
 42119  1  0  0  0
 43120  1  0  0  0
 44121  1  0  0  0
 45122  1  0  0  0
 46123  1  0  0  0
 47124  1  0  0  0
 48125  1  0  0  0
 49126  1  0  0  0
M  END
$$$$
