5vfc_ligand
  -I-interpret- 

 85 86  0  0  0  0  0  0  0  0999 V2000
   25.0350   -2.6430   18.6930 C   0  0  0  0  0
   24.1640   -3.6890   19.2120 N   0  0  0  0  0
   23.1120   -3.3490   20.0950 C   0  0  0  0  0
   23.1060   -2.2180   20.7370 N   0  0  0  0  0
   22.0910   -4.3030   20.1820 N   0  0  0  0  0
   20.9440   -4.1810   21.0320 C   0  0  0  0  0
   21.2170   -4.6730   22.4500 C   0  0  0  0  0
   21.4650   -6.1660   22.4350 C   0  0  0  0  0
   21.4860   -6.6940   23.8720 C   0  0  0  0  0
   20.1230   -6.4910   24.5490 C   0  0  0  0  0
   19.8620   -5.4540   25.1690 O   0  0  0  0  0
   21.9300   -8.0820   23.8780 N   0  0  0  0  0
   19.2160   -7.4770   24.4170 N   0  0  0  0  0
   17.8630   -7.3490   24.9860 C   0  0  0  0  0
   17.8500   -7.8580   26.4320 C   0  0  0  0  0
   16.7550   -7.8980   27.0240 O   0  0  0  0  0
   16.9330   -8.2400   24.1360 C   0  0  0  0  0
   16.9520   -7.7970   22.6590 C   0  0  0  0  0
   19.8790  -10.2740   24.5100 O   0  0  0  0  0
   19.1080  -12.8170   23.4190 C   0  0  0  0  0
   19.4690  -10.9890   21.7030 C   0  0  0  0  0
   22.1370   -8.7000   25.0730 C   0  0  0  0  0
   24.1410   -9.9660   24.5380 C   0  0  0  0  0
   22.0040  -10.9200   23.9840 N   0  0  0  0  0
   20.1220  -11.8560   22.7520 C   0  0  0  0  0
   20.6410  -10.9480   23.8270 C   0  0  0  0  0
   22.7010  -10.1490   24.9940 C   0  0  0  0  0
   22.7760  -10.8380   26.3810 C   0  0  0  0  0
   21.4910  -11.4470   26.9620 C   0  0  0  0  0
   21.8880   -8.1210   26.1230 O   0  0  0  0  0
   20.4540  -10.4440   27.1580 N   0  0  0  0  0
   19.0440   -8.1850   27.0470 N   0  0  0  0  0
   19.1220   -8.7460   28.3740 C   0  0  0  0  0
   19.5370   -7.6500   29.3590 C   0  0  0  0  0
   18.8800   -7.5610   30.5740 C   0  0  0  0  0
   19.2100   -6.5650   31.4660 C   0  0  0  0  0
   20.1970   -5.6560   31.1680 C   0  0  0  0  0
   20.8540   -5.7030   29.9600 C   0  0  0  0  0
   20.5320   -6.7100   29.0370 C   0  0  0  0  0
   20.1900   -9.8520   28.3700 C   0  0  0  0  0
   20.7160  -10.2110   29.4070 O   0  0  0  0  0
   24.4399   -1.9201   18.1349 H   0  0  0  0  0
   25.5333   -2.1419   19.5229 H   0  0  0  0  0
   25.7813   -3.0871   18.0342 H   0  0  0  0  0
   24.3117   -4.6610   18.9404 H   0  0  0  0  0
   22.3243   -1.9829   21.3486 H   0  0  0  0  0
   22.1687   -5.1390   19.6028 H   0  0  0  0  0
   20.1453   -4.7916   20.6108 H   0  0  0  0  0
   20.6751   -3.1261   21.0867 H   0  0  0  0  0
   20.3535   -4.4571   23.0792 H   0  0  0  0  0
   22.0970   -4.1652   22.8448 H   0  0  0  0  0
   22.4239   -6.3704   21.9586 H   0  0  0  0  0
   20.6698   -6.6609   21.8775 H   0  0  0  0  0
   22.2019   -6.1238   24.4640 H   0  0  0  0  0
   22.0830   -8.5817   23.0020 H   0  0  0  0  0
   19.4699   -8.3275   23.9143 H   0  0  0  0  0
   17.5419   -6.3074   24.9795 H   0  0  0  0  0
   15.9156   -8.1511   24.5170 H   0  0  0  0  0
   17.2800   -9.2714   24.1986 H   0  0  0  0  0
   16.6130   -6.7636   22.5866 H   0  0  0  0  0
   17.9673   -7.8757   22.2704 H   0  0  0  0  0
   16.2891   -8.4397   22.0797 H   0  0  0  0  0
   18.3195  -12.2361   23.8976 H   0  0  0  0  0
   18.6725  -13.4673   22.6603 H   0  0  0  0  0
   19.6205  -13.4218   24.1671 H   0  0  0  0  0
   19.0367  -11.6219   20.9280 H   0  0  0  0  0
   18.6838  -10.3908   22.1652 H   0  0  0  0  0
   20.2166  -10.3304   21.2609 H   0  0  0  0  0
   24.1532   -9.4688   23.5681 H   0  0  0  0  0
   24.6769   -9.3575   25.2665 H   0  0  0  0  0
   24.6208  -10.9411   24.4539 H   0  0  0  0  0
   22.5663  -11.4816   23.3446 H   0  0  0  0  0
   20.9044  -12.4458   22.2744 H   0  0  0  0  0
   23.0600  -10.0494   27.0778 H   0  0  0  0  0
   23.4565  -11.6788   26.2470 H   0  0  0  0  0
   21.7290  -11.8858   27.9310 H   0  0  0  0  0
   21.1176  -12.1912   26.2586 H   0  0  0  0  0
   19.8933  -10.1657   26.3526 H   0  0  0  0  0
   19.9125   -8.0217   26.5377 H   0  0  0  0  0
   18.1557   -9.1545   28.6696 H   0  0  0  0  0
   18.1004   -8.2802   30.8251 H   0  0  0  0  0
   18.6832   -6.4969   32.4178 H   0  0  0  0  0
   20.4621   -4.8897   31.8965 H   0  0  0  0  0
   21.6187   -4.9638   29.7217 H   0  0  0  0  0
   21.0488   -6.7630   28.0788 H   0  0  0  0  0
  2  1  1  0  0  0
  3  2  1  0  0  0
  3  4  2  0  0  0
  5  3  1  0  0  0
  6  5  1  0  0  0
  7  6  1  0  0  0
  8  7  1  0  0  0
  9  8  1  0  0  0
  9 10  1  0  0  0
 12  9  1  0  0  0
 10 11  2  0  0  0
 10 13  1  0  0  0
 22 12  1  0  0  0
 13 14  1  0  0  0
 14 15  1  0  0  0
 14 17  1  0  0  0
 15 16  2  0  0  0
 15 32  1  0  0  0
 17 18  1  0  0  0
 26 19  2  0  0  0
 25 20  1  0  0  0
 25 21  1  0  0  0
 27 22  1  0  0  0
 22 30  2  0  0  0
 27 23  1  0  0  0
 26 24  1  0  0  0
 24 27  1  0  0  0
 25 26  1  0  0  0
 27 28  1  0  0  0
 28 29  1  0  0  0
 29 31  1  0  0  0
 31 40  1  0  0  0
 32 33  1  0  0  0
 33 34  1  0  0  0
 33 40  1  0  0  0
 34 35  4  0  0  0
 34 39  4  0  0  0
 35 36  4  0  0  0
 36 37  4  0  0  0
 37 38  4  0  0  0
 38 39  4  0  0  0
 40 41  2  0  0  0
  1 42  1  0  0  0
  1 43  1  0  0  0
  1 44  1  0  0  0
  2 45  1  0  0  0
  4 46  1  0  0  0
  5 47  1  0  0  0
  6 48  1  0  0  0
  6 49  1  0  0  0
  7 50  1  0  0  0
  7 51  1  0  0  0
  8 52  1  0  0  0
  8 53  1  0  0  0
  9 54  1  0  0  0
 12 55  1  0  0  0
 13 56  1  0  0  0
 14 57  1  0  0  0
 17 58  1  0  0  0
 17 59  1  0  0  0
 18 60  1  0  0  0
 18 61  1  0  0  0
 18 62  1  0  0  0
 20 63  1  0  0  0
 20 64  1  0  0  0
 20 65  1  0  0  0
 21 66  1  0  0  0
 21 67  1  0  0  0
 21 68  1  0  0  0
 23 69  1  0  0  0
 23 70  1  0  0  0
 23 71  1  0  0  0
 24 72  1  0  0  0
 25 73  1  0  0  0
 28 74  1  0  0  0
 28 75  1  0  0  0
 29 76  1  0  0  0
 29 77  1  0  0  0
 31 78  1  0  0  0
 32 79  1  0  0  0
 33 80  1  0  0  0
 35 81  1  0  0  0
 36 82  1  0  0  0
 37 83  1  0  0  0
 38 84  1  0  0  0
 39 85  1  0  0  0
M  END
$$$$
