4kqp_ligand
  -I-interpret- 

 21 20  0  0  0  0  0  0  0  0999 V2000
   25.1020    8.2690   32.1230 N   0  3  0  0  0
   25.2700    7.8520   33.5410 C   0  0  0  0  0
   26.5910    8.3580   34.0970 C   0  0  0  0  0
   27.4500    8.8130   33.3100 O   0  0  0  0  0
   25.1630    6.3290   33.6850 C   0  0  0  0  0
   26.3050    5.5470   33.0490 C   0  0  0  0  0
   26.1820    4.0520   33.2630 C   0  0  0  0  0
   25.4900    3.5860   34.1770 O   0  0  0  0  0
   26.8910    3.2910   32.4420 N   0  0  0  0  0
   26.7500    8.2970   35.3340 O   0  0  0  0  0
   25.1776    9.2841   32.0571 H   0  0  0  0  0
   25.8288    7.8351   31.5539 H   0  0  0  0  0
   24.1848    7.9728   31.7891 H   0  0  0  0  0
   24.4628    8.2988   34.1214 H   0  0  0  0  0
   27.1170    8.7631   32.4110 H   0  0  0  0  0
   24.2486    6.0258   33.1751 H   0  0  0  0  0
   25.1842    6.1092   34.7524 H   0  0  0  0  0
   27.2346    5.8758   33.5135 H   0  0  0  0  0
   26.2810    5.7341   31.9754 H   0  0  0  0  0
   26.8804    2.2768   32.5498 H   0  0  0  0  0
   27.4473    3.7194   31.7022 H   0  0  0  0  0
  1  2  1  0  0  0
  2  3  1  0  0  0
  2  5  1  0  0  0
  3  4  1  0  0  0
  3 10  2  0  0  0
  5  6  1  0  0  0
  6  7  1  0  0  0
  7  8  2  0  0  0
  7  9  1  0  0  0
  1 11  1  0  0  0
  1 12  1  0  0  0
  1 13  1  0  0  0
  2 14  1  0  0  0
  4 15  1  0  0  0
  5 16  1  0  0  0
  5 17  1  0  0  0
  6 18  1  0  0  0
  6 19  1  0  0  0
  9 20  1  0  0  0
  9 21  1  0  0  0
M  END
$$$$
