4qmx_ligand
  -I-interpret- 

 72 77  0  0  0  0  0  0  0  0999 V2000
   14.3050    2.9090   66.3240 C   0  0  0  0  0
   15.1320    3.8480   67.0700 N   0  3  0  0  0
   16.4410    4.2860   66.5910 C   0  0  0  0  0
   16.7690    5.6350   67.1100 C   0  0  0  0  0
   16.6880    5.7380   68.5920 N   0  3  0  0  0
   17.2200    6.9590   69.2010 C   0  0  0  0  0
   18.6620    6.8490   69.6650 C   0  0  0  0  0
   18.7340    7.5080   70.8900 O   0  0  0  0  0
   19.9020    8.1530   71.3990 C   0  0  0  0  0
   20.6410    7.5020   72.4090 C   0  0  0  0  0
   21.8120    8.0670   72.9690 C   0  0  0  0  0
   22.5030    7.3530   73.9970 O   0  0  0  0  0
   23.6030    6.5570   73.6410 C   0  0  0  0  0
   24.0210    5.6190   74.7390 C   0  0  0  0  0
   25.3250    5.0220   74.2910 C   0  0  0  0  0
   25.1780    4.3600   73.0540 O   0  0  0  0  0
   24.7650    5.2220   72.0490 C   0  0  0  0  0
   23.4230    5.7720   72.3670 C   0  0  0  0  0
   22.2350    9.3630   72.5180 C   0  0  0  0  0
   23.3970   10.0690   73.0080 C   0  0  0  0  0
   24.2600    9.5040   74.0600 N   0  0  0  0  0
   25.3010   10.2040   74.7780 C   0  0  0  0  0
   25.0000   11.2480   75.6410 C   0  0  0  0  0
   23.8300   11.8250   75.9660 O   0  0  0  0  0
   24.1250   13.0050   76.6860 C   0  0  0  0  0
   25.4810   12.8650   77.0840 O   0  0  0  0  0
   26.0140   11.8670   76.3250 C   0  0  0  0  0
   27.3300   11.4500   76.1630 C   0  0  0  0  0
   27.6230   10.4020   75.3290 C   0  0  0  0  0
   26.6120    9.7830   74.6460 C   0  0  0  0  0
   26.9750    8.4770   73.5900 Cl  0  0  0  0  0
   23.6860   11.2750   72.4860 N   0  0  0  0  0
   22.9360   11.8270   71.5360 C   0  0  0  0  0
   21.8370   11.2190   71.0360 N   0  0  0  0  0
   21.4590   10.0250   71.4900 C   0  0  0  0  0
   20.3000    9.4090   70.9430 C   0  0  0  0  0
   15.3720    5.2260   68.9810 C   0  0  0  0  0
   15.1960    3.8380   68.5170 C   0  0  0  0  0
   14.6238    1.8905   66.5456 H   0  0  0  0  0
   13.2619    3.0358   66.6138 H   0  0  0  0  0
   14.4127    3.1006   65.2564 H   0  0  0  0  0
   14.4238    4.5168   66.7675 H   0  0  0  0  0
   16.4212    4.3244   65.5019 H   0  0  0  0  0
   17.1962    3.5823   66.9411 H   0  0  0  0  0
   16.0414    6.3316   66.6934 H   0  0  0  0  0
   17.7971    5.8550   66.8225 H   0  0  0  0  0
   17.3799    5.1408   69.0449 H   0  0  0  0  0
   16.6144    7.1677   70.0829 H   0  0  0  0  0
   17.1867    7.7380   68.4394 H   0  0  0  0  0
   19.3409    7.2976   68.9398 H   0  0  0  0  0
   18.9617    5.8057   69.7646 H   0  0  0  0  0
   20.2991    6.5320   72.7701 H   0  0  0  0  0
   24.3931    7.2872   73.4657 H   0  0  0  0  0
   23.2695    4.8483   74.9103 H   0  0  0  0  0
   24.1296    6.1427   75.6887 H   0  0  0  0  0
   25.6543    4.2996   75.0378 H   0  0  0  0  0
   26.0553    5.8228   74.1750 H   0  0  0  0  0
   24.7132    4.6748   71.1077 H   0  0  0  0  0
   25.4774    6.0429   71.9670 H   0  0  0  0  0
   23.0467    6.4003   71.5598 H   0  0  0  0  0
   22.6840    4.9797   72.4864 H   0  0  0  0  0
   24.1084    8.5255   74.3050 H   0  0  0  0  0
   23.4638   13.1304   77.5434 H   0  0  0  0  0
   23.9729   13.8970   76.0783 H   0  0  0  0  0
   28.1311   11.9575   76.7004 H   0  0  0  0  0
   28.6528   10.0648   75.2111 H   0  0  0  0  0
   23.2179   12.8052   71.1465 H   0  0  0  0  0
   19.7244    9.9173   70.1694 H   0  0  0  0  0
   14.6024    5.8500   68.5267 H   0  0  0  0  0
   15.2924    5.2473   70.0679 H   0  0  0  0  0
   16.0319    3.2231   68.8504 H   0  0  0  0  0
   14.2781    3.4191   68.9294 H   0  0  0  0  0
  1  2  1  0  0  0
  2  3  1  0  0  0
  2 38  1  0  0  0
  3  4  1  0  0  0
  4  5  1  0  0  0
  5  6  1  0  0  0
  5 37  1  0  0  0
  6  7  1  0  0  0
  7  8  1  0  0  0
  8  9  1  0  0  0
  9 10  4  0  0  0
  9 36  4  0  0  0
 10 11  4  0  0  0
 11 12  1  0  0  0
 11 19  4  0  0  0
 12 13  1  0  0  0
 13 14  1  0  0  0
 13 18  1  0  0  0
 14 15  1  0  0  0
 15 16  1  0  0  0
 16 17  1  0  0  0
 17 18  1  0  0  0
 19 20  4  0  0  0
 19 35  4  0  0  0
 20 21  1  0  0  0
 20 32  4  0  0  0
 21 22  1  0  0  0
 22 23  4  0  0  0
 22 30  4  0  0  0
 23 24  1  0  0  0
 23 27  4  0  0  0
 24 25  1  0  0  0
 25 26  1  0  0  0
 26 27  1  0  0  0
 27 28  4  0  0  0
 28 29  4  0  0  0
 29 30  4  0  0  0
 30 31  1  0  0  0
 32 33  4  0  0  0
 33 34  4  0  0  0
 34 35  4  0  0  0
 35 36  4  0  0  0
 37 38  1  0  0  0
  1 39  1  0  0  0
  1 40  1  0  0  0
  1 41  1  0  0  0
  2 42  1  0  0  0
  3 43  1  0  0  0
  3 44  1  0  0  0
  4 45  1  0  0  0
  4 46  1  0  0  0
  5 47  1  0  0  0
  6 48  1  0  0  0
  6 49  1  0  0  0
  7 50  1  0  0  0
  7 51  1  0  0  0
 10 52  1  0  0  0
 13 53  1  0  0  0
 14 54  1  0  0  0
 14 55  1  0  0  0
 15 56  1  0  0  0
 15 57  1  0  0  0
 17 58  1  0  0  0
 17 59  1  0  0  0
 18 60  1  0  0  0
 18 61  1  0  0  0
 21 62  1  0  0  0
 25 63  1  0  0  0
 25 64  1  0  0  0
 28 65  1  0  0  0
 29 66  1  0  0  0
 33 67  1  0  0  0
 36 68  1  0  0  0
 37 69  1  0  0  0
 37 70  1  0  0  0
 38 71  1  0  0  0
 38 72  1  0  0  0
M  END
$$$$
