1b9t_ligand
  -I-interpret- 

 41 42  0  0  0  0  0  0  0  0999 V2000
   33.8350   -9.7190   64.6050 C   0  0  0  0  0
   32.5300   -9.4640   64.0870 C   0  0  0  0  0
   31.4600  -10.3440   64.4570 C   0  0  0  0  0
   31.7010  -11.4430   65.3090 C   0  0  0  0  0
   32.9860  -11.7000   65.8150 C   0  0  0  0  0
   34.0630  -10.8250   65.4590 C   0  0  0  0  0
   33.2090  -12.8620   66.6940 C   0  0  0  0  0
   32.1250  -13.6200   66.9520 O   0  0  0  0  0
   30.1790  -10.1610   64.0130 N   0  0  0  0  0
   29.2990  -11.0450   63.5120 C   0  0  0  0  0
   29.7330  -12.1730   62.9090 N   0  0  0  0  0
   32.2740   -8.3760   63.2370 N   0  0  0  0  0
   32.4450   -8.3520   61.7310 C   0  0  0  0  0
   32.2020   -6.8470   61.4010 C   0  0  0  0  0
   31.5800   -6.1860   62.6270 C   0  0  0  0  0
   31.7990   -7.1960   63.7300 C   0  0  0  0  0
   31.3670   -9.2380   61.0210 C   0  0  0  0  0
   31.6700   -9.4450   59.6410 O   0  0  0  0  0
   33.8760   -8.8440   61.2880 C   0  0  0  0  0
   34.4430   -7.9650   60.3610 O   0  0  0  0  0
   34.2810  -13.1100   67.1400 O   0  0  0  0  0
   27.9970  -10.7800   63.6210 N   0  0  0  0  0
   31.5580   -6.9480   64.9060 O   0  0  0  0  0
   34.6611   -9.0584   64.3417 H   0  0  0  0  0
   30.8766  -12.1031   65.5788 H   0  0  0  0  0
   35.0640  -11.0118   65.8479 H   0  0  0  0  0
   31.3629  -13.2511   66.4996 H   0  0  0  0  0
   29.8375   -9.2016   64.0714 H   0  0  0  0  0
   29.0606  -12.8386   62.5279 H   0  0  0  0  0
   30.7331  -12.3592   62.8347 H   0  0  0  0  0
   31.5338   -6.7538   60.5449 H   0  0  0  0  0
   33.1449   -6.3609   61.1504 H   0  0  0  0  0
   30.5255   -5.9512   62.4822 H   0  0  0  0  0
   32.0321   -5.2202   62.8524 H   0  0  0  0  0
   30.4073   -8.7253   61.0863 H   0  0  0  0  0
   31.3449  -10.2095   61.5148 H   0  0  0  0  0
   30.9878   -9.9908   59.2431 H   0  0  0  0  0
   33.7804   -9.8263   60.8254 H   0  0  0  0  0
   34.5187   -8.8873   62.1673 H   0  0  0  0  0
   35.3116   -8.2856   60.1075 H   0  0  0  0  0
   27.6877   -9.9216   64.0769 H   0  0  0  0  0
  1  6  4  0  0  0
  1  2  4  0  0  0
  2 12  1  0  0  0
  2  3  4  0  0  0
  3  9  1  0  0  0
  3  4  4  0  0  0
  4  5  4  0  0  0
  5  7  1  0  0  0
  6  5  4  0  0  0
  7 21  2  0  0  0
  7  8  1  0  0  0
  9 10  1  0  0  0
 10 22  2  0  0  0
 10 11  1  0  0  0
 12 16  1  0  0  0
 12 13  1  0  0  0
 13 19  1  0  0  0
 13 17  1  0  0  0
 13 14  1  0  0  0
 14 15  1  0  0  0
 15 16  1  0  0  0
 16 23  2  0  0  0
 17 18  1  0  0  0
 19 20  1  0  0  0
  1 24  1  0  0  0
  4 25  1  0  0  0
  6 26  1  0  0  0
  8 27  1  0  0  0
  9 28  1  0  0  0
 11 29  1  0  0  0
 11 30  1  0  0  0
 14 31  1  0  0  0
 14 32  1  0  0  0
 15 33  1  0  0  0
 15 34  1  0  0  0
 17 35  1  0  0  0
 17 36  1  0  0  0
 18 37  1  0  0  0
 19 38  1  0  0  0
 19 39  1  0  0  0
 20 40  1  0  0  0
 22 41  1  0  0  0
M  END
$$$$
