3qs6_ligand
  -I-interpret- 

 27 28  0  0  0  0  0  0  0  0999 V2000
   26.9410    0.4010   19.6470 N   0  3  0  0  0
   28.0710   -0.3920   19.1920 C   0  0  0  0  0
   27.5850   -1.5350   18.3140 C   0  0  0  0  0
   28.2950   -2.5170   18.1140 O   0  0  0  0  0
   28.8460   -0.9470   20.3860 C   0  0  0  0  0
   28.5890   -0.2020   21.6650 C   0  0  0  0  0
   27.8860   -0.6470   22.7460 C   0  0  0  0  0
   29.0210    1.1250   21.9870 C   0  0  0  0  0
   27.8600    0.3160   23.7250 N   0  0  0  0  0
   28.5490    1.4150   23.2840 C   0  0  0  0  0
   29.7640    2.0960   21.3080 C   0  0  0  0  0
   28.7960    2.6330   23.9140 C   0  0  0  0  0
   30.0070    3.3040   21.9340 C   0  0  0  0  0
   29.5260    3.5620   23.2240 C   0  0  0  0  0
   26.4710   -1.5060   17.7930 O   0  0  0  0  0
   26.4346    0.7638   18.8393 H   0  0  0  0  0
   26.3191   -0.1842   20.2049 H   0  0  0  0  0
   27.2791    1.1779   20.2149 H   0  0  0  0  0
   28.7342    0.2481   18.6102 H   0  0  0  0  0
   29.9081   -0.8533   20.1597 H   0  0  0  0  0
   28.5233   -1.9772   20.5361 H   0  0  0  0  0
   27.4129   -1.6260   22.8219 H   0  0  0  0  0
   30.1440    1.9038   20.3046 H   0  0  0  0  0
   28.4223    2.8377   24.9173 H   0  0  0  0  0
   30.5833    4.0696   21.4146 H   0  0  0  0  0
   29.7381    4.5249   23.6888 H   0  0  0  0  0
   26.0287   -0.6880   18.0314 H   0  0  0  0  0
  1  2  1  0  0  0
  2  3  1  0  0  0
  2  5  1  0  0  0
  3  4  2  0  0  0
  3 15  1  0  0  0
  5  6  1  0  0  0
  6  7  4  0  0  0
  6  8  4  0  0  0
  7  9  4  0  0  0
  8 10  4  0  0  0
  8 11  4  0  0  0
  9 10  4  0  0  0
 10 12  4  0  0  0
 11 13  4  0  0  0
 12 14  4  0  0  0
 13 14  4  0  0  0
  1 16  1  0  0  0
  1 17  1  0  0  0
  1 18  1  0  0  0
  2 19  1  0  0  0
  5 20  1  0  0  0
  5 21  1  0  0  0
  7 22  1  0  0  0
 11 23  1  0  0  0
 12 24  1  0  0  0
 13 25  1  0  0  0
 14 26  1  0  0  0
 15 27  1  0  0  0
M  END
$$$$
