5jq7_ligand
  -I-interpret- 

 58 60  0  0  0  0  0  0  0  0999 V2000
  -43.4020   16.1750   -8.9080 C   0  0  0  0  0
  -47.5330   11.8160   -8.9550 C   0  0  0  0  0
  -47.2800   11.8800   -5.1730 Cl  0  0  0  0  0
  -46.4430   10.5210   -5.9650 C   0  0  0  0  0
  -45.2490   10.9200   -6.8340 C   0  0  0  0  0
  -44.9820   12.3960   -7.1270 C   0  0  0  0  0
  -44.0870   13.0980   -6.1380 C   0  0  0  0  0
  -42.7220   12.8040   -6.1340 C   0  0  0  0  0
  -41.8600   13.4400   -5.2390 C   0  0  0  0  0
  -42.3620   14.3790   -4.3410 C   0  0  0  0  0
  -43.7240   14.6750   -4.3440 C   0  0  0  0  0
  -44.5870   14.0400   -5.2390 C   0  0  0  0  0
  -45.4430   13.0510   -8.2270 C   0  0  0  0  0
  -46.3100   12.4050   -9.2760 C   0  0  0  0  0
  -48.3140   11.2330   -9.9530 C   0  0  0  0  0
  -47.8890   11.2440  -11.2840 C   0  0  0  0  0
  -46.6720   11.8360  -11.6120 C   0  0  0  0  0
  -45.8890   12.4170  -10.6100 C   0  0  0  0  0
  -45.1010   14.4970   -8.5140 C   0  0  0  0  0
  -46.0820   15.4680   -8.7360 C   0  0  0  0  0
  -45.7230   16.7920   -9.0270 C   0  0  0  0  0
  -44.3720   17.1510   -9.1150 C   0  0  0  0  0
  -43.7590   14.8650   -8.6280 C   0  0  0  0  0
  -43.8950   18.4150   -9.3840 O   0  0  0  0  0
  -44.6310   19.5510   -9.8220 C   0  0  0  0  0
  -43.7650   20.7880   -9.5930 C   0  0  0  0  0
  -44.2120   21.8780  -10.4830 N   0  3  0  0  0
  -43.0880   22.7650  -10.8380 C   0  0  0  0  0
  -45.2960   22.6590   -9.8570 C   0  0  0  0  0
  -42.3474   16.4441   -8.9668 H   0  0  0  0  0
  -47.8794   11.8113   -7.9215 H   0  0  0  0  0
  -47.1683   10.0442   -6.6243 H   0  0  0  0  0
  -46.0564    9.8821   -5.1710 H   0  0  0  0  0
  -45.4608   10.4810   -7.8090 H   0  0  0  0  0
  -44.3768   10.5906   -6.2693 H   0  0  0  0  0
  -42.3257   12.0708   -6.8365 H   0  0  0  0  0
  -40.7962   13.2023   -5.2429 H   0  0  0  0  0
  -41.6937   14.8793   -3.6401 H   0  0  0  0  0
  -44.1188   15.4088   -3.6413 H   0  0  0  0  0
  -45.6502   14.2801   -5.2353 H   0  0  0  0  0
  -49.2634   10.7651   -9.6924 H   0  0  0  0  0
  -48.5061   10.7921  -12.0606 H   0  0  0  0  0
  -46.3308   11.8464  -12.6472 H   0  0  0  0  0
  -44.9397   12.8846  -10.8712 H   0  0  0  0  0
  -47.1355   15.1934   -8.6824 H   0  0  0  0  0
  -46.4968   17.5432   -9.1850 H   0  0  0  0  0
  -42.9818   14.1124   -8.4951 H   0  0  0  0  0
  -45.5637   19.6346   -9.2642 H   0  0  0  0  0
  -44.8802   19.4549  -10.8788 H   0  0  0  0  0
  -42.7245   20.5467   -9.8106 H   0  0  0  0  0
  -43.8574   21.1074   -8.5550 H   0  0  0  0  0
  -44.5705   21.4517  -11.3375 H   0  0  0  0  0
  -42.6714   23.2023   -9.9307 H   0  0  0  0  0
  -42.3189   22.1873  -11.3507 H   0  0  0  0  0
  -43.4461   23.5584  -11.4940 H   0  0  0  0  0
  -46.1427   22.0038   -9.6524 H   0  0  0  0  0
  -44.9371   23.0931   -8.9238 H   0  0  0  0  0
  -45.6062   23.4550  -10.5339 H   0  0  0  0  0
  1 22  4  0  0  0
 23  1  4  0  0  0
 14  2  4  0  0  0
  2 15  4  0  0  0
  4  3  1  0  0  0
  5  4  1  0  0  0
  6  5  1  0  0  0
  6  7  1  0  0  0
 13  6  2  0  0  0
  7  8  4  0  0  0
  7 12  4  0  0  0
  8  9  4  0  0  0
  9 10  4  0  0  0
 11 10  4  0  0  0
 12 11  4  0  0  0
 13 14  1  0  0  0
 19 13  1  0  0  0
 14 18  4  0  0  0
 15 16  4  0  0  0
 17 16  4  0  0  0
 18 17  4  0  0  0
 19 20  4  0  0  0
 19 23  4  0  0  0
 20 21  4  0  0  0
 21 22  4  0  0  0
 22 24  1  0  0  0
 24 25  1  0  0  0
 25 26  1  0  0  0
 26 27  1  0  0  0
 27 28  1  0  0  0
 27 29  1  0  0  0
  1 30  1  0  0  0
  2 31  1  0  0  0
  4 32  1  0  0  0
  4 33  1  0  0  0
  5 34  1  0  0  0
  5 35  1  0  0  0
  8 36  1  0  0  0
  9 37  1  0  0  0
 10 38  1  0  0  0
 11 39  1  0  0  0
 12 40  1  0  0  0
 15 41  1  0  0  0
 16 42  1  0  0  0
 17 43  1  0  0  0
 18 44  1  0  0  0
 20 45  1  0  0  0
 21 46  1  0  0  0
 23 47  1  0  0  0
 25 48  1  0  0  0
 25 49  1  0  0  0
 26 50  1  0  0  0
 26 51  1  0  0  0
 27 52  1  0  0  0
 28 53  1  0  0  0
 28 54  1  0  0  0
 28 55  1  0  0  0
 29 56  1  0  0  0
 29 57  1  0  0  0
 29 58  1  0  0  0
M  END
$$$$
