1mzc_ligand
  -I-interpret- 

 69 72  0  0  0  0  0  0  0  0999 V2000
   14.5970  135.5110   -4.6940 C   0  0  0  0  0
   14.4290  134.0330   -4.0840 C   0  0  0  0  0
   16.1330  135.9440   -4.9550 C   0  0  0  0  0
   13.6970  135.5740   -6.0210 C   0  0  0  0  0
   14.0150  136.6010   -3.6960 C   0  0  0  0  0
   15.5560  133.3530   -3.5590 C   0  0  0  0  0
   13.1740  133.3260   -4.0080 C   0  0  0  0  0
   16.9250  135.2990   -5.9540 N   0  0  0  0  0
   16.6390  136.8580   -4.2700 O   0  0  0  0  0
   13.9800  134.5780   -7.1700 C   0  0  0  0  0
   14.4070  136.4690   -2.2080 C   0  0  0  0  0
   15.4980  132.0440   -2.9810 C   0  0  0  0  0
   13.0950  132.0150   -3.4370 C   0  0  0  0  0
   16.4980  134.2450   -6.8830 C   0  0  0  0  0
   18.3160  135.7220   -6.1370 C   0  0  0  0  0
   15.3690  134.7030   -7.7990 C   0  0  0  0  0
   16.6820  131.4310   -2.4750 O   0  0  0  0  0
   14.2550  131.3730   -2.9240 C   0  0  0  0  0
   17.8320  132.2480   -2.3910 C   0  0  0  0  0
   18.8010  132.3610   -3.4460 C   0  0  0  0  0
   18.0070  132.9980   -1.1940 C   0  0  0  0  0
   19.9210  133.2120   -3.2750 C   0  0  0  0  0
   18.6250  131.7080   -4.7090 C   0  0  0  0  0
   19.1270  133.8700   -1.0090 C   0  0  0  0  0
   20.0830  133.9570   -2.0780 C   0  0  0  0  0
   18.4220  131.2060   -5.7280 N   0  0  0  0  0
   19.3220  134.6930    0.2930 C   0  0  0  0  0
   19.3080  133.8390    1.5610 C   0  0  0  0  0
   18.2190  135.7940    0.4250 C   0  0  0  0  0
   20.6330  135.3480    0.2530 N   0  3  0  0  0
   20.0940  132.7240    1.7930 N   0  0  0  0  0
   18.5490  133.9460    2.7280 C   0  0  0  0  0
   19.7520  132.2710    3.0230 C   0  0  0  0  0
   21.1080  132.0520    0.9940 C   0  0  0  0  0
   18.8250  132.9690    3.6430 N   0  0  0  0  0
   13.8957  136.5572   -6.4476 H   0  0  0  0  0
   12.6875  135.3355   -5.6861 H   0  0  0  0  0
   12.9315  136.4871   -3.7297 H   0  0  0  0  0
   14.4225  137.5560   -4.0276 H   0  0  0  0  0
   16.5227  133.8552   -3.5973 H   0  0  0  0  0
   12.2696  133.7980   -4.3920 H   0  0  0  0  0
   13.2558  134.7884   -7.9570 H   0  0  0  0  0
   13.9140  133.5766   -6.7445 H   0  0  0  0  0
   14.0624  135.5078   -1.8267 H   0  0  0  0  0
   15.4910  136.5319   -2.1122 H   0  0  0  0  0
   13.9433  137.2745   -1.6386 H   0  0  0  0  0
   12.1336  131.5031   -3.3952 H   0  0  0  0  0
   16.1350  133.4025   -6.2944 H   0  0  0  0  0
   17.3514  133.9777   -7.5061 H   0  0  0  0  0
   18.9769  134.8687   -5.9846 H   0  0  0  0  0
   18.4469  136.1086   -7.1477 H   0  0  0  0  0
   18.5552  136.5022   -5.4144 H   0  0  0  0  0
   15.5343  135.7578   -8.0187 H   0  0  0  0  0
   15.3860  134.0648   -8.6825 H   0  0  0  0  0
   14.1868  130.3747   -2.4916 H   0  0  0  0  0
   17.2688  132.9059   -0.3973 H   0  0  0  0  0
   20.6636  133.2950   -4.0686 H   0  0  0  0  0
   20.9500  134.6082   -1.9674 H   0  0  0  0  0
   18.2765  136.4683   -0.4294 H   0  0  0  0  0
   17.2371  135.3215    0.4512 H   0  0  0  0  0
   18.3774  136.3568    1.3449 H   0  0  0  0  0
   20.7669  135.8905    1.1063 H   0  0  0  0  0
   21.3635  134.6398    0.1808 H   0  0  0  0  0
   20.6775  135.9678   -0.5559 H   0  0  0  0  0
   17.8102  134.7303    2.8928 H   0  0  0  0  0
   20.2129  131.3893    3.4682 H   0  0  0  0  0
   20.6646  131.7114    0.0583 H   0  0  0  0  0
   21.9203  132.7469    0.7809 H   0  0  0  0  0
   21.4958  131.1962    1.5465 H   0  0  0  0  0
  1  2  1  0  0  0
  1  3  1  0  0  0
  1  4  1  0  0  0
  1  5  1  0  0  0
  2  6  4  0  0  0
  2  7  4  0  0  0
  3  8  1  0  0  0
  3  9  2  0  0  0
  4 10  1  0  0  0
  5 11  1  0  0  0
  6 12  4  0  0  0
  7 13  4  0  0  0
  8 14  1  0  0  0
  8 15  1  0  0  0
 10 16  1  0  0  0
 12 17  1  0  0  0
 12 18  4  0  0  0
 13 18  4  0  0  0
 14 16  1  0  0  0
 17 19  1  0  0  0
 19 20  4  0  0  0
 19 21  4  0  0  0
 20 22  4  0  0  0
 20 23  1  0  0  0
 21 24  4  0  0  0
 22 25  4  0  0  0
 23 26  3  0  0  0
 24 25  4  0  0  0
 24 27  1  0  0  0
 27 28  1  0  0  0
 27 29  1  0  0  0
 27 30  1  0  0  0
 28 31  4  0  0  0
 28 32  4  0  0  0
 31 33  4  0  0  0
 31 34  1  0  0  0
 32 35  4  0  0  0
 33 35  4  0  0  0
  4 36  1  0  0  0
  4 37  1  0  0  0
  5 38  1  0  0  0
  5 39  1  0  0  0
  6 40  1  0  0  0
  7 41  1  0  0  0
 10 42  1  0  0  0
 10 43  1  0  0  0
 11 44  1  0  0  0
 11 45  1  0  0  0
 11 46  1  0  0  0
 13 47  1  0  0  0
 14 48  1  0  0  0
 14 49  1  0  0  0
 15 50  1  0  0  0
 15 51  1  0  0  0
 15 52  1  0  0  0
 16 53  1  0  0  0
 16 54  1  0  0  0
 18 55  1  0  0  0
 21 56  1  0  0  0
 22 57  1  0  0  0
 25 58  1  0  0  0
 29 59  1  0  0  0
 29 60  1  0  0  0
 29 61  1  0  0  0
 30 62  1  0  0  0
 30 63  1  0  0  0
 30 64  1  0  0  0
 32 65  1  0  0  0
 33 66  1  0  0  0
 34 67  1  0  0  0
 34 68  1  0  0  0
 34 69  1  0  0  0
M  END
$$$$
