5wbo_ligand
  -I-interpret- 

 31 32  0  0  0  0  0  0  0  0999 V2000
   -3.0610   -0.6750   17.9170 N   0  0  0  0  0
   -5.6940   -0.2000   20.3180 C   0  0  0  0  0
   -2.1940   -4.1770   19.4840 N   0  0  0  0  0
   -2.9330   -3.3010   19.5290 C   0  0  0  0  0
   -3.9020   -2.2560   19.6610 C   0  0  0  0  0
   -2.2950   -1.2120   15.6560 C   0  0  0  0  0
   -3.2230   -1.5960   16.7680 C   0  0  0  0  0
   -5.0960   -3.8530   21.2740 C   0  0  0  0  0
   -4.9370   -2.4870   20.6450 C   0  0  0  0  0
   -5.8290   -1.4450   20.9770 C   0  0  0  0  0
   -4.7670    0.0400   19.3650 N   0  0  0  0  0
   -3.8380   -0.9480   18.9550 C   0  0  0  0  0
   -2.5450    0.1120   15.2340 O   0  0  0  0  0
   -2.2460    1.0080   16.3010 C   0  0  0  0  0
   -3.1040    0.7620   17.5200 C   0  0  0  0  0
   -6.6090    0.9370   20.6340 C   0  0  0  0  0
   -2.4541   -1.8865   14.8147 H   0  0  0  0  0
   -1.2678   -1.2802   16.0141 H   0  0  0  0  0
   -4.2505   -1.5383   16.4088 H   0  0  0  0  0
   -2.9898   -2.6107   17.0907 H   0  0  0  0  0
   -5.3044   -4.5877   20.4962 H   0  0  0  0  0
   -4.1758   -4.1221   21.7926 H   0  0  0  0  0
   -5.9220   -3.8303   21.9849 H   0  0  0  0  0
   -6.6063   -1.5961   21.7260 H   0  0  0  0  0
   -2.4393    2.0226   15.9526 H   0  0  0  0  0
   -1.2049    0.8563   16.5861 H   0  0  0  0  0
   -2.7246    1.3658   18.3444 H   0  0  0  0  0
   -4.1338    1.0309   17.2849 H   0  0  0  0  0
   -7.6370    0.6447   20.4200 H   0  0  0  0  0
   -6.5153    1.1947   21.6889 H   0  0  0  0  0
   -6.3402    1.7986   20.0229 H   0  0  0  0  0
  1  7  1  0  0  0
 12  1  1  0  0  0
  1 15  1  0  0  0
 10  2  4  0  0  0
  2 11  4  0  0  0
  2 16  1  0  0  0
  4  3  3  0  0  0
  5  4  1  0  0  0
  9  5  4  0  0  0
  5 12  4  0  0  0
  7  6  1  0  0  0
  6 13  1  0  0  0
  9  8  1  0  0  0
  9 10  4  0  0  0
 11 12  4  0  0  0
 13 14  1  0  0  0
 14 15  1  0  0  0
  6 17  1  0  0  0
  6 18  1  0  0  0
  7 19  1  0  0  0
  7 20  1  0  0  0
  8 21  1  0  0  0
  8 22  1  0  0  0
  8 23  1  0  0  0
 10 24  1  0  0  0
 14 25  1  0  0  0
 14 26  1  0  0  0
 15 27  1  0  0  0
 15 28  1  0  0  0
 16 29  1  0  0  0
 16 30  1  0  0  0
 16 31  1  0  0  0
M  END
$$$$
