5dtm_ligand
  -I-interpret- 

 28 29  0  0  0  0  0  0  0  0999 V2000
  -24.7280  -22.6290   10.1300 C   0  0  0  0  0
  -24.7080  -24.1120   10.0310 C   0  0  0  0  0
  -24.7590  -21.7990   11.3520 C   0  0  0  0  0
  -24.7090  -19.3000   11.7820 C   0  0  0  0  0
  -23.8410  -25.3270    6.4970 C   0  0  0  0  0
  -26.2110  -25.5780    6.8020 C   0  0  0  0  0
  -25.1050  -25.6190    5.9510 C   0  0  0  0  0
  -24.5660  -18.1830   13.9840 C   0  0  0  0  0
  -24.6690  -21.7530    9.1150 C   0  0  0  0  0
  -24.8390  -24.7460    8.6560 C   0  0  0  0  0
  -24.5270  -24.7700   11.0410 O   0  0  0  0  0
  -24.7110  -20.5190   10.9230 C   0  0  0  0  0
  -24.6620  -20.5560    9.6110 N   0  0  0  0  0
  -23.7280  -24.8250    7.8180 C   0  0  0  0  0
  -26.0800  -25.0900    8.1250 C   0  0  0  0  0
  -22.1760  -24.4150    8.5110 Cl  0  0  0  0  0
  -27.4630  -25.0050    9.1790 Cl  0  0  0  0  0
  -24.5080  -19.3690   13.1260 N   0  0  0  0  0
  -24.9200  -18.2240   11.2290 O   0  0  0  0  0
  -24.8099  -22.1468   12.3838 H   0  0  0  0  0
  -22.9432  -25.4879    5.9003 H   0  0  0  0  0
  -27.1814  -25.9238    6.4459 H   0  0  0  0  0
  -25.2169  -25.8695    4.8961 H   0  0  0  0  0
  -23.8110  -17.4659   13.6619 H   0  0  0  0  0
  -25.5546  -17.7300   13.9091 H   0  0  0  0  0
  -24.3755  -18.4738   15.0171 H   0  0  0  0  0
  -24.6331  -22.0052    8.0552 H   0  0  0  0  0
  -24.3106  -20.2756   13.5497 H   0  0  0  0  0
  2  1  1  0  0  0
  1  3  4  0  0  0
  1  9  4  0  0  0
 10  2  1  0  0  0
  2 11  2  0  0  0
  3 12  4  0  0  0
 12  4  1  0  0  0
  4 18  1  0  0  0
  4 19  2  0  0  0
  5  7  4  0  0  0
 14  5  4  0  0  0
  7  6  4  0  0  0
  6 15  4  0  0  0
 18  8  1  0  0  0
  9 13  4  0  0  0
 10 14  4  0  0  0
 10 15  4  0  0  0
 12 13  4  0  0  0
 14 16  1  0  0  0
 15 17  1  0  0  0
  3 20  1  0  0  0
  5 21  1  0  0  0
  6 22  1  0  0  0
  7 23  1  0  0  0
  8 24  1  0  0  0
  8 25  1  0  0  0
  8 26  1  0  0  0
  9 27  1  0  0  0
 18 28  1  0  0  0
M  END
$$$$
