6qfh_ligand
  -I-interpret- 

 51 54  0  0  0  0  0  0  0  0999 V2000
  -36.5780  -21.1740  -18.8430 C   0  0  0  0  0
  -38.6720  -21.4810  -18.4310 C   0  0  0  0  0
  -38.8080  -20.2560  -16.1760 C   0  0  0  0  0
  -38.7350  -19.2560  -13.9780 C   0  0  0  0  0
  -40.2010  -20.2240  -16.1170 C   0  0  0  0  0
  -34.9950  -23.8120  -20.8140 C   0  0  0  0  0
  -34.7290  -25.0140  -21.4540 C   0  0  0  0  0
  -34.5130  -26.1370  -19.3120 C   0  0  0  0  0
  -33.3650  -24.7140  -17.5680 C   0  0  0  0  0
  -31.0990  -24.0700  -17.8800 C   0  0  0  0  0
  -33.6650  -27.2920  -23.1060 N   0  0  0  0  0
  -34.4560  -26.3350  -23.6120 C   0  0  0  0  0
  -34.9410  -26.4530  -24.8010 N   0  0  0  0  0
  -34.7160  -25.1060  -22.8600 C   0  0  0  0  0
  -34.9660  -23.9340  -23.5860 C   0  0  0  0  0
  -35.2070  -22.7290  -22.9500 C   0  0  0  0  0
  -35.2130  -22.6570  -21.5630 C   0  0  0  0  0
  -35.4080  -21.4390  -20.9450 N   0  0  0  0  0
  -35.2540  -21.2060  -19.5190 C   0  0  0  0  0
  -36.8070  -20.5800  -17.6530 N   0  0  0  0  0
  -38.1300  -20.7930  -17.3660 C   0  0  0  0  0
  -37.7070  -21.7000  -19.3600 N   0  0  0  0  0
  -38.0780  -19.7680  -15.0900 C   0  0  0  0  0
  -40.1180  -19.2310  -13.9310 C   0  0  0  0  0
  -40.8510  -19.7190  -14.9980 C   0  0  0  0  0
  -34.4520  -26.1660  -20.7510 O   0  0  0  0  0
  -33.3090  -25.4180  -18.7620 C   0  0  0  0  0
  -32.2460  -24.0350  -17.1110 C   0  0  0  0  0
  -31.0150  -24.7310  -19.0470 N   0  0  0  0  0
  -32.1110  -25.3840  -19.4570 C   0  0  0  0  0
  -39.7113  -21.7988  -18.5138 H   0  0  0  0  0
  -38.1576  -18.8716  -13.1372 H   0  0  0  0  0
  -40.7855  -20.5989  -16.9572 H   0  0  0  0  0
  -35.0335  -23.7710  -19.7255 H   0  0  0  0  0
  -34.5262  -27.1586  -18.9321 H   0  0  0  0  0
  -35.4172  -25.6137  -19.0010 H   0  0  0  0  0
  -34.2885  -24.6947  -16.9893 H   0  0  0  0  0
  -30.2189  -23.5353  -17.5227 H   0  0  0  0  0
  -33.4444  -28.1181  -23.6621 H   0  0  0  0  0
  -33.2839  -27.1939  -22.1650 H   0  0  0  0  0
  -34.7234  -27.2772  -25.3611 H   0  0  0  0  0
  -34.9707  -23.9723  -24.6753 H   0  0  0  0  0
  -35.3931  -21.8318  -23.5404 H   0  0  0  0  0
  -35.6788  -20.6479  -21.5291 H   0  0  0  0  0
  -34.6613  -22.0153  -19.0927 H   0  0  0  0  0
  -34.7607  -20.2453  -19.3712 H   0  0  0  0  0
  -36.9885  -19.7889  -15.1149 H   0  0  0  0  0
  -40.6281  -18.8281  -13.0560 H   0  0  0  0  0
  -41.9403  -19.7072  -14.9606 H   0  0  0  0  0
  -32.2707  -23.4874  -16.1688 H   0  0  0  0  0
  -32.0562  -25.9252  -20.4016 H   0  0  0  0  0
 19  1  1  0  0  0
  1 20  4  0  0  0
  1 22  4  0  0  0
  2 21  4  0  0  0
 22  2  4  0  0  0
  3  5  4  0  0  0
 21  3  1  0  0  0
  3 23  4  0  0  0
 23  4  4  0  0  0
  4 24  4  0  0  0
  5 25  4  0  0  0
  6  7  4  0  0  0
 17  6  4  0  0  0
  7 14  4  0  0  0
  7 26  1  0  0  0
 26  8  1  0  0  0
  8 27  1  0  0  0
 27  9  4  0  0  0
  9 28  4  0  0  0
 28 10  4  0  0  0
 10 29  4  0  0  0
 12 11  1  0  0  0
 12 13  2  0  0  0
 14 12  1  0  0  0
 15 14  4  0  0  0
 16 15  4  0  0  0
 17 16  4  0  0  0
 18 17  1  0  0  0
 18 19  1  0  0  0
 20 21  4  0  0  0
 24 25  4  0  0  0
 27 30  4  0  0  0
 29 30  4  0  0  0
  2 31  1  0  0  0
  4 32  1  0  0  0
  5 33  1  0  0  0
  6 34  1  0  0  0
  8 35  1  0  0  0
  8 36  1  0  0  0
  9 37  1  0  0  0
 10 38  1  0  0  0
 11 39  1  0  0  0
 11 40  1  0  0  0
 13 41  1  0  0  0
 15 42  1  0  0  0
 16 43  1  0  0  0
 18 44  1  0  0  0
 19 45  1  0  0  0
 19 46  1  0  0  0
 23 47  1  0  0  0
 24 48  1  0  0  0
 25 49  1  0  0  0
 28 50  1  0  0  0
 30 51  1  0  0  0
M  END
$$$$
