3gc7_ligand
  -I-interpret- 

 64 68  0  0  0  0  0  0  0  0999 V2000
   26.7000   10.6920   33.0660 C   0  0  0  0  0
   17.9970   13.7020   30.2660 C   0  0  0  0  0
   16.6440   13.6790   30.0000 C   0  0  0  0  0
   25.6380   10.2580   33.8250 C   0  0  0  0  0
   26.4910   11.1720   31.7910 C   0  0  0  0  0
   20.5570   14.2810   32.1190 C   0  0  0  0  0
   22.6580   13.1610   32.1710 C   0  0  0  0  0
   16.2430   12.4860   32.0330 C   0  0  0  0  0
   18.4980   13.1210   31.4160 C   0  0  0  0  0
   19.9340   13.1320   31.6670 C   0  0  0  0  0
   21.9150   14.3100   32.3720 C   0  0  0  0  0
   20.7020   11.9930   31.4640 C   0  0  0  0  0
   22.0620   12.0010   31.7230 C   0  0  0  0  0
   24.1370   10.7870   32.0420 C   0  0  0  0  0
   15.7740   13.0700   30.8790 C   0  0  0  0  0
   24.3600   10.3100   33.3120 C   0  0  0  0  0
   25.2080   11.2100   31.2890 C   0  0  0  0  0
   17.5960   12.5240   32.2800 C   0  0  0  0  0
   22.2840    9.6250   31.0730 C   0  0  0  0  0
   20.0510   10.7410   30.9680 C   0  0  0  0  0
   23.2340   16.1420   31.5880 C   0  0  0  0  0
   21.7900   16.6160   33.5240 C   0  0  0  0  0
   24.1040   17.3380   31.8980 C   0  0  0  0  0
   22.6200   17.8770   33.7850 C   0  0  0  0  0
   22.6360   15.5490   32.8430 C   0  0  0  0  0
   23.2630   20.6440   33.5090 C   0  0  0  0  0
   23.9290   20.3170   31.2060 C   0  0  0  0  0
   23.9550   19.6850   32.5770 C   0  0  0  0  0
   20.9360    9.6190   30.7580 N   0  0  0  0  0
   22.8270   10.8250   31.5100 N   0  0  0  0  0
   23.2240   18.3720   32.5070 N   0  3  0  0  0
   22.9440    8.5980   30.9530 O   0  0  0  0  0
   14.4540   13.0350   30.6270 F   0  0  0  0  0
   23.0230    9.7770   34.2620 Cl  0  0  0  0  0
   24.9330   11.8040   29.7070 Cl  0  0  0  0  0
   18.1030   11.7680   33.7350 Cl  0  0  0  0  0
   27.7100   10.6562   33.4742 H   0  0  0  0  0
   18.6775   14.1826   29.5631 H   0  0  0  0  0
   16.2612   14.1440   29.0915 H   0  0  0  0  0
   25.8071    9.8735   34.8308 H   0  0  0  0  0
   27.3301   11.5173   31.1871 H   0  0  0  0  0
   19.9647   15.1820   32.2789 H   0  0  0  0  0
   23.7297   13.1725   32.3695 H   0  0  0  0  0
   15.5602   12.0055   32.7337 H   0  0  0  0  0
   19.6188   10.9806   29.9965 H   0  0  0  0  0
   19.3409   10.4357   31.7366 H   0  0  0  0  0
   23.8511   15.3823   31.1082 H   0  0  0  0  0
   22.4206   16.4667   30.9390 H   0  0  0  0  0
   20.9537   16.8720   32.8735 H   0  0  0  0  0
   21.4301   16.2267   34.4764 H   0  0  0  0  0
   24.5738   17.7180   30.9908 H   0  0  0  0  0
   24.9064   17.0634   32.5828 H   0  0  0  0  0
   23.4180   17.6397   34.4885 H   0  0  0  0  0
   21.9729   18.6512   34.1973 H   0  0  0  0  0
   23.3440   15.2470   33.6147 H   0  0  0  0  0
   23.7949   21.5954   33.5099 H   0  0  0  0  0
   22.2380   20.7997   33.1726 H   0  0  0  0  0
   23.2569   20.2287   34.5168 H   0  0  0  0  0
   22.8950   20.4771   30.9007 H   0  0  0  0  0
   24.4519   21.2728   31.2380 H   0  0  0  0  0
   24.4214   19.6557   30.4931 H   0  0  0  0  0
   24.9681   19.4927   32.9301 H   0  0  0  0  0
   20.5434    8.7695   30.3524 H   0  0  0  0  0
   22.4128   18.5556   31.9165 H   0  0  0  0  0
  4  1  4  0  0  0
  5  1  4  0  0  0
  2  3  4  0  0  0
  9  2  4  0  0  0
  3 15  4  0  0  0
 16  4  4  0  0  0
 17  5  4  0  0  0
  6 10  4  0  0  0
 11  6  4  0  0  0
 11  7  4  0  0  0
  7 13  4  0  0  0
  8 15  4  0  0  0
 18  8  4  0  0  0
 10  9  1  0  0  0
  9 18  4  0  0  0
 10 12  4  0  0  0
 25 11  1  0  0  0
 13 12  4  0  0  0
 12 20  1  0  0  0
 13 30  1  0  0  0
 14 16  4  0  0  0
 14 17  4  0  0  0
 30 14  1  0  0  0
 15 33  1  0  0  0
 16 34  1  0  0  0
 17 35  1  0  0  0
 18 36  1  0  0  0
 19 29  1  0  0  0
 30 19  1  0  0  0
 19 32  2  0  0  0
 20 29  1  0  0  0
 23 21  1  0  0  0
 21 25  1  0  0  0
 24 22  1  0  0  0
 22 25  1  0  0  0
 31 23  1  0  0  0
 31 24  1  0  0  0
 28 26  1  0  0  0
 28 27  1  0  0  0
 28 31  1  0  0  0
  1 37  1  0  0  0
  2 38  1  0  0  0
  3 39  1  0  0  0
  4 40  1  0  0  0
  5 41  1  0  0  0
  6 42  1  0  0  0
  7 43  1  0  0  0
  8 44  1  0  0  0
 20 45  1  0  0  0
 20 46  1  0  0  0
 21 47  1  0  0  0
 21 48  1  0  0  0
 22 49  1  0  0  0
 22 50  1  0  0  0
 23 51  1  0  0  0
 23 52  1  0  0  0
 24 53  1  0  0  0
 24 54  1  0  0  0
 25 55  1  0  0  0
 26 56  1  0  0  0
 26 57  1  0  0  0
 26 58  1  0  0  0
 27 59  1  0  0  0
 27 60  1  0  0  0
 27 61  1  0  0  0
 28 62  1  0  0  0
 29 63  1  0  0  0
 31 64  1  0  0  0
M  END
$$$$
