6im4_ligand
  -I-interpret- 

 82 82  0  0  0  0  0  0  0  0999 V2000
  113.0470  231.7320   49.9850 N   0  3  0  0  0
  113.5820  232.3610   48.7930 C   0  0  0  0  0
  114.5230  231.4550   48.0120 C   0  0  0  0  0
  114.6380  230.2620   48.2740 O   0  0  0  0  0
  115.2300  232.0540   47.0670 N   0  0  0  0  0
  116.2220  231.3660   46.2470 C   0  0  0  0  0
  117.6040  231.5640   46.8380 C   0  0  0  0  0
  118.0210  232.7110   47.0070 O   0  0  0  0  0
  116.1940  231.9230   44.8170 C   0  0  0  0  0
  117.1360  231.1680   43.8560 C   0  0  0  0  0
  117.1920  231.9690   42.2500 S   0  0  0  0  0
  118.2460  233.3820   42.5890 C   0  0  0  0  0
  118.3680  230.5140   47.1530 N   0  0  0  0  0
  119.7320  230.7360   47.6410 C   0  0  0  0  0
  120.6300  231.2570   46.5400 C   0  0  0  0  0
  120.5080  230.8620   45.3790 O   0  0  0  0  0
  120.1850  229.3360   48.1080 C   0  0  0  0  0
  119.3040  228.3970   47.3640 C   0  0  0  0  0
  117.9850  229.0750   47.1970 C   0  0  0  0  0
  121.5500  232.1400   46.9230 N   0  0  0  0  0
  122.5170  232.7410   46.0160 C   0  0  0  0  0
  123.8650  232.7520   46.6970 C   0  0  0  0  0
  123.9610  232.9840   47.9060 O   0  0  0  0  0
  122.2060  234.2130   45.6550 C   0  0  0  0  0
  121.1540  234.4180   44.6030 C   0  0  0  0  0
  120.9140  235.9520   44.4760 C   0  0  0  0  0
  120.0810  236.3220   43.3420 N   0  0  0  0  0
  118.8040  236.6800   43.4420 C   0  0  0  0  0
  118.2070  236.6900   44.6190 N   0  0  0  0  0
  118.1180  237.0160   42.3560 N   0  0  0  0  0
  124.9110  232.5560   45.9110 N   0  0  0  0  0
  126.2260  232.5960   46.5090 C   0  0  0  0  0
  127.3390  232.7030   45.4920 C   0  0  0  0  0
  127.1660  232.3650   44.3200 O   0  0  0  0  0
  128.4920  233.1710   45.9440 N   0  0  0  0  0
  129.6980  233.1540   45.1390 C   0  0  0  0  0
  130.9080  232.9450   46.0520 C   0  0  0  0  0
  131.9360  232.4130   45.6110 O   0  0  0  0  0
  129.8350  234.4480   44.3350 C   0  0  0  0  0
  130.8640  233.3070   47.2360 O   0  0  0  0  0
  112.4266  232.3852   50.4634 H   0  0  0  0  0
  112.5250  230.8962   49.7218 H   0  0  0  0  0
  113.8144  231.4738   50.6053 H   0  0  0  0  0
  114.1497  233.2370   49.1068 H   0  0  0  0  0
  112.7425  232.6067   48.1426 H   0  0  0  0  0
  115.0733  233.0485   46.9033 H   0  0  0  0  0
  115.9865  230.3020   46.2249 H   0  0  0  0  0
  116.5251  232.9607   44.8588 H   0  0  0  0  0
  115.1776  231.8142   44.4386 H   0  0  0  0  0
  116.7636  230.1517   43.7274 H   0  0  0  0  0
  118.1399  231.1647   44.2807 H   0  0  0  0  0
  117.7876  233.9984   43.3623 H   0  0  0  0  0
  119.2204  233.0331   42.9308 H   0  0  0  0  0
  118.3677  233.9695   41.6790 H   0  0  0  0  0
  119.7779  231.4827   48.4337 H   0  0  0  0  0
  120.0950  229.2147   49.1875 H   0  0  0  0  0
  121.2406  229.1571   47.9036 H   0  0  0  0  0
  119.1897  227.4608   47.9104 H   0  0  0  0  0
  119.7358  228.1498   46.3942 H   0  0  0  0  0
  117.4456  228.7484   46.3079 H   0  0  0  0  0
  117.2809  228.8439   47.9963 H   0  0  0  0  0
  121.5788  232.4102   47.9061 H   0  0  0  0  0
  122.4874  232.1477   45.1021 H   0  0  0  0  0
  123.1284  234.6339   45.2549 H   0  0  0  0  0
  121.8280  234.6803   46.5643 H   0  0  0  0  0
  120.2313  233.9089   44.8815 H   0  0  0  0  0
  121.4811  234.0025   43.6499 H   0  0  0  0  0
  121.8865  236.4232   44.3334 H   0  0  0  0  0
  120.3977  236.2769   45.3793 H   0  0  0  0  0
  120.5023  236.3058   42.4132 H   0  0  0  0  0
  118.7251  236.4226   45.4559 H   0  0  0  0  0
  117.1358  237.2797   42.4345 H   0  0  0  0  0
  118.5732  237.0104   41.4432 H   0  0  0  0  0
  124.7928  232.3819   44.9129 H   0  0  0  0  0
  126.3680  231.6649   47.0576 H   0  0  0  0  0
  126.2732  233.4801   47.1448 H   0  0  0  0  0
  128.5333  233.5555   46.8879 H   0  0  0  0  0
  129.6425  232.3320   44.4253 H   0  0  0  0  0
  128.9740  234.5574   43.6756 H   0  0  0  0  0
  129.8808  235.2958   45.0185 H   0  0  0  0  0
  130.7474  234.4097   43.7400 H   0  0  0  0  0
  130.0060  233.6970   47.4185 H   0  0  0  0  0
  1  2  1  0  0  0
  2  3  1  0  0  0
  3  4  2  0  0  0
  3  5  1  0  0  0
  5  6  1  0  0  0
  6  7  1  0  0  0
  6  9  1  0  0  0
  7  8  2  0  0  0
  7 13  1  0  0  0
  9 10  1  0  0  0
 10 11  1  0  0  0
 11 12  1  0  0  0
 13 14  1  0  0  0
 13 19  1  0  0  0
 14 15  1  0  0  0
 14 17  1  0  0  0
 15 16  2  0  0  0
 15 20  1  0  0  0
 17 18  1  0  0  0
 18 19  1  0  0  0
 20 21  1  0  0  0
 21 22  1  0  0  0
 21 24  1  0  0  0
 22 23  2  0  0  0
 22 31  1  0  0  0
 24 25  1  0  0  0
 25 26  1  0  0  0
 26 27  1  0  0  0
 27 28  1  0  0  0
 28 29  2  0  0  0
 28 30  1  0  0  0
 31 32  1  0  0  0
 32 33  1  0  0  0
 33 34  2  0  0  0
 33 35  1  0  0  0
 35 36  1  0  0  0
 36 37  1  0  0  0
 36 39  1  0  0  0
 37 38  2  0  0  0
 37 40  1  0  0  0
  1 41  1  0  0  0
  1 42  1  0  0  0
  1 43  1  0  0  0
  2 44  1  0  0  0
  2 45  1  0  0  0
  5 46  1  0  0  0
  6 47  1  0  0  0
  9 48  1  0  0  0
  9 49  1  0  0  0
 10 50  1  0  0  0
 10 51  1  0  0  0
 12 52  1  0  0  0
 12 53  1  0  0  0
 12 54  1  0  0  0
 14 55  1  0  0  0
 17 56  1  0  0  0
 17 57  1  0  0  0
 18 58  1  0  0  0
 18 59  1  0  0  0
 19 60  1  0  0  0
 19 61  1  0  0  0
 20 62  1  0  0  0
 21 63  1  0  0  0
 24 64  1  0  0  0
 24 65  1  0  0  0
 25 66  1  0  0  0
 25 67  1  0  0  0
 26 68  1  0  0  0
 26 69  1  0  0  0
 27 70  1  0  0  0
 29 71  1  0  0  0
 30 72  1  0  0  0
 30 73  1  0  0  0
 31 74  1  0  0  0
 32 75  1  0  0  0
 32 76  1  0  0  0
 35 77  1  0  0  0
 36 78  1  0  0  0
 39 79  1  0  0  0
 39 80  1  0  0  0
 39 81  1  0  0  0
 40 82  1  0  0  0
M  END
$$$$
