1zd4_ligand
  -I-interpret- 

 42 42  0  0  0  0  0  0  0  0999 V2000
   15.4350   11.5450  141.5140 C   0  0  0  0  0
   16.1780   11.9470  140.3000 N   0  0  0  0  0
   16.8440   11.0560  139.4790 C   0  0  0  0  0
   17.2680   11.5780  138.2730 N   0  0  0  0  0
   17.9600   10.7740  137.2560 C   0  0  0  0  0
   17.0330   10.6330  136.0430 C   0  0  0  0  0
   17.6420    9.8050  134.9080 C   0  0  0  0  0
   16.6670    9.6990  133.7260 C   0  0  0  0  0
   17.2350    8.8690  132.5630 C   0  0  0  0  0
   17.0230    9.8970  139.7860 O   0  0  0  0  0
   16.2810    8.7440  131.3780 C   0  0  0  0  0
   16.8260    8.0060  130.3840 O   0  0  0  0  0
   15.1650    9.2190  131.2760 O   0  0  0  0  0
   15.1970   12.7700  142.4340 C   0  0  0  0  0
   14.4100   12.3770  143.7090 C   0  0  0  0  0
   13.0640   11.6810  143.3630 C   0  0  0  0  0
   13.2610   10.4890  142.3900 C   0  0  0  0  0
   14.0630   10.9120  141.1310 C   0  0  0  0  0
   16.0335   10.8062  142.0470 H   0  0  0  0  0
   16.2003   12.9368  140.0548 H   0  0  0  0  0
   17.0934   12.5642  138.0797 H   0  0  0  0  0
   18.2028    9.7903  137.6579 H   0  0  0  0  0
   18.8895   11.2616  136.9621 H   0  0  0  0  0
   16.8433   11.6339  135.6553 H   0  0  0  0  0
   16.1301   10.1212  136.3762 H   0  0  0  0  0
   17.8544    8.8024  135.2793 H   0  0  0  0  0
   18.5551   10.2934  134.5676 H   0  0  0  0  0
   16.4766   10.7068  133.3570 H   0  0  0  0  0
   15.7628    9.2043  134.0806 H   0  0  0  0  0
   17.4214    7.8633  132.9398 H   0  0  0  0  0
   18.1325    9.3755  132.2079 H   0  0  0  0  0
   17.7044    7.7195  130.6445 H   0  0  0  0  0
   14.6150   13.5084  141.8825 H   0  0  0  0  0
   16.1655   13.1694  142.7351 H   0  0  0  0  0
   14.1922   13.2850  144.2713 H   0  0  0  0  0
   15.0179   11.6806  144.2865 H   0  0  0  0  0
   12.4159   12.4123  142.8800 H   0  0  0  0  0
   12.6298   11.2992  144.2870 H   0  0  0  0  0
   12.2799   10.1356  142.0727 H   0  0  0  0  0
   13.8171    9.7077  142.9081 H   0  0  0  0  0
   14.2489   10.0248  140.5257 H   0  0  0  0  0
   13.4811   11.6538  140.5839 H   0  0  0  0  0
  1  2  1  0  0  0
  1 14  1  0  0  0
  1 18  1  0  0  0
  2  3  1  0  0  0
  3  4  1  0  0  0
  3 10  2  0  0  0
  4  5  1  0  0  0
  5  6  1  0  0  0
  6  7  1  0  0  0
  7  8  1  0  0  0
  8  9  1  0  0  0
  9 11  1  0  0  0
 11 12  1  0  0  0
 11 13  2  0  0  0
 14 15  1  0  0  0
 15 16  1  0  0  0
 16 17  1  0  0  0
 17 18  1  0  0  0
  1 19  1  0  0  0
  2 20  1  0  0  0
  4 21  1  0  0  0
  5 22  1  0  0  0
  5 23  1  0  0  0
  6 24  1  0  0  0
  6 25  1  0  0  0
  7 26  1  0  0  0
  7 27  1  0  0  0
  8 28  1  0  0  0
  8 29  1  0  0  0
  9 30  1  0  0  0
  9 31  1  0  0  0
 12 32  1  0  0  0
 14 33  1  0  0  0
 14 34  1  0  0  0
 15 35  1  0  0  0
 15 36  1  0  0  0
 16 37  1  0  0  0
 16 38  1  0  0  0
 17 39  1  0  0  0
 17 40  1  0  0  0
 18 41  1  0  0  0
 18 42  1  0  0  0
M  END
$$$$
