### 
### Created by X-TOOL on Mon Sep 10 21:13:02 2018
### 

@<TRIPOS>MOLECULE
2x4u_ligand
  148   149     1     0     0
SMALL
GAST_HUCK


@<TRIPOS>ATOM
      1 N          22.7220   32.9340   44.4840 N.4       1 ILE         0.2381
      2 CA         23.9350   33.6080   44.9310 C.3       1 ILE         0.0676
      3 C          24.9300   33.8370   43.7850 C.2       1 ILE         0.2270
      4 O          25.1410   32.9520   42.9590 O.2       1 ILE        -0.3907
      5 CB         24.6070   32.8240   46.0740 C.3       1 ILE         0.0164
      6 CG1        24.1270   33.3480   47.4280 C.3       1 ILE        -0.0460
      7 CG2        26.1140   32.9120   45.9730 C.3       1 ILE        -0.0551
      8 CD1        24.9200   32.8160   48.6080 C.3       1 ILE        -0.0647
      9 N          25.5270   35.0300   43.7450 N.am      1 LEU        -0.2610
     10 CA         26.5160   35.3960   42.7290 C.3       1 LEU         0.1313
     11 C          27.8370   34.6760   42.9150 C.2       1 LEU         0.2039
     12 O          28.1520   34.1860   43.9950 O.2       1 LEU        -0.3944
     13 CB         26.8510   36.8840   42.8010 C.3       1 LEU        -0.0101
     14 CG         25.7920   37.9660   42.7350 C.3       1 LEU        -0.0425
     15 CD1        26.4900   39.3270   42.7890 C.3       1 LEU        -0.0625
     16 CD2        25.0010   37.8000   41.4630 C.3       1 LEU        -0.0625
     17 N          28.6330   34.6880   41.8560 N.am      1 LYS        -0.2637
     18 CA         29.9790   34.1430   41.8790 C.3       1 LYS         0.1310
     19 C          30.9440   35.1070   42.5620 C.2       1 LYS         0.2039
     20 O          30.6800   36.3050   42.6400 O.2       1 LYS        -0.3944
     21 CB         30.4500   33.9090   40.4460 C.3       1 LYS        -0.0122
     22 CG         31.6870   33.0520   40.3400 C.3       1 LYS        -0.0440
     23 CD         32.4430   33.3230   39.0600 C.3       1 LYS        -0.0124
     24 CE         33.4580   32.2290   38.8450 C.3       1 LYS        -0.0354
     25 NZ         33.7290   31.5700   40.1490 N.4       1 LYS         0.2185
     26 N          32.0590   34.5730   43.0540 N.am      1 GLU        -0.2636
     27 CA         33.2000   35.3860   43.4760 C.3       1 GLU         0.1327
     28 C          34.4720   34.5380   43.4440 C.2       1 GLU         0.2065
     29 O          34.4470   33.3750   43.8510 O.2       1 GLU        -0.3942
     30 CB         32.9810   35.9700   44.8750 C.3       1 GLU        -0.0008
     31 CG         32.8930   34.9440   45.9990 C.3       1 GLU         0.0044
     32 CD         33.2380   35.5390   47.3560 C.2       1 GLU         0.0350
     33 OE1        32.5280   35.2370   48.3410 O.co2     1 GLU        -0.5690
     34 OE2        34.2170   36.3130   47.4370 O.co2     1 GLU        -0.5690
     35 N          35.5940   35.1080   42.9600 N.am      1 PRO        -0.2498
     36 CA         35.8210   36.4560   42.4200 C.3       1 PRO         0.1338
     37 C          35.7930   36.5210   40.8860 C.2       1 PRO         0.2041
     38 O          36.2710   35.6040   40.2210 O.2       1 PRO        -0.3944
     39 CB         37.2430   36.7850   42.9050 C.3       1 PRO        -0.0104
     40 CG         37.7420   35.5370   43.6500 C.3       1 PRO        -0.0281
     41 CD         36.8700   34.4200   43.1980 C.3       1 PRO         0.0369
     42 N          35.2660   37.6110   40.3330 N.am      1 VAL        -0.2635
     43 CA         35.1820   37.7790   38.8800 C.3       1 VAL         0.1333
     44 C          36.5310   38.1640   38.2620 C.2       1 VAL         0.2042
     45 O          37.3610   38.7930   38.9190 O.2       1 VAL        -0.3944
     46 CB         34.1380   38.8480   38.5080 C.3       1 VAL        -0.0063
     47 CG1        33.7780   38.7520   37.0320 C.3       1 VAL        -0.0584
     48 CG2        32.9000   38.6960   39.3740 C.3       1 VAL        -0.0584
     49 N          36.7380   37.7910   36.9990 N.am      1 HIS        -0.2625
     50 CA         38.0030   38.0500   36.3040 C.3       1 HIS         0.1369
     51 C          37.8760   38.9720   35.0900 C.2       1 HIS         0.2052
     52 O          36.9450   38.8470   34.2900 O.2       1 HIS        -0.3942
     53 CB         38.6630   36.7390   35.8760 C.3       1 HIS         0.0145
     54 CG         39.8060   36.3250   36.7490 C.2       1 HIS        -0.0027
     55 ND1        41.1040   36.7200   36.5090 N.2       1 HIS        -0.3252
     56 CD2        39.8480   35.5490   37.8590 C.2       1 HIS         0.0291
     57 CE1        41.8970   36.2080   37.4340 C.2       1 HIS         0.0907
     58 NE2        41.1590   35.4940   38.2650 N.pl3     1 HIS        -0.2752
     59 N          38.8350   39.8840   34.9500 N.am      1 GLY        -0.2663
     60 CA         38.8270   40.8510   33.8660 C.3       1 GLY         0.1201
     61 C          39.1460   40.2450   32.5130 C.2       1 GLY         0.2002
     62 O          39.8850   39.2640   32.4220 O.2       1 GLY        -0.3947
     63 N          38.5880   40.8340   31.4580 N.am      1 VAL        -0.2695
     64 CA         38.8220   40.3590   30.0980 C.3       1 VAL         0.0966
     65 C          40.1580   40.8550   29.5420 C.2       1 VAL         0.0603
     66 O          40.7930   41.7530   30.0950 O.co2     1 VAL        -0.5666
     67 CB         37.6890   40.7910   29.1400 C.3       1 VAL        -0.0118
     68 CG1        36.3360   40.6250   29.8130 C.3       1 VAL        -0.0590
     69 CG2        37.8930   42.2270   28.6900 C.3       1 VAL        -0.0590
     70 OXT        40.6400   40.3680   28.5170 O.co2     1 VAL        -0.5666
     71 H1         22.2994   33.4631   43.7373 H         1 ILE         0.2015
     72 H2         22.0745   32.8623   45.2532 H         1 ILE         0.2015
     73 H3         22.9534   32.0107   44.1524 H         1 ILE         0.2015
     74 H4         23.6427   34.5939   45.3216 H         1 ILE         0.1101
     75 H5         24.3161   31.7667   45.9874 H         1 ILE         0.0378
     76 H6         23.0742   33.0574   47.5587 H         1 ILE         0.0269
     77 H7         24.2068   34.4451   47.4232 H         1 ILE         0.0269
     78 H8         26.4387   32.5310   44.9935 H         1 ILE         0.0236
     79 H9         26.5709   32.3083   46.7710 H         1 ILE         0.0236
     80 H10        26.4281   33.9606   46.0810 H         1 ILE         0.0236
     81 H11        24.5162   33.2367   49.5407 H         1 ILE         0.0230
     82 H12        25.9755   33.1068   48.5015 H         1 ILE         0.0230
     83 H13        24.8429   31.7191   48.6370 H         1 ILE         0.0230
     84 H14        25.2876   35.7060   44.4419 H         1 LEU         0.1884
     85 H15        26.1024   35.1543   41.7388 H         1 LEU         0.0800
     86 H16        27.5404   37.0816   41.9670 H         1 LEU         0.0315
     87 H17        27.3780   37.0316   43.7552 H         1 LEU         0.0315
     88 H18        25.1128   37.8735   43.5953 H         1 LEU         0.0298
     89 H19        25.7369   40.1274   42.7422 H         1 LEU         0.0232
     90 H20        27.1778   39.4205   41.9357 H         1 LEU         0.0232
     91 H21        27.0569   39.4114   43.7279 H         1 LEU         0.0232
     92 H22        24.5149   36.8132   41.4597 H         1 LEU         0.0232
     93 H23        25.6763   37.8790   40.5983 H         1 LEU         0.0232
     94 H24        24.2344   38.5865   41.4026 H         1 LEU         0.0232
     95 H25        28.2929   35.0890   41.0054 H         1 LYS         0.1883
     96 H26        29.9728   33.1884   42.4255 H         1 LYS         0.0800
     97 H27        30.6656   34.8859   39.9887 H         1 LYS         0.0312
     98 H28        29.6385   33.4154   39.8912 H         1 LYS         0.0312
     99 H29        31.3906   31.9929   40.3622 H         1 LYS         0.0269
    100 H30        32.3445   33.2668   41.1953 H         1 LYS         0.0269
    101 H31        32.9569   34.2927   39.1340 H         1 LYS         0.0317
    102 H32        31.7398   33.3443   38.2144 H         1 LYS         0.0317
    103 H33        34.3886   32.6600   38.4473 H         1 LYS         0.0813
    104 H34        33.0618   31.4908   38.1322 H         1 LYS         0.0813
    105 H35        34.4070   30.8354   40.0197 H         1 LYS         0.1994
    106 H36        32.8740   31.1781   40.5115 H         1 LYS         0.1994
    107 H37        34.0899   32.2494   40.8003 H         1 LYS         0.1994
    108 H38        32.1195   33.5784   43.1386 H         1 GLU         0.1883
    109 H39        33.3150   36.2198   42.7678 H         1 GLU         0.0801
    110 H40        32.0416   36.5421   44.8620 H         1 GLU         0.0330
    111 H41        33.8194   36.6467   45.0966 H         1 GLU         0.0330
    112 H42        33.5940   34.1240   45.7844 H         1 GLU         0.0433
    113 H43        31.8671   34.5489   46.0371 H         1 GLU         0.0433
    114 H44        35.0829   37.1625   42.8274 H         1 PRO         0.0802
    115 H45        37.2238   37.6512   43.5827 H         1 PRO         0.0313
    116 H46        37.8969   37.0043   42.0481 H         1 PRO         0.0313
    117 H47        37.6513   35.6780   44.7371 H         1 PRO         0.0287
    118 H48        38.7917   35.3316   43.3931 H         1 PRO         0.0287
    119 H49        37.2547   33.9604   42.2757 H         1 PRO         0.0524
    120 H50        36.7701   33.6501   43.9773 H         1 PRO         0.0524
    121 H51        34.9173   38.3363   40.9265 H         1 VAL         0.1883
    122 H52        34.8667   36.8181   38.4472 H         1 VAL         0.0802
    123 H53        34.5736   39.8406   38.6949 H         1 VAL         0.0343
    124 H54        33.0323   39.5222   36.7856 H         1 VAL         0.0234
    125 H55        33.3605   37.7566   36.8204 H         1 VAL         0.0234
    126 H56        34.6809   38.9079   36.4234 H         1 VAL         0.0234
    127 H57        33.1832   38.7685   40.4344 H         1 VAL         0.0234
    128 H58        32.4377   37.7161   39.1841 H         1 VAL         0.0234
    129 H59        32.1823   39.4933   39.1309 H         1 VAL         0.0234
    130 H60        36.0056   37.3184   36.5088 H         1 HIS         0.1885
    131 H61        38.6699   38.5471   37.0238 H         1 HIS         0.0817
    132 H62        39.0370   36.8583   34.8484 H         1 HIS         0.0420
    133 H63        37.9030   35.9442   35.8997 H         1 HIS         0.0420
    134 H64        39.0013   35.0606   38.3391 H         1 HIS         0.0729
    135 H65        42.9746   36.3504   37.4999 H         1 HIS         0.1199
    136 H66        41.5100   34.9791   39.0851 H         1 HIS         0.2361
    137 H67        39.5845   39.9043   35.6117 H         1 GLY         0.1881
    138 H68        39.5757   41.6264   34.0855 H         1 GLY         0.0763
    139 H69        37.8283   41.3093   33.8155 H         1 GLY         0.0763
    140 H70        37.9918   41.6240   31.6011 H         1 VAL         0.1875
    141 H71        38.8484   39.2597   30.1277 H         1 VAL         0.0729
    142 H72        37.7172   40.1421   28.2522 H         1 VAL         0.0336
    143 H73        35.5409   40.9361   29.1195 H         1 VAL         0.0234
    144 H74        36.2977   41.2488   30.7182 H         1 VAL         0.0234
    145 H75        36.1903   39.5700   30.0882 H         1 VAL         0.0234
    146 H76        38.8764   42.3236   28.2068 H         1 VAL         0.0234
    147 H77        37.8461   42.8949   29.5627 H         1 VAL         0.0234
    148 H78        37.1043   42.5026   27.9745 H         1 VAL         0.0234
@<TRIPOS>BOND
     1    1    2 1  
     2    2    3 1  
     3    2    5 1  
     4    3    4 2  
     5    3    9 am 
     6    5    6 1  
     7    5    7 1  
     8    6    8 1  
     9    9   10 1  
    10   10   11 1  
    11   10   13 1  
    12   11   12 2  
    13   11   17 am 
    14   13   14 1  
    15   14   15 1  
    16   14   16 1  
    17   17   18 1  
    18   18   19 1  
    19   18   21 1  
    20   19   20 2  
    21   19   26 am 
    22   21   22 1  
    23   22   23 1  
    24   23   24 1  
    25   24   25 1  
    26   26   27 1  
    27   27   28 1  
    28   27   30 1  
    29   28   29 2  
    30   28   35 am 
    31   30   31 1  
    32   31   32 1  
    33   32   33 ar 
    34   32   34 ar 
    35   35   36 1  
    36   35   41 1  
    37   36   37 1  
    38   36   39 1  
    39   37   38 2  
    40   37   42 am 
    41   39   40 1  
    42   40   41 1  
    43   42   43 1  
    44   43   44 1  
    45   43   46 1  
    46   44   45 2  
    47   44   49 am 
    48   46   47 1  
    49   46   48 1  
    50   49   50 1  
    51   50   51 1  
    52   50   53 1  
    53   51   52 2  
    54   51   59 am 
    55   53   54 1  
    56   54   55 1  
    57   54   56 2  
    58   55   57 2  
    59   56   58 1  
    60   57   58 1  
    61   59   60 1  
    62   60   61 1  
    63   61   62 2  
    64   61   63 am 
    65   63   64 1  
    66   64   65 1  
    67   64   67 1  
    68   65   66 ar 
    69   65   70 ar 
    70   67   68 1  
    71   67   69 1  
    72    1   71 1  
    73    1   72 1  
    74    1   73 1  
    75    2   74 1  
    76    5   75 1  
    77    6   76 1  
    78    6   77 1  
    79    7   78 1  
    80    7   79 1  
    81    7   80 1  
    82    8   81 1  
    83    8   82 1  
    84    8   83 1  
    85    9   84 1  
    86   10   85 1  
    87   13   86 1  
    88   13   87 1  
    89   14   88 1  
    90   15   89 1  
    91   15   90 1  
    92   15   91 1  
    93   16   92 1  
    94   16   93 1  
    95   16   94 1  
    96   17   95 1  
    97   18   96 1  
    98   21   97 1  
    99   21   98 1  
   100   22   99 1  
   101   22  100 1  
   102   23  101 1  
   103   23  102 1  
   104   24  103 1  
   105   24  104 1  
   106   25  105 1  
   107   25  106 1  
   108   25  107 1  
   109   26  108 1  
   110   27  109 1  
   111   30  110 1  
   112   30  111 1  
   113   31  112 1  
   114   31  113 1  
   115   36  114 1  
   116   39  115 1  
   117   39  116 1  
   118   40  117 1  
   119   40  118 1  
   120   41  119 1  
   121   41  120 1  
   122   42  121 1  
   123   43  122 1  
   124   46  123 1  
   125   47  124 1  
   126   47  125 1  
   127   47  126 1  
   128   48  127 1  
   129   48  128 1  
   130   48  129 1  
   131   49  130 1  
   132   50  131 1  
   133   53  132 1  
   134   53  133 1  
   135   56  134 1  
   136   57  135 1  
   137   58  136 1  
   138   59  137 1  
   139   60  138 1  
   140   60  139 1  
   141   63  140 1  
   142   64  141 1  
   143   67  142 1  
   144   68  143 1  
   145   68  144 1  
   146   68  145 1  
   147   69  146 1  
   148   69  147 1  
   149   69  148 1  
@<TRIPOS>SUBSTRUCTURE
     1 ILE         1

