2x4u_ligand
  -I-interpret- 

149150  0  0  0  0  0  0  0  0999 V2000
   22.7220   32.9340   44.4840 N   0  3  0  0  0
   23.9350   33.6080   44.9310 C   0  0  0  0  0
   24.9300   33.8370   43.7850 C   0  0  0  0  0
   25.1410   32.9520   42.9590 O   0  0  0  0  0
   24.6070   32.8240   46.0740 C   0  0  0  0  0
   24.1270   33.3480   47.4280 C   0  0  0  0  0
   26.1140   32.9120   45.9730 C   0  0  0  0  0
   24.9200   32.8160   48.6080 C   0  0  0  0  0
   25.5270   35.0300   43.7450 N   0  0  0  0  0
   26.5160   35.3960   42.7290 C   0  0  0  0  0
   27.8370   34.6760   42.9150 C   0  0  0  0  0
   28.1520   34.1860   43.9950 O   0  0  0  0  0
   26.8510   36.8840   42.8010 C   0  0  0  0  0
   25.7920   37.9660   42.7350 C   0  0  0  0  0
   26.4900   39.3270   42.7890 C   0  0  0  0  0
   25.0010   37.8000   41.4630 C   0  0  0  0  0
   28.6330   34.6880   41.8560 N   0  0  0  0  0
   29.9790   34.1430   41.8790 C   0  0  0  0  0
   30.9440   35.1070   42.5620 C   0  0  0  0  0
   30.6800   36.3050   42.6400 O   0  0  0  0  0
   30.4500   33.9090   40.4460 C   0  0  0  0  0
   31.6870   33.0520   40.3400 C   0  0  0  0  0
   32.4430   33.3230   39.0600 C   0  0  0  0  0
   33.4580   32.2290   38.8450 C   0  0  0  0  0
   33.7290   31.5700   40.1490 N   0  3  0  0  0
   32.0590   34.5730   43.0540 N   0  0  0  0  0
   33.2000   35.3860   43.4760 C   0  0  0  0  0
   34.4720   34.5380   43.4440 C   0  0  0  0  0
   34.4470   33.3750   43.8510 O   0  0  0  0  0
   32.9810   35.9700   44.8750 C   0  0  0  0  0
   32.8930   34.9440   45.9990 C   0  0  0  0  0
   33.2380   35.5390   47.3560 C   0  0  0  0  0
   32.5280   35.2370   48.3410 O   0  0  0  0  0
   34.2170   36.3130   47.4370 O   0  0  0  0  0
   35.5940   35.1080   42.9600 N   0  0  0  0  0
   35.8210   36.4560   42.4200 C   0  0  0  0  0
   35.7930   36.5210   40.8860 C   0  0  0  0  0
   36.2710   35.6040   40.2210 O   0  0  0  0  0
   37.2430   36.7850   42.9050 C   0  0  0  0  0
   37.7420   35.5370   43.6500 C   0  0  0  0  0
   36.8700   34.4200   43.1980 C   0  0  0  0  0
   35.2660   37.6110   40.3330 N   0  0  0  0  0
   35.1820   37.7790   38.8800 C   0  0  0  0  0
   36.5310   38.1640   38.2620 C   0  0  0  0  0
   37.3610   38.7930   38.9190 O   0  0  0  0  0
   34.1380   38.8480   38.5080 C   0  0  0  0  0
   33.7780   38.7520   37.0320 C   0  0  0  0  0
   32.9000   38.6960   39.3740 C   0  0  0  0  0
   36.7380   37.7910   36.9990 N   0  0  0  0  0
   38.0030   38.0500   36.3040 C   0  0  0  0  0
   37.8760   38.9720   35.0900 C   0  0  0  0  0
   36.9450   38.8470   34.2900 O   0  0  0  0  0
   38.6630   36.7390   35.8760 C   0  0  0  0  0
   39.8060   36.3250   36.7490 C   0  0  0  0  0
   41.1040   36.7200   36.5090 N   0  0  0  0  0
   39.8480   35.5490   37.8590 C   0  0  0  0  0
   41.8970   36.2080   37.4340 C   0  0  0  0  0
   41.1590   35.4940   38.2650 N   0  0  0  0  0
   38.8350   39.8840   34.9500 N   0  0  0  0  0
   38.8270   40.8510   33.8660 C   0  0  0  0  0
   39.1460   40.2450   32.5130 C   0  0  0  0  0
   39.8850   39.2640   32.4220 O   0  0  0  0  0
   38.5880   40.8340   31.4580 N   0  0  0  0  0
   38.8220   40.3590   30.0980 C   0  0  0  0  0
   40.1580   40.8550   29.5420 C   0  0  0  0  0
   40.7930   41.7530   30.0950 O   0  0  0  0  0
   37.6890   40.7910   29.1400 C   0  0  0  0  0
   36.3360   40.6250   29.8130 C   0  0  0  0  0
   37.8930   42.2270   28.6900 C   0  0  0  0  0
   40.6400   40.3680   28.5170 O   0  0  0  0  0
   22.2953   33.4702   43.7285 H   0  0  0  0  0
   22.9574   31.9999   44.1487 H   0  0  0  0  0
   22.0677   32.8620   45.2631 H   0  0  0  0  0
   23.6341   34.5878   45.3019 H   0  0  0  0  0
   24.3235   31.7752   45.9856 H   0  0  0  0  0
   23.0953   33.0202   47.5558 H   0  0  0  0  0
   24.2471   34.4313   47.4180 H   0  0  0  0  0
   26.4240   33.9515   46.0802 H   0  0  0  0  0
   26.5655   32.3135   46.7642 H   0  0  0  0  0
   26.4345   32.5342   45.0021 H   0  0  0  0  0
   24.8429   31.7291   48.6356 H   0  0  0  0  0
   25.9656   33.1047   48.5012 H   0  0  0  0  0
   24.5189   33.2335   49.5315 H   0  0  0  0  0
   25.2828   35.7195   44.4559 H   0  0  0  0  0
   26.0588   35.1213   41.7784 H   0  0  0  0  0
   27.4379   37.0526   41.8981 H   0  0  0  0  0
   27.2649   36.9994   43.8027 H   0  0  0  0  0
   25.1007   37.8945   43.5747 H   0  0  0  0  0
   27.0513   39.4093   43.7197 H   0  0  0  0  0
   27.1712   39.4183   41.9430 H   0  0  0  0  0
   25.7428   40.1192   42.7426 H   0  0  0  0  0
   25.6700   37.8863   40.6068 H   0  0  0  0  0
   24.5263   36.8188   41.4573 H   0  0  0  0  0
   24.2367   38.5752   41.4082 H   0  0  0  0  0
   28.2861   35.0970   40.9884 H   0  0  0  0  0
   29.9632   33.2058   42.4353 H   0  0  0  0  0
   30.6939   34.8832   40.0223 H   0  0  0  0  0
   29.6487   33.3869   39.9231 H   0  0  0  0  0
   31.3825   32.0054   40.3453 H   0  0  0  0  0
   32.3399   33.2839   41.1814 H   0  0  0  0  0
   32.9505   34.2851   39.1307 H   0  0  0  0  0
   31.7471   33.3473   38.2214 H   0  0  0  0  0
   34.3795   32.6515   38.4443 H   0  0  0  0  0
   33.0715   31.4990   38.1337 H   0  0  0  0  0
   34.4151   30.8269   40.0170 H   0  0  0  0  0
   34.0941   32.2585   40.8071 H   0  0  0  0  0
   32.8632   31.1739   40.5148 H   0  0  0  0  0
   32.1207   33.5585   43.1402 H   0  0  0  0  0
   33.3042   36.2215   42.7837 H   0  0  0  0  0
   32.0239   36.4910   44.8507 H   0  0  0  0  0
   33.8452   36.5982   45.0911 H   0  0  0  0  0
   33.6088   34.1497   45.7873 H   0  0  0  0  0
   31.8671   34.5783   46.0422 H   0  0  0  0  0
   31.8351   34.6341   48.0618 H   0  0  0  0  0
   35.0403   37.1422   42.7483 H   0  0  0  0  0
   37.2432   37.6582   43.5574 H   0  0  0  0  0
   37.8966   37.0302   42.0679 H   0  0  0  0  0
   37.6866   35.6713   44.7303 H   0  0  0  0  0
   38.7904   35.3361   43.4294 H   0  0  0  0  0
   37.2523   33.9017   42.3186 H   0  0  0  0  0
   36.7954   33.6093   43.9227 H   0  0  0  0  0
   34.9103   38.3508   40.9384 H   0  0  0  0  0
   34.8803   36.8125   38.4763 H   0  0  0  0  0
   34.5675   39.8333   38.6892 H   0  0  0  0  0
   34.6735   38.9066   36.4301 H   0  0  0  0  0
   33.3645   37.7652   36.8236 H   0  0  0  0  0
   33.0391   39.5156   36.7891 H   0  0  0  0  0
   32.4692   37.7068   39.2193 H   0  0  0  0  0
   33.1746   38.8143   40.4222 H   0  0  0  0  0
   32.1706   39.4582   39.0999 H   0  0  0  0  0
   35.9910   37.3090   36.4990 H   0  0  0  0  0
   38.6256   38.5725   37.0303 H   0  0  0  0  0
   39.0585   36.8871   34.8711 H   0  0  0  0  0
   37.9056   35.9578   35.9399 H   0  0  0  0  0
   39.0005   35.0602   38.3395 H   0  0  0  0  0
   42.9756   36.3505   37.4999 H   0  0  0  0  0
   39.5995   39.9047   35.6249 H   0  0  0  0  0
   39.5960   41.5925   34.0826 H   0  0  0  0  0
   37.8227   41.2707   33.8086 H   0  0  0  0  0
   37.9799   41.6398   31.6040 H   0  0  0  0  0
   38.8456   39.2709   30.1583 H   0  0  0  0  0
   37.7149   40.1504   28.2585 H   0  0  0  0  0
   36.1929   39.5793   30.0852 H   0  0  0  0  0
   36.2994   41.2435   30.7098 H   0  0  0  0  0
   35.5490   40.9336   29.1248 H   0  0  0  0  0
   37.8913   42.8829   29.5605 H   0  0  0  0  0
   38.8480   42.3117   28.1715 H   0  0  0  0  0
   37.0856   42.5134   28.0161 H   0  0  0  0  0
   40.0553   39.6834   28.1837 H   0  0  0  0  0
  1  2  1  0  0  0
  2  3  1  0  0  0
  2  5  1  0  0  0
  3  4  2  0  0  0
  3  9  1  0  0  0
  5  6  1  0  0  0
  5  7  1  0  0  0
  6  8  1  0  0  0
  9 10  1  0  0  0
 10 11  1  0  0  0
 10 13  1  0  0  0
 11 12  2  0  0  0
 11 17  1  0  0  0
 13 14  1  0  0  0
 14 15  1  0  0  0
 14 16  1  0  0  0
 17 18  1  0  0  0
 18 19  1  0  0  0
 18 21  1  0  0  0
 19 20  2  0  0  0
 19 26  1  0  0  0
 21 22  1  0  0  0
 22 23  1  0  0  0
 23 24  1  0  0  0
 24 25  1  0  0  0
 26 27  1  0  0  0
 27 28  1  0  0  0
 27 30  1  0  0  0
 28 29  2  0  0  0
 28 35  1  0  0  0
 30 31  1  0  0  0
 31 32  1  0  0  0
 32 33  1  0  0  0
 32 34  2  0  0  0
 35 36  1  0  0  0
 35 41  1  0  0  0
 36 37  1  0  0  0
 36 39  1  0  0  0
 37 38  2  0  0  0
 37 42  1  0  0  0
 39 40  1  0  0  0
 40 41  1  0  0  0
 42 43  1  0  0  0
 43 44  1  0  0  0
 43 46  1  0  0  0
 44 45  2  0  0  0
 44 49  1  0  0  0
 46 47  1  0  0  0
 46 48  1  0  0  0
 49 50  1  0  0  0
 50 51  1  0  0  0
 50 53  1  0  0  0
 51 52  2  0  0  0
 51 59  1  0  0  0
 53 54  1  0  0  0
 54 55  4  0  0  0
 54 56  4  0  0  0
 55 57  4  0  0  0
 56 58  4  0  0  0
 57 58  4  0  0  0
 59 60  1  0  0  0
 60 61  1  0  0  0
 61 62  2  0  0  0
 61 63  1  0  0  0
 63 64  1  0  0  0
 64 65  1  0  0  0
 64 67  1  0  0  0
 65 66  2  0  0  0
 65 70  1  0  0  0
 67 68  1  0  0  0
 67 69  1  0  0  0
  1 71  1  0  0  0
  1 72  1  0  0  0
  1 73  1  0  0  0
  2 74  1  0  0  0
  5 75  1  0  0  0
  6 76  1  0  0  0
  6 77  1  0  0  0
  7 78  1  0  0  0
  7 79  1  0  0  0
  7 80  1  0  0  0
  8 81  1  0  0  0
  8 82  1  0  0  0
  8 83  1  0  0  0
  9 84  1  0  0  0
 10 85  1  0  0  0
 13 86  1  0  0  0
 13 87  1  0  0  0
 14 88  1  0  0  0
 15 89  1  0  0  0
 15 90  1  0  0  0
 15 91  1  0  0  0
 16 92  1  0  0  0
 16 93  1  0  0  0
 16 94  1  0  0  0
 17 95  1  0  0  0
 18 96  1  0  0  0
 21 97  1  0  0  0
 21 98  1  0  0  0
 22 99  1  0  0  0
 22100  1  0  0  0
 23101  1  0  0  0
 23102  1  0  0  0
 24103  1  0  0  0
 24104  1  0  0  0
 25105  1  0  0  0
 25106  1  0  0  0
 25107  1  0  0  0
 26108  1  0  0  0
 27109  1  0  0  0
 30110  1  0  0  0
 30111  1  0  0  0
 31112  1  0  0  0
 31113  1  0  0  0
 33114  1  0  0  0
 36115  1  0  0  0
 39116  1  0  0  0
 39117  1  0  0  0
 40118  1  0  0  0
 40119  1  0  0  0
 41120  1  0  0  0
 41121  1  0  0  0
 42122  1  0  0  0
 43123  1  0  0  0
 46124  1  0  0  0
 47125  1  0  0  0
 47126  1  0  0  0
 47127  1  0  0  0
 48128  1  0  0  0
 48129  1  0  0  0
 48130  1  0  0  0
 49131  1  0  0  0
 50132  1  0  0  0
 53133  1  0  0  0
 53134  1  0  0  0
 56135  1  0  0  0
 57136  1  0  0  0
 59137  1  0  0  0
 60138  1  0  0  0
 60139  1  0  0  0
 63140  1  0  0  0
 64141  1  0  0  0
 67142  1  0  0  0
 68143  1  0  0  0
 68144  1  0  0  0
 68145  1  0  0  0
 69146  1  0  0  0
 69147  1  0  0  0
 69148  1  0  0  0
 70149  1  0  0  0
M  END
$$$$
