6f4n_ligand
  -I-interpret- 

 16 15  0  0  0  0  0  0  0  0999 V2000
  -37.5890    8.4910  -47.4610 C   0  0  0  0  0
  -37.9230    7.5520  -48.2320 O   0  0  0  0  0
  -38.3310    8.8190  -46.5010 O   0  0  0  0  0
  -36.2810    9.2370  -47.6760 C   0  0  0  0  0
  -35.5460    8.9910  -48.5710 O   0  0  0  0  0
  -36.0240   10.3120  -46.6170 C   0  0  0  0  0
  -34.7650   11.1270  -46.9210 C   0  0  0  0  0
  -34.4500   12.1170  -45.7890 C   0  0  0  0  0
  -33.2910   12.6190  -45.7250 O   0  0  0  0  0
  -35.3880   12.3620  -44.9890 O   0  0  0  0  0
  -37.2475    7.4357  -48.9041 H   0  0  0  0  0
  -35.8858    9.8172  -45.6557 H   0  0  0  0  0
  -36.8760   10.9918  -46.6077 H   0  0  0  0  0
  -34.9319   11.6920  -47.8381 H   0  0  0  0  0
  -33.9248   10.4402  -47.0235 H   0  0  0  0  0
  -32.7555   12.2778  -46.4450 H   0  0  0  0  0
  1  2  1  0  0  0
  1  3  2  0  0  0
  1  4  1  0  0  0
  4  5  2  0  0  0
  4  6  1  0  0  0
  6  7  1  0  0  0
  7  8  1  0  0  0
  8  9  1  0  0  0
  8 10  2  0  0  0
  2 11  1  0  0  0
  6 12  1  0  0  0
  6 13  1  0  0  0
  7 14  1  0  0  0
  7 15  1  0  0  0
  9 16  1  0  0  0
M  END
$$$$
