4erz_ligand
  -I-interpret- 

171173  0  0  0  0  0  0  0  0999 V2000
   40.9970  -18.9920   33.0080 N   0  3  0  0  0
   41.9540  -17.9000   33.1780 C   0  0  0  0  0
   41.8790  -16.9000   32.0240 C   0  0  0  0  0
   42.3080  -17.1950   30.9080 O   0  0  0  0  0
   43.3630  -18.4480   33.3100 C   0  0  0  0  0
   41.3420  -15.7140   32.2980 N   0  0  0  0  0
   41.1870  -14.6910   31.2680 C   0  0  0  0  0
   42.5060  -14.0010   30.9290 C   0  0  0  0  0
   43.1660  -13.4560   31.8110 O   0  0  0  0  0
   40.1420  -13.6570   31.7030 C   0  0  0  0  0
   38.7180  -14.1820   31.5930 C   0  0  0  0  0
   38.3150  -14.7100   30.5510 O   0  0  0  0  0
   37.9540  -14.0510   32.6720 N   0  0  0  0  0
   42.8860  -14.0200   29.6390 N   0  0  0  0  0
   44.1650  -13.4960   29.1440 C   0  0  0  0  0
   44.3830  -12.0330   29.4950 C   0  0  0  0  0
   45.5230  -11.6330   29.7490 O   0  0  0  0  0
   44.0320  -13.6350   27.6270 C   0  0  0  0  0
   43.0460  -14.7150   27.4320 C   0  0  0  0  0
   42.0740  -14.5990   28.5550 C   0  0  0  0  0
   43.3090  -11.2480   29.4990 N   0  0  0  0  0
   43.4090   -9.8290   29.8090 C   0  0  0  0  0
   43.1290   -9.5160   31.2710 C   0  0  0  0  0
   43.0480   -8.3450   31.6480 O   0  0  0  0  0
   42.4790   -9.0150   28.9070 C   0  0  0  0  0
   42.7890   -9.1590   27.4550 C   0  0  0  0  0
   42.2210  -10.1350   26.6660 N   0  0  0  0  0
   43.6290   -8.4640   26.6520 C   0  0  0  0  0
   42.6900  -10.0290   25.4350 C   0  0  0  0  0
   43.5430   -9.0210   25.4010 N   0  0  0  0  0
   42.9730  -10.5610   32.0840 N   0  0  0  0  0
   42.9170  -10.4010   33.5260 C   0  0  0  0  0
   41.5410  -10.3310   34.1710 C   0  0  0  0  0
   41.4060  -10.6070   35.3600 O   0  0  0  0  0
   40.5230   -9.9490   33.4080 N   0  0  0  0  0
   39.1750   -9.8280   33.9720 C   0  0  0  0  0
   38.1320  -10.0750   32.9050 C   0  0  0  0  0
   38.3160   -9.6840   31.7630 O   0  0  0  0  0
   38.9740   -8.4440   34.5880 C   0  0  0  0  0
   37.0250  -10.7000   33.2900 N   0  0  0  0  0
   35.9770  -11.0560   32.3410 C   0  0  0  0  0
   35.4680   -9.8770   31.5090 C   0  0  0  0  0
   35.2290  -10.0120   30.3030 O   0  0  0  0  0
   34.8220  -11.7450   33.0620 C   0  0  0  0  0
   35.2840   -8.7200   32.1380 N   0  0  0  0  0
   34.7610   -7.5830   31.3870 C   0  0  0  0  0
   35.7460   -7.1280   30.3000 C   0  0  0  0  0
   35.3420   -6.5160   29.3220 O   0  0  0  0  0
   34.3590   -6.4250   32.3110 C   0  0  0  0  0
   33.5340   -5.3670   31.5770 C   0  0  0  0  0
   33.1510   -4.2250   32.4860 C   0  0  0  0  0
   32.2970   -4.6660   33.5810 N   0  0  0  0  0
   30.9690   -4.6400   33.5450 C   0  0  0  0  0
   30.3470   -4.2000   32.4620 N   0  0  0  0  0
   30.2630   -5.0520   34.5950 N   0  0  0  0  0
   37.0260   -7.4670   30.4570 N   0  0  0  0  0
   38.0550   -7.0500   29.5050 C   0  0  0  0  0
   38.2000   -8.0200   28.3280 C   0  0  0  0  0
   39.0850   -7.8500   27.4870 O   0  0  0  0  0
   39.3890   -6.8530   30.2110 C   0  0  0  0  0
   37.3230   -9.0200   28.2650 N   0  0  0  0  0
   37.3560  -10.0080   27.1830 C   0  0  0  0  0
   36.1080   -9.9300   26.3170 C   0  0  0  0  0
   35.0670   -9.4550   26.7600 O   0  0  0  0  0
   37.4220  -11.4280   27.7520 C   0  0  0  0  0
   38.4080  -11.6310   28.8870 C   0  0  0  0  0
   39.8530  -11.5820   28.4340 C   0  0  0  0  0
   40.1090  -11.4840   27.2070 O   0  0  0  0  0
   40.7370  -11.6510   29.3160 O   0  0  0  0  0
   36.2130  -10.4230   25.0850 N   0  0  0  0  0
   35.0300  -10.6640   24.2600 C   0  0  0  0  0
   34.4230  -12.0010   24.6770 C   0  0  0  0  0
   35.1400  -12.8750   25.1670 O   0  0  0  0  0
   35.3920  -10.6740   22.7790 C   0  0  0  0  0
   36.0290   -9.3610   22.4160 C   0  0  0  0  0
   36.3660  -11.8020   22.4740 C   0  0  0  0  0
   33.1110  -12.1670   24.5110 N   0  0  0  0  0
   32.4560  -13.4190   24.9200 C   0  0  0  0  0
   32.0340  -14.2920   23.7300 C   0  0  0  0  0
   31.0160  -14.0390   23.0860 O   0  0  0  0  0
   31.2670  -13.1430   25.8570 C   0  0  0  0  0
   30.4760  -14.3780   26.2570 C   0  0  0  0  0
   31.0520  -15.3810   27.0280 C   0  0  0  0  0
   29.1510  -14.5300   25.8680 C   0  0  0  0  0
   30.3310  -16.5070   27.3900 C   0  0  0  0  0
   28.4210  -15.6470   26.2280 C   0  0  0  0  0
   29.0160  -16.6320   26.9860 C   0  0  0  0  0
   28.2850  -17.7460   27.3370 O   0  0  0  0  0
   32.7412  -15.2836   23.4072 O   0  0  0  0  0
   40.0562  -18.6076   32.9209 H   0  0  0  0  0
   41.2298  -19.5185   32.1660 H   0  0  0  0  0
   41.0396  -19.6092   33.8190 H   0  0  0  0  0
   41.6915  -17.3699   34.0936 H   0  0  0  0  0
   43.6443  -18.9503   32.3844 H   0  0  0  0  0
   44.0539  -17.6276   33.5041 H   0  0  0  0  0
   43.3993  -19.1583   34.1359 H   0  0  0  0  0
   41.0316  -15.5150   33.2490 H   0  0  0  0  0
   40.8465  -15.1934   30.3626 H   0  0  0  0  0
   40.2322  -12.7921   31.0458 H   0  0  0  0  0
   40.3288  -13.4107   32.7482 H   0  0  0  0  0
   36.9932  -14.3932   32.6612 H   0  0  0  0  0
   38.3283  -13.6083   33.5112 H   0  0  0  0  0
   45.0086  -14.0287   29.5830 H   0  0  0  0  0
   44.9869  -13.8677   27.1558 H   0  0  0  0  0
   43.7107  -12.7035   27.1610 H   0  0  0  0  0
   43.5290  -15.6921   27.4300 H   0  0  0  0  0
   42.5457  -14.6207   26.4682 H   0  0  0  0  0
   41.2086  -13.9862   28.3025 H   0  0  0  0  0
   41.6273  -15.5553   28.8270 H   0  0  0  0  0
   42.3967  -11.6485   29.2804 H   0  0  0  0  0
   44.4437   -9.5442   29.6182 H   0  0  0  0  0
   42.6046   -7.9641   29.1677 H   0  0  0  0  0
   41.4644   -9.3808   29.0647 H   0  0  0  0  0
   44.2553   -7.6211   26.9442 H   0  0  0  0  0
   42.4192  -10.6646   24.5919 H   0  0  0  0  0
   42.8910  -11.4954   31.6834 H   0  0  0  0  0
   43.3879   -9.4401   33.7334 H   0  0  0  0  0
   43.3900  -11.2920   33.9390 H   0  0  0  0  0
   40.6802   -9.7383   32.4225 H   0  0  0  0  0
   39.0632  -10.5790   34.7540 H   0  0  0  0  0
   39.7053   -8.2913   35.3817 H   0  0  0  0  0
   39.1061   -7.6828   33.8191 H   0  0  0  0  0
   37.9677   -8.3742   35.0010 H   0  0  0  0  0
   36.9050  -10.9370   34.2748 H   0  0  0  0  0
   36.4315  -11.7464   31.6304 H   0  0  0  0  0
   35.1866  -12.6505   33.5470 H   0  0  0  0  0
   34.4096  -11.0704   33.8123 H   0  0  0  0  0
   34.0477  -12.0045   32.3400 H   0  0  0  0  0
   35.5048   -8.6285   33.1296 H   0  0  0  0  0
   33.8534   -7.9171   30.8842 H   0  0  0  0  0
   35.2688   -5.9520   32.6806 H   0  0  0  0  0
   33.7517   -6.8298   33.1206 H   0  0  0  0  0
   32.6201   -5.8367   31.2133 H   0  0  0  0  0
   34.1365   -4.9681   30.7609 H   0  0  0  0  0
   32.6014   -3.4897   31.8984 H   0  0  0  0  0
   34.0629   -3.8055   32.9110 H   0  0  0  0  0
   32.7462   -5.0162   34.4272 H   0  0  0  0  0
   30.8872   -3.8818   31.6574 H   0  0  0  0  0
   29.2437   -5.0287   34.5651 H   0  0  0  0  0
   30.7411   -5.3911   35.4297 H   0  0  0  0  0
   37.2947   -8.0322   31.2625 H   0  0  0  0  0
   37.7318   -6.0969   29.0863 H   0  0  0  0  0
   39.2833   -6.0848   30.9770 H   0  0  0  0  0
   39.6951   -7.7907   30.6749 H   0  0  0  0  0
   40.1406   -6.5430   29.4850 H   0  0  0  0  0
   36.6092   -9.1005   28.9891 H   0  0  0  0  0
   38.2400   -9.7848   26.5856 H   0  0  0  0  0
   37.7489  -12.0742   26.9373 H   0  0  0  0  0
   36.4337  -11.6468   28.1563 H   0  0  0  0  0
   38.2268  -12.6188   29.3108 H   0  0  0  0  0
   38.2581  -10.8243   29.6046 H   0  0  0  0  0
   39.2874  -11.4457   26.7119 H   0  0  0  0  0
   37.1368  -10.6369   24.7091 H   0  0  0  0  0
   34.3059   -9.8631   24.4095 H   0  0  0  0  0
   34.4832  -10.8259   22.1967 H   0  0  0  0  0
   35.3278   -8.5508   22.6161 H   0  0  0  0  0
   36.9303   -9.2187   23.0123 H   0  0  0  0  0
   36.2890   -9.3651   21.3575 H   0  0  0  0  0
   37.2749  -11.6638   23.0596 H   0  0  0  0  0
   35.9072  -12.7563   22.7326 H   0  0  0  0  0
   36.6113  -11.7913   21.4120 H   0  0  0  0  0
   32.5557  -11.4186   24.0963 H   0  0  0  0  0
   33.2025  -13.9913   25.4707 H   0  0  0  0  0
   30.5827  -12.4879   25.3179 H   0  0  0  0  0
   31.6763  -12.7170   26.7731 H   0  0  0  0  0
   32.0875  -15.2798   27.3529 H   0  0  0  0  0
   28.6779  -13.7532   25.2672 H   0  0  0  0  0
   30.7979  -17.2887   27.9893 H   0  0  0  0  0
   27.3819  -15.7481   25.9145 H   0  0  0  0  0
   27.3981  -17.6718   26.9772 H   0  0  0  0  0
   33.4932  -15.3457   24.0007 H   0  0  0  0  0
  1  2  1  0  0  0
  2  3  1  0  0  0
  2  5  1  0  0  0
  3  4  2  0  0  0
  3  6  1  0  0  0
  6  7  1  0  0  0
  7  8  1  0  0  0
  7 10  1  0  0  0
  8  9  2  0  0  0
  8 14  1  0  0  0
 10 11  1  0  0  0
 11 12  2  0  0  0
 11 13  1  0  0  0
 14 15  1  0  0  0
 14 20  1  0  0  0
 15 16  1  0  0  0
 15 18  1  0  0  0
 16 17  2  0  0  0
 16 21  1  0  0  0
 18 19  1  0  0  0
 19 20  1  0  0  0
 21 22  1  0  0  0
 22 23  1  0  0  0
 22 25  1  0  0  0
 23 24  2  0  0  0
 23 31  1  0  0  0
 25 26  1  0  0  0
 26 27  4  0  0  0
 26 28  4  0  0  0
 27 29  4  0  0  0
 28 30  4  0  0  0
 29 30  4  0  0  0
 31 32  1  0  0  0
 32 33  1  0  0  0
 33 34  2  0  0  0
 33 35  1  0  0  0
 35 36  1  0  0  0
 36 37  1  0  0  0
 36 39  1  0  0  0
 37 38  2  0  0  0
 37 40  1  0  0  0
 40 41  1  0  0  0
 41 42  1  0  0  0
 41 44  1  0  0  0
 42 43  2  0  0  0
 42 45  1  0  0  0
 45 46  1  0  0  0
 46 47  1  0  0  0
 46 49  1  0  0  0
 47 48  2  0  0  0
 47 56  1  0  0  0
 49 50  1  0  0  0
 50 51  1  0  0  0
 51 52  1  0  0  0
 52 53  1  0  0  0
 53 54  2  0  0  0
 53 55  1  0  0  0
 56 57  1  0  0  0
 57 58  1  0  0  0
 57 60  1  0  0  0
 58 59  2  0  0  0
 58 61  1  0  0  0
 61 62  1  0  0  0
 62 63  1  0  0  0
 62 65  1  0  0  0
 63 64  2  0  0  0
 63 70  1  0  0  0
 65 66  1  0  0  0
 66 67  1  0  0  0
 67 68  1  0  0  0
 67 69  2  0  0  0
 70 71  1  0  0  0
 71 72  1  0  0  0
 71 74  1  0  0  0
 72 73  2  0  0  0
 72 77  1  0  0  0
 74 75  1  0  0  0
 74 76  1  0  0  0
 77 78  1  0  0  0
 78 79  1  0  0  0
 78 81  1  0  0  0
 79 80  2  0  0  0
 81 82  1  0  0  0
 82 83  4  0  0  0
 82 84  4  0  0  0
 83 85  4  0  0  0
 84 86  4  0  0  0
 85 87  4  0  0  0
 86 87  4  0  0  0
 87 88  1  0  0  0
 79 89  1  0  0  0
  1 90  1  0  0  0
  1 91  1  0  0  0
  1 92  1  0  0  0
  2 93  1  0  0  0
  5 94  1  0  0  0
  5 95  1  0  0  0
  5 96  1  0  0  0
  6 97  1  0  0  0
  7 98  1  0  0  0
 10 99  1  0  0  0
 10100  1  0  0  0
 13101  1  0  0  0
 13102  1  0  0  0
 15103  1  0  0  0
 18104  1  0  0  0
 18105  1  0  0  0
 19106  1  0  0  0
 19107  1  0  0  0
 20108  1  0  0  0
 20109  1  0  0  0
 21110  1  0  0  0
 22111  1  0  0  0
 25112  1  0  0  0
 25113  1  0  0  0
 28114  1  0  0  0
 29115  1  0  0  0
 31116  1  0  0  0
 32117  1  0  0  0
 32118  1  0  0  0
 35119  1  0  0  0
 36120  1  0  0  0
 39121  1  0  0  0
 39122  1  0  0  0
 39123  1  0  0  0
 40124  1  0  0  0
 41125  1  0  0  0
 44126  1  0  0  0
 44127  1  0  0  0
 44128  1  0  0  0
 45129  1  0  0  0
 46130  1  0  0  0
 49131  1  0  0  0
 49132  1  0  0  0
 50133  1  0  0  0
 50134  1  0  0  0
 51135  1  0  0  0
 51136  1  0  0  0
 52137  1  0  0  0
 54138  1  0  0  0
 55139  1  0  0  0
 55140  1  0  0  0
 56141  1  0  0  0
 57142  1  0  0  0
 60143  1  0  0  0
 60144  1  0  0  0
 60145  1  0  0  0
 61146  1  0  0  0
 62147  1  0  0  0
 65148  1  0  0  0
 65149  1  0  0  0
 66150  1  0  0  0
 66151  1  0  0  0
 68152  1  0  0  0
 70153  1  0  0  0
 71154  1  0  0  0
 74155  1  0  0  0
 75156  1  0  0  0
 75157  1  0  0  0
 75158  1  0  0  0
 76159  1  0  0  0
 76160  1  0  0  0
 76161  1  0  0  0
 77162  1  0  0  0
 78163  1  0  0  0
 81164  1  0  0  0
 81165  1  0  0  0
 83166  1  0  0  0
 84167  1  0  0  0
 85168  1  0  0  0
 86169  1  0  0  0
 88170  1  0  0  0
 89171  1  0  0  0
M  END
$$$$
