### 
### Created by X-TOOL on Mon Sep 10 21:13:09 2018
### 

@<TRIPOS>MOLECULE
4erz_ligand
  171   173     1     0     0
SMALL
GAST_HUCK


@<TRIPOS>ATOM
      1 N          40.9970  -18.9920   33.0080 N.4       1 LEU         0.2377
      2 CA         41.9540  -17.9000   33.1780 C.3       1 LEU         0.0621
      3 C          41.8790  -16.9000   32.0240 C.2       1 LEU         0.2265
      4 O          42.3080  -17.1950   30.9080 O.2       1 LEU        -0.3907
      5 CB         43.3630  -18.4480   33.3100 C.3       1 LEU        -0.0040
      6 N          41.3420  -15.7140   32.2980 N.am      1 ASN        -0.2589
      7 CA         41.1870  -14.6910   31.2680 C.3       1 ASN         0.1479
      8 C          42.5060  -14.0010   30.9290 C.2       1 ASN         0.2088
      9 O          43.1660  -13.4560   31.8110 O.2       1 ASN        -0.3940
     10 CB         40.1420  -13.6570   31.7030 C.3       1 ASN         0.0773
     11 CG         38.7180  -14.1820   31.5930 C.2       1 ASN         0.1780
     12 OD1        38.3150  -14.7100   30.5510 O.2       1 ASN        -0.3970
     13 ND2        37.9540  -14.0510   32.6720 N.am      1 ASN        -0.3007
     14 N          42.8860  -14.0200   29.6390 N.am      1 PRO        -0.2497
     15 CA         44.1650  -13.4960   29.1440 C.3       1 PRO         0.1338
     16 C          44.3830  -12.0330   29.4950 C.2       1 PRO         0.2042
     17 O          45.5230  -11.6330   29.7490 O.2       1 PRO        -0.3944
     18 CB         44.0320  -13.6350   27.6270 C.3       1 PRO        -0.0104
     19 CG         43.0460  -14.7150   27.4320 C.3       1 PRO        -0.0281
     20 CD         42.0740  -14.5990   28.5550 C.3       1 PRO         0.0369
     21 N          43.3090  -11.2480   29.4990 N.am      1 HIS        -0.2625
     22 CA         43.4090   -9.8290   29.8090 C.3       1 HIS         0.1369
     23 C          43.1290   -9.5160   31.2710 C.2       1 HIS         0.2052
     24 O          43.0480   -8.3450   31.6480 O.2       1 HIS        -0.3942
     25 CB         42.4790   -9.0150   28.9070 C.3       1 HIS         0.0145
     26 CG         42.7890   -9.1590   27.4550 C.2       1 HIS        -0.0027
     27 ND1        42.2210  -10.1350   26.6660 N.2       1 HIS        -0.3252
     28 CD2        43.6290   -8.4640   26.6520 C.2       1 HIS         0.0291
     29 CE1        42.6900  -10.0290   25.4350 C.2       1 HIS         0.0907
     30 NE2        43.5430   -9.0210   25.4010 N.pl3     1 HIS        -0.2752
     31 N          42.9730  -10.5610   32.0840 N.am      1 GLY        -0.2663
     32 CA         42.9170  -10.4010   33.5260 C.3       1 GLY         0.1201
     33 C          41.5410  -10.3310   34.1710 C.2       1 GLY         0.2007
     34 O          41.4060  -10.6070   35.3600 O.2       1 GLY        -0.3947
     35 N          40.5230   -9.9490   33.4080 N.am      1 ALA        -0.2642
     36 CA         39.1750   -9.8280   33.9720 C.3       1 ALA         0.1282
     37 C          38.1320  -10.0750   32.9050 C.2       1 ALA         0.2036
     38 O          38.3160   -9.6840   31.7630 O.2       1 ALA        -0.3944
     39 CB         38.9740   -8.4440   34.5880 C.3       1 ALA        -0.0244
     40 N          37.0250  -10.7000   33.2900 N.am      1 ALA        -0.2640
     41 CA         35.9770  -11.0560   32.3410 C.3       1 ALA         0.1282
     42 C          35.4680   -9.8770   31.5090 C.2       1 ALA         0.2036
     43 O          35.2290  -10.0120   30.3030 O.2       1 ALA        -0.3944
     44 CB         34.8220  -11.7450   33.0620 C.3       1 ALA        -0.0244
     45 N          35.2840   -8.7200   32.1380 N.am      1 ARG        -0.2637
     46 CA         34.7610   -7.5830   31.3870 C.3       1 ARG         0.1311
     47 C          35.7460   -7.1280   30.3000 C.2       1 ARG         0.2039
     48 O          35.3420   -6.5160   29.3220 O.2       1 ARG        -0.3944
     49 CB         34.3590   -6.4250   32.3110 C.3       1 ARG        -0.0092
     50 CG         33.5340   -5.3670   31.5770 C.3       1 ARG        -0.0156
     51 CD         33.1510   -4.2250   32.4860 C.3       1 ARG         0.0627
     52 NE         32.2970   -4.6660   33.5810 N.pl3     1 ARG        -0.2723
     53 CZ         30.9690   -4.6400   33.5450 C.cat     1 ARG         0.2882
     54 NH1        30.3470   -4.2000   32.4620 N.pl3     1 ARG        -0.2849
     55 NH2        30.2630   -5.0520   34.5950 N.pl3     1 ARG        -0.2849
     56 N          37.0260   -7.4670   30.4570 N.am      1 ALA        -0.2640
     57 CA         38.0550   -7.0500   29.5050 C.3       1 ALA         0.1282
     58 C          38.2000   -8.0200   28.3280 C.2       1 ALA         0.2036
     59 O          39.0850   -7.8500   27.4870 O.2       1 ALA        -0.3944
     60 CB         39.3890   -6.8530   30.2110 C.3       1 ALA        -0.0244
     61 N          37.3230   -9.0200   28.2650 N.am      1 GLU        -0.2636
     62 CA         37.3560  -10.0080   27.1830 C.3       1 GLU         0.1325
     63 C          36.1080   -9.9300   26.3170 C.2       1 GLU         0.2040
     64 O          35.0670   -9.4550   26.7600 O.2       1 GLU        -0.3944
     65 CB         37.4220  -11.4280   27.7520 C.3       1 GLU        -0.0008
     66 CG         38.4080  -11.6310   28.8870 C.3       1 GLU         0.0044
     67 CD         39.8530  -11.5820   28.4340 C.2       1 GLU         0.0350
     68 OE1        40.1090  -11.4840   27.2070 O.co2     1 GLU        -0.5690
     69 OE2        40.7370  -11.6510   29.3160 O.co2     1 GLU        -0.5690
     70 N          36.2130  -10.4230   25.0850 N.am      1 VAL        -0.2635
     71 CA         35.0300  -10.6640   24.2600 C.3       1 VAL         0.1332
     72 C          34.4230  -12.0010   24.6770 C.2       1 VAL         0.2038
     73 O          35.1400  -12.8750   25.1670 O.2       1 VAL        -0.3944
     74 CB         35.3920  -10.6740   22.7790 C.3       1 VAL        -0.0063
     75 CG1        36.0290   -9.3610   22.4160 C.3       1 VAL        -0.0584
     76 CG2        36.3660  -11.8020   22.4740 C.3       1 VAL        -0.0584
     77 N          33.1110  -12.1670   24.5110 N.am      1 TYR        -0.2655
     78 CA         32.4560  -13.4190   24.9200 C.3       1 TYR         0.1306
     79 C          32.0340  -14.2920   23.7300 C.2       1 TYR         0.2167
     80 O          31.0160  -14.0390   23.0860 O.co2     1 TYR        -0.4118
     81 CB         31.2670  -13.1430   25.8570 C.3       1 TYR         0.0132
     82 CG         30.4760  -14.3780   26.2570 C.ar      1 TYR        -0.0498
     83 CD1        31.0520  -15.3810   27.0280 C.ar      1 TYR        -0.0686
     84 CD2        29.1510  -14.5300   25.8680 C.ar      1 TYR        -0.0686
     85 CE1        30.3310  -16.5070   27.3900 C.ar      1 TYR        -0.0398
     86 CE2        28.4210  -15.6470   26.2280 C.ar      1 TYR        -0.0398
     87 CZ         29.0160  -16.6320   26.9860 C.ar      1 TYR         0.0805
     88 OH         28.2850  -17.7460   27.3370 O.3       1 TYR        -0.3376
     89 H          41.0740  -19.6301   33.7845 H         1 LEU         0.2015
     90 H          41.1952  -19.4819   32.1496 H         1 LEU         0.2015
     91 H          40.0620  -18.6170   32.9728 H         1 LEU         0.2015
     92 H          41.7020  -17.3678   34.1071 H         1 LEU         0.1095
     93 H          44.0700  -17.6149   33.4370 H         1 LEU         0.0310
     94 H          43.6227  -19.0142   32.4034 H         1 LEU         0.0310
     95 H          43.4177  -19.1120   34.1853 H         1 LEU         0.0310
     96 H          41.0377  -15.5189   33.2304 H         1 ASN         0.1886
     97 H          40.8225  -15.1853   30.3554 H         1 ASN         0.0826
     98 H          40.2397  -12.7671   31.0639 H         1 ASN         0.0551
     99 H          40.3353  -13.3797   32.7498 H         1 ASN         0.0551
    100 H          37.0090  -14.3779   32.6582 H         1 ASN         0.1814
    101 H          38.3239  -13.6255   33.4979 H         1 ASN         0.1814
    102 H          45.0039  -14.0937   29.5299 H         1 PRO         0.0802
    103 H          44.9981  -13.9066   27.1767 H         1 PRO         0.0313
    104 H          43.6711  -12.6960   27.1821 H         1 PRO         0.0313
    105 H          43.5441  -15.6954   27.4588 H         1 PRO         0.0287
    106 H          42.5310  -14.5915   26.4679 H         1 PRO         0.0287
    107 H          41.2394  -13.9341   28.2881 H         1 PRO         0.0524
    108 H          41.6801  -15.5857   28.8401 H         1 PRO         0.0524
    109 H          42.4146  -11.6406   29.2847 H         1 HIS         0.1885
    110 H          44.4430   -9.5188   29.5976 H         1 HIS         0.0817
    111 H          42.5699   -7.9532   29.1795 H         1 HIS         0.0420
    112 H          41.4454   -9.3503   29.0780 H         1 HIS         0.0420
    113 H          44.2547   -7.6219   26.9440 H         1 HIS         0.0729
    114 H          42.4195  -10.6641   24.5927 H         1 HIS         0.1199
    115 H          44.0606   -8.7040   24.5688 H         1 HIS         0.2361
    116 H          42.8926  -11.4771   31.6912 H         1 GLY         0.1881
    117 H          43.4456   -9.4691   33.7751 H         1 GLY         0.0763
    118 H          43.4477  -11.2544   33.9733 H         1 GLY         0.0763
    119 H          40.6771   -9.7424   32.4418 H         1 ALA         0.1883
    120 H          39.0568  -10.5847   34.7615 H         1 ALA         0.0797
    121 H          37.9587   -8.3723   35.0052 H         1 ALA         0.0277
    122 H          39.1070   -7.6748   33.8130 H         1 ALA         0.0277
    123 H          39.7114   -8.2886   35.3893 H         1 ALA         0.0277
    124 H          36.9074  -10.9323   34.2555 H         1 ALA         0.1883
    125 H          36.4118  -11.7813   31.6376 H         1 ALA         0.0797
    126 H          34.0399  -12.0074   32.3343 H         1 ALA         0.0277
    127 H          34.4048  -11.0652   33.8195 H         1 ALA         0.0277
    128 H          35.1886  -12.6591   33.5518 H         1 ALA         0.0277
    129 H          35.5005   -8.6303   33.1102 H         1 ARG         0.1883
    130 H          33.8475   -7.9226   30.8770 H         1 ARG         0.0800
    131 H          35.2706   -5.9532   32.7065 H         1 ARG         0.0313
    132 H          33.7625   -6.8257   33.1439 H         1 ARG         0.0313
    133 H          32.6177   -5.8359   31.1891 H         1 ARG         0.0301
    134 H          34.1267   -4.9716   30.7389 H         1 ARG         0.0301
    135 H          32.6125   -3.4673   31.8979 H         1 ARG         0.0689
    136 H          34.0662   -3.7815   32.9051 H         1 ARG         0.0689
    137 H          32.7506   -5.0196   34.4355 H         1 ARG         0.2642
    138 H          29.3176   -4.1790   32.4320 H         1 ARG         0.2615
    139 H          30.8925   -3.8787   31.6495 H         1 ARG         0.2615
    140 H          30.7458   -5.3944   35.4379 H         1 ARG         0.2615
    141 H          29.2337   -5.0285   34.5648 H         1 ARG         0.2615
    142 H          37.2894   -8.0211   31.2467 H         1 ALA         0.1883
    143 H          37.7468   -6.0779   29.0927 H         1 ALA         0.0797
    144 H          40.1484   -6.5401   29.4793 H         1 ALA         0.0277
    145 H          39.6991   -7.7987   30.6796 H         1 ALA         0.0277
    146 H          39.2837   -6.0778   30.9843 H         1 ALA         0.0277
    147 H          36.6232   -9.0990   28.9749 H         1 GLU         0.1883
    148 H          38.2435   -9.8194   26.5611 H         1 GLU         0.0801
    149 H          37.7018  -12.1083   26.9342 H         1 GLU         0.0330
    150 H          36.4203  -11.6919   28.1220 H         1 GLU         0.0330
    151 H          38.2177  -12.6129   29.3449 H         1 GLU         0.0433
    152 H          38.2485  -10.8405   29.6351 H         1 GLU         0.0433
    153 H          37.1187  -10.6327   24.7164 H         1 VAL         0.1883
    154 H          34.2971   -9.8632   24.4374 H         1 VAL         0.0802
    155 H          34.4775  -10.8149   22.1842 H         1 VAL         0.0343
    156 H          36.2919   -9.3639   21.3479 H         1 VAL         0.0234
    157 H          36.9388   -9.2162   23.0171 H         1 VAL         0.0234
    158 H          35.3223   -8.5425   22.6174 H         1 VAL         0.0234
    159 H          35.9053  -12.7655   22.7376 H         1 VAL         0.0234
    160 H          37.2850  -11.6619   23.0620 H         1 VAL         0.0234
    161 H          36.6119  -11.7943   21.4019 H         1 VAL         0.0234
    162 H          32.5666  -11.4333   24.1044 H         1 TYR         0.1878
    163 H          33.1968  -13.9957   25.4932 H         1 TYR         0.0772
    164 O1         32.7412  -15.2836   23.4072 O.co2     1 TYR        -0.4118
    165 H          30.5832  -12.4478   25.3479 H         1 TYR         0.0446
    166 H          31.6540  -12.6721   26.7727 H         1 TYR         0.0446
    167 H          32.0818  -15.2804   27.3511 H         1 TYR         0.0530
    168 H          28.6805  -13.7575   25.2705 H         1 TYR         0.0530
    169 H          30.7953  -17.2844   27.9860 H         1 TYR         0.0525
    170 H          27.3877  -15.7475   25.9163 H         1 TYR         0.0525
    171 H          28.8276  -18.3293   27.8545 H         1 TYR         0.2458
@<TRIPOS>BOND
     1    1    2 1  
     2    2    3 1  
     3    2    5 1  
     4    3    4 2  
     5    3    6 am 
     6    6    7 1  
     7    7    8 1  
     8    7   10 1  
     9    8    9 2  
    10    8   14 am 
    11   10   11 1  
    12   11   12 2  
    13   11   13 am 
    14   14   15 1  
    15   14   20 1  
    16   15   16 1  
    17   15   18 1  
    18   16   17 2  
    19   16   21 am 
    20   18   19 1  
    21   19   20 1  
    22   21   22 1  
    23   22   23 1  
    24   22   25 1  
    25   23   24 2  
    26   23   31 am 
    27   25   26 1  
    28   26   27 1  
    29   26   28 2  
    30   27   29 2  
    31   28   30 1  
    32   29   30 1  
    33   31   32 1  
    34   32   33 1  
    35   33   34 2  
    36   33   35 am 
    37   35   36 1  
    38   36   37 1  
    39   36   39 1  
    40   37   38 2  
    41   37   40 am 
    42   40   41 1  
    43   41   42 1  
    44   41   44 1  
    45   42   43 2  
    46   42   45 am 
    47   45   46 1  
    48   46   47 1  
    49   46   49 1  
    50   47   48 2  
    51   47   56 am 
    52   49   50 1  
    53   50   51 1  
    54   51   52 1  
    55   52   53 ar 
    56   53   54 ar 
    57   53   55 ar 
    58   56   57 1  
    59   57   58 1  
    60   57   60 1  
    61   58   59 2  
    62   58   61 am 
    63   61   62 1  
    64   62   63 1  
    65   62   65 1  
    66   63   64 2  
    67   63   70 am 
    68   65   66 1  
    69   66   67 1  
    70   67   68 ar 
    71   67   69 ar 
    72   70   71 1  
    73   71   72 1  
    74   71   74 1  
    75   72   73 2  
    76   72   77 am 
    77   74   75 1  
    78   74   76 1  
    79   77   78 1  
    80   78   79 1  
    81   78   81 1  
    82   79   80 ar 
    83   81   82 1  
    84   82   83 ar 
    85   82   84 ar 
    86   83   85 ar 
    87   84   86 ar 
    88   85   87 ar 
    89   86   87 ar 
    90   87   88 1  
    91    1   89 1  
    92    1   90 1  
    93    1   91 1  
    94    2   92 1  
    95    5   93 1  
    96    5   94 1  
    97    5   95 1  
    98    6   96 1  
    99    7   97 1  
   100   10   98 1  
   101   10   99 1  
   102   13  100 1  
   103   13  101 1  
   104   15  102 1  
   105   18  103 1  
   106   18  104 1  
   107   19  105 1  
   108   19  106 1  
   109   20  107 1  
   110   20  108 1  
   111   21  109 1  
   112   22  110 1  
   113   25  111 1  
   114   25  112 1  
   115   28  113 1  
   116   29  114 1  
   117   30  115 1  
   118   31  116 1  
   119   32  117 1  
   120   32  118 1  
   121   35  119 1  
   122   36  120 1  
   123   39  121 1  
   124   39  122 1  
   125   39  123 1  
   126   40  124 1  
   127   41  125 1  
   128   44  126 1  
   129   44  127 1  
   130   44  128 1  
   131   45  129 1  
   132   46  130 1  
   133   49  131 1  
   134   49  132 1  
   135   50  133 1  
   136   50  134 1  
   137   51  135 1  
   138   51  136 1  
   139   52  137 1  
   140   54  138 1  
   141   54  139 1  
   142   55  140 1  
   143   55  141 1  
   144   56  142 1  
   145   57  143 1  
   146   60  144 1  
   147   60  145 1  
   148   60  146 1  
   149   61  147 1  
   150   62  148 1  
   151   65  149 1  
   152   65  150 1  
   153   66  151 1  
   154   66  152 1  
   155   70  153 1  
   156   71  154 1  
   157   74  155 1  
   158   75  156 1  
   159   75  157 1  
   160   75  158 1  
   161   76  159 1  
   162   76  160 1  
   163   76  161 1  
   164   77  162 1  
   165   78  163 1  
   166   79  164 ar 
   167   81  165 1  
   168   81  166 1  
   169   83  167 1  
   170   84  168 1  
   171   85  169 1  
   172   86  170 1  
   173   88  171 1  
@<TRIPOS>SUBSTRUCTURE
     1 LEU         1

