5ort_ligand
  -I-interpret- 

 25 26  0  0  0  0  0  0  0  0999 V2000
  -10.4630   12.9540  -17.7580 C   0  0  0  0  0
  -10.2250   11.7900  -17.0530 C   0  0  0  0  0
  -11.1190   11.3670  -16.1040 C   0  0  0  0  0
  -12.2520   12.0970  -15.8390 C   0  0  0  0  0
  -11.7730   14.3290  -20.7710 C   0  0  0  0  0
  -11.5980   13.7200  -17.4950 C   0  0  0  0  0
  -12.4810   13.2770  -16.5220 C   0  0  0  0  0
  -11.9420   15.2530  -19.6150 C   0  0  0  0  0
  -11.8750   14.9800  -18.2230 C   0  0  0  0  0
  -12.2420   16.5620  -19.6720 C   0  0  0  0  0
   -9.3180   13.4910  -18.9330 Cl  0  0  0  0  0
  -13.9130   14.1880  -16.1910 Cl  0  0  0  0  0
  -12.1220   16.0650  -17.5220 N   0  0  0  0  0
  -12.3380   17.0630  -18.4120 O   0  0  0  0  0
  -13.0270   13.7440  -21.1130 O   0  0  0  0  0
  -12.4690   17.5210  -20.7760 C   0  0  0  0  0
   -9.3254   11.2074  -17.2516 H   0  0  0  0  0
  -10.9294   10.4444  -15.5555 H   0  0  0  0  0
  -12.9669   11.7477  -15.0940 H   0  0  0  0  0
  -11.0706   13.5405  -20.5008 H   0  0  0  0  0
  -11.3928   14.8887  -21.6256 H   0  0  0  0  0
  -12.9093   13.1504  -21.8582 H   0  0  0  0  0
  -11.5733   17.5799  -21.3943 H   0  0  0  0  0
  -13.3091   17.1826  -21.3825 H   0  0  0  0  0
  -12.6912   18.5043  -20.3615 H   0  0  0  0  0
  1  2  4  0  0  0
  6  1  4  0  0  0
  1 11  1  0  0  0
  2  3  4  0  0  0
  4  3  4  0  0  0
  7  4  4  0  0  0
  8  5  1  0  0  0
  5 15  1  0  0  0
  6  7  4  0  0  0
  9  6  1  0  0  0
  7 12  1  0  0  0
  8  9  4  0  0  0
  8 10  4  0  0  0
  9 13  4  0  0  0
 10 14  4  0  0  0
 10 16  1  0  0  0
 13 14  4  0  0  0
  2 17  1  0  0  0
  3 18  1  0  0  0
  4 19  1  0  0  0
  5 20  1  0  0  0
  5 21  1  0  0  0
 15 22  1  0  0  0
 16 23  1  0  0  0
 16 24  1  0  0  0
 16 25  1  0  0  0
M  END
$$$$
