2m3m_ligand
  -I-interpret- 

196196  0  0  0  0  0  0  0  0999 V2000
   22.3680   -8.6360   18.5260 N   0  3  0  0  0
   22.5120   -7.4040   19.2980 C   0  0  0  0  0
   23.1450   -7.7610   20.6330 C   0  0  0  0  0
   23.2930   -9.2530   20.5690 C   0  0  0  0  0
   23.2520   -9.6290   19.0960 C   0  0  0  0  0
   24.2810   -9.9670   18.5120 O   0  0  0  0  0
   23.3780   -6.4040   18.5310 C   0  0  0  0  0
   24.0560   -5.5370   19.1190 O   0  0  0  0  0
   23.2750   -6.4700   17.2280 N   0  0  0  0  0
   24.0570   -5.6750   16.3200 C   0  0  0  0  0
   23.2060   -4.4890   15.9700 C   0  0  0  0  0
   23.5990   -3.3410   16.1590 O   0  0  0  0  0
   24.3170   -6.5120   15.0840 C   0  0  0  0  0
   24.8350   -7.9040   15.4120 C   0  0  0  0  0
   24.6020   -8.8420   14.2470 C   0  0  0  0  0
   23.1530   -8.9530   13.9970 N   0  0  0  0  0
   22.5550   -9.5090   12.9480 C   0  0  0  0  0
   23.2710  -10.0620   11.9660 N   0  0  0  0  0
   21.2300   -9.4940   12.8890 N   0  0  0  0  0
   22.0200   -4.7840   15.4850 N   0  0  0  0  0
   21.0360   -3.7810   15.2780 C   0  0  0  0  0
   20.2290   -3.7480   16.5710 C   0  0  0  0  0
   20.1620   -4.7600   17.2770 O   0  0  0  0  0
   20.1940   -4.0400   13.9930 C   0  0  0  0  0
   21.0890   -4.4250   12.9400 O   0  0  0  0  0
   19.5560   -2.7490   13.5860 C   0  0  0  0  0
   19.6530   -2.6360   16.9120 N   0  0  0  0  0
   19.1950   -2.4790   18.2640 C   0  0  0  0  0
   18.0700   -1.4890   18.3140 C   0  0  0  0  0
   17.8080   -0.8030   17.3360 O   0  0  0  0  0
   20.4030   -1.9480   19.0290 C   0  0  0  0  0
   20.3380   -1.8930   20.5370 C   0  0  0  0  0
   21.6730   -1.3810   21.0590 C   0  0  0  0  0
   22.7980   -2.2150   20.5570 N   0  0  0  0  0
   23.7040   -1.8310   19.6190 C   0  0  0  0  0
   23.6360   -0.6040   19.0670 N   0  0  0  0  0
   24.6140   -2.7090   19.1740 N   0  0  0  0  0
   17.3930   -1.4540   19.4150 N   0  0  0  0  0
   16.3430   -0.5150   19.6390 C   0  0  0  0  0
   16.9090    0.8080   20.1620 C   0  0  0  0  0
   17.9900    0.8310   20.7420 O   0  0  0  0  0
   15.2320   -1.0810   20.5600 C   0  0  0  0  0
   15.7030   -1.7400   21.8550 C   0  0  0  0  0
   16.2410   -3.1470   21.6650 C   0  0  0  0  0
   17.4250   -3.3390   21.4380 O   0  0  0  0  0
   15.3750   -4.1250   21.7320 N   0  0  0  0  0
   16.1410    1.8810   19.9760 N   0  0  0  0  0
   16.5330    3.2700   20.2740 C   0  0  0  0  0
   17.6470    3.7660   19.3690 C   0  0  0  0  0
   18.3690    4.6890   19.7140 O   0  0  0  0  0
   16.8430    3.5370   21.7670 C   0  0  0  0  0
   15.6030    3.7450   22.6400 C   0  0  0  0  0
   14.7900    2.4790   22.8290 C   0  0  0  0  0
   15.4960    1.4950   23.6670 N   0  0  0  0  0
   14.9010    0.5030   24.3470 C   0  0  0  0  0
   13.5730    0.3430   24.2740 N   0  0  0  0  0
   15.6350   -0.3240   25.1030 N   0  0  0  0  0
   17.7210    3.1870   18.1800 N   0  0  0  0  0
   18.6550    3.6330   17.1570 C   0  0  0  0  0
   18.1950    3.1530   15.8050 C   0  0  0  0  0
   17.6080    2.0630   15.7140 O   0  0  0  0  0
   20.1540    3.2430   17.4660 C   0  0  0  0  0
   20.5520    1.7330   17.4650 C   0  0  0  0  0
   21.4040    1.3010   18.2660 O   0  0  0  0  0
   20.0350    0.9440   16.5600 N   0  0  0  0  0
   18.3910    3.9390   14.7720 N   0  0  0  0  0
   18.0300    3.4970   13.4500 C   0  0  0  0  0
   19.2320    2.8230   12.8190 C   0  0  0  0  0
   20.3580    2.9600   13.3080 O   0  0  0  0  0
   17.4920    4.6450   12.5510 C   0  0  0  0  0
   18.5230    5.5910   11.9380 C   0  0  0  0  0
   19.3600    6.3460   12.9330 C   0  0  0  0  0
   18.8710    6.6650   14.0100 O   0  0  0  0  0
   20.5160    6.6680   12.5980 O   0  0  0  0  0
   19.0150    2.0450   11.8070 N   0  0  0  0  0
   20.1040    1.3950   11.1380 C   0  0  0  0  0
   19.7980    1.2400    9.6460 C   0  0  0  0  0
   18.6420    1.0010    9.2590 O   0  0  0  0  0
   20.4000    0.0180   11.7920 C   0  0  0  0  0
   20.6370    0.2080   13.2030 O   0  0  0  0  0
   21.6340   -0.6420   11.1770 C   0  0  0  0  0
   20.8150    1.4470    8.8230 N   0  0  0  0  0
   20.7120    1.2890    7.3880 C   0  0  0  0  0
   20.5900   -0.1840    7.0370 C   0  0  0  0  0
   21.2660   -1.0350    7.6400 O   0  0  0  0  0
   21.9400    1.8960    6.7030 C   0  0  0  0  0
   21.9500    1.7840    5.1790 C   0  0  0  0  0
   23.2260    2.3270    4.5720 C   0  0  0  0  0
   23.8460    3.2220    5.1110 O   0  0  0  0  0
   23.6190    1.8000    3.4450 N   0  0  0  0  0
   19.7410   -0.4730    6.0930 N   0  0  0  0  0
   19.5010   -1.8140    5.6420 C   0  0  0  0  0
   20.3670   -2.1780    4.4400 C   0  0  0  0  0
   20.1350   -1.6510    3.3140 O   0  0  0  0  0
   18.0000   -2.1020    5.3950 C   0  0  0  0  0
   17.2870   -2.1820    6.7230 C   0  0  0  0  0
   17.3630   -1.0140    4.5490 C   0  0  0  0  0
   21.2960   -3.0010    4.6440 O   0  0  0  0  0
   22.6097   -8.4692   17.5492 H   0  0  0  0  0
   21.4024   -8.9627   18.5619 H   0  0  0  0  0
   21.5408   -6.9381   19.4646 H   0  0  0  0  0
   22.5388   -7.4393   21.4798 H   0  0  0  0  0
   24.0976   -7.2551   20.7900 H   0  0  0  0  0
   22.4936   -9.7482   21.1203 H   0  0  0  0  0
   24.2293   -9.5720   21.0270 H   0  0  0  0  0
   22.8664  -10.6370   18.9432 H   0  0  0  0  0
   24.0763  -10.1684   17.5960 H   0  0  0  0  0
   22.5997   -7.1244   16.8329 H   0  0  0  0  0
   25.0093   -5.3555   16.7433 H   0  0  0  0  0
   25.0778   -6.0041   14.4913 H   0  0  0  0  0
   23.3720   -6.6245   14.5525 H   0  0  0  0  0
   24.3042   -8.2837   16.2850 H   0  0  0  0  0
   25.9048   -7.8464   15.6129 H   0  0  0  0  0
   25.0093   -9.8254   14.4817 H   0  0  0  0  0
   25.0980   -8.4520   13.3582 H   0  0  0  0  0
   22.5398   -8.5582   14.7101 H   0  0  0  0  0
   22.7994  -10.4772   11.1625 H   0  0  0  0  0
   24.2896  -10.0693   12.0193 H   0  0  0  0  0
   20.6909   -9.0617   13.6393 H   0  0  0  0  0
   21.8022   -5.7530   15.2527 H   0  0  0  0  0
   21.4704   -2.8005   15.0831 H   0  0  0  0  0
   19.4458   -4.8111   14.1767 H   0  0  0  0  0
   20.5866   -4.5890   12.1385 H   0  0  0  0  0
   18.9132   -2.3932   14.3911 H   0  0  0  0  0
   20.3312   -2.0097   13.3846 H   0  0  0  0  0
   18.9605   -2.9071   12.6868 H   0  0  0  0  0
   19.5278   -1.8866   16.2315 H   0  0  0  0  0
   18.8208   -3.4118   18.6858 H   0  0  0  0  0
   20.5063   -0.9104   18.7114 H   0  0  0  0  0
   21.2099   -2.6458   18.8050 H   0  0  0  0  0
   20.1381   -2.8868   20.9375 H   0  0  0  0  0
   19.5350   -1.2261   20.8509 H   0  0  0  0  0
   21.6631   -1.4267   22.1480 H   0  0  0  0  0
   21.8147   -0.3576   20.7116 H   0  0  0  0  0
   22.8977   -3.1515   20.9486 H   0  0  0  0  0
   24.2749   -0.3472   18.3145 H   0  0  0  0  0
   22.9456    0.0682   19.4015 H   0  0  0  0  0
   24.6250   -3.6613   19.5391 H   0  0  0  0  0
   17.6183   -2.1231   20.1511 H   0  0  0  0  0
   15.8637   -0.3187   18.6799 H   0  0  0  0  0
   14.7282   -1.8596   19.9872 H   0  0  0  0  0
   14.6185   -0.2302   20.8563 H   0  0  0  0  0
   14.8404   -1.8082   22.5178 H   0  0  0  0  0
   16.5155   -1.1319   22.2527 H   0  0  0  0  0
   15.6813   -5.0879   21.5924 H   0  0  0  0  0
   14.3934   -3.9248   21.9238 H   0  0  0  0  0
   15.2064    1.7286   19.5968 H   0  0  0  0  0
   15.6439    3.8604   20.0526 H   0  0  0  0  0
   17.4265    4.4565   21.8141 H   0  0  0  0  0
   17.3608    2.6574   22.1495 H   0  0  0  0  0
   14.9663    4.4765   22.1424 H   0  0  0  0  0
   15.9411    4.0716   23.6234 H   0  0  0  0  0
   14.6175    2.0334   21.8493 H   0  0  0  0  0
   13.8556    2.7429   23.3243 H   0  0  0  0  0
   16.5107    1.5732   23.7354 H   0  0  0  0  0
   13.1205   -0.4087   24.7942 H   0  0  0  0  0
   13.0143    0.9729   23.6982 H   0  0  0  0  0
   16.6457   -0.1995   25.1616 H   0  0  0  0  0
   17.1026    2.4023   17.9745 H   0  0  0  0  0
   18.6526    4.7230   17.1555 H   0  0  0  0  0
   20.3299    3.5815   18.4871 H   0  0  0  0  0
   20.7348    3.6894   16.6589 H   0  0  0  0  0
   20.3283   -0.0314   16.5062 H   0  0  0  0  0
   19.3383    1.3038   15.9076 H   0  0  0  0  0
   18.7995    4.8640   14.9060 H   0  0  0  0  0
   17.2070    2.7881   13.5404 H   0  0  0  0  0
   16.8709    5.2631   13.1993 H   0  0  0  0  0
   17.0001    4.1570   11.7096 H   0  0  0  0  0
   17.9682    6.3336   11.3645 H   0  0  0  0  0
   19.2067    4.9761   11.3527 H   0  0  0  0  0
   20.7029    6.3205   11.7228 H   0  0  0  0  0
   18.0600    1.8930   11.4825 H   0  0  0  0  0
   20.9950    2.0147   11.2387 H   0  0  0  0  0
   19.5392   -0.6287   11.6221 H   0  0  0  0  0
   20.8206   -0.6406   13.6126 H   0  0  0  0  0
   21.4692   -0.7948   10.1104 H   0  0  0  0  0
   22.5004    0.0030   11.3234 H   0  0  0  0  0
   21.8092   -1.6032   11.6602 H   0  0  0  0  0
   21.7114    1.7306    9.2185 H   0  0  0  0  0
   19.8217    1.8103    7.0363 H   0  0  0  0  0
   22.8074    1.3441    7.0650 H   0  0  0  0  0
   21.9394    2.9598    6.9405 H   0  0  0  0  0
   21.1155    2.3683    4.7913 H   0  0  0  0  0
   21.8728    0.7288    4.9167 H   0  0  0  0  0
   24.4681    2.1385    2.9924 H   0  0  0  0  0
   23.0771    1.0495    3.0165 H   0  0  0  0  0
   19.2230    0.2883    5.6542 H   0  0  0  0  0
   19.8032   -2.4708    6.4577 H   0  0  0  0  0
   19.3842   -1.0574    3.3884 H   0  0  0  0  0
   17.9137   -3.0470    4.8587 H   0  0  0  0  0
   17.7215   -2.9842    7.3195 H   0  0  0  0  0
   17.3971   -1.2346    7.2507 H   0  0  0  0  0
   16.2294   -2.3847    6.5545 H   0  0  0  0  0
   17.4537   -0.0566    5.0621 H   0  0  0  0  0
   17.8702   -0.9609    3.5857 H   0  0  0  0  0
   16.3094   -1.2462    4.3940 H   0  0  0  0  0
  1  2  1  0  0  0
  1  5  1  0  0  0
  2  3  1  0  0  0
  2  7  1  0  0  0
  3  4  1  0  0  0
  4  5  1  0  0  0
  5  6  1  0  0  0
  7  8  2  0  0  0
  7  9  1  0  0  0
  9 10  1  0  0  0
 10 11  1  0  0  0
 10 13  1  0  0  0
 11 12  2  0  0  0
 11 20  1  0  0  0
 13 14  1  0  0  0
 14 15  1  0  0  0
 15 16  1  0  0  0
 16 17  1  0  0  0
 17 18  1  0  0  0
 17 19  2  0  0  0
 20 21  1  0  0  0
 21 22  1  0  0  0
 21 24  1  0  0  0
 22 23  2  0  0  0
 22 27  1  0  0  0
 24 25  1  0  0  0
 24 26  1  0  0  0
 27 28  1  0  0  0
 28 29  1  0  0  0
 28 31  1  0  0  0
 29 30  2  0  0  0
 29 38  1  0  0  0
 31 32  1  0  0  0
 32 33  1  0  0  0
 33 34  1  0  0  0
 34 35  1  0  0  0
 35 36  1  0  0  0
 35 37  2  0  0  0
 38 39  1  0  0  0
 39 40  1  0  0  0
 39 42  1  0  0  0
 40 41  2  0  0  0
 40 47  1  0  0  0
 42 43  1  0  0  0
 43 44  1  0  0  0
 44 45  2  0  0  0
 44 46  1  0  0  0
 47 48  1  0  0  0
 48 49  1  0  0  0
 48 51  1  0  0  0
 49 50  2  0  0  0
 49 58  1  0  0  0
 51 52  1  0  0  0
 52 53  1  0  0  0
 53 54  1  0  0  0
 54 55  1  0  0  0
 55 56  1  0  0  0
 55 57  2  0  0  0
 58 59  1  0  0  0
 59 60  1  0  0  0
 59 62  1  0  0  0
 60 61  2  0  0  0
 60 66  1  0  0  0
 62 63  1  0  0  0
 63 64  2  0  0  0
 63 65  1  0  0  0
 66 67  1  0  0  0
 67 68  1  0  0  0
 67 70  1  0  0  0
 68 69  2  0  0  0
 68 75  1  0  0  0
 70 71  1  0  0  0
 71 72  1  0  0  0
 72 73  2  0  0  0
 72 74  1  0  0  0
 75 76  1  0  0  0
 76 77  1  0  0  0
 76 79  1  0  0  0
 77 78  2  0  0  0
 77 82  1  0  0  0
 79 80  1  0  0  0
 79 81  1  0  0  0
 82 83  1  0  0  0
 83 84  1  0  0  0
 83 86  1  0  0  0
 84 85  2  0  0  0
 84 91  1  0  0  0
 86 87  1  0  0  0
 87 88  1  0  0  0
 88 89  2  0  0  0
 88 90  1  0  0  0
 91 92  1  0  0  0
 92 93  1  0  0  0
 92 95  1  0  0  0
 93 94  1  0  0  0
 93 98  2  0  0  0
 95 96  1  0  0  0
 95 97  1  0  0  0
  1 99  1  0  0  0
  1100  1  0  0  0
  2101  1  0  0  0
  3102  1  0  0  0
  3103  1  0  0  0
  4104  1  0  0  0
  4105  1  0  0  0
  5106  1  0  0  0
  6107  1  0  0  0
  9108  1  0  0  0
 10109  1  0  0  0
 13110  1  0  0  0
 13111  1  0  0  0
 14112  1  0  0  0
 14113  1  0  0  0
 15114  1  0  0  0
 15115  1  0  0  0
 16116  1  0  0  0
 18117  1  0  0  0
 18118  1  0  0  0
 19119  1  0  0  0
 20120  1  0  0  0
 21121  1  0  0  0
 24122  1  0  0  0
 25123  1  0  0  0
 26124  1  0  0  0
 26125  1  0  0  0
 26126  1  0  0  0
 27127  1  0  0  0
 28128  1  0  0  0
 31129  1  0  0  0
 31130  1  0  0  0
 32131  1  0  0  0
 32132  1  0  0  0
 33133  1  0  0  0
 33134  1  0  0  0
 34135  1  0  0  0
 36136  1  0  0  0
 36137  1  0  0  0
 37138  1  0  0  0
 38139  1  0  0  0
 39140  1  0  0  0
 42141  1  0  0  0
 42142  1  0  0  0
 43143  1  0  0  0
 43144  1  0  0  0
 46145  1  0  0  0
 46146  1  0  0  0
 47147  1  0  0  0
 48148  1  0  0  0
 51149  1  0  0  0
 51150  1  0  0  0
 52151  1  0  0  0
 52152  1  0  0  0
 53153  1  0  0  0
 53154  1  0  0  0
 54155  1  0  0  0
 56156  1  0  0  0
 56157  1  0  0  0
 57158  1  0  0  0
 58159  1  0  0  0
 59160  1  0  0  0
 62161  1  0  0  0
 62162  1  0  0  0
 65163  1  0  0  0
 65164  1  0  0  0
 66165  1  0  0  0
 67166  1  0  0  0
 70167  1  0  0  0
 70168  1  0  0  0
 71169  1  0  0  0
 71170  1  0  0  0
 74171  1  0  0  0
 75172  1  0  0  0
 76173  1  0  0  0
 79174  1  0  0  0
 80175  1  0  0  0
 81176  1  0  0  0
 81177  1  0  0  0
 81178  1  0  0  0
 82179  1  0  0  0
 83180  1  0  0  0
 86181  1  0  0  0
 86182  1  0  0  0
 87183  1  0  0  0
 87184  1  0  0  0
 90185  1  0  0  0
 90186  1  0  0  0
 91187  1  0  0  0
 92188  1  0  0  0
 94189  1  0  0  0
 95190  1  0  0  0
 96191  1  0  0  0
 96192  1  0  0  0
 96193  1  0  0  0
 97194  1  0  0  0
 97195  1  0  0  0
 97196  1  0  0  0
M  END
$$$$
