### 
### Created by X-TOOL on Mon Sep 10 21:13:16 2018
### 

@<TRIPOS>MOLECULE
2m3m_ligand
  197   197     1     0     0
SMALL
GAST_HUCK


@<TRIPOS>ATOM
      1 N          22.3680   -8.6360   18.5260 N.4       1 PCA         0.2678
      2 CA         22.5120   -7.4040   19.2980 C.3       1 PCA         0.0696
      3 CB         23.1450   -7.7610   20.6330 C.3       1 PCA         0.0155
      4 CG         23.2930   -9.2530   20.5690 C.3       1 PCA         0.0239
      5 CD         23.2520   -9.6290   19.0960 C.3       1 PCA         0.0828
      6 OE         24.2810   -9.9670   18.5120 O.3       1 PCA        -0.3531
      7 C          23.3780   -6.4040   18.5310 C.2       1 PCA         0.2269
      8 O          24.0560   -5.5370   19.1190 O.2       1 PCA        -0.3907
      9 N          23.2750   -6.4700   17.2280 N.am      1 ARG        -0.2610
     10 CA         24.0570   -5.6750   16.3200 C.3       1 ARG         0.1312
     11 C          23.2060   -4.4890   15.9700 C.2       1 ARG         0.2040
     12 O          23.5990   -3.3410   16.1590 O.2       1 ARG        -0.3944
     13 CB         24.3170   -6.5120   15.0840 C.3       1 ARG        -0.0092
     14 CG         24.8350   -7.9040   15.4120 C.3       1 ARG        -0.0156
     15 CD         24.6020   -8.8420   14.2470 C.3       1 ARG         0.0627
     16 NE         23.1530   -8.9530   13.9970 N.pl3     1 ARG        -0.2723
     17 CZ         22.5550   -9.5090   12.9480 C.cat     1 ARG         0.2882
     18 NH1        23.2710  -10.0620   11.9660 N.pl3     1 ARG        -0.2849
     19 NH2        21.2300   -9.4940   12.8890 N.pl3     1 ARG        -0.2849
     20 N          22.0200   -4.7840   15.4850 N.am      1 THR        -0.2613
     21 CA         21.0360   -3.7810   15.2780 C.3       1 THR         0.1565
     22 C          20.2290   -3.7480   16.5710 C.2       1 THR         0.2065
     23 O          20.1620   -4.7600   17.2770 O.2       1 THR        -0.3943
     24 CB         20.1940   -4.0400   13.9930 C.3       1 THR         0.0924
     25 OG1        21.0890   -4.4250   12.9400 O.3       1 THR        -0.3874
     26 CG2        19.5560   -2.7490   13.5860 C.3       1 THR        -0.0346
     27 N          19.6530   -2.6360   16.9120 N.am      1 ARG        -0.2636
     28 CA         19.1950   -2.4790   18.2640 C.3       1 ARG         0.1311
     29 C          18.0700   -1.4890   18.3140 C.2       1 ARG         0.2039
     30 O          17.8080   -0.8030   17.3360 O.2       1 ARG        -0.3944
     31 CB         20.4030   -1.9480   19.0290 C.3       1 ARG        -0.0092
     32 CG         20.3380   -1.8930   20.5370 C.3       1 ARG        -0.0156
     33 CD         21.6730   -1.3810   21.0590 C.3       1 ARG         0.0627
     34 NE         22.7980   -2.2150   20.5570 N.pl3     1 ARG        -0.2723
     35 CZ         23.7040   -1.8310   19.6190 C.cat     1 ARG         0.2882
     36 NH1        23.6360   -0.6040   19.0670 N.pl3     1 ARG        -0.2849
     37 NH2        24.6140   -2.7090   19.1740 N.pl3     1 ARG        -0.2849
     38 N          17.3930   -1.4540   19.4150 N.am      1 GLN        -0.2636
     39 CA         16.3430   -0.5150   19.6390 C.3       1 GLN         0.1330
     40 C          16.9090    0.8080   20.1620 C.2       1 GLN         0.2040
     41 O          17.9900    0.8310   20.7420 O.2       1 GLN        -0.3944
     42 CB         15.2320   -1.0810   20.5600 C.3       1 GLN         0.0045
     43 CG         15.7030   -1.7400   21.8550 C.3       1 GLN         0.0412
     44 CD         16.2410   -3.1470   21.6650 C.2       1 GLN         0.1737
     45 OE1        17.4250   -3.3390   21.4380 O.2       1 GLN        -0.3973
     46 NE2        15.3750   -4.1250   21.7320 N.am      1 GLN        -0.3009
     47 N          16.1410    1.8810   19.9760 N.am      1 ARG        -0.2637
     48 CA         16.5330    3.2700   20.2740 C.3       1 ARG         0.1311
     49 C          17.6470    3.7660   19.3690 C.2       1 ARG         0.2040
     50 O          18.3690    4.6890   19.7140 O.2       1 ARG        -0.3944
     51 CB         16.8430    3.5370   21.7670 C.3       1 ARG        -0.0092
     52 CG         15.6030    3.7450   22.6400 C.3       1 ARG        -0.0156
     53 CD         14.7900    2.4790   22.8290 C.3       1 ARG         0.0627
     54 NE         15.4960    1.4950   23.6670 N.pl3     1 ARG        -0.2723
     55 CZ         14.9010    0.5030   24.3470 C.cat     1 ARG         0.2882
     56 NH1        13.5730    0.3430   24.2740 N.pl3     1 ARG        -0.2849
     57 NH2        15.6350   -0.3240   25.1030 N.pl3     1 ARG        -0.2849
     58 N          17.7210    3.1870   18.1800 N.am      1 ASN        -0.2616
     59 CA         18.6550    3.6330   17.1570 C.3       1 ASN         0.1476
     60 C          18.1950    3.1530   15.8050 C.2       1 ASN         0.2063
     61 O          17.6080    2.0630   15.7140 O.2       1 ASN        -0.3942
     62 CB         20.1540    3.2430   17.4660 C.3       1 ASN         0.0773
     63 CG         20.5520    1.7330   17.4650 C.2       1 ASN         0.1780
     64 OD1        21.4040    1.3010   18.2660 O.2       1 ASN        -0.3970
     65 ND2        20.0350    0.9440   16.5600 N.am      1 ASN        -0.3007
     66 N          18.3910    3.9390   14.7720 N.am      1 GLU        -0.2635
     67 CA         18.0300    3.4970   13.4500 C.3       1 GLU         0.1325
     68 C          19.2320    2.8230   12.8190 C.2       1 GLU         0.2041
     69 O          20.3580    2.9600   13.3080 O.2       1 GLU        -0.3944
     70 CB         17.4920    4.6450   12.5510 C.3       1 GLU        -0.0008
     71 CG         18.5230    5.5910   11.9380 C.3       1 GLU         0.0044
     72 CD         19.3600    6.3460   12.9330 C.2       1 GLU         0.0350
     73 OE1        18.8710    6.6650   14.0100 O.co2     1 GLU        -0.5690
     74 OE2        20.5160    6.6680   12.5980 O.co2     1 GLU        -0.5690
     75 N          19.0150    2.0450   11.8070 N.am      1 THR        -0.2613
     76 CA         20.1040    1.3950   11.1380 C.3       1 THR         0.1565
     77 C          19.7980    1.2400    9.6460 C.2       1 THR         0.2065
     78 O          18.6420    1.0010    9.2590 O.2       1 THR        -0.3943
     79 CB         20.4000    0.0180   11.7920 C.3       1 THR         0.0924
     80 OG1        20.6370    0.2080   13.2030 O.3       1 THR        -0.3874
     81 CG2        21.6340   -0.6420   11.1770 C.3       1 THR        -0.0346
     82 N          20.8150    1.4470    8.8230 N.am      1 GLN        -0.2635
     83 CA         20.7120    1.2890    7.3880 C.3       1 GLN         0.1330
     84 C          20.5900   -0.1840    7.0370 C.2       1 GLN         0.2035
     85 O          21.2660   -1.0350    7.6400 O.2       1 GLN        -0.3944
     86 CB         21.9400    1.8960    6.7030 C.3       1 GLN         0.0045
     87 CG         21.9500    1.7840    5.1790 C.3       1 GLN         0.0412
     88 CD         23.2260    2.3270    4.5720 C.2       1 GLN         0.1737
     89 OE1        23.8460    3.2220    5.1110 O.2       1 GLN        -0.3973
     90 NE2        23.6190    1.8000    3.4450 N.am      1 GLN        -0.3009
     91 N          19.7410   -0.4730    6.0930 N.am      1 VAL        -0.2692
     92 CA         19.5010   -1.8140    5.6420 C.3       1 VAL         0.0967
     93 C          20.3670   -2.1780    4.4400 C.2       1 VAL         0.0603
     94 O          20.1350   -1.6510    3.3140 O.co2     1 VAL        -0.5666
     95 CB         18.0000   -2.1020    5.3950 C.3       1 VAL        -0.0118
     96 CG1        17.2870   -2.1820    6.7230 C.3       1 VAL        -0.0590
     97 CG2        17.3630   -1.0140    4.5490 C.3       1 VAL        -0.0590
     98 OXT        21.2960   -3.0010    4.6440 O.co2     1 VAL        -0.5666
     99 H1         22.6181   -8.4678   17.5641 H         1 PCA         0.2063
    100 H2         21.4146   -8.9597   18.5736 H         1 PCA         0.2063
    101 H3         21.5209   -6.9594   19.4711 H         1 PCA         0.1100
    102 H4         22.4919   -7.4671   21.4679 H         1 PCA         0.0348
    103 H5         24.1250   -7.2741   20.7451 H         1 PCA         0.0348
    104 H6         22.4674   -9.7401   21.1085 H         1 PCA         0.0349
    105 H7         24.2520   -9.5590   21.0126 H         1 PCA         0.0349
    106 H8         22.6715  -10.5629   19.0654 H         1 PCA         0.1184
    107 H9         24.7353  -10.6232   19.0274 H         1 PCA         0.2154
    108 H10        22.6129   -7.1116   16.8406 H         1 ARG         0.1884
    109 H11        25.0050   -5.3568   16.7784 H         1 ARG         0.0800
    110 H12        25.0636   -5.9970   14.4616 H         1 ARG         0.0313
    111 H13        23.3764   -6.6106   14.5222 H         1 ARG         0.0313
    112 H14        24.3071   -8.2878   16.2974 H         1 ARG         0.0301
    113 H15        25.9132   -7.8491   15.6230 H         1 ARG         0.0301
    114 H16        25.0113   -9.8346   14.4861 H         1 ARG         0.0689
    115 H17        25.1009   -8.4460   13.3502 H         1 ARG         0.0689
    116 H18        22.5338   -8.5544   14.7171 H         1 ARG         0.2642
    117 H19        22.7945  -10.4893   11.1590 H         1 ARG         0.2615
    118 H20        24.2998  -10.0613   12.0155 H         1 ARG         0.2615
    119 H21        20.6854   -9.0653   13.6509 H         1 ARG         0.2615
    120 H22        20.7457   -9.9110   12.0813 H         1 ARG         0.2615
    121 H23        21.8065   -5.7340   15.2572 H         1 THR         0.1884
    122 H24        21.5341   -2.8086   15.1503 H         1 THR         0.0826
    123 H25        19.4358   -4.8169   14.1709 H         1 THR         0.0639
    124 H26        20.5918   -4.5873   12.1468 H         1 THR         0.2101
    125 H27        18.9547   -2.9072   12.6786 H         1 THR         0.0257
    126 H28        20.3373   -2.0020   13.3824 H         1 THR         0.0257
    127 H29        18.9069   -2.3888   14.3977 H         1 THR         0.0257
    128 H30        19.5303   -1.9013   16.2448 H         1 ARG         0.1883
    129 H31        18.8623   -3.4418   18.6791 H         1 ARG         0.0800
    130 H32        20.5857   -0.9227   18.6750 H         1 ARG         0.0313
    131 H33        21.2597   -2.5853   18.7647 H         1 ARG         0.0313
    132 H34        20.1443   -2.8992   20.9371 H         1 ARG         0.0301
    133 H35        19.5319   -1.2128   20.8492 H         1 ARG         0.0301
    134 H36        21.6650   -1.4123   22.1585 H         1 ARG         0.0689
    135 H37        21.8166   -0.3436   20.7227 H         1 ARG         0.0689
    136 H38        22.8987   -3.1607   20.9525 H         1 ARG         0.2642
    137 H39        24.3258   -0.3198   18.3569 H         1 ARG         0.2615
    138 H40        22.8942    0.0499   19.3551 H         1 ARG         0.2615
    139 H41        24.6706   -3.6486   19.5922 H         1 ARG         0.2615
    140 H42        25.2566   -2.4441   18.4139 H         1 ARG         0.2615
    141 H43        17.6139   -2.1100   20.1367 H         1 GLN         0.1883
    142 H44        15.8766   -0.3085   18.6644 H         1 GLN         0.0801
    143 H45        14.6700   -1.8323   19.9859 H         1 GLN         0.0337
    144 H46        14.5635   -0.2501   20.8297 H         1 GLN         0.0337
    145 H47        14.8523   -1.7849   22.5509 H         1 GLN         0.0504
    146 H48        16.5003   -1.1195   22.2901 H         1 GLN         0.0504
    147 H49        15.6784   -5.0705   21.6137 H         1 GLN         0.1814
    148 H50        14.4095   -3.9272   21.9016 H         1 GLN         0.1814
    149 H51        15.2248    1.7316   19.6042 H         1 ARG         0.1883
    150 H52        15.6515    3.8840   20.0375 H         1 ARG         0.0800
    151 H53        17.4665    4.4408   21.8332 H         1 ARG         0.0313
    152 H54        17.4021    2.6760   22.1622 H         1 ARG         0.0313
    153 H55        14.9638    4.5040   22.1653 H         1 ARG         0.0301
    154 H56        15.9266    4.1041   23.6281 H         1 ARG         0.0301
    155 H57        14.5937    2.0315   21.8435 H         1 ARG         0.0689
    156 H58        13.8356    2.7375   23.3110 H         1 ARG         0.0689
    157 H59        16.5206    1.5740   23.7361 H         1 ARG         0.2642
    158 H60        13.1166   -0.4186   24.7961 H         1 ARG         0.2615
    159 H61        13.0084    0.9815   23.6958 H         1 ARG         0.2615
    160 H62        16.6561   -0.2007   25.1589 H         1 ARG         0.2615
    161 H63        15.1783   -1.0832   25.6284 H         1 ARG         0.2615
    162 H64        17.1148    2.4176   17.9786 H         1 ASN         0.1885
    163 H65        18.6159    4.7322   17.1418 H         1 ASN         0.0826
    164 H66        20.3926    3.6399   18.4637 H         1 ASN         0.0551
    165 H67        20.7805    3.7433   16.7129 H         1 ASN         0.0551
    166 H68        20.2785   -0.0258   16.5442 H         1 ASN         0.1814
    167 H69        19.3961    1.3102   15.8835 H         1 ASN         0.1814
    168 H70        18.7915    4.8458   14.9034 H         1 GLU         0.1883
    169 H71        17.2274    2.7513   13.5488 H         1 GLU         0.0801
    170 H72        16.8080    5.2518   13.1625 H         1 GLU         0.0330
    171 H73        16.9328    4.1836   11.7237 H         1 GLU         0.0330
    172 H74        17.9875    6.3236   11.3164 H         1 GLU         0.0433
    173 H75        19.1981    4.9967   11.3048 H         1 GLU         0.0433
    174 H76        18.0787    1.8960   11.4889 H         1 THR         0.1884
    175 H77        20.9998    2.0249   11.2421 H         1 THR         0.0826
    176 H78        19.5307   -0.6406   11.6491 H         1 THR         0.0639
    177 H79        21.3810    0.7864   13.3229 H         1 THR         0.2101
    178 H80        21.8119   -1.6122   11.6639 H         1 THR         0.0257
    179 H81        22.5092    0.0079   11.3241 H         1 THR         0.0257
    180 H82        21.4690   -0.7968   10.1005 H         1 THR         0.0257
    181 H83        21.6938    1.7251    9.2107 H         1 GLN         0.1883
    182 H84        19.8124    1.8146    7.0353 H         1 GLN         0.0801
    183 H85        22.8339    1.3841    7.0887 H         1 GLN         0.0337
    184 H86        21.9857    2.9628    6.9671 H         1 GLN         0.0337
    185 H87        21.0976    2.3512    4.7769 H         1 GLN         0.0504
    186 H88        21.8491    0.7244    4.9014 H         1 GLN         0.0504
    187 H89        24.4561    2.1259    3.0057 H         1 GLN         0.1814
    188 H90        23.0831    1.0702    3.0205 H         1 GLN         0.1814
    189 H91        19.2332    0.2734    5.6628 H         1 VAL         0.1875
    190 H92        19.8121   -2.4775    6.4624 H         1 VAL         0.0729
    191 H93        17.9026   -3.0641    4.8707 H         1 VAL         0.0336
    192 H94        16.2194   -2.3866    6.5542 H         1 VAL         0.0234
    193 H95        17.3973   -1.2264    7.2566 H         1 VAL         0.0234
    194 H96        17.7245   -2.9913    7.3259 H         1 VAL         0.0234
    195 H97        17.8803   -0.9529    3.5801 H         1 VAL         0.0234
    196 H98        17.4454   -0.0488    5.0701 H         1 VAL         0.0234
    197 H99        16.3019   -1.2521    4.3837 H         1 VAL         0.0234
@<TRIPOS>BOND
     1    1    2 1  
     2    1    5 1  
     3    2    3 1  
     4    2    7 1  
     5    3    4 1  
     6    4    5 1  
     7    5    6 1  
     8    7    8 2  
     9    7    9 am 
    10    9   10 1  
    11   10   11 1  
    12   10   13 1  
    13   11   12 2  
    14   11   20 am 
    15   13   14 1  
    16   14   15 1  
    17   15   16 1  
    18   16   17 ar 
    19   17   18 ar 
    20   17   19 ar 
    21   20   21 1  
    22   21   22 1  
    23   21   24 1  
    24   22   23 2  
    25   22   27 am 
    26   24   25 1  
    27   24   26 1  
    28   27   28 1  
    29   28   29 1  
    30   28   31 1  
    31   29   30 2  
    32   29   38 am 
    33   31   32 1  
    34   32   33 1  
    35   33   34 1  
    36   34   35 ar 
    37   35   36 ar 
    38   35   37 ar 
    39   38   39 1  
    40   39   40 1  
    41   39   42 1  
    42   40   41 2  
    43   40   47 am 
    44   42   43 1  
    45   43   44 1  
    46   44   45 2  
    47   44   46 am 
    48   47   48 1  
    49   48   49 1  
    50   48   51 1  
    51   49   50 2  
    52   49   58 am 
    53   51   52 1  
    54   52   53 1  
    55   53   54 1  
    56   54   55 ar 
    57   55   56 ar 
    58   55   57 ar 
    59   58   59 1  
    60   59   60 1  
    61   59   62 1  
    62   60   61 2  
    63   60   66 am 
    64   62   63 1  
    65   63   64 2  
    66   63   65 am 
    67   66   67 1  
    68   67   68 1  
    69   67   70 1  
    70   68   69 2  
    71   68   75 am 
    72   70   71 1  
    73   71   72 1  
    74   72   73 ar 
    75   72   74 ar 
    76   75   76 1  
    77   76   77 1  
    78   76   79 1  
    79   77   78 2  
    80   77   82 am 
    81   79   80 1  
    82   79   81 1  
    83   82   83 1  
    84   83   84 1  
    85   83   86 1  
    86   84   85 2  
    87   84   91 am 
    88   86   87 1  
    89   87   88 1  
    90   88   89 2  
    91   88   90 am 
    92   91   92 1  
    93   92   93 1  
    94   92   95 1  
    95   93   94 ar 
    96   93   98 ar 
    97   95   96 1  
    98   95   97 1  
    99    1   99 1  
   100    1  100 1  
   101    2  101 1  
   102    3  102 1  
   103    3  103 1  
   104    4  104 1  
   105    4  105 1  
   106    5  106 1  
   107    6  107 1  
   108    9  108 1  
   109   10  109 1  
   110   13  110 1  
   111   13  111 1  
   112   14  112 1  
   113   14  113 1  
   114   15  114 1  
   115   15  115 1  
   116   16  116 1  
   117   18  117 1  
   118   18  118 1  
   119   19  119 1  
   120   19  120 1  
   121   20  121 1  
   122   21  122 1  
   123   24  123 1  
   124   25  124 1  
   125   26  125 1  
   126   26  126 1  
   127   26  127 1  
   128   27  128 1  
   129   28  129 1  
   130   31  130 1  
   131   31  131 1  
   132   32  132 1  
   133   32  133 1  
   134   33  134 1  
   135   33  135 1  
   136   34  136 1  
   137   36  137 1  
   138   36  138 1  
   139   37  139 1  
   140   37  140 1  
   141   38  141 1  
   142   39  142 1  
   143   42  143 1  
   144   42  144 1  
   145   43  145 1  
   146   43  146 1  
   147   46  147 1  
   148   46  148 1  
   149   47  149 1  
   150   48  150 1  
   151   51  151 1  
   152   51  152 1  
   153   52  153 1  
   154   52  154 1  
   155   53  155 1  
   156   53  156 1  
   157   54  157 1  
   158   56  158 1  
   159   56  159 1  
   160   57  160 1  
   161   57  161 1  
   162   58  162 1  
   163   59  163 1  
   164   62  164 1  
   165   62  165 1  
   166   65  166 1  
   167   65  167 1  
   168   66  168 1  
   169   67  169 1  
   170   70  170 1  
   171   70  171 1  
   172   71  172 1  
   173   71  173 1  
   174   75  174 1  
   175   76  175 1  
   176   79  176 1  
   177   80  177 1  
   178   81  178 1  
   179   81  179 1  
   180   81  180 1  
   181   82  181 1  
   182   83  182 1  
   183   86  183 1  
   184   86  184 1  
   185   87  185 1  
   186   87  186 1  
   187   90  187 1  
   188   90  188 1  
   189   91  189 1  
   190   92  190 1  
   191   95  191 1  
   192   96  192 1  
   193   96  193 1  
   194   96  194 1  
   195   97  195 1  
   196   97  196 1  
   197   97  197 1  
@<TRIPOS>SUBSTRUCTURE
     1 PCA         1

