6imi_ligand
  -I-interpret- 

 34 35  0  0  0  0  0  0  0  0999 V2000
   25.0130   -3.9910   25.1930 C   0  0  0  0  0
   24.4910   -2.9780   26.0040 C   0  0  0  0  0
   23.7350   -1.9570   25.4420 C   0  0  0  0  0
   22.7090   -2.3350   19.9320 C   0  0  0  0  0
   24.7740   -3.0340   27.4840 C   0  0  0  0  0
   23.0970   -1.2440   27.7520 C   0  0  0  0  0
   23.1560   -0.8530   26.2900 C   0  0  0  0  0
   23.0060   -1.9770   21.3580 C   0  0  0  0  0
   26.1770   -5.8880   23.4530 C   0  0  0  0  0
   25.1850   -1.1720   29.0570 C   0  0  0  0  0
   24.3910   -1.7850   28.1570 N   0  0  0  0  0
   24.7910   -3.9910   23.8310 C   0  0  0  0  0
   23.5130   -1.9640   24.0620 C   0  0  0  0  0
   24.0270   -2.9570   23.2610 C   0  0  0  0  0
   23.8260   -3.0180   21.9160 O   0  0  0  0  0
   25.2530   -4.9300   22.9500 O   0  0  0  0  0
   26.2930   -1.5570   29.3850 O   0  0  0  0  0
   25.6024   -4.7903   25.6423 H   0  0  0  0  0
   23.6436   -2.4170   19.3771 H   0  0  0  0  0
   22.1814   -3.2883   19.9004 H   0  0  0  0  0
   22.0870   -1.5590   19.4859 H   0  0  0  0  0
   25.8443   -3.1858   27.6240 H   0  0  0  0  0
   24.1924   -3.8490   27.9147 H   0  0  0  0  0
   22.3235   -1.9980   27.8980 H   0  0  0  0  0
   22.8619   -0.3675   28.3558 H   0  0  0  0  0
   22.1413   -0.6516   25.9466 H   0  0  0  0  0
   23.7946    0.0252   26.1943 H   0  0  0  0  0
   22.0790   -1.8838   21.9238 H   0  0  0  0  0
   23.5272   -1.0209   21.4055 H   0  0  0  0  0
   27.0630   -5.3749   23.8269 H   0  0  0  0  0
   25.7116   -6.4492   24.2633 H   0  0  0  0  0
   26.4618   -6.5712   22.6529 H   0  0  0  0  0
   24.8074   -0.2637   29.5265 H   0  0  0  0  0
   22.9211   -1.1671   23.6119 H   0  0  0  0  0
  1  2  4  0  0  0
 12  1  4  0  0  0
  3  2  4  0  0  0
  2  5  1  0  0  0
  3  7  1  0  0  0
 13  3  4  0  0  0
  8  4  1  0  0  0
  5 11  1  0  0  0
  7  6  1  0  0  0
  6 11  1  0  0  0
 15  8  1  0  0  0
 16  9  1  0  0  0
 11 10  1  0  0  0
 10 17  2  0  0  0
 14 12  4  0  0  0
 12 16  1  0  0  0
 14 13  4  0  0  0
 14 15  1  0  0  0
  1 18  1  0  0  0
  4 19  1  0  0  0
  4 20  1  0  0  0
  4 21  1  0  0  0
  5 22  1  0  0  0
  5 23  1  0  0  0
  6 24  1  0  0  0
  6 25  1  0  0  0
  7 26  1  0  0  0
  7 27  1  0  0  0
  8 28  1  0  0  0
  8 29  1  0  0  0
  9 30  1  0  0  0
  9 31  1  0  0  0
  9 32  1  0  0  0
 10 33  1  0  0  0
 13 34  1  0  0  0
M  END
$$$$
