### 
### Created by X-TOOL on Mon Aug  2 16:17:07 2021
### 

@<TRIPOS>MOLECULE
6qtw_ligand
  105   105     1     0     0
SMALL
GAST_HUCK


@<TRIPOS>ATOM
      1 N           0.8910   -2.7080   28.6460 N.4       1 GLU         0.2380
      2 CA          0.0010   -3.7500   28.1260 C.3       1 GLU         0.0665
      3 C          -0.7590   -3.2930   26.8750 C.2       1 GLU         0.2269
      4 O          -1.2570   -2.1790   26.8040 O.2       1 GLU        -0.3907
      5 CB         -0.9660   -4.1940   29.2180 C.3       1 GLU         0.0194
      6 CG         -1.9930   -5.2050   28.7510 C.3       1 GLU         0.0075
      7 CD         -2.8730   -5.7150   29.8820 C.2       1 GLU         0.0351
      8 OE1        -2.5440   -5.4570   31.0590 O.co2     1 GLU        -0.5690
      9 OE2        -3.8990   -6.3690   29.5880 O.co2     1 GLU        -0.5690
     10 N          -0.8470   -4.1840   25.8970 N.am      1 GLU        -0.2595
     11 CA         -1.2310   -3.8120   24.5460 C.3       1 GLU         0.1424
     12 C          -2.7400   -3.8930   24.3310 C.2       1 GLU         0.2056
     13 O          -3.4560   -4.6400   24.9910 O.2       1 GLU        -0.3943
     14 CB         -0.5340   -4.7160   23.5320 C.3       1 GLU         0.0406
     15 CG          0.9650   -4.5330   23.5230 C.2       1 GLU         0.0393
     16 OD1         1.4410   -3.4320   23.8610 O.co2     1 GLU        -0.5688
     17 OD2         1.6670   -5.4950   23.1810 O.co2     1 GLU        -0.5688
     18 N          -3.2070   -3.1100   23.3600 N.am      1 GLU        -0.2635
     19 CA         -4.6160   -3.0670   22.9840 C.3       1 GLU         0.1330
     20 C          -5.5130   -2.8180   24.1930 C.2       1 GLU         0.2040
     21 O          -6.5800   -3.4130   24.3320 O.2       1 GLU        -0.3944
     22 CB         -5.0450   -4.3020   22.1810 C.3       1 GLU         0.0045
     23 CG         -4.3580   -4.4050   20.8080 C.3       1 GLU         0.0412
     24 CD         -4.6510   -3.2020   19.9300 C.2       1 GLU         0.1737
     25 OE1        -3.7720   -2.3410   19.6970 O.2       1 GLU        -0.3973
     26 NE2        -5.8910   -3.1200   19.4360 N.am      1 GLU        -0.3009
     27 N          -5.0870   -1.8960   25.0530 N.am      1 GLU        -0.2637
     28 CA         -5.8810   -1.4660   26.1930 C.3       1 GLU         0.1317
     29 C          -6.4730   -0.0960   25.8890 C.2       1 GLU         0.2039
     30 O          -5.7550    0.8230   25.4860 O.2       1 GLU        -0.3944
     31 CB         -5.0190   -1.3770   27.4490 C.3       1 GLU        -0.0034
     32 CG         -5.8140   -1.1820   28.7260 C.3       1 GLU        -0.0024
     33 SD         -4.7780   -1.2100   30.1920 S.3       1 GLU        -0.1639
     34 CE         -3.8670   -2.7110   29.9040 C.3       1 GLU        -0.0181
     35 N          -7.7720    0.0290   26.0770 N.am      1 GLU        -0.2635
     36 CA         -8.4610    1.2880   25.7730 C.3       1 GLU         0.1334
     37 C          -8.0690    2.3490   26.7960 C.2       1 GLU         0.2066
     38 O          -8.1790    2.1100   28.0110 O.2       1 GLU        -0.3942
     39 CB         -9.9650    1.0650   25.7650 C.3       1 GLU        -0.0062
     40 CG1       -10.7000    2.3540   25.4460 C.3       1 GLU        -0.0584
     41 CG2       -10.3250    0.0060   24.7690 C.3       1 GLU        -0.0584
     42 N          -7.6410    3.5350   26.3730 N.am      1 GLU        -0.2498
     43 CA         -7.2530    4.5550   27.3560 C.3       1 GLU         0.1337
     44 C          -8.4160    4.9190   28.2600 C.2       1 GLU         0.2036
     45 O          -9.5790    4.9160   27.8480 O.2       1 GLU        -0.3944
     46 CB         -6.7800    5.7350   26.5050 C.3       1 GLU        -0.0104
     47 CG         -7.0790    5.4280   25.1200 C.3       1 GLU        -0.0281
     48 CD         -7.3780    3.9480   24.9870 C.3       1 GLU         0.0369
     49 N          -8.0780    5.2210   29.5120 N.am      1 GLU        -0.2672
     50 CA         -9.0520    5.3420   30.5970 C.3       1 GLU         0.1173
     51 C          -9.1150    6.7570   31.1600 C.2       1 GLU         0.0623
     52 O         -10.1410    7.4290   31.0460 O.co2     1 GLU        -0.5665
     53 CB         -8.6870    4.3640   31.7200 C.3       1 GLU         0.0789
     54 OG         -9.7030    4.2980   32.7050 O.3       1 GLU        -0.3910
     55 OXT        -8.1410    7.2440   31.7350 O.co2     1 GLU        -0.5665
     56 H1          1.3679   -3.0514   29.4650 H         1 GLU         0.2015
     57 H2          0.3489   -1.8939   28.8896 H         1 GLU         0.2015
     58 H3          1.5683   -2.4621   27.9412 H         1 GLU         0.2015
     59 H4          0.6203   -4.6142   27.8438 H         1 GLU         0.1099
     60 H5         -1.4979   -3.3068   29.5920 H         1 GLU         0.0363
     61 H6         -0.3833   -4.6438   30.0354 H         1 GLU         0.0363
     62 H7         -1.4661   -6.0601   28.3025 H         1 GLU         0.0434
     63 H8         -2.6340   -4.7308   27.9932 H         1 GLU         0.0434
     64 H9         -0.6426   -5.1425   26.0956 H         1 GLU         0.1886
     65 H10        -0.9116   -2.7737   24.3729 H         1 GLU         0.0819
     66 H11        -0.9228   -4.4856   22.5291 H         1 GLU         0.0478
     67 H12        -0.7593   -5.7635   23.7809 H         1 GLU         0.0478
     68 H13        -2.5630   -2.5254   22.8666 H         1 GLU         0.1883
     69 H14        -4.7385   -2.2015   22.3162 H         1 GLU         0.0801
     70 H15        -6.1328   -4.2559   22.0243 H         1 GLU         0.0337
     71 H16        -4.7963   -5.2010   22.7640 H         1 GLU         0.0337
     72 H17        -4.7175   -5.3114   20.2988 H         1 GLU         0.0504
     73 H18        -3.2709   -4.4765   20.9600 H         1 GLU         0.0504
     74 H19        -6.1460   -2.3506   18.8504 H         1 GLU         0.1814
     75 H20        -6.5632   -3.8281   19.6522 H         1 GLU         0.1814
     76 H21        -4.1873   -1.4835   24.9100 H         1 GLU         0.1883
     77 H22        -6.6930   -2.1883   26.3630 H         1 GLU         0.0800
     78 H23        -4.3297   -0.5272   27.3368 H         1 GLU         0.0320
     79 H24        -4.4410   -2.3085   27.5394 H         1 GLU         0.0320
     80 H25        -6.5584   -1.9881   28.8047 H         1 GLU         0.0378
     81 H26        -6.3287   -0.2111   28.6763 H         1 GLU         0.0378
     82 H27        -3.1665   -2.8799   30.7351 H         1 GLU         0.0340
     83 H28        -3.3048   -2.6238   28.9626 H         1 GLU         0.0340
     84 H29        -4.5665   -3.5572   29.8364 H         1 GLU         0.0340
     85 H30        -8.2952   -0.7457   26.4320 H         1 GLU         0.1883
     86 H31        -8.1518    1.6310   24.7747 H         1 GLU         0.0803
     87 H32       -10.2728    0.7259   26.7651 H         1 GLU         0.0343
     88 H33       -11.7841    2.1675   25.4460 H         1 GLU         0.0234
     89 H34       -10.3905    2.7170   24.4548 H         1 GLU         0.0234
     90 H35       -10.4583    3.1117   26.2059 H         1 GLU         0.0234
     91 H36        -9.7867   -0.9225   25.0103 H         1 GLU         0.0234
     92 H37       -10.0438    0.3410   23.7597 H         1 GLU         0.0234
     93 H38       -11.4088   -0.1785   24.8055 H         1 GLU         0.0234
     94 H39        -6.4257    4.1865   27.9803 H         1 GLU         0.0802
     95 H40        -5.6967    5.8776   26.6315 H         1 GLU         0.0313
     96 H41        -7.3083    6.6510   26.8081 H         1 GLU         0.0313
     97 H42        -6.2137    5.6857   24.4916 H         1 GLU         0.0287
     98 H43        -7.9542    6.0100   24.7955 H         1 GLU         0.0287
     99 H44        -8.2591    3.7789   24.3506 H         1 GLU         0.0524
    100 H45        -6.5156    3.4069   24.5706 H         1 GLU         0.0524
    101 H46        -7.1118    5.3724   29.7208 H         1 GLU         0.1876
    102 H47       -10.0451    5.0801   30.2032 H         1 GLU         0.0749
    103 H48        -7.7518    4.6973   32.1937 H         1 GLU         0.0599
    104 H49        -8.5428    3.3626   31.2884 H         1 GLU         0.0599
    105 H50        -9.4453    3.6851   33.3835 H         1 GLU         0.2096
@<TRIPOS>BOND
     1    1    2 1  
     2    2    3 1  
     3    2    5 1  
     4    3    4 2  
     5    3   10 am 
     6    5    6 1  
     7    6    7 1  
     8    7    8 ar 
     9    7    9 ar 
    10   10   11 1  
    11   11   12 1  
    12   11   14 1  
    13   12   13 2  
    14   12   18 am 
    15   14   15 1  
    16   15   16 ar 
    17   15   17 ar 
    18   18   19 1  
    19   19   20 1  
    20   19   22 1  
    21   20   21 2  
    22   20   27 am 
    23   22   23 1  
    24   23   24 1  
    25   24   25 2  
    26   24   26 am 
    27   27   28 1  
    28   28   29 1  
    29   28   31 1  
    30   29   30 2  
    31   29   35 am 
    32   31   32 1  
    33   32   33 1  
    34   33   34 1  
    35   35   36 1  
    36   36   37 1  
    37   36   39 1  
    38   37   38 2  
    39   37   42 am 
    40   39   40 1  
    41   39   41 1  
    42   42   43 1  
    43   42   48 1  
    44   43   44 1  
    45   43   46 1  
    46   44   45 2  
    47   44   49 am 
    48   46   47 1  
    49   47   48 1  
    50   49   50 1  
    51   50   51 1  
    52   50   53 1  
    53   51   52 ar 
    54   51   55 ar 
    55   53   54 1  
    56    1   56 1  
    57    1   57 1  
    58    1   58 1  
    59    2   59 1  
    60    5   60 1  
    61    5   61 1  
    62    6   62 1  
    63    6   63 1  
    64   10   64 1  
    65   11   65 1  
    66   14   66 1  
    67   14   67 1  
    68   18   68 1  
    69   19   69 1  
    70   22   70 1  
    71   22   71 1  
    72   23   72 1  
    73   23   73 1  
    74   26   74 1  
    75   26   75 1  
    76   27   76 1  
    77   28   77 1  
    78   31   78 1  
    79   31   79 1  
    80   32   80 1  
    81   32   81 1  
    82   34   82 1  
    83   34   83 1  
    84   34   84 1  
    85   35   85 1  
    86   36   86 1  
    87   39   87 1  
    88   40   88 1  
    89   40   89 1  
    90   40   90 1  
    91   41   91 1  
    92   41   92 1  
    93   41   93 1  
    94   43   94 1  
    95   46   95 1  
    96   46   96 1  
    97   47   97 1  
    98   47   98 1  
    99   48   99 1  
   100   48  100 1  
   101   49  101 1  
   102   50  102 1  
   103   53  103 1  
   104   53  104 1  
   105   54  105 1  
@<TRIPOS>SUBSTRUCTURE
     1 GLU         1

