6qtw_ligand
  -I-interpret- 

108108  0  0  0  0  0  0  0  0999 V2000
    0.8910   -2.7080   28.6460 N   0  3  0  0  0
    0.0010   -3.7500   28.1260 C   0  0  0  0  0
   -0.7590   -3.2930   26.8750 C   0  0  0  0  0
   -1.2570   -2.1790   26.8040 O   0  0  0  0  0
   -0.9660   -4.1940   29.2180 C   0  0  0  0  0
   -1.9930   -5.2050   28.7510 C   0  0  0  0  0
   -2.8730   -5.7150   29.8820 C   0  0  0  0  0
   -2.5440   -5.4570   31.0590 O   0  0  0  0  0
   -3.8990   -6.3690   29.5880 O   0  0  0  0  0
   -0.8470   -4.1840   25.8970 N   0  0  0  0  0
   -1.2310   -3.8120   24.5460 C   0  0  0  0  0
   -2.7400   -3.8930   24.3310 C   0  0  0  0  0
   -3.4560   -4.6400   24.9910 O   0  0  0  0  0
   -0.5340   -4.7160   23.5320 C   0  0  0  0  0
    0.9650   -4.5330   23.5230 C   0  0  0  0  0
    1.4410   -3.4320   23.8610 O   0  0  0  0  0
    1.6670   -5.4950   23.1810 O   0  0  0  0  0
   -3.2070   -3.1100   23.3600 N   0  0  0  0  0
   -4.6160   -3.0670   22.9840 C   0  0  0  0  0
   -5.5130   -2.8180   24.1930 C   0  0  0  0  0
   -6.5800   -3.4130   24.3320 O   0  0  0  0  0
   -5.0450   -4.3020   22.1810 C   0  0  0  0  0
   -4.3580   -4.4050   20.8080 C   0  0  0  0  0
   -4.6510   -3.2020   19.9300 C   0  0  0  0  0
   -3.7720   -2.3410   19.6970 O   0  0  0  0  0
   -5.8910   -3.1200   19.4360 N   0  0  0  0  0
   -5.0870   -1.8960   25.0530 N   0  0  0  0  0
   -5.8810   -1.4660   26.1930 C   0  0  0  0  0
   -6.4730   -0.0960   25.8890 C   0  0  0  0  0
   -5.7550    0.8230   25.4860 O   0  0  0  0  0
   -5.0190   -1.3770   27.4490 C   0  0  0  0  0
   -5.8140   -1.1820   28.7260 C   0  0  0  0  0
   -4.7780   -1.2100   30.1920 S   0  0  0  0  0
   -3.8670   -2.7110   29.9040 C   0  0  0  0  0
   -7.7720    0.0290   26.0770 N   0  0  0  0  0
   -8.4610    1.2880   25.7730 C   0  0  0  0  0
   -8.0690    2.3490   26.7960 C   0  0  0  0  0
   -8.1790    2.1100   28.0110 O   0  0  0  0  0
   -9.9650    1.0650   25.7650 C   0  0  0  0  0
  -10.7000    2.3540   25.4460 C   0  0  0  0  0
  -10.3250    0.0060   24.7690 C   0  0  0  0  0
   -7.6410    3.5350   26.3730 N   0  0  0  0  0
   -7.2530    4.5550   27.3560 C   0  0  0  0  0
   -8.4160    4.9190   28.2600 C   0  0  0  0  0
   -9.5790    4.9160   27.8480 O   0  0  0  0  0
   -6.7800    5.7350   26.5050 C   0  0  0  0  0
   -7.0790    5.4280   25.1200 C   0  0  0  0  0
   -7.3780    3.9480   24.9870 C   0  0  0  0  0
   -8.0780    5.2210   29.5120 N   0  0  0  0  0
   -9.0520    5.3420   30.5970 C   0  0  0  0  0
   -9.1150    6.7570   31.1600 C   0  0  0  0  0
  -10.1410    7.4290   31.0460 O   0  0  0  0  0
   -8.6870    4.3640   31.7200 C   0  0  0  0  0
   -9.7030    4.2980   32.7050 O   0  0  0  0  0
   -8.1410    7.2440   31.7350 O   0  0  0  0  0
    1.5352   -2.4151   27.9114 H   0  0  0  0  0
    0.3352   -1.9089   28.9510 H   0  0  0  0  0
    1.4197   -3.0774   29.4362 H   0  0  0  0  0
    0.6176   -4.5969   27.8249 H   0  0  0  0  0
   -1.5088   -3.3093   29.5510 H   0  0  0  0  0
   -0.3756   -4.6687   30.0017 H   0  0  0  0  0
   -1.4570   -6.0576   28.3340 H   0  0  0  0  0
   -2.6373   -4.7143   28.0215 H   0  0  0  0  0
   -3.9622   -6.4511   28.6336 H   0  0  0  0  0
   -0.6385   -5.1617   26.0995 H   0  0  0  0  0
   -0.9232   -2.7763   24.4025 H   0  0  0  0  0
   -0.9088   -4.4593   22.5412 H   0  0  0  0  0
   -0.7436   -5.7501   23.8054 H   0  0  0  0  0
    0.7267   -2.8314   24.0861 H   0  0  0  0  0
   -2.5501   -2.5137   22.8567 H   0  0  0  0  0
   -4.7408   -2.2151   22.3155 H   0  0  0  0  0
   -6.1183   -4.2250   22.0071 H   0  0  0  0  0
   -4.7631   -5.1834   22.7570 H   0  0  0  0  0
   -4.7378   -5.2938   20.3041 H   0  0  0  0  0
   -3.2812   -4.4531   20.9698 H   0  0  0  0  0
   -6.1527   -2.3324   18.8430 H   0  0  0  0  0
   -6.5751   -3.8450   19.6522 H   0  0  0  0  0
   -4.1694   -1.4752   24.9071 H   0  0  0  0  0
   -6.6739   -2.1929   26.3691 H   0  0  0  0  0
   -4.3688   -0.5095   27.3357 H   0  0  0  0  0
   -4.4821   -2.3211   27.5418 H   0  0  0  0  0
   -6.5300   -2.0001   28.8046 H   0  0  0  0  0
   -6.2982   -0.2068   28.6750 H   0  0  0  0  0
   -4.5612   -3.5487   29.8371 H   0  0  0  0  0
   -3.3104   -2.6233   28.9709 H   0  0  0  0  0
   -3.1733   -2.8773   30.7281 H   0  0  0  0  0
   -8.3057   -0.7612   26.4391 H   0  0  0  0  0
   -8.1637    1.6382   24.7845 H   0  0  0  0  0
  -10.2672    0.7350   26.7589 H   0  0  0  0  0
  -10.4596    3.1039   26.1997 H   0  0  0  0  0
  -10.3924    2.7126   24.4637 H   0  0  0  0  0
  -11.7740    2.1680   25.4463 H   0  0  0  0  0
  -10.0047    0.3195   23.7754 H   0  0  0  0  0
   -9.8267   -0.9261   25.0355 H   0  0  0  0  0
  -11.4047   -0.1435   24.7737 H   0  0  0  0  0
   -6.4734    4.2127   28.0365 H   0  0  0  0  0
   -5.7093    5.8918   26.6360 H   0  0  0  0  0
   -7.2889    6.6497   26.8090 H   0  0  0  0  0
   -6.2222    5.6842   24.4967 H   0  0  0  0  0
   -7.9455    6.0053   24.7976 H   0  0  0  0  0
   -8.2166    3.7458   24.3207 H   0  0  0  0  0
   -6.5594    3.3922   24.5299 H   0  0  0  0  0
   -7.0925    5.3754   29.7249 H   0  0  0  0  0
  -10.0338    5.1054   30.1869 H   0  0  0  0  0
  -10.8065    6.9182   30.5793 H   0  0  0  0  0
   -7.7694    4.7117   32.1946 H   0  0  0  0  0
   -8.5634    3.3719   31.2859 H   0  0  0  0  0
   -9.4426    3.6786   33.3907 H   0  0  0  0  0
  1  2  1  0  0  0
  2  3  1  0  0  0
  2  5  1  0  0  0
  3  4  2  0  0  0
  3 10  1  0  0  0
  5  6  1  0  0  0
  6  7  1  0  0  0
  7  8  2  0  0  0
  7  9  1  0  0  0
 10 11  1  0  0  0
 11 12  1  0  0  0
 11 14  1  0  0  0
 12 13  2  0  0  0
 12 18  1  0  0  0
 14 15  1  0  0  0
 15 16  1  0  0  0
 15 17  2  0  0  0
 18 19  1  0  0  0
 19 20  1  0  0  0
 19 22  1  0  0  0
 20 21  2  0  0  0
 20 27  1  0  0  0
 22 23  1  0  0  0
 23 24  1  0  0  0
 24 25  2  0  0  0
 24 26  1  0  0  0
 27 28  1  0  0  0
 28 29  1  0  0  0
 28 31  1  0  0  0
 29 30  2  0  0  0
 29 35  1  0  0  0
 31 32  1  0  0  0
 32 33  1  0  0  0
 33 34  1  0  0  0
 35 36  1  0  0  0
 36 37  1  0  0  0
 36 39  1  0  0  0
 37 38  2  0  0  0
 37 42  1  0  0  0
 39 40  1  0  0  0
 39 41  1  0  0  0
 42 43  1  0  0  0
 42 48  1  0  0  0
 43 44  1  0  0  0
 43 46  1  0  0  0
 44 45  2  0  0  0
 44 49  1  0  0  0
 46 47  1  0  0  0
 47 48  1  0  0  0
 49 50  1  0  0  0
 50 51  1  0  0  0
 50 53  1  0  0  0
 51 52  1  0  0  0
 51 55  2  0  0  0
 53 54  1  0  0  0
  1 56  1  0  0  0
  1 57  1  0  0  0
  1 58  1  0  0  0
  2 59  1  0  0  0
  5 60  1  0  0  0
  5 61  1  0  0  0
  6 62  1  0  0  0
  6 63  1  0  0  0
  9 64  1  0  0  0
 10 65  1  0  0  0
 11 66  1  0  0  0
 14 67  1  0  0  0
 14 68  1  0  0  0
 16 69  1  0  0  0
 18 70  1  0  0  0
 19 71  1  0  0  0
 22 72  1  0  0  0
 22 73  1  0  0  0
 23 74  1  0  0  0
 23 75  1  0  0  0
 26 76  1  0  0  0
 26 77  1  0  0  0
 27 78  1  0  0  0
 28 79  1  0  0  0
 31 80  1  0  0  0
 31 81  1  0  0  0
 32 82  1  0  0  0
 32 83  1  0  0  0
 34 84  1  0  0  0
 34 85  1  0  0  0
 34 86  1  0  0  0
 35 87  1  0  0  0
 36 88  1  0  0  0
 39 89  1  0  0  0
 40 90  1  0  0  0
 40 91  1  0  0  0
 40 92  1  0  0  0
 41 93  1  0  0  0
 41 94  1  0  0  0
 41 95  1  0  0  0
 43 96  1  0  0  0
 46 97  1  0  0  0
 46 98  1  0  0  0
 47 99  1  0  0  0
 47100  1  0  0  0
 48101  1  0  0  0
 48102  1  0  0  0
 49103  1  0  0  0
 50104  1  0  0  0
 52105  1  0  0  0
 53106  1  0  0  0
 53107  1  0  0  0
 54108  1  0  0  0
M  END
$$$$
