### 
### Created by X-TOOL on Mon Sep 10 21:12:55 2018
### 

@<TRIPOS>MOLECULE
2i72_ligand
   28    29     1     0     0
SMALL
GAST_HUCK


@<TRIPOS>ATOM
      1 O24        -5.7190    9.8390   51.3750 O.2       1 VA1        -0.3711
      2 C23        -6.8250    9.2880   51.4780 C.2       1 VA1         0.2028
      3 N22        -6.9880    8.1230   51.9970 N.am      1 VA1        -0.1785
      4 C17        -8.1510    7.6340   52.2240 C.2       1 VA1         0.2028
      5 O18        -9.1950    8.2680   52.0380 O.2       1 VA1        -0.3711
      6 C12        -5.8300    7.2950   52.3390 C.3       1 VA1         0.0888
      7 C14        -5.3530    7.3740   53.7820 C.ar      1 VA1        -0.0260
      8 C13        -4.8830    6.1980   54.3670 C.ar      1 VA1        -0.0640
      9 C10        -4.4050    6.1840   55.6770 C.ar      1 VA1        -0.0337
     10 C9         -3.8900    5.0230   56.3860 C.2       1 VA1        -0.0730
     11 C15        -5.3300    8.5790   54.5190 C.ar      1 VA1        -0.0657
     12 C16        -4.8750    8.5870   55.8490 C.ar      1 VA1        -0.0551
     13 C11        -4.4140    7.3730   56.3860 C.ar      1 VA1         0.0302
     14 S19        -3.7840    7.1590   57.9320 S.3       1 VA1        -0.0537
     15 C8         -3.5090    5.4740   57.6460 C.2       1 VA1         0.0029
     16 B7         -2.9810    4.5280   58.7420 B         1 VA1         0.7491
     17 O20        -3.8110    3.2510   58.8410 O.3       1 VA1        -0.4926
     18 O21        -2.7030    5.0980   60.1320 O.3       1 VA1        -0.4926
     19 H1         -7.7027    9.8176   51.1103 H         1 VA1         0.1614
     20 H2         -8.2220    6.6136   52.5977 H         1 VA1         0.1614
     21 H3         -4.9949    7.6013   51.6918 H         1 VA1         0.0731
     22 H4         -6.0919    6.2476   52.1286 H         1 VA1         0.0731
     23 H5         -4.8895    5.2785   53.7929 H         1 VA1         0.0497
     24 H6         -3.8172    4.0048   56.0067 H         1 VA1         0.0406
     25 H7         -5.6645    9.5009   54.0572 H         1 VA1         0.0518
     26 H8         -4.8796    9.4965   56.4389 H         1 VA1         0.0557
     27 H9         -3.9735    2.9118   57.9686 H         1 VA1         0.1670
     28 H10        -3.5264    5.2981   60.5615 H         1 VA1         0.1670
@<TRIPOS>BOND
     1    1    2 2  
     2    2    3 am 
     3    3    4 am 
     4    3    6 1  
     5    4    5 2  
     6    6    7 1  
     7    7    8 ar 
     8    7   11 ar 
     9    8    9 ar 
    10    9   10 1  
    11    9   13 ar 
    12   10   15 2  
    13   11   12 ar 
    14   12   13 ar 
    15   13   14 1  
    16   14   15 1  
    17   15   16 1  
    18   16   17 1  
    19   16   18 1  
    20    2   19 1  
    21    4   20 1  
    22    6   21 1  
    23    6   22 1  
    24    8   23 1  
    25   10   24 1  
    26   11   25 1  
    27   12   26 1  
    28   17   27 1  
    29   18   28 1  
@<TRIPOS>SUBSTRUCTURE
     1 VA1         1

