3wd9_ligand
  -I-interpret- 

 58 60  0  0  0  0  0  0  0  0999 V2000
   27.8840   19.0800  -16.3670 C   0  0  0  0  0
   27.8150   19.5120  -17.6410 N   0  0  0  0  0
   26.6090   19.4440  -18.2290 C   0  0  0  0  0
   25.5110   18.9730  -17.6210 N   0  0  0  0  0
   25.5830   18.5420  -16.3490 C   0  0  0  0  0
   26.7970   18.5830  -15.6680 C   0  0  0  0  0
   26.4600   19.9230  -19.6170 C   0  0  0  0  0
   27.4330   20.6960  -20.2310 C   0  0  0  0  0
   27.3200   21.1540  -21.5320 C   0  0  0  0  0
   26.1980   20.8510  -22.2770 C   0  0  0  0  0
   25.2080   20.0850  -21.6950 C   0  0  0  0  0
   25.3450   19.6320  -20.3910 C   0  0  0  0  0
   24.4020   18.0640  -15.7270 N   0  0  0  0  0
   23.2270   17.7140  -16.4590 C   0  0  0  0  0
   22.6100   16.4970  -16.2770 C   0  0  0  0  0
   21.4710   16.1360  -16.9720 C   0  0  0  0  0
   20.9240   17.0090  -17.8830 C   0  0  0  0  0
   21.5240   18.2310  -18.0630 C   0  0  0  0  0
   22.6500   18.5780  -17.3610 C   0  0  0  0  0
   19.7000   16.7060  -18.6780 C   0  0  0  0  0
   19.9260   15.7660  -19.8280 C   0  0  0  0  0
   21.1160   15.9760  -20.4980 N   0  0  0  0  0
   19.1000   14.9080  -20.1150 O   0  0  0  0  0
   26.9660   18.1420  -14.2570 C   0  0  0  0  0
   26.0250   18.1470  -13.4760 O   0  0  0  0  0
   28.2290   17.7600  -13.9060 N   0  0  0  0  0
   21.4120   15.3270  -21.7630 C   0  0  0  0  0
   21.8780   16.2590  -22.8780 C   0  0  0  0  0
   20.8670   17.3420  -23.1700 C   0  0  0  0  0
   23.1930   16.9150  -22.5360 C   0  0  0  0  0
   22.0810   15.4450  -24.1300 C   0  0  0  0  0
   28.8474   19.1240  -15.8590 H   0  0  0  0  0
   28.3271   20.9547  -19.6638 H   0  0  0  0  0
   28.1178   21.7546  -21.9689 H   0  0  0  0  0
   26.0961   21.2085  -23.3016 H   0  0  0  0  0
   24.3126   19.8344  -22.2639 H   0  0  0  0  0
   24.5488   19.0260  -19.9587 H   0  0  0  0  0
   24.3912   17.9658  -14.7118 H   0  0  0  0  0
   23.0342   15.7939  -15.5602 H   0  0  0  0  0
   21.0087   15.1642  -16.7989 H   0  0  0  0  0
   21.0982   18.9372  -18.7758 H   0  0  0  0  0
   23.0972   19.5590  -17.5211 H   0  0  0  0  0
   19.3495   17.6485  -19.0986 H   0  0  0  0  0
   18.9915   16.2239  -18.0044 H   0  0  0  0  0
   21.8077   16.6061  -20.0917 H   0  0  0  0  0
   28.4240   17.4594  -12.9510 H   0  0  0  0  0
   28.9775   17.7752  -14.5988 H   0  0  0  0  0
   20.4835   14.8697  -22.1049 H   0  0  0  0  0
   22.2298   14.6315  -21.5742 H   0  0  0  0  0
   19.9263   16.8856  -23.4781 H   0  0  0  0  0
   20.7060   17.9386  -22.2721 H   0  0  0  0  0
   21.2415   17.9808  -23.9699 H   0  0  0  0  0
   23.0797   17.4984  -21.6223 H   0  0  0  0  0
   23.9525   16.1475  -22.3867 H   0  0  0  0  0
   23.4934   17.5713  -23.3528 H   0  0  0  0  0
   22.8345   14.6793  -23.9458 H   0  0  0  0  0
   21.1403   14.9709  -24.4101 H   0  0  0  0  0
   22.4144   16.0982  -24.9364 H   0  0  0  0  0
  1  2  4  0  0  0
  1  6  4  0  0  0
  2  3  4  0  0  0
  3  4  4  0  0  0
  3  7  1  0  0  0
  4  5  4  0  0  0
  5  6  4  0  0  0
  5 13  1  0  0  0
  6 24  1  0  0  0
  7  8  4  0  0  0
  7 12  4  0  0  0
  8  9  4  0  0  0
  9 10  4  0  0  0
 10 11  4  0  0  0
 11 12  4  0  0  0
 13 14  1  0  0  0
 14 15  4  0  0  0
 14 19  4  0  0  0
 15 16  4  0  0  0
 16 17  4  0  0  0
 17 18  4  0  0  0
 17 20  1  0  0  0
 18 19  4  0  0  0
 20 21  1  0  0  0
 21 22  1  0  0  0
 21 23  2  0  0  0
 22 27  1  0  0  0
 24 25  2  0  0  0
 24 26  1  0  0  0
 27 28  1  0  0  0
 28 29  1  0  0  0
 28 30  1  0  0  0
 28 31  1  0  0  0
  1 32  1  0  0  0
  8 33  1  0  0  0
  9 34  1  0  0  0
 10 35  1  0  0  0
 11 36  1  0  0  0
 12 37  1  0  0  0
 13 38  1  0  0  0
 15 39  1  0  0  0
 16 40  1  0  0  0
 18 41  1  0  0  0
 19 42  1  0  0  0
 20 43  1  0  0  0
 20 44  1  0  0  0
 22 45  1  0  0  0
 26 46  1  0  0  0
 26 47  1  0  0  0
 27 48  1  0  0  0
 27 49  1  0  0  0
 29 50  1  0  0  0
 29 51  1  0  0  0
 29 52  1  0  0  0
 30 53  1  0  0  0
 30 54  1  0  0  0
 30 55  1  0  0  0
 31 56  1  0  0  0
 31 57  1  0  0  0
 31 58  1  0  0  0
M  END
$$$$
