### 
### Created by X-TOOL on Mon Sep 10 21:13:14 2018
### 

@<TRIPOS>MOLECULE
3zmt_ligand
  107   108     1     0     0
SMALL
GAST_HUCK


@<TRIPOS>ATOM
      1 N          -0.4310   54.3350   84.3520 N.4       1 PRO         0.2461
      2 CA         -0.2120   53.0480   85.0020 C.3       1 PRO         0.0670
      3 C          -0.6560   51.8740   84.1270 C.2       1 PRO         0.2268
      4 O          -1.3290   52.0770   83.1120 O.2       1 PRO        -0.3907
      5 CB         -1.1010   53.1410   86.2430 C.3       1 PRO         0.0127
      6 CG         -2.2270   54.0240   85.8190 C.3       1 PRO        -0.0053
      7 CD         -1.6190   55.0280   84.8800 C.3       1 PRO        -0.0313
      8 N          -0.2820   50.6610   84.5340 N.am      1 ARG        -0.2610
      9 CA         -0.7180   49.4320   83.8690 C.3       1 ARG         0.1312
     10 C          -2.2470   49.3510   83.7420 C.2       1 ARG         0.2040
     11 O          -2.7610   48.8570   82.7420 O.2       1 ARG        -0.3944
     12 CB         -0.1510   48.2040   84.6000 C.3       1 ARG        -0.0092
     13 CG         -0.8250   46.8780   84.2690 C.3       1 ARG        -0.0156
     14 CD          0.0190   45.7030   84.7270 C.3       1 ARG         0.0627
     15 NE          0.9350   45.2440   83.6820 N.pl3     1 ARG        -0.2723
     16 CZ          2.0850   44.6120   83.9060 C.cat     1 ARG         0.2882
     17 NH1         2.4920   44.3680   85.1460 N.pl3     1 ARG        -0.2849
     18 NH2         2.8400   44.2320   82.8850 N.pl3     1 ARG        -0.2849
     19 N          -2.9550   49.8600   84.7490 N.am      1 SER        -0.2616
     20 CA         -4.4250   49.8260   84.8080 C.3       1 SER         0.1539
     21 C          -5.1450   50.2570   83.5250 C.2       1 SER         0.2063
     22 O          -6.1940   49.7030   83.1920 O.2       1 SER        -0.3943
     23 CB         -4.9290   50.6790   85.9790 C.3       1 SER         0.0843
     24 OG         -4.2670   50.3410   87.1830 O.3       1 SER        -0.3903
     25 N          -4.5910   51.2440   82.8170 N.am      1 PHE        -0.2619
     26 CA         -5.2350   51.7860   81.6150 C.3       1 PHE         0.1404
     27 C          -5.0550   50.9080   80.3770 C.2       1 PHE         0.2060
     28 O          -5.7620   51.0890   79.3810 O.2       1 PHE        -0.3942
     29 CB         -4.7450   53.2090   81.3130 C.3       1 PHE         0.0214
     30 CG         -5.1540   54.2310   82.3380 C.ar      1 PHE        -0.0386
     31 CD1        -6.3670   54.1250   83.0150 C.ar      1 PHE        -0.0601
     32 CD2        -4.3350   55.3220   82.6050 C.ar      1 PHE        -0.0601
     33 CE1        -6.7390   55.0710   83.9570 C.ar      1 PHE        -0.0686
     34 CE2        -4.7050   56.2740   83.5420 C.ar      1 PHE        -0.0686
     35 CZ         -5.9080   56.1480   84.2180 C.ar      1 PHE        -0.0687
     36 N          -4.1130   49.9650   80.4550 N.am      1 LEU        -0.2636
     37 CA         -3.7580   49.0800   79.3410 C.3       1 LEU         0.1312
     38 C          -4.9890   48.4020   78.7420 C.2       1 LEU         0.2034
     39 O          -5.7350   47.7050   79.4380 O.2       1 LEU        -0.3944
     40 CB         -2.7540   48.0200   79.8050 C.3       1 LEU        -0.0101
     41 CG         -1.4650   47.7680   79.0210 C.3       1 LEU        -0.0425
     42 CD1        -0.6810   46.6490   79.6890 C.3       1 LEU        -0.0625
     43 CD2        -1.7220   47.4320   77.5620 C.3       1 LEU        -0.0625
     44 N          -5.1920   48.6250   77.4480 N.am      1 VAL        -0.2692
     45 CA         -6.3380   48.0810   76.7260 C.3       1 VAL         0.0967
     46 C          -6.1820   46.5780   76.4860 C.2       1 VAL         0.0603
     47 O          -5.0699   46.0726   76.1770 O.co2     1 VAL        -0.5666
     48 CB         -6.5620   48.8510   75.4040 C.3       1 VAL        -0.0118
     49 CG1        -7.2140   47.9760   74.3440 C.3       1 VAL        -0.0590
     50 CG2        -7.3810   50.1060   75.6650 C.3       1 VAL        -0.0590
     51 O          -7.1885   45.8286   76.5999 O.co2     1 VAL        -0.5666
     52 H1         -0.5563   54.1827   83.3635 H         1 PRO         0.2035
     53 H2          0.3782   54.9169   84.5024 H         1 PRO         0.2035
     54 H3          0.8459   52.9218   85.2756 H         1 PRO         0.1099
     55 H4         -0.5510   53.5868   87.0848 H         1 PRO         0.0347
     56 H5         -1.4722   52.1469   86.5328 H         1 PRO         0.0347
     57 H6         -2.6675   54.5304   86.6905 H         1 PRO         0.0320
     58 H7         -3.0027   53.4376   85.3049 H         1 PRO         0.0320
     59 H8         -2.3183   55.2812   84.0696 H         1 PRO         0.0814
     60 H9         -1.3327   55.9444   85.4169 H         1 PRO         0.0814
     61 H10         0.3222   50.5875   85.3275 H         1 ARG         0.1884
     62 H11        -0.3029   49.4387   82.8504 H         1 ARG         0.0800
     63 H12        -0.2529   48.3758   85.6817 H         1 ARG         0.0313
     64 H13         0.9146   48.1170   84.3413 H         1 ARG         0.0313
     65 H14        -0.9713   46.8118   83.1808 H         1 ARG         0.0301
     66 H15        -1.8016   46.8363   84.7735 H         1 ARG         0.0301
     67 H16        -0.6481   44.8733   85.0036 H         1 ARG         0.0689
     68 H17         0.6069   46.0091   85.6048 H         1 ARG         0.0689
     69 H18         0.6709   45.4228   82.7026 H         1 ARG         0.2642
     70 H19         3.3835   43.8783   85.3085 H         1 ARG         0.2615
     71 H20         1.9163   44.6684   85.9455 H         1 ARG         0.2615
     72 H21         2.5320   44.4172   81.9197 H         1 ARG         0.2615
     73 H22         3.7347   43.7515   83.0569 H         1 ARG         0.2615
     74 H23        -2.4610   50.2883   85.5056 H         1 SER         0.1884
     75 H24        -4.7106   48.7814   85.0009 H         1 SER         0.0823
     76 H25        -6.0090   50.5125   86.1049 H         1 SER         0.0606
     77 H26        -4.7452   51.7401   85.7547 H         1 SER         0.0606
     78 H27        -4.5987   50.8838   87.8886 H         1 SER         0.2097
     79 H28        -3.7147   51.6237   83.1134 H         1 PHE         0.1885
     80 H29        -6.3135   51.8397   81.8245 H         1 PHE         0.0823
     81 H30        -5.1531   53.5151   80.3384 H         1 PHE         0.0474
     82 H31        -3.6463   53.1922   81.2616 H         1 PHE         0.0474
     83 H32        -7.0279   53.2925   82.8024 H         1 PHE         0.0557
     84 H33        -3.3960   55.4295   82.0742 H         1 PHE         0.0557
     85 H34        -7.6782   54.9683   84.4884 H         1 PHE         0.0599
     86 H35        -4.0538   57.1163   83.7458 H         1 PHE         0.0599
     87 H36        -6.1987   56.8920   84.9508 H         1 PHE         0.0559
     88 H37        -3.6230   49.8564   81.3200 H         1 LEU         0.1883
     89 H38        -3.2852   49.6894   78.5567 H         1 LEU         0.0800
     90 H39        -3.2970   47.0637   79.8322 H         1 LEU         0.0315
     91 H40        -2.4516   48.2991   80.8251 H         1 LEU         0.0315
     92 H41        -0.8608   48.6866   79.0542 H         1 LEU         0.0298
     93 H42         0.2468   46.4654   79.1273 H         1 LEU         0.0232
     94 H43        -1.2891   45.7324   79.7022 H         1 LEU         0.0232
     95 H44        -0.4336   46.9398   80.7206 H         1 LEU         0.0232
     96 H45        -2.2891   48.2490   77.0920 H         1 LEU         0.0232
     97 H46        -2.3011   46.4990   77.4971 H         1 LEU         0.0232
     98 H47        -0.7619   47.3048   77.0404 H         1 LEU         0.0232
     99 H48        -4.5334   49.1880   76.9488 H         1 VAL         0.1875
    100 H49        -7.2300   48.2262   77.3531 H         1 VAL         0.0729
    101 H50        -5.5780   49.1605   75.0220 H         1 VAL         0.0336
    102 H51        -7.3552   48.5600   73.4226 H         1 VAL         0.0234
    103 H52        -8.1905   47.6245   74.7085 H         1 VAL         0.0234
    104 H53        -6.5678   47.1109   74.1344 H         1 VAL         0.0234
    105 H54        -6.8835   50.7151   76.4341 H         1 VAL         0.0234
    106 H55        -8.3849   49.8227   76.0143 H         1 VAL         0.0234
    107 H56        -7.4668   50.6878   74.7354 H         1 VAL         0.0234
@<TRIPOS>BOND
     1    1    2 1  
     2    1    7 1  
     3    2    3 1  
     4    2    5 1  
     5    3    4 2  
     6    3    8 am 
     7    5    6 1  
     8    6    7 1  
     9    8    9 1  
    10    9   10 1  
    11    9   12 1  
    12   10   11 2  
    13   10   19 am 
    14   12   13 1  
    15   13   14 1  
    16   14   15 1  
    17   15   16 ar 
    18   16   17 ar 
    19   16   18 ar 
    20   19   20 1  
    21   20   21 1  
    22   20   23 1  
    23   21   22 2  
    24   21   25 am 
    25   23   24 1  
    26   25   26 1  
    27   26   27 1  
    28   26   29 1  
    29   27   28 2  
    30   27   36 am 
    31   29   30 1  
    32   30   31 ar 
    33   30   32 ar 
    34   31   33 ar 
    35   32   34 ar 
    36   33   35 ar 
    37   34   35 ar 
    38   36   37 1  
    39   37   38 1  
    40   37   40 1  
    41   38   39 2  
    42   38   44 am 
    43   40   41 1  
    44   41   42 1  
    45   41   43 1  
    46   44   45 1  
    47   45   46 1  
    48   45   48 1  
    49   46   47 ar 
    50   48   49 1  
    51   48   50 1  
    52   46   51 ar 
    53    1   52 1  
    54    1   53 1  
    55    2   54 1  
    56    5   55 1  
    57    5   56 1  
    58    6   57 1  
    59    6   58 1  
    60    7   59 1  
    61    7   60 1  
    62    8   61 1  
    63    9   62 1  
    64   12   63 1  
    65   12   64 1  
    66   13   65 1  
    67   13   66 1  
    68   14   67 1  
    69   14   68 1  
    70   15   69 1  
    71   17   70 1  
    72   17   71 1  
    73   18   72 1  
    74   18   73 1  
    75   19   74 1  
    76   20   75 1  
    77   23   76 1  
    78   23   77 1  
    79   24   78 1  
    80   25   79 1  
    81   26   80 1  
    82   29   81 1  
    83   29   82 1  
    84   31   83 1  
    85   32   84 1  
    86   33   85 1  
    87   34   86 1  
    88   35   87 1  
    89   36   88 1  
    90   37   89 1  
    91   40   90 1  
    92   40   91 1  
    93   41   92 1  
    94   42   93 1  
    95   42   94 1  
    96   42   95 1  
    97   43   96 1  
    98   43   97 1  
    99   43   98 1  
   100   44   99 1  
   101   45  100 1  
   102   48  101 1  
   103   49  102 1  
   104   49  103 1  
   105   49  104 1  
   106   50  105 1  
   107   50  106 1  
   108   50  107 1  
@<TRIPOS>SUBSTRUCTURE
     1 PRO         1

