3zmt_ligand
  -I-interpret- 

107108  0  0  0  0  0  0  0  0999 V2000
   -0.4310   54.3350   84.3520 N   0  3  0  0  0
   -0.2120   53.0480   85.0020 C   0  0  0  0  0
   -0.6560   51.8740   84.1270 C   0  0  0  0  0
   -1.3290   52.0770   83.1120 O   0  0  0  0  0
   -1.1010   53.1410   86.2430 C   0  0  0  0  0
   -2.2270   54.0240   85.8190 C   0  0  0  0  0
   -1.6190   55.0280   84.8800 C   0  0  0  0  0
   -0.2820   50.6610   84.5340 N   0  0  0  0  0
   -0.7180   49.4320   83.8690 C   0  0  0  0  0
   -2.2470   49.3510   83.7420 C   0  0  0  0  0
   -2.7610   48.8570   82.7420 O   0  0  0  0  0
   -0.1510   48.2040   84.6000 C   0  0  0  0  0
   -0.8250   46.8780   84.2690 C   0  0  0  0  0
    0.0190   45.7030   84.7270 C   0  0  0  0  0
    0.9350   45.2440   83.6820 N   0  0  0  0  0
    2.0850   44.6120   83.9060 C   0  0  0  0  0
    2.4920   44.3680   85.1460 N   0  0  0  0  0
    2.8400   44.2320   82.8850 N   0  0  0  0  0
   -2.9550   49.8600   84.7490 N   0  0  0  0  0
   -4.4250   49.8260   84.8080 C   0  0  0  0  0
   -5.1450   50.2570   83.5250 C   0  0  0  0  0
   -6.1940   49.7030   83.1920 O   0  0  0  0  0
   -4.9290   50.6790   85.9790 C   0  0  0  0  0
   -4.2670   50.3410   87.1830 O   0  0  0  0  0
   -4.5910   51.2440   82.8170 N   0  0  0  0  0
   -5.2350   51.7860   81.6150 C   0  0  0  0  0
   -5.0550   50.9080   80.3770 C   0  0  0  0  0
   -5.7620   51.0890   79.3810 O   0  0  0  0  0
   -4.7450   53.2090   81.3130 C   0  0  0  0  0
   -5.1540   54.2310   82.3380 C   0  0  0  0  0
   -6.3670   54.1250   83.0150 C   0  0  0  0  0
   -4.3350   55.3220   82.6050 C   0  0  0  0  0
   -6.7390   55.0710   83.9570 C   0  0  0  0  0
   -4.7050   56.2740   83.5420 C   0  0  0  0  0
   -5.9080   56.1480   84.2180 C   0  0  0  0  0
   -4.1130   49.9650   80.4550 N   0  0  0  0  0
   -3.7580   49.0800   79.3410 C   0  0  0  0  0
   -4.9890   48.4020   78.7420 C   0  0  0  0  0
   -5.7350   47.7050   79.4380 O   0  0  0  0  0
   -2.7540   48.0200   79.8050 C   0  0  0  0  0
   -1.4650   47.7680   79.0210 C   0  0  0  0  0
   -0.6810   46.6490   79.6890 C   0  0  0  0  0
   -1.7220   47.4320   77.5620 C   0  0  0  0  0
   -5.1920   48.6250   77.4480 N   0  0  0  0  0
   -6.3380   48.0810   76.7260 C   0  0  0  0  0
   -6.1820   46.5780   76.4860 C   0  0  0  0  0
   -5.0699   46.0726   76.1770 O   0  0  0  0  0
   -6.5620   48.8510   75.4040 C   0  0  0  0  0
   -7.2140   47.9760   74.3440 C   0  0  0  0  0
   -7.3810   50.1060   75.6650 C   0  0  0  0  0
   -7.1885   45.8286   76.5999 O   0  0  0  0  0
   -0.5767   54.1677   83.3564 H   0  0  0  0  0
    0.3841   54.9226   84.5274 H   0  0  0  0  0
    0.8415   52.8665   85.2146 H   0  0  0  0  0
   -0.5657   53.5408   87.1043 H   0  0  0  0  0
   -1.4475   52.1626   86.5759 H   0  0  0  0  0
   -2.6967   54.5104   86.6740 H   0  0  0  0  0
   -3.0206   53.4545   85.3353 H   0  0  0  0  0
   -2.3082   55.3320   84.0922 H   0  0  0  0  0
   -1.3679   55.9647   85.3775 H   0  0  0  0  0
    0.3343   50.5860   85.3433 H   0  0  0  0  0
   -0.3239   49.4462   82.8528 H   0  0  0  0  0
   -0.3077   48.3757   85.6649 H   0  0  0  0  0
    0.8898   48.1102   84.2901 H   0  0  0  0  0
   -0.9534   46.8135   83.1885 H   0  0  0  0  0
   -1.7850   46.8380   84.7837 H   0  0  0  0  0
   -0.6506   44.8804   84.9781 H   0  0  0  0  0
    0.6126   46.0235   85.5832 H   0  0  0  0  0
    0.6734   45.4211   82.7121 H   0  0  0  0  0
    3.3794   43.8916   85.3071 H   0  0  0  0  0
    1.9173   44.6570   85.9376 H   0  0  0  0  0
    2.5396   44.4239   81.9293 H   0  0  0  0  0
   -2.4511   50.2969   85.5208 H   0  0  0  0  0
   -4.6706   48.7732   84.9470 H   0  0  0  0  0
   -5.9961   50.4973   86.1068 H   0  0  0  0  0
   -4.7300   51.7272   85.7559 H   0  0  0  0  0
   -4.6022   50.8895   87.8960 H   0  0  0  0  0
   -3.6971   51.6313   83.1193 H   0  0  0  0  0
   -6.3006   51.8064   81.8433 H   0  0  0  0  0
   -5.1902   53.5084   80.3642 H   0  0  0  0  0
   -3.6554   53.1795   81.3046 H   0  0  0  0  0
   -7.0315   53.2879   82.8012 H   0  0  0  0  0
   -3.3908   55.4301   82.0713 H   0  0  0  0  0
   -7.6834   54.9677   84.4913 H   0  0  0  0  0
   -4.0502   57.1210   83.7469 H   0  0  0  0  0
   -6.2003   56.8961   84.9549 H   0  0  0  0  0
   -3.6132   49.8542   81.3372 H   0  0  0  0  0
   -3.3037   49.6960   78.5650 H   0  0  0  0  0
   -3.3020   47.0811   79.7257 H   0  0  0  0  0
   -2.4102   48.3843   80.7731 H   0  0  0  0  0
   -0.8863   48.6916   79.0311 H   0  0  0  0  0
   -0.4365   46.9383   80.7111 H   0  0  0  0  0
   -1.2846   45.7415   79.7014 H   0  0  0  0  0
    0.2380   46.4680   79.1316 H   0  0  0  0  0
   -2.3326   46.5312   77.5000 H   0  0  0  0  0
   -2.2460   48.2611   77.0864 H   0  0  0  0  0
   -0.7712   47.2635   77.0564 H   0  0  0  0  0
   -4.5202   49.1993   76.9388 H   0  0  0  0  0
   -7.2256   48.2145   77.3445 H   0  0  0  0  0
   -4.4070   46.7654   76.1293 H   0  0  0  0  0
   -5.5879   49.1450   75.0132 H   0  0  0  0  0
   -6.5728   47.1192   74.1372 H   0  0  0  0  0
   -8.1814   47.6284   74.7064 H   0  0  0  0  0
   -7.3533   48.5557   73.4315 H   0  0  0  0  0
   -8.3468   49.8270   76.0862 H   0  0  0  0  0
   -6.8481   50.7465   76.3678 H   0  0  0  0  0
   -7.5329   50.6407   74.7274 H   0  0  0  0  0
  1  2  1  0  0  0
  1  7  1  0  0  0
  2  3  1  0  0  0
  2  5  1  0  0  0
  3  4  2  0  0  0
  3  8  1  0  0  0
  5  6  1  0  0  0
  6  7  1  0  0  0
  8  9  1  0  0  0
  9 10  1  0  0  0
  9 12  1  0  0  0
 10 11  2  0  0  0
 10 19  1  0  0  0
 12 13  1  0  0  0
 13 14  1  0  0  0
 14 15  1  0  0  0
 15 16  1  0  0  0
 16 17  1  0  0  0
 16 18  2  0  0  0
 19 20  1  0  0  0
 20 21  1  0  0  0
 20 23  1  0  0  0
 21 22  2  0  0  0
 21 25  1  0  0  0
 23 24  1  0  0  0
 25 26  1  0  0  0
 26 27  1  0  0  0
 26 29  1  0  0  0
 27 28  2  0  0  0
 27 36  1  0  0  0
 29 30  1  0  0  0
 30 31  4  0  0  0
 30 32  4  0  0  0
 31 33  4  0  0  0
 32 34  4  0  0  0
 33 35  4  0  0  0
 34 35  4  0  0  0
 36 37  1  0  0  0
 37 38  1  0  0  0
 37 40  1  0  0  0
 38 39  2  0  0  0
 38 44  1  0  0  0
 40 41  1  0  0  0
 41 42  1  0  0  0
 41 43  1  0  0  0
 44 45  1  0  0  0
 45 46  1  0  0  0
 45 48  1  0  0  0
 46 47  1  0  0  0
 48 49  1  0  0  0
 48 50  1  0  0  0
 46 51  2  0  0  0
  1 52  1  0  0  0
  1 53  1  0  0  0
  2 54  1  0  0  0
  5 55  1  0  0  0
  5 56  1  0  0  0
  6 57  1  0  0  0
  6 58  1  0  0  0
  7 59  1  0  0  0
  7 60  1  0  0  0
  8 61  1  0  0  0
  9 62  1  0  0  0
 12 63  1  0  0  0
 12 64  1  0  0  0
 13 65  1  0  0  0
 13 66  1  0  0  0
 14 67  1  0  0  0
 14 68  1  0  0  0
 15 69  1  0  0  0
 17 70  1  0  0  0
 17 71  1  0  0  0
 18 72  1  0  0  0
 19 73  1  0  0  0
 20 74  1  0  0  0
 23 75  1  0  0  0
 23 76  1  0  0  0
 24 77  1  0  0  0
 25 78  1  0  0  0
 26 79  1  0  0  0
 29 80  1  0  0  0
 29 81  1  0  0  0
 31 82  1  0  0  0
 32 83  1  0  0  0
 33 84  1  0  0  0
 34 85  1  0  0  0
 35 86  1  0  0  0
 36 87  1  0  0  0
 37 88  1  0  0  0
 40 89  1  0  0  0
 40 90  1  0  0  0
 41 91  1  0  0  0
 42 92  1  0  0  0
 42 93  1  0  0  0
 42 94  1  0  0  0
 43 95  1  0  0  0
 43 96  1  0  0  0
 43 97  1  0  0  0
 44 98  1  0  0  0
 45 99  1  0  0  0
 47100  1  0  0  0
 48101  1  0  0  0
 49102  1  0  0  0
 49103  1  0  0  0
 49104  1  0  0  0
 50105  1  0  0  0
 50106  1  0  0  0
 50107  1  0  0  0
M  END
$$$$
