3r0i_ligand
  -I-interpret- 

 34 34  0  0  0  0  0  0  0  0999 V2000
   11.2810   -2.9760   38.7810 C   0  0  0  0  0
   10.5650   -4.1670   38.5060 C   0  0  0  0  0
    9.6400   -4.2090   37.4270 C   0  0  0  0  0
    9.4280   -3.0660   36.6380 C   0  0  0  0  0
   10.1380   -1.8820   36.9130 C   0  0  0  0  0
   11.0560   -1.8380   37.9640 C   0  0  0  0  0
    8.8070   -5.4030   37.0270 C   0  0  0  0  0
    9.7680   -6.9520   36.6900 P   0  0  0  0  0
   10.7780   -7.1900   37.8370 O   0  0  0  0  0
    8.7660   -8.0690   36.5230 O   0  0  0  0  0
   10.4480   -6.6840   35.3840 O   0  0  0  0  0
    7.4960   -5.4400   37.8680 C   0  0  0  0  0
    6.5320   -4.3860   37.2530 C   0  0  0  0  0
    5.8610   -4.5950   35.8550 C   0  0  0  0  0
    5.7730   -5.7320   35.3370 O   0  0  0  0  0
    5.3700   -3.4850   35.1930 N   0  0  0  0  0
    5.4340   -2.0640   35.6130 C   0  0  0  0  0
    4.6850   -3.6730   34.0000 O   0  0  0  0  0
    9.9480   -0.7440   36.1860 F   0  0  0  0  0
   11.6860   -0.6530   38.1210 F   0  0  0  0  0
   11.9924   -2.9346   39.6058 H   0  0  0  0  0
   10.7233   -5.0521   39.1222 H   0  0  0  0  0
    8.7149   -3.0960   35.8142 H   0  0  0  0  0
    8.4334   -5.2911   36.0092 H   0  0  0  0  0
   10.3004   -7.3573   38.6528 H   0  0  0  0  0
    8.3328   -8.2370   37.3631 H   0  0  0  0  0
    7.7018   -5.2110   38.9136 H   0  0  0  0  0
    7.0487   -6.4337   37.8418 H   0  0  0  0  0
    7.1670   -3.5125   37.1052 H   0  0  0  0  0
    5.6888   -4.3752   37.9436 H   0  0  0  0  0
    4.9221   -1.9453   36.5680 H   0  0  0  0  0
    6.4767   -1.7643   35.7185 H   0  0  0  0  0
    4.9501   -1.4418   34.8601 H   0  0  0  0  0
    4.4046   -2.8218   33.6557 H   0  0  0  0  0
  1  2  4  0  0  0
  1  6  4  0  0  0
  2  3  4  0  0  0
  3  4  4  0  0  0
  3  7  1  0  0  0
  4  5  4  0  0  0
  5  6  4  0  0  0
  5 19  1  0  0  0
  6 20  1  0  0  0
  7  8  1  0  0  0
  7 12  1  0  0  0
  8  9  1  0  0  0
  8 10  1  0  0  0
  8 11  2  0  0  0
 12 13  1  0  0  0
 13 14  1  0  0  0
 14 15  2  0  0  0
 14 16  1  0  0  0
 16 17  1  0  0  0
 16 18  1  0  0  0
  1 21  1  0  0  0
  2 22  1  0  0  0
  4 23  1  0  0  0
  7 24  1  0  0  0
  9 25  1  0  0  0
 10 26  1  0  0  0
 12 27  1  0  0  0
 12 28  1  0  0  0
 13 29  1  0  0  0
 13 30  1  0  0  0
 17 31  1  0  0  0
 17 32  1  0  0  0
 17 33  1  0  0  0
 18 34  1  0  0  0
M  END
$$$$
