### 
### Created by X-TOOL on Mon Sep 10 21:13:05 2018
### 

@<TRIPOS>MOLECULE
3r0i_ligand
   32    32     1     0     0
SMALL
GAST_HUCK


@<TRIPOS>ATOM
      1 C1         11.2810   -2.9760   38.7810 C.ar      1 C0K        -0.0365
      2 C2         10.5650   -4.1670   38.5060 C.ar      1 C0K        -0.0644
      3 C3          9.6400   -4.2090   37.4270 C.ar      1 C0K        -0.0293
      4 C4          9.4280   -3.0660   36.6380 C.ar      1 C0K        -0.0268
      5 C5         10.1380   -1.8820   36.9130 C.ar      1 C0K         0.1588
      6 C6         11.0560   -1.8380   37.9640 C.ar      1 C0K         0.1576
      7 C7          8.8070   -5.4030   37.0270 C.3       1 C0K         0.0635
      8 P8          9.7680   -6.9520   36.6900 P.3       1 C0K         0.0725
      9 O9         10.7780   -7.1900   37.8370 O.co2     1 C0K        -0.5606
     10 O10         8.7660   -8.0690   36.5230 O.co2     1 C0K        -0.5606
     11 O11        10.4480   -6.6840   35.3840 O.co2     1 C0K        -0.5606
     12 C12         7.4960   -5.4400   37.8680 C.3       1 C0K        -0.0090
     13 C13         6.5320   -4.3860   37.2530 C.3       1 C0K         0.0424
     14 C14         5.8610   -4.5950   35.8550 C.2       1 C0K         0.2012
     15 O15         5.7730   -5.7320   35.3370 O.2       1 C0K        -0.3968
     16 N16         5.3700   -3.4850   35.1930 N.am      1 C0K        -0.1538
     17 C17         5.4340   -2.0640   35.6130 C.3       1 C0K         0.0516
     18 O18         4.6850   -3.6730   34.0000 O.3       1 C0K        -0.2694
     19 F19         9.9480   -0.7440   36.1860 F         1 C0K        -0.1861
     20 F20        11.6860   -0.6530   38.1210 F         1 C0K        -0.1901
     21 H1         11.9884   -2.9348   39.6013 H         1 C0K         0.0576
     22 H2         10.7225   -5.0472   39.1188 H         1 C0K         0.0514
     23 H3          8.7188   -3.0958   35.8187 H         1 C0K         0.0533
     24 H4          8.4416   -5.1442   36.0223 H         1 C0K         0.0642
     25 H5          7.7124   -5.1876   38.9165 H         1 C0K         0.0327
     26 H6          7.0430   -6.4411   37.8178 H         1 C0K         0.0327
     27 H7          7.1036   -3.4488   37.1836 H         1 C0K         0.0504
     28 H8          5.7104   -4.2619   37.9738 H         1 C0K         0.0504
     29 H9          4.9460   -1.4350   34.8539 H         1 C0K         0.0514
     30 H10         6.4858   -1.7602   35.7198 H         1 C0K         0.0514
     31 H11         4.9176   -1.9428   36.5767 H         1 C0K         0.0514
     32 H12         4.6769   -4.5978   33.7831 H         1 C0K         0.2492
@<TRIPOS>BOND
     1    1    2 ar 
     2    1    6 ar 
     3    2    3 ar 
     4    3    4 ar 
     5    3    7 1  
     6    4    5 ar 
     7    5    6 ar 
     8    5   19 1  
     9    6   20 1  
    10    7    8 1  
    11    7   12 1  
    12    8    9 ar 
    13    8   10 ar 
    14    8   11 ar 
    15   12   13 1  
    16   13   14 1  
    17   14   15 2  
    18   14   16 am 
    19   16   17 1  
    20   16   18 1  
    21    1   21 1  
    22    2   22 1  
    23    4   23 1  
    24    7   24 1  
    25   12   25 1  
    26   12   26 1  
    27   13   27 1  
    28   13   28 1  
    29   17   29 1  
    30   17   30 1  
    31   17   31 1  
    32   18   32 1  
@<TRIPOS>SUBSTRUCTURE
     1 C0K         1

