6br3_ligand
  -I-interpret- 

 69 73  0  0  0  0  0  0  0  0999 V2000
   20.1950   79.3970    0.5920 C   0  0  0  0  0
   21.2760   78.8890    1.2700 C   0  0  0  0  0
   21.4470   79.1740    2.6060 C   0  0  0  0  0
   22.6040   78.6230    3.3720 C   0  0  0  0  0
   22.1070   80.5030    4.9810 C   0  0  0  0  0
   27.1050   82.1880    7.5130 C   0  0  0  0  0
   28.2510   81.7040    6.6790 C   0  0  0  0  0
   22.1710   77.2630    3.8550 C   0  0  0  0  0
   21.5600   74.3100    1.7320 C   0  0  0  0  0
   20.9760   74.5670    4.0240 C   0  0  0  0  0
   20.7950   73.1540    1.6970 C   0  0  0  0  0
   20.1150   72.6940    2.8100 C   0  0  0  0  0
   21.6520   75.0330    2.9090 C   0  0  0  0  0
   20.2160   73.4210    3.9830 C   0  0  0  0  0
   20.5060   79.9760    3.2220 C   0  0  0  0  0
   19.3130   80.1790    1.3050 C   0  0  0  0  0
   24.1820   79.1820    5.1860 C   0  0  0  0  0
   20.5830   72.2660    0.5270 C   0  0  0  0  0
   20.6430   80.3230    4.6600 C   0  0  0  0  0
   19.7990   71.1080    1.1020 C   0  0  0  0  0
   25.2760   81.4840    5.8410 C   0  0  0  0  0
   25.6650   80.0040    7.2490 C   0  0  0  0  0
   24.5230   80.2250    6.2610 C   0  0  0  0  0
   25.7570   81.5330    7.2840 C   0  0  0  0  0
   19.3500   71.4340    2.5090 C   0  0  0  0  0
   19.6440   70.2860    3.4430 C   0  0  0  0  0
   17.8590   71.6970    2.5370 C   0  0  0  0  0
   17.0660   80.0650    1.1410 C   0  0  0  0  0
   19.4450   80.4870    2.5990 N   0  0  0  0  0
   22.9470   79.3760    4.5840 N   0  0  0  0  0
   22.4330   76.2260    2.9600 N   0  0  0  0  0
   24.9320   78.2640    4.8850 O   0  0  0  0  0
   21.6130   77.1400    4.9370 O   0  0  0  0  0
   28.9860   80.7760    6.9880 O   0  0  0  0  0
   28.3600   82.4450    5.5430 O   0  0  0  0  0
   18.2260   80.6960    0.6280 O   0  0  0  0  0
   19.5810   73.0360    5.0950 F   0  0  0  0  0
   20.0412   79.1899   -0.4670 H   0  0  0  0  0
   21.9987   78.2600    0.7502 H   0  0  0  0  0
   23.4698   78.6443    2.7102 H   0  0  0  0  0
   22.1902   80.6020    6.0633 H   0  0  0  0  0
   22.4540   81.3751    4.4268 H   0  0  0  0  0
   26.9721   83.2381    7.2527 H   0  0  0  0  0
   27.3731   81.9611    8.5449 H   0  0  0  0  0
   22.0855   74.6473    0.8386 H   0  0  0  0  0
   21.0479   75.1228    4.9589 H   0  0  0  0  0
   21.5191   71.9498    0.0668 H   0  0  0  0  0
   20.0563   72.7647   -0.2866 H   0  0  0  0  0
   20.1031   81.2464    4.8697 H   0  0  0  0  0
   20.2263   79.5242    5.2736 H   0  0  0  0  0
   20.4334   70.2219    1.1246 H   0  0  0  0  0
   18.9230   70.9244    0.4799 H   0  0  0  0  0
   24.7855   82.3279    5.3560 H   0  0  0  0  0
   25.9599   81.5043    4.9925 H   0  0  0  0  0
   26.5206   79.3651    7.0303 H   0  0  0  0  0
   25.5596   79.3973    8.1484 H   0  0  0  0  0
   23.4853   80.2237    6.5944 H   0  0  0  0  0
   25.2653   82.1063    8.0699 H   0  0  0  0  0
   20.7034   70.0358    3.3868 H   0  0  0  0  0
   19.3913   70.5753    4.4631 H   0  0  0  0  0
   19.0490   69.4205    3.1514 H   0  0  0  0  0
   17.5734   72.0570    3.5254 H   0  0  0  0  0
   17.6100   72.4496    1.7889 H   0  0  0  0  0
   17.3242   70.7731    2.3168 H   0  0  0  0  0
   17.1385   78.9892    0.9815 H   0  0  0  0  0
   16.9840   80.2707    2.2083 H   0  0  0  0  0
   16.1861   80.4514    0.6265 H   0  0  0  0  0
   23.2164   76.3246    2.3143 H   0  0  0  0  0
   27.6691   83.1114    5.5295 H   0  0  0  0  0
  2  1  4  0  0  0
  1 16  4  0  0  0
  3  2  4  0  0  0
  4  3  1  0  0  0
  3 15  4  0  0  0
  4  8  1  0  0  0
 30  4  1  0  0  0
  5 19  1  0  0  0
 30  5  1  0  0  0
  6  7  1  0  0  0
 24  6  1  0  0  0
  7 34  2  0  0  0
  7 35  1  0  0  0
  8 31  1  0  0  0
  8 33  2  0  0  0
  9 11  4  0  0  0
 13  9  4  0  0  0
 13 10  4  0  0  0
 10 14  4  0  0  0
 11 12  4  0  0  0
 11 18  1  0  0  0
 14 12  4  0  0  0
 12 25  1  0  0  0
 31 13  1  0  0  0
 14 37  1  0  0  0
 19 15  1  0  0  0
 15 29  4  0  0  0
 29 16  4  0  0  0
 16 36  1  0  0  0
 23 17  1  0  0  0
 17 30  1  0  0  0
 17 32  2  0  0  0
 18 20  1  0  0  0
 25 20  1  0  0  0
 21 23  1  0  0  0
 21 24  1  0  0  0
 23 22  1  0  0  0
 22 24  1  0  0  0
 25 26  1  0  0  0
 25 27  1  0  0  0
 36 28  1  0  0  0
  1 38  1  0  0  0
  2 39  1  0  0  0
  4 40  1  0  0  0
  5 41  1  0  0  0
  5 42  1  0  0  0
  6 43  1  0  0  0
  6 44  1  0  0  0
  9 45  1  0  0  0
 10 46  1  0  0  0
 18 47  1  0  0  0
 18 48  1  0  0  0
 19 49  1  0  0  0
 19 50  1  0  0  0
 20 51  1  0  0  0
 20 52  1  0  0  0
 21 53  1  0  0  0
 21 54  1  0  0  0
 22 55  1  0  0  0
 22 56  1  0  0  0
 23 57  1  0  0  0
 24 58  1  0  0  0
 26 59  1  0  0  0
 26 60  1  0  0  0
 26 61  1  0  0  0
 27 62  1  0  0  0
 27 63  1  0  0  0
 27 64  1  0  0  0
 28 65  1  0  0  0
 28 66  1  0  0  0
 28 67  1  0  0  0
 31 68  1  0  0  0
 35 69  1  0  0  0
M  END
$$$$
