1i80_ligand
  -I-interpret- 

 14 15  0  0  0  0  0  0  0  0999 V2000
   29.3560   32.7100    8.4770 C   0  0  0  0  0
   30.3390   33.3220    9.2350 C   0  0  0  0  0
   29.8090   34.3230    9.9860 N   0  0  0  0  0
   28.4620   34.3570    9.7090 C   0  0  0  0  0
   27.4140   35.1910   10.1920 C   0  0  0  0  0
   27.4520   36.1240   11.0190 O   0  0  0  0  0
   26.1780   34.8430    9.6060 N   0  0  0  0  0
   25.9590   33.8380    8.6750 C   0  0  0  0  0
   26.9530   33.0640    8.2320 N   0  0  0  0  0
   28.1720   33.3720    8.7790 C   0  0  0  0  0
   29.4843   31.8783    7.7843 H   0  0  0  0  0
   31.3920   33.0403    9.2303 H   0  0  0  0  0
   25.3640   35.3849    9.8962 H   0  0  0  0  0
   24.9501   33.6761    8.2955 H   0  0  0  0  0
 10  1  4  0  0  0
  1  2  4  0  0  0
  2  3  4  0  0  0
  3  4  4  0  0  0
  4 10  4  0  0  0
  4  5  1  0  0  0
  5  7  1  0  0  0
  5  6  2  0  0  0
  7  8  1  0  0  0
  8  9  2  0  0  0
  9 10  1  0  0  0
  1 11  1  0  0  0
  2 12  1  0  0  0
  7 13  1  0  0  0
  8 14  1  0  0  0
M  END
$$$$
