4j3j_ligand
  -I-interpret- 

 51 53  0  0  0  0  0  0  0  0999 V2000
    8.7670   16.1120  -29.0690 F   0  0  0  0  0
    9.0950   17.3780  -29.3020 C   0  0  0  0  0
   10.3840   17.5610  -29.0270 F   0  0  0  0  0
    8.8720   17.6550  -30.5860 F   0  0  0  0  0
    8.2460   18.2960  -28.4090 C   0  0  0  0  0
    7.5140   19.3190  -28.8490 C   0  0  0  0  0
    6.9090   19.8940  -27.8070 C   0  0  0  0  0
    7.2530   19.2420  -26.6990 C   0  0  0  0  0
    6.8210   19.5180  -25.2690 C   0  0  0  0  0
    8.1200   18.1900  -27.0230 N   0  0  0  0  0
    8.7010   17.2470  -26.0100 C   0  0  0  0  0
    8.2720   17.5530  -24.5580 C   0  0  0  0  0
    6.9550   18.2400  -24.5360 N   0  0  0  0  0
    5.8920   17.7260  -23.9070 C   0  0  0  0  0
    4.8380   18.3640  -23.9590 O   0  0  0  0  0
    6.0060   16.5750  -23.2400 N   0  0  0  0  0
    4.8770   15.9420  -22.5320 C   0  0  0  0  0
    4.3580   16.8230  -21.3850 C   0  0  0  0  0
    3.3190   16.0820  -20.5390 C   0  0  0  0  0
    2.5240   17.0470  -19.7650 N   0  3  0  0  0
    4.0490   15.1240  -19.5880 C   0  0  0  0  0
    3.0900   14.3310  -18.7010 C   0  0  0  0  0
    2.3200   13.3310  -19.2990 C   0  0  0  0  0
    1.4310   12.5760  -18.5380 C   0  0  0  0  0
    0.6880   11.6150  -19.1200 F   0  0  0  0  0
    1.3090   12.8140  -17.1740 C   0  0  0  0  0
    0.4520   12.0810  -16.4470 F   0  0  0  0  0
    2.0750   13.8060  -16.5670 C   0  0  0  0  0
    2.9630   14.5590  -17.3320 C   0  0  0  0  0
    3.7020   15.5210  -16.7450 F   0  0  0  0  0
    7.4240   19.6344  -29.8885 H   0  0  0  0  0
    6.2430   20.7555  -27.8557 H   0  0  0  0  0
    5.7941   19.8819  -25.2347 H   0  0  0  0  0
    7.4392   20.2938  -24.8173 H   0  0  0  0  0
    9.7854   17.3463  -26.0570 H   0  0  0  0  0
    8.3412   16.2470  -26.2520 H   0  0  0  0  0
    9.0171   18.2027  -24.0989 H   0  0  0  0  0
    8.1905   16.6151  -24.0086 H   0  0  0  0  0
    6.9148   16.1124  -23.2190 H   0  0  0  0  0
    5.2225   14.9982  -22.1102 H   0  0  0  0  0
    4.0655   15.7932  -23.2444 H   0  0  0  0  0
    3.8884   17.7085  -21.8134 H   0  0  0  0  0
    5.1991   17.0900  -20.7452 H   0  0  0  0  0
    2.6485   15.5182  -21.1876 H   0  0  0  0  0
    1.8347   16.5459  -19.2045 H   0  0  0  0  0
    3.1409   17.5793  -19.1514 H   0  0  0  0  0
    2.0469   17.6829  -20.4041 H   0  0  0  0  0
    4.6903   15.7202  -18.9389 H   0  0  0  0  0
    4.6102   14.4130  -20.1943 H   0  0  0  0  0
    2.4154   13.1403  -20.3679 H   0  0  0  0  0
    1.9801   13.9926  -15.4973 H   0  0  0  0  0
  1  2  1  0  0  0
  2  3  1  0  0  0
  2  4  1  0  0  0
  2  5  1  0  0  0
  5  6  4  0  0  0
  5 10  4  0  0  0
  6  7  4  0  0  0
  7  8  4  0  0  0
  8  9  1  0  0  0
  8 10  4  0  0  0
  9 13  1  0  0  0
 10 11  1  0  0  0
 11 12  1  0  0  0
 12 13  1  0  0  0
 13 14  1  0  0  0
 14 15  2  0  0  0
 14 16  1  0  0  0
 16 17  1  0  0  0
 17 18  1  0  0  0
 18 19  1  0  0  0
 19 20  1  0  0  0
 19 21  1  0  0  0
 21 22  1  0  0  0
 22 23  4  0  0  0
 22 29  4  0  0  0
 23 24  4  0  0  0
 24 25  1  0  0  0
 24 26  4  0  0  0
 26 27  1  0  0  0
 26 28  4  0  0  0
 28 29  4  0  0  0
 29 30  1  0  0  0
  6 31  1  0  0  0
  7 32  1  0  0  0
  9 33  1  0  0  0
  9 34  1  0  0  0
 11 35  1  0  0  0
 11 36  1  0  0  0
 12 37  1  0  0  0
 12 38  1  0  0  0
 16 39  1  0  0  0
 17 40  1  0  0  0
 17 41  1  0  0  0
 18 42  1  0  0  0
 18 43  1  0  0  0
 19 44  1  0  0  0
 20 45  1  0  0  0
 20 46  1  0  0  0
 20 47  1  0  0  0
 21 48  1  0  0  0
 21 49  1  0  0  0
 23 50  1  0  0  0
 28 51  1  0  0  0
M  END
$$$$
