6eij_ligand
  -I-interpret- 

 58 62  0  0  0  0  0  0  0  0999 V2000
   12.2700  -19.1450   49.3610 C   0  0  0  0  0
   11.4420  -18.9110   50.4880 C   0  0  0  0  0
   11.8490  -17.8160   49.7010 C   0  0  0  0  0
   10.7080  -17.0700   48.9550 C   0  0  0  0  0
   10.6300  -15.8540   49.0650 O   0  0  0  0  0
    9.8520  -17.7920   48.2100 N   0  0  0  0  0
    8.8240  -17.1880   47.5940 C   0  0  0  0  0
    8.3440  -15.9290   47.6890 N   0  0  0  0  0
    7.9250  -17.9930   46.6160 S   0  0  0  0  0
    6.9210  -16.8660   46.2430 C   0  0  0  0  0
    5.8840  -16.9330   45.4070 N   0  0  0  0  0
    7.2490  -15.7390   46.9080 C   0  0  0  0  0
    6.4810  -14.6510   46.7040 C   0  0  0  0  0
    5.3770  -14.6940   45.8310 C   0  0  0  0  0
    5.0850  -15.8930   45.1550 C   0  0  0  0  0
    4.0090  -16.1090   44.2760 C   0  0  0  0  0
    3.5020  -17.4230   44.1440 C   0  0  0  0  0
    3.3910  -15.0800   43.5530 C   0  0  0  0  0
    2.3110  -15.3740   42.7110 C   0  0  0  0  0
    1.8260  -16.6800   42.5880 C   0  0  0  0  0
    2.4290  -17.7200   43.3050 C   0  0  0  0  0
    2.0070  -18.9980   43.2190 N   0  0  0  0  0
    2.1380  -19.6630   42.0430 C   0  0  0  0  0
    2.6350  -19.1260   41.0520 O   0  0  0  0  0
    1.6980  -20.9400   41.9640 N   0  0  0  0  0
    1.8730  -21.6990   40.7300 C   0  0  0  0  0
    0.8320  -22.7960   40.5650 C   0  0  0  0  0
   -0.4900  -22.1880   40.2290 N   0  3  0  0  0
   -1.5520  -23.2280   40.2680 C   0  0  0  0  0
   -2.9420  -22.6820   39.8310 C   0  0  0  0  0
   -2.8110  -21.4210   39.0970 O   0  0  0  0  0
   -1.8030  -21.5780   38.1310 C   0  0  0  0  0
   -0.5040  -21.4320   38.9380 C   0  0  0  0  0
   12.8198  -19.8289   48.7144 H   0  0  0  0  0
   10.8898  -19.2984   51.3442 H   0  0  0  0  0
   12.4040  -16.8856   49.8214 H   0  0  0  0  0
    9.9842  -18.7988   48.1132 H   0  0  0  0  0
    6.7181  -13.7224   47.2232 H   0  0  0  0  0
    4.7569  -13.8102   45.6809 H   0  0  0  0  0
    3.9643  -18.2277   44.7156 H   0  0  0  0  0
    3.7493  -14.0548   43.6455 H   0  0  0  0  0
    1.8408  -14.5718   42.1423 H   0  0  0  0  0
    0.9790  -16.8879   41.9342 H   0  0  0  0  0
    1.5938  -19.4600   44.0291 H   0  0  0  0  0
    1.2434  -21.3727   42.7680 H   0  0  0  0  0
    2.8550  -22.1708   40.7629 H   0  0  0  0  0
    1.7676  -21.0081   39.8936 H   0  0  0  0  0
    0.7462  -23.3561   41.4962 H   0  0  0  0  0
    1.1368  -23.4657   39.7608 H   0  0  0  0  0
   -0.6789  -21.4853   40.9438 H   0  0  0  0  0
   -1.6384  -23.5802   41.2959 H   0  0  0  0  0
   -1.2704  -24.0206   39.5748 H   0  0  0  0  0
   -3.5413  -22.5034   40.7238 H   0  0  0  0  0
   -3.4139  -23.4163   39.1782 H   0  0  0  0  0
   -1.8787  -20.8463   37.3266 H   0  0  0  0  0
   -1.8670  -22.5351   37.6133 H   0  0  0  0  0
    0.3013  -21.8340   38.3232 H   0  0  0  0  0
   -0.3978  -20.3756   39.1848 H   0  0  0  0  0
  1  2  2  0  0  0
  1  3  1  0  0  0
  2  3  1  0  0  0
  3  4  1  0  0  0
  4  5  2  0  0  0
  4  6  1  0  0  0
  6  7  1  0  0  0
  7  8  4  0  0  0
  7  9  4  0  0  0
  8 12  4  0  0  0
  9 10  4  0  0  0
 10 11  4  0  0  0
 10 12  4  0  0  0
 11 15  4  0  0  0
 12 13  4  0  0  0
 13 14  4  0  0  0
 14 15  4  0  0  0
 15 16  1  0  0  0
 16 17  4  0  0  0
 16 18  4  0  0  0
 17 21  4  0  0  0
 18 19  4  0  0  0
 19 20  4  0  0  0
 20 21  4  0  0  0
 21 22  1  0  0  0
 22 23  1  0  0  0
 23 24  2  0  0  0
 23 25  1  0  0  0
 25 26  1  0  0  0
 26 27  1  0  0  0
 27 28  1  0  0  0
 28 29  1  0  0  0
 28 33  1  0  0  0
 29 30  1  0  0  0
 30 31  1  0  0  0
 31 32  1  0  0  0
 32 33  1  0  0  0
  1 34  1  0  0  0
  2 35  1  0  0  0
  3 36  1  0  0  0
  6 37  1  0  0  0
 13 38  1  0  0  0
 14 39  1  0  0  0
 17 40  1  0  0  0
 18 41  1  0  0  0
 19 42  1  0  0  0
 20 43  1  0  0  0
 22 44  1  0  0  0
 25 45  1  0  0  0
 26 46  1  0  0  0
 26 47  1  0  0  0
 27 48  1  0  0  0
 27 49  1  0  0  0
 28 50  1  0  0  0
 29 51  1  0  0  0
 29 52  1  0  0  0
 30 53  1  0  0  0
 30 54  1  0  0  0
 32 55  1  0  0  0
 32 56  1  0  0  0
 33 57  1  0  0  0
 33 58  1  0  0  0
M  END
$$$$
