### 
### Created by X-TOOL on Mon Sep 10 21:12:59 2018
### 

@<TRIPOS>MOLECULE
3d25_ligand
  142   142     1     0     0
SMALL
GAST_HUCK


@<TRIPOS>ATOM
      1 N          54.1000    4.8350   34.9170 N.4       1 VAL         0.2381
      2 CA         53.7440    6.1960   34.5460 C.3       1 VAL         0.0673
      3 C          54.3170    7.1820   35.5690 C.2       1 VAL         0.2270
      4 O          54.5000    6.8540   36.7460 O.2       1 VAL        -0.3907
      5 CB         52.2370    6.4720   34.4480 C.3       1 VAL         0.0139
      6 CG1        51.6340    5.6540   33.2930 C.3       1 VAL        -0.0553
      7 CG2        51.5720    6.2100   35.7780 C.3       1 VAL        -0.0553
      8 N          54.5600    8.3920   35.0820 N.am      1 LEU        -0.2610
      9 CA         55.0750    9.4790   35.8980 C.3       1 LEU         0.1313
     10 C          54.0480    9.9810   36.9100 C.2       1 LEU         0.2040
     11 O          52.8330    9.8500   36.7080 O.2       1 LEU        -0.3944
     12 CB         55.4480   10.6710   34.9830 C.3       1 LEU        -0.0101
     13 CG         56.6370   10.4990   34.0560 C.3       1 LEU        -0.0425
     14 CD1        56.6680   11.6320   33.0120 C.3       1 LEU        -0.0625
     15 CD2        58.0030   10.4890   34.7340 C.3       1 LEU        -0.0625
     16 N          54.5860   10.5740   37.9840 N.am      1 HIS        -0.2625
     17 CA         53.7110   11.3730   38.8940 C.3       1 HIS         0.1369
     18 C          53.1270   12.5490   38.1520 C.2       1 HIS         0.2054
     19 O          53.7120   13.0830   37.2060 O.2       1 HIS        -0.3942
     20 CB         54.5270   11.7690   40.1180 C.3       1 HIS         0.0145
     21 CG         53.7880   12.5290   41.1850 C.2       1 HIS        -0.0027
     22 ND1        52.5990   12.1130   41.7380 N.2       1 HIS        -0.3252
     23 CD2        54.0810   13.7280   41.7750 C.2       1 HIS         0.0291
     24 CE1        52.1800   13.0080   42.6500 C.2       1 HIS         0.0907
     25 NE2        53.0730   13.9920   42.6860 N.pl3     1 HIS        -0.2752
     26 N          51.9390   13.0220   38.5820 N.am      1 ASP        -0.2621
     27 CA         51.2680   14.0150   37.7580 C.3       1 ASP         0.1423
     28 C          51.6930   15.4630   37.9000 C.2       1 ASP         0.2057
     29 O          51.3510   16.2410   36.9900 O.2       1 ASP        -0.3943
     30 CB         49.7620   13.9080   38.0480 C.3       1 ASP         0.0406
     31 CG         49.4130   14.3180   39.4760 C.2       1 ASP         0.0393
     32 OD1        50.3250   14.5700   40.3030 O.co2     1 ASP        -0.5688
     33 OD2        48.1760   14.3950   39.7410 O.co2     1 ASP        -0.5688
     34 N          52.4100   15.8740   38.9340 N.am      1 ASP        -0.2621
     35 CA         52.6950   17.3030   39.1520 C.3       1 ASP         0.1423
     36 C          53.8750   17.4460   40.1010 C.2       1 ASP         0.2056
     37 O          53.8820   16.8220   41.1730 O.2       1 ASP        -0.3943
     38 CB         51.4420   17.9870   39.7370 C.3       1 ASP         0.0406
     39 CG         51.4900   19.4720   39.8890 C.2       1 ASP         0.0393
     40 OD1        52.3310   20.0830   39.1940 O.co2     1 ASP        -0.5688
     41 OD2        50.7020   20.0520   40.6830 O.co2     1 ASP        -0.5688
     42 N          54.8830   18.2520   39.8000 N.am      1 LEU        -0.2636
     43 CA         55.9320   18.5410   40.7600 C.3       1 LEU         0.1312
     44 C          55.8750   20.0010   41.2390 C.2       1 LEU         0.2039
     45 O          55.9480   20.8810   40.3530 O.2       1 LEU        -0.3944
     46 CB         57.3320   18.3100   40.1760 C.3       1 LEU        -0.0101
     47 CG         57.6330   16.9360   39.5950 C.3       1 LEU        -0.0425
     48 CD1        59.0220   16.8680   38.9930 C.3       1 LEU        -0.0625
     49 CD2        57.4840   15.8440   40.6770 C.3       1 LEU        -0.0625
     50 N          55.7920   20.2020   42.5490 N.am      1 LEU        -0.2637
     51 CA         55.7990   21.5600   43.1160 C.3       1 LEU         0.1312
     52 C          57.2380   22.0790   43.0800 C.2       1 LEU         0.2039
     53 O          58.2230   21.3630   43.3050 O.2       1 LEU        -0.3944
     54 CB         55.2430   21.5720   44.5340 C.3       1 LEU        -0.0101
     55 CG         54.9150   22.8640   45.2690 C.3       1 LEU        -0.0425
     56 CD1        53.7390   23.5940   44.6510 C.3       1 LEU        -0.0625
     57 CD2        54.6280   22.6030   46.7640 C.3       1 LEU        -0.0625
     58 N          57.3710   23.3560   42.8040 N.am      1 GLU        -0.2636
     59 CA         58.6550   24.0140   42.7800 C.3       1 GLU         0.1324
     60 C          59.3100   24.0510   44.1710 C.2       1 GLU         0.2034
     61 O          58.5860   24.1950   45.1750 O.2       1 GLU        -0.3944
     62 CB         58.4730   25.4640   42.2600 C.3       1 GLU        -0.0008
     63 CG         58.0380   25.4620   40.7820 C.3       1 GLU         0.0044
     64 CD         57.5350   26.7930   40.2400 C.2       1 GLU         0.0350
     65 OE1        57.5190   27.8240   40.9440 O.co2     1 GLU        -0.5690
     66 OE2        57.1320   26.8710   39.0630 O.co2     1 GLU        -0.5690
     67 N          60.6330   23.9470   44.1770 N.am      1 ALA        -0.2698
     68 CA         61.4560   24.0240   45.3700 C.3       1 ALA         0.0916
     69 C          61.5510   25.4180   45.9830 C.2       1 ALA         0.0598
     70 O          61.9840   25.5290   47.1530 O.co2     1 ALA        -0.5666
     71 CB         62.8830   23.5220   45.0660 C.3       1 ALA        -0.0300
     72 OXT        61.1970   26.4350   45.3360 O.co2     1 ALA        -0.5666
     73 H1         55.1036    4.7490   34.9560 H         1 VAL         0.2015
     74 H2         53.7342    4.1932   34.2312 H         1 VAL         0.2015
     75 H3         53.7090    4.6199   35.8208 H         1 VAL         0.2015
     76 H4         54.1916    6.3981   33.5618 H         1 VAL         0.1101
     77 H5         52.0962    7.5369   34.2111 H         1 VAL         0.0376
     78 H6         50.5545    5.8545   33.2262 H         1 VAL         0.0236
     79 H7         51.7970    4.5821   33.4786 H         1 VAL         0.0236
     80 H8         52.1193    5.9405   32.3483 H         1 VAL         0.0236
     81 H9         52.0505    6.8247   36.5546 H         1 VAL         0.0236
     82 H10        51.6762    5.1460   36.0368 H         1 VAL         0.0236
     83 H11        50.5049    6.4685   35.7117 H         1 VAL         0.0236
     84 H12        54.3814    8.5633   34.1131 H         1 LEU         0.1884
     85 H13        55.9686    9.1275   36.4345 H         1 LEU         0.0800
     86 H14        55.6599   11.5320   35.6339 H         1 LEU         0.0315
     87 H15        54.5713   10.8920   34.3564 H         1 LEU         0.0315
     88 H16        56.5097    9.5374   33.5372 H         1 LEU         0.0298
     89 H17        57.5339   11.4948   32.3476 H         1 LEU         0.0232
     90 H18        56.7497   12.6015   33.5253 H         1 LEU         0.0232
     91 H19        55.7426   11.6085   32.4178 H         1 LEU         0.0232
     92 H20        58.0302    9.6924   35.4921 H         1 LEU         0.0232
     93 H21        58.1796   11.4612   35.2173 H         1 LEU         0.0232
     94 H22        58.7844   10.3061   33.9817 H         1 LEU         0.0232
     95 H23        55.5634   10.4828   38.1747 H         1 HIS         0.1885
     96 H24        52.8764   10.7399   39.2297 H         1 HIS         0.0817
     97 H25        55.3636   12.3961   39.7763 H         1 HIS         0.0420
     98 H26        54.9209   10.8479   40.5724 H         1 HIS         0.0420
     99 H27        54.9454   14.3569   41.5669 H         1 HIS         0.0729
    100 H28        51.2738   12.9392   43.2500 H         1 HIS         0.1199
    101 H29        53.0227   14.8205   43.2959 H         1 HIS         0.2361
    102 H30        51.5337   12.7009   39.4379 H         1 ASP         0.1884
    103 H31        51.4475   13.7354   36.7094 H         1 ASP         0.0819
    104 H32        49.4456   12.8660   37.8926 H         1 ASP         0.0478
    105 H33        49.2206   14.5636   37.3501 H         1 ASP         0.0478
    106 H34        52.7660   15.1999   39.5813 H         1 ASP         0.1884
    107 H35        52.9475   17.7749   38.1910 H         1 ASP         0.0819
    108 H36        51.2636   17.5569   40.7336 H         1 ASP         0.0478
    109 H37        50.5948   17.7480   39.0774 H         1 ASP         0.0478
    110 H38        54.9215   18.6698   38.8923 H         1 LEU         0.1883
    111 H39        55.7936   17.8754   41.6248 H         1 LEU         0.0800
    112 H40        58.0591   18.4939   40.9806 H         1 LEU         0.0315
    113 H41        57.4797   19.0469   39.3728 H         1 LEU         0.0315
    114 H42        56.9027   16.7372   38.7968 H         1 LEU         0.0298
    115 H43        59.1965   15.8609   38.5864 H         1 LEU         0.0232
    116 H44        59.7696   17.0841   39.7704 H         1 LEU         0.0232
    117 H45        59.1082   17.6095   38.1851 H         1 LEU         0.0232
    118 H46        56.4753   15.8949   41.1128 H         1 LEU         0.0232
    119 H47        58.2329   16.0053   41.4663 H         1 LEU         0.0232
    120 H48        57.6375   14.8541   40.2225 H         1 LEU         0.0232
    121 H49        55.7234   19.4151   43.1623 H         1 LEU         0.1883
    122 H50        55.1685   22.2107   42.4923 H         1 LEU         0.0800
    123 H51        55.9804   21.0442   45.1566 H         1 LEU         0.0315
    124 H52        54.3086   20.9925   44.5015 H         1 LEU         0.0315
    125 H53        55.7959   23.5191   45.1986 H         1 LEU         0.0298
    126 H54        53.5427   24.5172   45.2159 H         1 LEU         0.0232
    127 H55        52.8489   22.9485   44.6828 H         1 LEU         0.0232
    128 H56        53.9720   23.8461   43.6060 H         1 LEU         0.0232
    129 H57        55.4806   22.0732   47.2140 H         1 LEU         0.0232
    130 H58        53.7213   21.9878   46.8614 H         1 LEU         0.0232
    131 H59        54.4778   23.5620   47.2814 H         1 LEU         0.0232
    132 H60        56.5515   23.8927   42.6029 H         1 GLU         0.1883
    133 H61        59.3180   23.4654   42.0949 H         1 GLU         0.0801
    134 H62        59.4266   26.0040   42.3549 H         1 GLU         0.0330
    135 H63        57.7037   25.9696   42.8621 H         1 GLU         0.0330
    136 H64        57.2303   24.7239   40.6684 H         1 GLU         0.0433
    137 H65        58.9029   25.1554   40.1755 H         1 GLU         0.0433
    138 H66        61.0938   23.8061   43.3007 H         1 ALA         0.1875
    139 H67        61.0055   23.3595   46.1220 H         1 ALA         0.0723
    140 H68        63.4959   23.5855   45.9772 H         1 ALA         0.0270
    141 H69        63.3312   24.1457   44.2786 H         1 ALA         0.0270
    142 H70        62.8393   22.4769   44.7256 H         1 ALA         0.0270
@<TRIPOS>BOND
     1    1    2 1  
     2    2    3 1  
     3    2    5 1  
     4    3    4 2  
     5    3    8 am 
     6    5    6 1  
     7    5    7 1  
     8    8    9 1  
     9    9   10 1  
    10    9   12 1  
    11   10   11 2  
    12   10   16 am 
    13   12   13 1  
    14   13   14 1  
    15   13   15 1  
    16   16   17 1  
    17   17   18 1  
    18   17   20 1  
    19   18   19 2  
    20   18   26 am 
    21   20   21 1  
    22   21   22 1  
    23   21   23 2  
    24   22   24 2  
    25   23   25 1  
    26   24   25 1  
    27   26   27 1  
    28   27   28 1  
    29   27   30 1  
    30   28   29 2  
    31   28   34 am 
    32   30   31 1  
    33   31   32 ar 
    34   31   33 ar 
    35   34   35 1  
    36   35   36 1  
    37   35   38 1  
    38   36   37 2  
    39   36   42 am 
    40   38   39 1  
    41   39   40 ar 
    42   39   41 ar 
    43   42   43 1  
    44   43   44 1  
    45   43   46 1  
    46   44   45 2  
    47   44   50 am 
    48   46   47 1  
    49   47   48 1  
    50   47   49 1  
    51   50   51 1  
    52   51   52 1  
    53   51   54 1  
    54   52   53 2  
    55   52   58 am 
    56   54   55 1  
    57   55   56 1  
    58   55   57 1  
    59   58   59 1  
    60   59   60 1  
    61   59   62 1  
    62   60   61 2  
    63   60   67 am 
    64   62   63 1  
    65   63   64 1  
    66   64   65 ar 
    67   64   66 ar 
    68   67   68 1  
    69   68   69 1  
    70   68   71 1  
    71   69   70 ar 
    72   69   72 ar 
    73    1   73 1  
    74    1   74 1  
    75    1   75 1  
    76    2   76 1  
    77    5   77 1  
    78    6   78 1  
    79    6   79 1  
    80    6   80 1  
    81    7   81 1  
    82    7   82 1  
    83    7   83 1  
    84    8   84 1  
    85    9   85 1  
    86   12   86 1  
    87   12   87 1  
    88   13   88 1  
    89   14   89 1  
    90   14   90 1  
    91   14   91 1  
    92   15   92 1  
    93   15   93 1  
    94   15   94 1  
    95   16   95 1  
    96   17   96 1  
    97   20   97 1  
    98   20   98 1  
    99   23   99 1  
   100   24  100 1  
   101   25  101 1  
   102   26  102 1  
   103   27  103 1  
   104   30  104 1  
   105   30  105 1  
   106   34  106 1  
   107   35  107 1  
   108   38  108 1  
   109   38  109 1  
   110   42  110 1  
   111   43  111 1  
   112   46  112 1  
   113   46  113 1  
   114   47  114 1  
   115   48  115 1  
   116   48  116 1  
   117   48  117 1  
   118   49  118 1  
   119   49  119 1  
   120   49  120 1  
   121   50  121 1  
   122   51  122 1  
   123   54  123 1  
   124   54  124 1  
   125   55  125 1  
   126   56  126 1  
   127   56  127 1  
   128   56  128 1  
   129   57  129 1  
   130   57  130 1  
   131   57  131 1  
   132   58  132 1  
   133   59  133 1  
   134   62  134 1  
   135   62  135 1  
   136   63  136 1  
   137   63  137 1  
   138   67  138 1  
   139   68  139 1  
   140   71  140 1  
   141   71  141 1  
   142   71  142 1  
@<TRIPOS>SUBSTRUCTURE
     1 VAL         1

