3d25_ligand
  -I-interpret- 

145145  0  0  0  0  0  0  0  0999 V2000
   54.1000    4.8350   34.9170 N   0  3  0  0  0
   53.7440    6.1960   34.5460 C   0  0  0  0  0
   54.3170    7.1820   35.5690 C   0  0  0  0  0
   54.5000    6.8540   36.7460 O   0  0  0  0  0
   52.2370    6.4720   34.4480 C   0  0  0  0  0
   51.6340    5.6540   33.2930 C   0  0  0  0  0
   51.5720    6.2100   35.7780 C   0  0  0  0  0
   54.5600    8.3920   35.0820 N   0  0  0  0  0
   55.0750    9.4790   35.8980 C   0  0  0  0  0
   54.0480    9.9810   36.9100 C   0  0  0  0  0
   52.8330    9.8500   36.7080 O   0  0  0  0  0
   55.4480   10.6710   34.9830 C   0  0  0  0  0
   56.6370   10.4990   34.0560 C   0  0  0  0  0
   56.6680   11.6320   33.0120 C   0  0  0  0  0
   58.0030   10.4890   34.7340 C   0  0  0  0  0
   54.5860   10.5740   37.9840 N   0  0  0  0  0
   53.7110   11.3730   38.8940 C   0  0  0  0  0
   53.1270   12.5490   38.1520 C   0  0  0  0  0
   53.7120   13.0830   37.2060 O   0  0  0  0  0
   54.5270   11.7690   40.1180 C   0  0  0  0  0
   53.7880   12.5290   41.1850 C   0  0  0  0  0
   52.5990   12.1130   41.7380 N   0  0  0  0  0
   54.0810   13.7280   41.7750 C   0  0  0  0  0
   52.1800   13.0080   42.6500 C   0  0  0  0  0
   53.0730   13.9920   42.6860 N   0  0  0  0  0
   51.9390   13.0220   38.5820 N   0  0  0  0  0
   51.2680   14.0150   37.7580 C   0  0  0  0  0
   51.6930   15.4630   37.9000 C   0  0  0  0  0
   51.3510   16.2410   36.9900 O   0  0  0  0  0
   49.7620   13.9080   38.0480 C   0  0  0  0  0
   49.4130   14.3180   39.4760 C   0  0  0  0  0
   50.3250   14.5700   40.3030 O   0  0  0  0  0
   48.1760   14.3950   39.7410 O   0  0  0  0  0
   52.4100   15.8740   38.9340 N   0  0  0  0  0
   52.6950   17.3030   39.1520 C   0  0  0  0  0
   53.8750   17.4460   40.1010 C   0  0  0  0  0
   53.8820   16.8220   41.1730 O   0  0  0  0  0
   51.4420   17.9870   39.7370 C   0  0  0  0  0
   51.4900   19.4720   39.8890 C   0  0  0  0  0
   52.3310   20.0830   39.1940 O   0  0  0  0  0
   50.7020   20.0520   40.6830 O   0  0  0  0  0
   54.8830   18.2520   39.8000 N   0  0  0  0  0
   55.9320   18.5410   40.7600 C   0  0  0  0  0
   55.8750   20.0010   41.2390 C   0  0  0  0  0
   55.9480   20.8810   40.3530 O   0  0  0  0  0
   57.3320   18.3100   40.1760 C   0  0  0  0  0
   57.6330   16.9360   39.5950 C   0  0  0  0  0
   59.0220   16.8680   38.9930 C   0  0  0  0  0
   57.4840   15.8440   40.6770 C   0  0  0  0  0
   55.7920   20.2020   42.5490 N   0  0  0  0  0
   55.7990   21.5600   43.1160 C   0  0  0  0  0
   57.2380   22.0790   43.0800 C   0  0  0  0  0
   58.2230   21.3630   43.3050 O   0  0  0  0  0
   55.2430   21.5720   44.5340 C   0  0  0  0  0
   54.9150   22.8640   45.2690 C   0  0  0  0  0
   53.7390   23.5940   44.6510 C   0  0  0  0  0
   54.6280   22.6030   46.7640 C   0  0  0  0  0
   57.3710   23.3560   42.8040 N   0  0  0  0  0
   58.6550   24.0140   42.7800 C   0  0  0  0  0
   59.3100   24.0510   44.1710 C   0  0  0  0  0
   58.5860   24.1950   45.1750 O   0  0  0  0  0
   58.4730   25.4640   42.2600 C   0  0  0  0  0
   58.0380   25.4620   40.7820 C   0  0  0  0  0
   57.5350   26.7930   40.2400 C   0  0  0  0  0
   57.5190   27.8240   40.9440 O   0  0  0  0  0
   57.1320   26.8710   39.0630 O   0  0  0  0  0
   60.6330   23.9470   44.1770 N   0  0  0  0  0
   61.4560   24.0240   45.3700 C   0  0  0  0  0
   61.5510   25.4180   45.9830 C   0  0  0  0  0
   61.9840   25.5290   47.1530 O   0  0  0  0  0
   62.8830   23.5220   45.0660 C   0  0  0  0  0
   61.1970   26.4350   45.3360 O   0  0  0  0  0
   55.1156    4.7492   34.9562 H   0  0  0  0  0
   53.7038    4.6185   35.8316 H   0  0  0  0  0
   53.7293    4.1865   34.2224 H   0  0  0  0  0
   54.1652    6.3261   33.5491 H   0  0  0  0  0
   52.0598    7.5226   34.2178 H   0  0  0  0  0
   51.7391    4.5908   33.5089 H   0  0  0  0  0
   50.5779    5.9018   33.1866 H   0  0  0  0  0
   52.1593    5.8919   32.3680 H   0  0  0  0  0
   50.5147    6.4665   35.7109 H   0  0  0  0  0
   51.6759    5.1554   36.0332 H   0  0  0  0  0
   52.0470    6.8197   36.5466 H   0  0  0  0  0
   54.3778    8.5667   34.0937 H   0  0  0  0  0
   55.9402    9.0928   36.4368 H   0  0  0  0  0
   55.7171   11.4845   35.6568 H   0  0  0  0  0
   54.5874   10.8203   34.3310 H   0  0  0  0  0
   56.4824    9.5146   33.6141 H   0  0  0  0  0
   55.7506   11.6077   32.4239 H   0  0  0  0  0
   56.7489   12.5920   33.5218 H   0  0  0  0  0
   57.5264   11.4949   32.3543 H   0  0  0  0  0
   58.1545   11.4332   35.2570 H   0  0  0  0  0
   58.0472    9.6659   35.4472 H   0  0  0  0  0
   58.7802   10.3607   33.9806 H   0  0  0  0  0
   55.5829   10.4810   38.1785 H   0  0  0  0  0
   52.8592   10.7871   39.2394 H   0  0  0  0  0
   55.3145   12.4319   39.7596 H   0  0  0  0  0
   54.8589   10.8386   40.5789 H   0  0  0  0  0
   54.9462   14.3575   41.5667 H   0  0  0  0  0
   51.2730   12.9391   43.2506 H   0  0  0  0  0
   51.5256   12.6945   39.4550 H   0  0  0  0  0
   51.5546   13.7705   36.7352 H   0  0  0  0  0
   49.4663   12.8674   37.9144 H   0  0  0  0  0
   49.2392   14.5799   37.3673 H   0  0  0  0  0
   47.6676   14.1584   38.9618 H   0  0  0  0  0
   52.7731   15.1865   39.5942 H   0  0  0  0  0
   52.9492   17.7814   38.2061 H   0  0  0  0  0
   51.3278   17.5879   40.7449 H   0  0  0  0  0
   50.6359   17.7856   39.0315 H   0  0  0  0  0
   50.1447   19.3991   41.1128 H   0  0  0  0  0
   54.9223   18.6781   38.8741 H   0  0  0  0  0
   55.7585   17.8582   41.5918 H   0  0  0  0  0
   58.0221   18.4332   41.0107 H   0  0  0  0  0
   57.4209   19.0068   39.3426 H   0  0  0  0  0
   56.9096   16.7606   38.7987 H   0  0  0  0  0
   59.1061   17.6032   38.1927 H   0  0  0  0  0
   59.7618   17.0823   39.7643 H   0  0  0  0  0
   59.1937   15.8697   38.5905 H   0  0  0  0  0
   58.1802   16.0440   41.4915 H   0  0  0  0  0
   56.4634   15.8505   41.0598 H   0  0  0  0  0
   57.7036   14.8696   40.2406 H   0  0  0  0  0
   55.7220   19.3994   43.1745 H   0  0  0  0  0
   55.1539   22.2108   42.5257 H   0  0  0  0  0
   56.0502   21.1412   45.1264 H   0  0  0  0  0
   54.2728   21.0862   44.4300 H   0  0  0  0  0
   55.7970   23.4978   45.1775 H   0  0  0  0  0
   53.9711   23.8432   43.6156 H   0  0  0  0  0
   52.8578   22.9533   44.6830 H   0  0  0  0  0
   53.5454   24.5086   45.2116 H   0  0  0  0  0
   53.7789   21.9258   46.8568 H   0  0  0  0  0
   55.5057   22.1530   47.2280 H   0  0  0  0  0
   54.3975   23.5466   47.2585 H   0  0  0  0  0
   56.5351   23.9034   42.5989 H   0  0  0  0  0
   59.3106   23.4468   42.1192 H   0  0  0  0  0
   59.4230   25.9913   42.3470 H   0  0  0  0  0
   57.7029   25.9570   42.8533 H   0  0  0  0  0
   57.2049   24.7632   40.7064 H   0  0  0  0  0
   58.9235   25.2065   40.2000 H   0  0  0  0  0
   57.8542   27.6175   41.8196 H   0  0  0  0  0
   61.1030   23.8033   43.2832 H   0  0  0  0  0
   60.9576   23.3889   46.1024 H   0  0  0  0  0
   62.8383   22.4864   44.7288 H   0  0  0  0  0
   63.3259   24.1408   44.2856 H   0  0  0  0  0
   63.4893   23.5854   45.9696 H   0  0  0  0  0
   60.8940   26.1691   44.4647 H   0  0  0  0  0
  1  2  1  0  0  0
  2  3  1  0  0  0
  2  5  1  0  0  0
  3  4  2  0  0  0
  3  8  1  0  0  0
  5  6  1  0  0  0
  5  7  1  0  0  0
  8  9  1  0  0  0
  9 10  1  0  0  0
  9 12  1  0  0  0
 10 11  2  0  0  0
 10 16  1  0  0  0
 12 13  1  0  0  0
 13 14  1  0  0  0
 13 15  1  0  0  0
 16 17  1  0  0  0
 17 18  1  0  0  0
 17 20  1  0  0  0
 18 19  2  0  0  0
 18 26  1  0  0  0
 20 21  1  0  0  0
 21 22  4  0  0  0
 21 23  4  0  0  0
 22 24  4  0  0  0
 23 25  4  0  0  0
 24 25  4  0  0  0
 26 27  1  0  0  0
 27 28  1  0  0  0
 27 30  1  0  0  0
 28 29  2  0  0  0
 28 34  1  0  0  0
 30 31  1  0  0  0
 31 32  2  0  0  0
 31 33  1  0  0  0
 34 35  1  0  0  0
 35 36  1  0  0  0
 35 38  1  0  0  0
 36 37  2  0  0  0
 36 42  1  0  0  0
 38 39  1  0  0  0
 39 40  2  0  0  0
 39 41  1  0  0  0
 42 43  1  0  0  0
 43 44  1  0  0  0
 43 46  1  0  0  0
 44 45  2  0  0  0
 44 50  1  0  0  0
 46 47  1  0  0  0
 47 48  1  0  0  0
 47 49  1  0  0  0
 50 51  1  0  0  0
 51 52  1  0  0  0
 51 54  1  0  0  0
 52 53  2  0  0  0
 52 58  1  0  0  0
 54 55  1  0  0  0
 55 56  1  0  0  0
 55 57  1  0  0  0
 58 59  1  0  0  0
 59 60  1  0  0  0
 59 62  1  0  0  0
 60 61  2  0  0  0
 60 67  1  0  0  0
 62 63  1  0  0  0
 63 64  1  0  0  0
 64 65  1  0  0  0
 64 66  2  0  0  0
 67 68  1  0  0  0
 68 69  1  0  0  0
 68 71  1  0  0  0
 69 70  2  0  0  0
 69 72  1  0  0  0
  1 73  1  0  0  0
  1 74  1  0  0  0
  1 75  1  0  0  0
  2 76  1  0  0  0
  5 77  1  0  0  0
  6 78  1  0  0  0
  6 79  1  0  0  0
  6 80  1  0  0  0
  7 81  1  0  0  0
  7 82  1  0  0  0
  7 83  1  0  0  0
  8 84  1  0  0  0
  9 85  1  0  0  0
 12 86  1  0  0  0
 12 87  1  0  0  0
 13 88  1  0  0  0
 14 89  1  0  0  0
 14 90  1  0  0  0
 14 91  1  0  0  0
 15 92  1  0  0  0
 15 93  1  0  0  0
 15 94  1  0  0  0
 16 95  1  0  0  0
 17 96  1  0  0  0
 20 97  1  0  0  0
 20 98  1  0  0  0
 23 99  1  0  0  0
 24100  1  0  0  0
 26101  1  0  0  0
 27102  1  0  0  0
 30103  1  0  0  0
 30104  1  0  0  0
 33105  1  0  0  0
 34106  1  0  0  0
 35107  1  0  0  0
 38108  1  0  0  0
 38109  1  0  0  0
 41110  1  0  0  0
 42111  1  0  0  0
 43112  1  0  0  0
 46113  1  0  0  0
 46114  1  0  0  0
 47115  1  0  0  0
 48116  1  0  0  0
 48117  1  0  0  0
 48118  1  0  0  0
 49119  1  0  0  0
 49120  1  0  0  0
 49121  1  0  0  0
 50122  1  0  0  0
 51123  1  0  0  0
 54124  1  0  0  0
 54125  1  0  0  0
 55126  1  0  0  0
 56127  1  0  0  0
 56128  1  0  0  0
 56129  1  0  0  0
 57130  1  0  0  0
 57131  1  0  0  0
 57132  1  0  0  0
 58133  1  0  0  0
 59134  1  0  0  0
 62135  1  0  0  0
 62136  1  0  0  0
 63137  1  0  0  0
 63138  1  0  0  0
 65139  1  0  0  0
 67140  1  0  0  0
 68141  1  0  0  0
 71142  1  0  0  0
 71143  1  0  0  0
 71144  1  0  0  0
 72145  1  0  0  0
M  END
$$$$
