4bfp_ligand
  -I-interpret- 

 61 66  0  0  0  0  0  0  0  0999 V2000
  -37.4660   -3.5100    5.6330 O   0  0  0  0  0
  -37.4310   -2.3170    5.8820 C   0  0  0  0  0
  -36.5810   -1.4780    5.1090 C   0  0  0  0  0
  -36.5240   -0.1190    5.3690 C   0  0  0  0  0
  -35.8010   -2.0140    4.0860 C   0  0  0  0  0
  -34.9680   -1.1900    3.3320 C   0  0  0  0  0
  -34.9140    0.1720    3.5970 C   0  0  0  0  0
  -35.6870    0.7070    4.6090 C   0  0  0  0  0
  -35.6300    2.0720    4.8700 C   0  0  0  0  0
  -36.3990    2.6130    5.8800 C   0  0  0  0  0
  -37.2290    1.7950    6.6330 C   0  0  0  0  0
  -37.2890    0.4170    6.3700 C   0  0  0  0  0
  -38.1320   -0.4090    7.1330 C   0  0  0  0  0
  -38.8090    0.0850    8.0310 O   0  0  0  0  0
  -38.1970   -1.7840    6.8840 N   0  0  0  0  0
  -39.0960   -2.6200    7.7040 C   0  0  0  0  0
  -38.4990   -3.0130    9.0800 C   0  0  0  0  0
  -37.1990   -3.7910    8.8850 C   0  0  0  0  0
  -37.4010   -5.3350    7.9010 S   0  0  0  0  0
  -38.2190   -6.4270    9.0620 C   0  0  0  0  0
  -39.1350   -6.0690   10.1080 N   0  0  0  0  0
  -39.4830   -7.2690   10.7140 N   0  0  0  0  0
  -38.8540   -8.1670   10.1010 C   0  0  0  0  0
  -39.0130   -9.5010   10.4920 C   0  0  0  0  0
  -38.2650  -10.0190   11.5240 C   0  0  0  0  0
  -38.4420  -11.3490   11.9070 C   0  0  0  0  0
  -39.3490  -12.1230   11.2690 N   0  0  0  0  0
  -40.0960  -11.6070   10.2450 C   0  0  0  0  0
  -39.9250  -10.2820    9.8570 C   0  0  0  0  0
  -38.0880   -7.7920    9.1160 N   0  0  0  0  0
  -37.2820   -8.5420    8.2740 C   0  0  0  0  0
  -36.0670   -9.0580    8.7400 C   0  0  0  0  0
  -35.2510   -9.8020    7.8870 C   0  0  0  0  0
  -35.6410  -10.0280    6.5620 C   0  0  0  0  0
  -34.8210  -10.7770    5.7130 O   0  0  0  0  0
  -34.2880   -9.9750    4.7020 C   0  0  0  0  0
  -36.8440   -9.5120    6.0970 C   0  0  0  0  0
  -37.6660   -8.7630    6.9470 C   0  0  0  0  0
  -35.8428   -3.0825    3.8748 H   0  0  0  0  0
  -34.3587   -1.6145    2.5341 H   0  0  0  0  0
  -34.2629    0.8176    3.0076 H   0  0  0  0  0
  -34.9784    2.7139    4.2772 H   0  0  0  0  0
  -36.3544    3.6824    6.0861 H   0  0  0  0  0
  -37.8360    2.2231    7.4307 H   0  0  0  0  0
  -39.2772   -3.5422    7.1519 H   0  0  0  0  0
  -39.9983   -2.0387    7.8942 H   0  0  0  0  0
  -39.2137   -3.6387    9.6146 H   0  0  0  0  0
  -38.2923   -2.1084    9.6519 H   0  0  0  0  0
  -36.8399   -4.0788    9.8731 H   0  0  0  0  0
  -36.5109   -3.1448    8.3400 H   0  0  0  0  0
  -37.5372   -9.3930   12.0403 H   0  0  0  0  0
  -37.8485  -11.7646   12.7214 H   0  0  0  0  0
  -40.8255  -12.2346    9.7330 H   0  0  0  0  0
  -40.5228   -9.8707    9.0436 H   0  0  0  0  0
  -35.7582   -8.8785    9.7698 H   0  0  0  0  0
  -34.3081  -10.2079    8.2533 H   0  0  0  0  0
  -35.0997   -9.5436    4.1162 H   0  0  0  0  0
  -33.6957   -9.1761    5.1480 H   0  0  0  0  0
  -33.6539  -10.5814    4.0552 H   0  0  0  0  0
  -37.1491   -9.6911    5.0660 H   0  0  0  0  0
  -38.6047   -8.3522    6.5753 H   0  0  0  0  0
  1  2  2  0  0  0
  2  3  1  0  0  0
  2 15  1  0  0  0
  3  4  4  0  0  0
  3  5  4  0  0  0
  4  8  4  0  0  0
  4 12  4  0  0  0
  5  6  4  0  0  0
  6  7  4  0  0  0
  7  8  4  0  0  0
  8  9  4  0  0  0
  9 10  4  0  0  0
 10 11  4  0  0  0
 11 12  4  0  0  0
 12 13  1  0  0  0
 13 14  2  0  0  0
 13 15  1  0  0  0
 15 16  1  0  0  0
 16 17  1  0  0  0
 17 18  1  0  0  0
 18 19  1  0  0  0
 19 20  1  0  0  0
 20 21  4  0  0  0
 20 30  4  0  0  0
 21 22  4  0  0  0
 22 23  4  0  0  0
 23 24  1  0  0  0
 23 30  4  0  0  0
 24 25  4  0  0  0
 24 29  4  0  0  0
 25 26  4  0  0  0
 26 27  4  0  0  0
 27 28  4  0  0  0
 28 29  4  0  0  0
 30 31  1  0  0  0
 31 32  4  0  0  0
 31 38  4  0  0  0
 32 33  4  0  0  0
 33 34  4  0  0  0
 34 35  1  0  0  0
 34 37  4  0  0  0
 35 36  1  0  0  0
 37 38  4  0  0  0
  5 39  1  0  0  0
  6 40  1  0  0  0
  7 41  1  0  0  0
  9 42  1  0  0  0
 10 43  1  0  0  0
 11 44  1  0  0  0
 16 45  1  0  0  0
 16 46  1  0  0  0
 17 47  1  0  0  0
 17 48  1  0  0  0
 18 49  1  0  0  0
 18 50  1  0  0  0
 25 51  1  0  0  0
 26 52  1  0  0  0
 28 53  1  0  0  0
 29 54  1  0  0  0
 32 55  1  0  0  0
 33 56  1  0  0  0
 36 57  1  0  0  0
 36 58  1  0  0  0
 36 59  1  0  0  0
 37 60  1  0  0  0
 38 61  1  0  0  0
M  END
$$$$
