2v95_ligand
  -I-interpret- 

 56 59  0  0  0  0  0  0  0  0999 V2000
   48.5820  -15.4490   11.6480 C   0  0  0  0  0
   48.2050  -15.9160   13.0530 C   0  0  0  0  0
   47.8450  -14.7420   13.9420 C   0  0  0  0  0
   47.3990  -13.4700   13.3570 C   0  0  0  0  0
   47.3320  -13.2770   12.0330 C   0  0  0  0  0
   46.7390  -11.9790   11.5620 C   0  0  0  0  0
   47.6030  -11.3300   10.5020 C   0  0  0  0  0
   48.0930  -12.3230    9.4500 C   0  0  0  0  0
   48.7210  -13.5920   10.0340 C   0  0  0  0  0
   47.7780  -14.3270   11.0190 C   0  0  0  0  0
   49.3900  -14.5050    8.9670 C   0  0  0  0  0
   50.3200  -13.7150    8.0270 C   0  0  0  0  0
   49.7030  -12.4310    7.4760 C   0  0  0  0  0
   49.1530  -11.6100    8.6350 C   0  0  0  0  0
   48.7450  -10.3160    7.9860 C   0  0  0  0  0
   49.7270  -10.1140    6.8430 C   0  0  0  0  0
   50.5870  -11.3490    6.8060 C   0  0  0  0  0
   48.5830  -12.8420    6.5250 C   0  0  0  0  0
   46.5210  -14.8610   10.3270 C   0  0  0  0  0
   51.0570  -11.6140    5.3870 C   0  0  0  0  0
   52.0670  -12.6910    5.1590 C   0  0  0  0  0
   47.9230  -14.8280   15.1580 O   0  0  0  0  0
   48.4470  -15.2560    8.1840 O   0  0  0  0  0
   51.7500  -11.0380    7.6050 O   0  0  0  0  0
   50.6650  -10.9400    4.4420 O   0  0  0  0  0
   52.3370  -12.8140    3.7610 O   0  0  0  0  0
   48.4157  -16.3138   11.0057 H   0  0  0  0  0
   49.5950  -15.0572   11.7399 H   0  0  0  0  0
   49.0595  -16.4336   13.4889 H   0  0  0  0  0
   47.3403  -16.5757   12.9803 H   0  0  0  0  0
   47.1130  -12.6558   14.0229 H   0  0  0  0  0
   46.6678  -11.3018   12.4131 H   0  0  0  0  0
   45.7580  -12.1821   11.1326 H   0  0  0  0  0
   48.4779  -10.9078   10.9963 H   0  0  0  0  0
   47.0005  -10.5762    9.9951 H   0  0  0  0  0
   47.2293  -12.6429    8.8672 H   0  0  0  0  0
   49.5586  -13.2607   10.6478 H   0  0  0  0  0
   49.9830  -15.2149    9.5436 H   0  0  0  0  0
   50.5408  -14.3585    7.1754 H   0  0  0  0  0
   51.1976  -13.4287    8.6066 H   0  0  0  0  0
   49.8858  -11.4307    9.4218 H   0  0  0  0  0
   48.7746   -9.4861    8.6920 H   0  0  0  0  0
   47.7157  -10.3530    7.6291 H   0  0  0  0  0
   50.3302   -9.2192    6.9963 H   0  0  0  0  0
   49.2051   -9.9698    5.8970 H   0  0  0  0  0
   48.9969  -13.4467    5.7180 H   0  0  0  0  0
   47.8392  -13.4224    7.0709 H   0  0  0  0  0
   48.1155  -11.9495    6.1090 H   0  0  0  0  0
   45.9700  -14.0304    9.8859 H   0  0  0  0  0
   46.8090  -15.5637    9.5451 H   0  0  0  0  0
   45.8923  -15.3678   11.0591 H   0  0  0  0  0
   51.6764  -13.6366    5.5350 H   0  0  0  0  0
   52.9886  -12.4374    5.6829 H   0  0  0  0  0
   48.9202  -15.7966    7.5473 H   0  0  0  0  0
   52.2722  -10.3664    7.1602 H   0  0  0  0  0
   52.9863  -13.5072    3.6214 H   0  0  0  0  0
  1  2  1  0  0  0
  1 10  1  0  0  0
  2  3  1  0  0  0
  3  4  1  0  0  0
  3 22  2  0  0  0
  4  5  2  0  0  0
  5  6  1  0  0  0
  5 10  1  0  0  0
  6  7  1  0  0  0
  7  8  1  0  0  0
  8  9  1  0  0  0
  8 14  1  0  0  0
  9 10  1  0  0  0
  9 11  1  0  0  0
 10 19  1  0  0  0
 11 12  1  0  0  0
 11 23  1  0  0  0
 12 13  1  0  0  0
 13 14  1  0  0  0
 13 17  1  0  0  0
 13 18  1  0  0  0
 14 15  1  0  0  0
 15 16  1  0  0  0
 16 17  1  0  0  0
 17 20  1  0  0  0
 17 24  1  0  0  0
 20 21  1  0  0  0
 20 25  2  0  0  0
 21 26  1  0  0  0
  1 27  1  0  0  0
  1 28  1  0  0  0
  2 29  1  0  0  0
  2 30  1  0  0  0
  4 31  1  0  0  0
  6 32  1  0  0  0
  6 33  1  0  0  0
  7 34  1  0  0  0
  7 35  1  0  0  0
  8 36  1  0  0  0
  9 37  1  0  0  0
 11 38  1  0  0  0
 12 39  1  0  0  0
 12 40  1  0  0  0
 14 41  1  0  0  0
 15 42  1  0  0  0
 15 43  1  0  0  0
 16 44  1  0  0  0
 16 45  1  0  0  0
 18 46  1  0  0  0
 18 47  1  0  0  0
 18 48  1  0  0  0
 19 49  1  0  0  0
 19 50  1  0  0  0
 19 51  1  0  0  0
 21 52  1  0  0  0
 21 53  1  0  0  0
 23 54  1  0  0  0
 24 55  1  0  0  0
 26 56  1  0  0  0
M  END
$$$$
