2ank_ligand
  -I-interpret- 

 71 73  0  0  0  0  0  0  0  0999 V2000
   14.2050   16.0150   22.9550 C   0  0  0  0  0
   15.6210   16.4000   22.6200 C   0  0  0  0  0
   16.2270   17.1140   23.7480 N   0  3  0  0  0
   17.5010   17.8040   23.5530 C   0  0  0  0  0
   17.2490   19.0670   22.7610 C   0  0  0  0  0
   18.1370   18.1140   24.9350 C   0  0  0  0  0
   19.4500   18.9000   24.8050 C   0  0  0  0  0
   19.8770   19.4160   26.1920 C   0  0  0  0  0
   21.1920   20.2370   26.0830 C   0  0  0  0  0
   22.3200   19.3870   25.4440 C   0  0  0  0  0
   21.8720   18.8160   24.0710 C   0  0  0  0  0
   20.5700   17.9930   24.2290 C   0  0  0  0  0
   16.4490   19.8960   23.1660 O   0  0  0  0  0
   17.9380   19.2330   21.5890 N   0  0  0  0  0
   17.8250   20.3980   20.6730 C   0  0  0  0  0
   16.3630   20.7120   20.3240 C   0  0  0  0  0
   15.6270   19.7970   19.9730 O   0  0  0  0  0
   15.8720   21.9950   20.3940 N   0  0  0  0  0
   14.4630   22.3080   20.0380 C   0  0  0  0  0
   13.5200   22.2490   21.2250 C   0  0  0  0  0
   12.9190   21.0270   21.6140 C   0  0  0  0  0
   12.0350   21.0080   22.7180 C   0  0  0  0  0
   11.7570   22.2250   23.3930 C   0  0  0  0  0
   12.3570   23.3690   22.9890 N   0  0  0  0  0
   13.1990   23.4190   21.9440 C   0  0  0  0  0
   13.2890   16.3120   22.1890 O   0  0  0  0  0
   13.9690   15.3960   23.9850 O   0  0  0  0  0
   10.8210   22.2580   24.5630 C   0  0  0  0  0
   10.5980   23.4010   25.2030 N   0  0  0  0  0
   10.1970   21.1550   24.9740 N   0  0  0  0  0
   18.6030   20.0880   19.3840 C   0  0  0  0  0
   18.5610   21.6150   21.2750 C   0  0  0  0  0
   20.0040   20.7250   19.5310 C   0  0  0  0  0
   20.0490   21.3060   20.9710 C   0  0  0  0  0
   15.6184   17.0493   21.7445 H   0  0  0  0  0
   16.1985   15.4987   22.4143 H   0  0  0  0  0
   16.4246   16.3906   24.4394 H   0  0  0  0  0
   15.5621   17.8527   23.9774 H   0  0  0  0  0
   18.1996   17.1782   22.9976 H   0  0  0  0  0
   18.3557   17.1669   25.4282 H   0  0  0  0  0
   17.4329   18.7209   25.5043 H   0  0  0  0  0
   19.2913   19.7393   24.1279 H   0  0  0  0  0
   20.0436   18.5645   26.8518 H   0  0  0  0  0
   19.0903   20.0568   26.5902 H   0  0  0  0  0
   21.5025   20.5380   27.0835 H   0  0  0  0  0
   21.0107   21.1095   25.4553 H   0  0  0  0  0
   22.5537   18.5564   26.1101 H   0  0  0  0  0
   23.1938   20.0207   25.2923 H   0  0  0  0  0
   22.6573   18.1677   23.6823 H   0  0  0  0  0
   21.6888   19.6429   23.3848 H   0  0  0  0  0
   20.2624   17.6100   23.2560 H   0  0  0  0  0
   20.7476   17.1596   24.9087 H   0  0  0  0  0
   18.5857   18.4919   21.3212 H   0  0  0  0  0
   16.4887   22.7488   20.6971 H   0  0  0  0  0
   14.1314   21.5627   19.3151 H   0  0  0  0  0
   14.4390   23.3252   19.6471 H   0  0  0  0  0
   13.1358   20.1092   21.0674 H   0  0  0  0  0
   11.5754   20.0751   23.0446 H   0  0  0  0  0
   13.6381   24.3720   21.6490 H   0  0  0  0  0
   13.6448   16.7913   21.4372 H   0  0  0  0  0
   11.0638   24.2556   24.8979 H   0  0  0  0  0
    9.5592   21.1960   25.7689 H   0  0  0  0  0
   10.3571   20.2695   24.4937 H   0  0  0  0  0
   18.0852   20.4957   18.5158 H   0  0  0  0  0
   18.6847   19.0114   19.2346 H   0  0  0  0  0
   18.3647   21.7439   22.3394 H   0  0  0  0  0
   18.2302   22.5623   20.8493 H   0  0  0  0  0
   20.1700   21.5002   18.7830 H   0  0  0  0  0
   20.7942   19.9912   19.3723 H   0  0  0  0  0
   20.4902   20.6152   21.6895 H   0  0  0  0  0
   20.6858   22.1872   21.0491 H   0  0  0  0  0
  1  2  1  0  0  0
  1 26  1  0  0  0
  1 27  2  0  0  0
  2  3  1  0  0  0
  3  4  1  0  0  0
  4  5  1  0  0  0
  4  6  1  0  0  0
  5 13  2  0  0  0
  5 14  1  0  0  0
  6  7  1  0  0  0
  7  8  1  0  0  0
  7 12  1  0  0  0
  8  9  1  0  0  0
  9 10  1  0  0  0
 10 11  1  0  0  0
 11 12  1  0  0  0
 14 15  1  0  0  0
 15 16  1  0  0  0
 15 31  1  0  0  0
 15 32  1  0  0  0
 16 17  2  0  0  0
 16 18  1  0  0  0
 18 19  1  0  0  0
 19 20  1  0  0  0
 20 21  4  0  0  0
 20 25  4  0  0  0
 21 22  4  0  0  0
 22 23  4  0  0  0
 23 24  4  0  0  0
 23 28  1  0  0  0
 24 25  4  0  0  0
 28 29  2  0  0  0
 28 30  1  0  0  0
 31 33  1  0  0  0
 32 34  1  0  0  0
 33 34  1  0  0  0
  2 35  1  0  0  0
  2 36  1  0  0  0
  3 37  1  0  0  0
  3 38  1  0  0  0
  4 39  1  0  0  0
  6 40  1  0  0  0
  6 41  1  0  0  0
  7 42  1  0  0  0
  8 43  1  0  0  0
  8 44  1  0  0  0
  9 45  1  0  0  0
  9 46  1  0  0  0
 10 47  1  0  0  0
 10 48  1  0  0  0
 11 49  1  0  0  0
 11 50  1  0  0  0
 12 51  1  0  0  0
 12 52  1  0  0  0
 14 53  1  0  0  0
 18 54  1  0  0  0
 19 55  1  0  0  0
 19 56  1  0  0  0
 21 57  1  0  0  0
 22 58  1  0  0  0
 25 59  1  0  0  0
 26 60  1  0  0  0
 29 61  1  0  0  0
 30 62  1  0  0  0
 30 63  1  0  0  0
 31 64  1  0  0  0
 31 65  1  0  0  0
 32 66  1  0  0  0
 32 67  1  0  0  0
 33 68  1  0  0  0
 33 69  1  0  0  0
 34 70  1  0  0  0
 34 71  1  0  0  0
M  END
$$$$
