5jf2_ligand
  -I-interpret- 

 30 30  0  0  0  0  0  0  0  0999 V2000
   -4.4050   -2.1710   12.8400 O   0  0  0  0  0
   -5.4410   -2.6070   12.3360 C   0  0  0  0  0
   -5.5070   -3.7830   11.7370 N   0  0  0  0  0
   -4.3930   -4.5890   11.6110 O   0  0  0  0  0
   -6.7280   -1.8180   12.4000 C   0  0  0  0  0
   -6.8040   -0.7980   11.2770 C   0  0  0  0  0
   -7.1190   -1.4880    9.9440 C   0  0  0  0  0
   -6.6830   -0.6630    8.7450 C   0  0  0  0  0
   -7.1500   -1.3370    7.4510 C   0  0  0  0  0
   -7.1500   -0.3730    6.2940 C   0  0  0  0  0
   -7.8890    0.2180   11.7040 C   0  0  0  0  0
   -9.1740    0.4690   11.5000 O   0  0  0  0  0
   -9.4410    1.6830   11.9530 N   0  0  0  0  0
   -8.3140    2.1880   12.4120 C   0  0  0  0  0
   -7.3370    1.2830   12.2520 N   0  0  0  0  0
   -6.3994   -4.1020   11.3599 H   0  0  0  0  0
   -4.6341   -5.3967   11.1515 H   0  0  0  0  0
   -6.7650   -1.2897   13.3527 H   0  0  0  0  0
   -7.5649   -2.5091   12.2993 H   0  0  0  0  0
   -5.8563   -0.2844   11.1152 H   0  0  0  0  0
   -8.1986   -1.6255    9.8832 H   0  0  0  0  0
   -6.5761   -2.4328    9.9177 H   0  0  0  0  0
   -5.5958   -0.5856    8.7380 H   0  0  0  0  0
   -7.1251    0.3310    8.8125 H   0  0  0  0  0
   -8.1676   -1.6987    7.5984 H   0  0  0  0  0
   -6.4647   -2.1526    7.2203 H   0  0  0  0  0
   -7.8227    0.4561    6.5135 H   0  0  0  0  0
   -6.1403    0.0077    6.1399 H   0  0  0  0  0
   -7.4870   -0.8875    5.3941 H   0  0  0  0  0
   -8.1950    3.1790   12.8500 H   0  0  0  0  0
  1  2  2  0  0  0
  2  3  1  0  0  0
  2  5  1  0  0  0
  3  4  1  0  0  0
  5  6  1  0  0  0
  6  7  1  0  0  0
  6 11  1  0  0  0
  7  8  1  0  0  0
  8  9  1  0  0  0
  9 10  1  0  0  0
 11 12  4  0  0  0
 11 15  4  0  0  0
 12 13  4  0  0  0
 13 14  4  0  0  0
 14 15  4  0  0  0
  3 16  1  0  0  0
  4 17  1  0  0  0
  5 18  1  0  0  0
  5 19  1  0  0  0
  6 20  1  0  0  0
  7 21  1  0  0  0
  7 22  1  0  0  0
  8 23  1  0  0  0
  8 24  1  0  0  0
  9 25  1  0  0  0
  9 26  1  0  0  0
 10 27  1  0  0  0
 10 28  1  0  0  0
 10 29  1  0  0  0
 14 30  1  0  0  0
M  END
$$$$
