### 
### Created by X-TOOL on Wed Jan  1 15:39:38 2020
### 

@<TRIPOS>MOLECULE
6fdp_ligand
  139   138     1     0     0
SMALL
GAST_HUCK


@<TRIPOS>ATOM
      1 N          39.1390   32.5790   13.7250 N.4       1 ASP         0.2391
      2 CA         38.1520   33.0260   14.7300 C.3       1 ASP         0.0764
      3 C          38.3710   32.3030   16.0790 C.2       1 ASP         0.2285
      4 O          39.1190   31.3210   16.1470 O.2       1 ASP        -0.3906
      5 CB         36.7210   32.7670   14.2330 C.3       1 ASP         0.0607
      6 CG         35.6400   33.4790   15.0530 C.2       1 ASP         0.0425
      7 OD1        35.9270   34.5430   15.6540 O.co2     1 ASP        -0.5686
      8 OD2        34.4910   32.9750   15.0800 O.co2     1 ASP        -0.5686
      9 N          37.7210   32.7720   17.1520 N.am      1 THR        -0.2585
     10 CA         37.8790   32.2770   18.5300 C.3       1 THR         0.1566
     11 C          36.5410   32.1460   19.2620 C.2       1 THR         0.2065
     12 O          35.4880   32.5610   18.7700 O.2       1 THR        -0.3943
     13 CB         38.8470   33.1620   19.3330 C.3       1 THR         0.0924
     14 OG1        38.3770   34.4870   19.4880 O.3       1 THR        -0.3874
     15 CG2        40.1920   33.2680   18.6300 C.3       1 THR        -0.0346
     16 N          36.5580   31.5300   20.4410 N.am      1 SER        -0.2615
     17 CA         35.3530   31.1120   21.1660 C.3       1 SER         0.1539
     18 C          34.6950   32.2350   21.9740 C.2       1 SER         0.2062
     19 O          35.3740   32.9570   22.7100 O.2       1 SER        -0.3943
     20 CB         35.6740   29.9420   22.0900 C.3       1 SER         0.0843
     21 OG         36.1880   28.8430   21.3610 O.3       1 SER        -0.3903
     22 N          33.3650   32.3490   21.8770 N.am      1 ARG        -0.2637
     23 CA         32.5130   33.2740   22.6390 C.3       1 ARG         0.1311
     24 C          32.1110   32.6210   23.9690 C.2       1 ARG         0.2039
     25 O          31.8200   31.4270   24.0170 O.2       1 ARG        -0.3944
     26 CB         31.2880   33.6270   21.7600 C.3       1 ARG        -0.0092
     27 CG         30.7130   35.0460   21.8760 C.3       1 ARG        -0.0156
     28 CD         30.1270   35.3260   23.2590 C.3       1 ARG         0.0627
     29 NE         29.5480   36.6740   23.3790 N.pl3     1 ARG        -0.2723
     30 CZ         28.3570   37.0720   22.9760 C.cat     1 ARG         0.2882
     31 NH1        27.4980   36.2710   22.4210 N.pl3     1 ARG        -0.2849
     32 NH2        27.9920   38.3070   23.1390 N.pl3     1 ARG        -0.2849
     33 N          32.0600   33.4000   25.0490 N.am      1 MET        -0.2637
     34 CA         31.6410   32.9300   26.3740 C.3       1 MET         0.1317
     35 C          30.1650   32.4870   26.4430 C.2       1 MET         0.2039
     36 O          29.8950   31.3640   26.8710 O.2       1 MET        -0.3944
     37 CB         31.9160   34.0480   27.3890 C.3       1 MET        -0.0034
     38 CG         31.5620   33.6410   28.8280 C.3       1 MET        -0.0024
     39 SD         30.9600   34.9920   29.8500 S.3       1 MET        -0.1639
     40 CE         30.2330   34.0240   31.1920 C.3       1 MET        -0.0181
     41 N          29.2170   33.3690   26.1030 N.am      1 GLU        -0.2636
     42 CA         27.7970   33.2110   26.4680 C.3       1 GLU         0.1325
     43 C          27.0320   32.2630   25.5230 C.2       1 GLU         0.2040
     44 O          26.5100   32.6850   24.4880 O.2       1 GLU        -0.3944
     45 CB         27.1030   34.5850   26.5860 C.3       1 GLU        -0.0008
     46 CG         27.7480   35.5150   27.6260 C.3       1 GLU         0.0044
     47 CD         26.7890   36.6320   28.0710 C.2       1 GLU         0.0350
     48 OE1        26.5340   37.5940   27.3060 O.co2     1 GLU        -0.5690
     49 OE2        26.2670   36.5540   29.2090 O.co2     1 GLU        -0.5690
     50 N          26.9970   30.9690   25.8590 N.am      1 GLU        -0.2636
     51 CA         26.3970   29.8920   25.0520 C.3       1 GLU         0.1325
     52 C          26.2500   28.5870   25.8820 C.2       1 GLU         0.2040
     53 O          26.9290   28.4340   26.8960 O.2       1 GLU        -0.3944
     54 CB         27.3320   29.6480   23.8520 C.3       1 GLU        -0.0008
     55 CG         26.6650   28.9440   22.6680 C.3       1 GLU         0.0044
     56 CD         27.7200   28.4940   21.6630 C.2       1 GLU         0.0350
     57 OE1        28.5370   27.6080   22.0110 O.co2     1 GLU        -0.5690
     58 OE2        27.7380   29.0070   20.5160 O.co2     1 GLU        -0.5690
     59 N          25.4220   27.6270   25.4470 N.am      1 VAL        -0.2635
     60 CA         25.3800   26.2260   25.9530 C.3       1 VAL         0.1332
     61 C          25.4390   25.2170   24.7880 C.2       1 VAL         0.2037
     62 O          25.6100   25.6240   23.6340 O.2       1 VAL        -0.3944
     63 CB         24.1560   25.9720   26.8620 C.3       1 VAL        -0.0063
     64 CG1        24.2310   26.8200   28.1350 C.3       1 VAL        -0.0584
     65 CG2        22.8170   26.2010   26.1520 C.3       1 VAL        -0.0584
     66 N          25.2930   23.9070   25.0360 N.am      1 ASP        -0.2679
     67 CA         25.3210   22.8730   23.9750 C.3       1 ASP         0.1057
     68 C          24.0970   22.9010   23.0250 C.2       1 ASP         0.0618
     69 O          24.2540   22.5140   21.8440 O.co2     1 ASP        -0.5665
     70 CB         25.6030   21.4880   24.5940 C.3       1 ASP         0.0351
     71 CG         25.4800   20.3380   23.5810 C.2       1 ASP         0.0387
     72 OD1        26.3950   20.1550   22.7380 O.co2     1 ASP        -0.5688
     73 OD2        24.4630   19.6060   23.6380 O.co2     1 ASP        -0.5688
     74 OXT        23.0110   23.3940   23.4050 O.co2     1 ASP        -0.5665
     75 H1         38.9764   33.0632   12.8560 H         1 ASP         0.2016
     76 H2         39.0441   31.5861   13.5793 H         1 ASP         0.2016
     77 H3         40.0697   32.7829   14.0542 H         1 ASP         0.2016
     78 H4         38.2804   34.1072   14.8863 H         1 ASP         0.1117
     79 H5         36.5305   31.6844   14.2749 H         1 ASP         0.0512
     80 H6         36.6486   33.1120   13.1910 H         1 ASP         0.0512
     81 H7         37.0745   33.5207   17.0052 H         1 THR         0.1885
     82 H8         38.3201   31.2713   18.4673 H         1 THR         0.0826
     83 H9         38.9850   32.7093   20.3260 H         1 THR         0.0639
     84 H10        39.0089   34.9894   19.9888 H         1 THR         0.2101
     85 H11        40.8660   33.9046   19.2221 H         1 THR         0.0257
     86 H12        40.0508   33.7111   17.6332 H         1 THR         0.0257
     87 H13        40.6318   32.2651   18.5266 H         1 THR         0.0257
     88 H14        37.4466   31.3402   20.8587 H         1 SER         0.1884
     89 H15        34.6220   30.7700   20.4185 H         1 SER         0.0823
     90 H16        34.7550   29.6310   22.6084 H         1 SER         0.0606
     91 H17        36.4216   30.2633   22.8301 H         1 SER         0.0606
     92 H18        36.9843   29.1054   20.9142 H         1 SER         0.2097
     93 H19        32.9065   31.7470   21.2232 H         1 ARG         0.1883
     94 H20        33.0734   34.1954   22.8558 H         1 ARG         0.0800
     95 H21        30.4831   32.9239   22.0202 H         1 ARG         0.0313
     96 H22        31.5818   33.4761   20.7108 H         1 ARG         0.0313
     97 H23        29.9189   35.1678   21.1247 H         1 ARG         0.0301
     98 H24        31.5174   35.7702   21.6801 H         1 ARG         0.0301
     99 H25        30.9275   35.2212   24.0061 H         1 ARG         0.0689
    100 H26        29.3378   34.5869   23.4610 H         1 ARG         0.0689
    101 H27        30.1400   37.3870   23.8285 H         1 ARG         0.2642
    102 H28        26.5792   36.6281   22.1223 H         1 ARG         0.2615
    103 H29        27.7357   35.2788   22.2797 H         1 ARG         0.2615
    104 H30        28.6373   38.9815   23.5743 H         1 ARG         0.2615
    105 H31        27.0571   38.6124   22.8330 H         1 ARG         0.2615
    106 H32        32.3224   34.3599   24.9506 H         1 MET         0.1883
    107 H33        32.2597   32.0589   26.6354 H         1 MET         0.0800
    108 H34        31.3163   34.9283   27.1144 H         1 MET         0.0320
    109 H35        32.9847   34.3053   27.3486 H         1 MET         0.0320
    110 H36        32.4644   33.2265   29.3010 H         1 MET         0.0378
    111 H37        30.7818   32.8668   28.7854 H         1 MET         0.0378
    112 H38        29.7992   34.7032   31.9407 H         1 MET         0.0340
    113 H39        31.0127   33.4080   31.6639 H         1 MET         0.0340
    114 H40        29.4446   33.3717   30.7883 H         1 MET         0.0340
    115 H41        29.4851   34.1750   25.5753 H         1 GLU         0.1883
    116 H42        27.7733   32.7493   27.4661 H         1 GLU         0.0801
    117 H43        26.0533   34.4207   26.8706 H         1 GLU         0.0330
    118 H44        27.1437   35.0802   25.6046 H         1 GLU         0.0330
    119 H45        28.6461   35.9723   27.1854 H         1 GLU         0.0433
    120 H46        28.0335   34.9202   28.5061 H         1 GLU         0.0433
    121 H47        27.4129   30.7107   26.7310 H         1 GLU         0.1883
    122 H48        25.4048   30.2058   24.6955 H         1 GLU         0.0801
    123 H49        28.1743   29.0275   24.1919 H         1 GLU         0.0330
    124 H50        27.7098   30.6214   23.5059 H         1 GLU         0.0330
    125 H51        25.9682   29.6392   22.1770 H         1 GLU         0.0433
    126 H52        26.1114   28.0659   23.0318 H         1 GLU         0.0433
    127 H53        24.7782   27.8715   24.7219 H         1 VAL         0.1883
    128 H54        26.2792   26.0727   26.5677 H         1 VAL         0.0802
    129 H55        24.1898   24.9143   27.1620 H         1 VAL         0.0343
    130 H56        23.3494   26.6195   28.7616 H         1 VAL         0.0234
    131 H57        24.2538   27.8860   27.8647 H         1 VAL         0.0234
    132 H58        25.1435   26.5636   28.6932 H         1 VAL         0.0234
    133 H59        22.7757   25.5869   25.2403 H         1 VAL         0.0234
    134 H60        22.7215   27.2633   25.8832 H         1 VAL         0.0234
    135 H61        21.9929   25.9170   26.8229 H         1 VAL         0.0234
    136 H62        25.1588   23.6140   25.9826 H         1 ASP         0.1876
    137 H63        26.1884   23.1085   23.3408 H         1 ASP         0.0745
    138 H64        24.8839   21.3155   25.4083 H         1 ASP         0.0471
    139 H65        26.6249   21.4880   25.0011 H         1 ASP         0.0471
@<TRIPOS>BOND
     1    1    2 1  
     2    2    3 1  
     3    2    5 1  
     4    3    4 2  
     5    3    9 am 
     6    5    6 1  
     7    6    7 ar 
     8    6    8 ar 
     9    9   10 1  
    10   10   11 1  
    11   10   13 1  
    12   11   12 2  
    13   11   16 am 
    14   13   14 1  
    15   13   15 1  
    16   16   17 1  
    17   17   18 1  
    18   17   20 1  
    19   18   19 2  
    20   18   22 am 
    21   20   21 1  
    22   22   23 1  
    23   23   24 1  
    24   23   26 1  
    25   24   25 2  
    26   24   33 am 
    27   26   27 1  
    28   27   28 1  
    29   28   29 1  
    30   29   30 ar 
    31   30   31 ar 
    32   30   32 ar 
    33   33   34 1  
    34   34   35 1  
    35   34   37 1  
    36   35   36 2  
    37   35   41 am 
    38   37   38 1  
    39   38   39 1  
    40   39   40 1  
    41   41   42 1  
    42   42   43 1  
    43   42   45 1  
    44   43   44 2  
    45   43   50 am 
    46   45   46 1  
    47   46   47 1  
    48   47   48 ar 
    49   47   49 ar 
    50   50   51 1  
    51   51   52 1  
    52   51   54 1  
    53   52   53 2  
    54   52   59 am 
    55   54   55 1  
    56   55   56 1  
    57   56   57 ar 
    58   56   58 ar 
    59   59   60 1  
    60   60   61 1  
    61   60   63 1  
    62   61   62 2  
    63   61   66 am 
    64   63   64 1  
    65   63   65 1  
    66   66   67 1  
    67   67   68 1  
    68   67   70 1  
    69   68   69 ar 
    70   68   74 ar 
    71   70   71 1  
    72   71   72 ar 
    73   71   73 ar 
    74    1   75 1  
    75    1   76 1  
    76    1   77 1  
    77    2   78 1  
    78    5   79 1  
    79    5   80 1  
    80    9   81 1  
    81   10   82 1  
    82   13   83 1  
    83   14   84 1  
    84   15   85 1  
    85   15   86 1  
    86   15   87 1  
    87   16   88 1  
    88   17   89 1  
    89   20   90 1  
    90   20   91 1  
    91   21   92 1  
    92   22   93 1  
    93   23   94 1  
    94   26   95 1  
    95   26   96 1  
    96   27   97 1  
    97   27   98 1  
    98   28   99 1  
    99   28  100 1  
   100   29  101 1  
   101   31  102 1  
   102   31  103 1  
   103   32  104 1  
   104   32  105 1  
   105   33  106 1  
   106   34  107 1  
   107   37  108 1  
   108   37  109 1  
   109   38  110 1  
   110   38  111 1  
   111   40  112 1  
   112   40  113 1  
   113   40  114 1  
   114   41  115 1  
   115   42  116 1  
   116   45  117 1  
   117   45  118 1  
   118   46  119 1  
   119   46  120 1  
   120   50  121 1  
   121   51  122 1  
   122   54  123 1  
   123   54  124 1  
   124   55  125 1  
   125   55  126 1  
   126   59  127 1  
   127   60  128 1  
   128   63  129 1  
   129   64  130 1  
   130   64  131 1  
   131   64  132 1  
   132   65  133 1  
   133   65  134 1  
   134   65  135 1  
   135   66  136 1  
   136   67  137 1  
   137   70  138 1  
   138   70  139 1  
@<TRIPOS>SUBSTRUCTURE
     1 ASP         1

