6fdp_ligand
  -I-interpret- 

143142  0  0  0  0  0  0  0  0999 V2000
   39.1390   32.5790   13.7250 N   0  3  0  0  0
   38.1520   33.0260   14.7300 C   0  0  0  0  0
   38.3710   32.3030   16.0790 C   0  0  0  0  0
   39.1190   31.3210   16.1470 O   0  0  0  0  0
   36.7210   32.7670   14.2330 C   0  0  0  0  0
   35.6400   33.4790   15.0530 C   0  0  0  0  0
   35.9270   34.5430   15.6540 O   0  0  0  0  0
   34.4910   32.9750   15.0800 O   0  0  0  0  0
   37.7210   32.7720   17.1520 N   0  0  0  0  0
   37.8790   32.2770   18.5300 C   0  0  0  0  0
   36.5410   32.1460   19.2620 C   0  0  0  0  0
   35.4880   32.5610   18.7700 O   0  0  0  0  0
   38.8470   33.1620   19.3330 C   0  0  0  0  0
   38.3770   34.4870   19.4880 O   0  0  0  0  0
   40.1920   33.2680   18.6300 C   0  0  0  0  0
   36.5580   31.5300   20.4410 N   0  0  0  0  0
   35.3530   31.1120   21.1660 C   0  0  0  0  0
   34.6950   32.2350   21.9740 C   0  0  0  0  0
   35.3740   32.9570   22.7100 O   0  0  0  0  0
   35.6740   29.9420   22.0900 C   0  0  0  0  0
   36.1880   28.8430   21.3610 O   0  0  0  0  0
   33.3650   32.3490   21.8770 N   0  0  0  0  0
   32.5130   33.2740   22.6390 C   0  0  0  0  0
   32.1110   32.6210   23.9690 C   0  0  0  0  0
   31.8200   31.4270   24.0170 O   0  0  0  0  0
   31.2880   33.6270   21.7600 C   0  0  0  0  0
   30.7130   35.0460   21.8760 C   0  0  0  0  0
   30.1270   35.3260   23.2590 C   0  0  0  0  0
   29.5480   36.6740   23.3790 N   0  0  0  0  0
   28.3570   37.0720   22.9760 C   0  0  0  0  0
   27.4980   36.2710   22.4210 N   0  0  0  0  0
   27.9920   38.3070   23.1390 N   0  0  0  0  0
   32.0600   33.4000   25.0490 N   0  0  0  0  0
   31.6410   32.9300   26.3740 C   0  0  0  0  0
   30.1650   32.4870   26.4430 C   0  0  0  0  0
   29.8950   31.3640   26.8710 O   0  0  0  0  0
   31.9160   34.0480   27.3890 C   0  0  0  0  0
   31.5620   33.6410   28.8280 C   0  0  0  0  0
   30.9600   34.9920   29.8500 S   0  0  0  0  0
   30.2330   34.0240   31.1920 C   0  0  0  0  0
   29.2170   33.3690   26.1030 N   0  0  0  0  0
   27.7970   33.2110   26.4680 C   0  0  0  0  0
   27.0320   32.2630   25.5230 C   0  0  0  0  0
   26.5100   32.6850   24.4880 O   0  0  0  0  0
   27.1030   34.5850   26.5860 C   0  0  0  0  0
   27.7480   35.5150   27.6260 C   0  0  0  0  0
   26.7890   36.6320   28.0710 C   0  0  0  0  0
   26.5340   37.5940   27.3060 O   0  0  0  0  0
   26.2670   36.5540   29.2090 O   0  0  0  0  0
   26.9970   30.9690   25.8590 N   0  0  0  0  0
   26.3970   29.8920   25.0520 C   0  0  0  0  0
   26.2500   28.5870   25.8820 C   0  0  0  0  0
   26.9290   28.4340   26.8960 O   0  0  0  0  0
   27.3320   29.6480   23.8520 C   0  0  0  0  0
   26.6650   28.9440   22.6680 C   0  0  0  0  0
   27.7200   28.4940   21.6630 C   0  0  0  0  0
   28.5370   27.6080   22.0110 O   0  0  0  0  0
   27.7380   29.0070   20.5160 O   0  0  0  0  0
   25.4220   27.6270   25.4470 N   0  0  0  0  0
   25.3800   26.2260   25.9530 C   0  0  0  0  0
   25.4390   25.2170   24.7880 C   0  0  0  0  0
   25.6100   25.6240   23.6340 O   0  0  0  0  0
   24.1560   25.9720   26.8620 C   0  0  0  0  0
   24.2310   26.8200   28.1350 C   0  0  0  0  0
   22.8170   26.2010   26.1520 C   0  0  0  0  0
   25.2930   23.9070   25.0360 N   0  0  0  0  0
   25.3210   22.8730   23.9750 C   0  0  0  0  0
   24.0970   22.9010   23.0250 C   0  0  0  0  0
   24.2540   22.5140   21.8440 O   0  0  0  0  0
   25.6030   21.4880   24.5940 C   0  0  0  0  0
   25.4800   20.3380   23.5810 C   0  0  0  0  0
   26.3950   20.1550   22.7380 O   0  0  0  0  0
   24.4630   19.6060   23.6380 O   0  0  0  0  0
   23.0110   23.3940   23.4050 O   0  0  0  0  0
   40.0811   32.7588   14.0721 H   0  0  0  0  0
   39.0223   31.5798   13.5566 H   0  0  0  0  0
   38.9924   33.0910   12.8551 H   0  0  0  0  0
   38.2907   34.0968   14.8794 H   0  0  0  0  0
   36.5380   31.6957   14.3165 H   0  0  0  0  0
   36.6581   33.1481   13.2137 H   0  0  0  0  0
   36.8518   34.7534   15.5058 H   0  0  0  0  0
   37.0616   33.5357   17.0023 H   0  0  0  0  0
   38.3051   31.2768   18.4517 H   0  0  0  0  0
   38.9335   32.6817   20.3077 H   0  0  0  0  0
   39.0155   34.9947   19.9941 H   0  0  0  0  0
   40.6266   32.2736   18.5281 H   0  0  0  0  0
   40.0507   33.7071   17.6424 H   0  0  0  0  0
   40.8589   33.8989   19.2176 H   0  0  0  0  0
   37.4643   31.3365   20.8670 H   0  0  0  0  0
   34.6342   30.8127   20.4032 H   0  0  0  0  0
   34.7568   29.6306   22.5899 H   0  0  0  0  0
   36.4248   30.2635   22.8119 H   0  0  0  0  0
   36.3812   28.1221   21.9648 H   0  0  0  0  0
   32.8973   31.7350   21.2102 H   0  0  0  0  0
   33.0410   34.1956   22.8838 H   0  0  0  0  0
   30.4905   32.9609   22.0893 H   0  0  0  0  0
   31.6314   33.5343   20.7297 H   0  0  0  0  0
   29.9118   35.1460   21.1438 H   0  0  0  0  0
   31.5241   35.7536   21.7039 H   0  0  0  0  0
   30.9373   35.2479   23.9839 H   0  0  0  0  0
   29.3274   34.6056   23.4319 H   0  0  0  0  0
   30.1342   37.3801   23.8242 H   0  0  0  0  0
   26.5840   36.6221   22.1351 H   0  0  0  0  0
   27.7375   35.2909   22.2711 H   0  0  0  0  0
   28.6270   38.9725   23.5798 H   0  0  0  0  0
   32.3276   34.3791   24.9486 H   0  0  0  0  0
   32.2190   32.0354   26.6056 H   0  0  0  0  0
   31.2967   34.9039   27.1208 H   0  0  0  0  0
   32.9817   34.2747   27.3574 H   0  0  0  0  0
   32.4764   33.2704   29.2913 H   0  0  0  0  0
   30.7615   32.9038   28.7657 H   0  0  0  0  0
   29.4521   33.3781   30.7907 H   0  0  0  0  0
   31.0065   33.4141   31.6587 H   0  0  0  0  0
   29.8035   34.6981   31.9331 H   0  0  0  0  0
   29.4905   34.1911   25.5648 H   0  0  0  0  0
   27.7755   32.7334   27.4476 H   0  0  0  0  0
   26.0754   34.4053   26.9020 H   0  0  0  0  0
   27.1832   35.0753   25.6158 H   0  0  0  0  0
   28.6246   35.9780   27.1729 H   0  0  0  0  0
   28.0085   34.9199   28.5012 H   0  0  0  0  0
   27.0199   37.4861   26.4851 H   0  0  0  0  0
   27.4212   30.7055   26.7484 H   0  0  0  0  0
   25.3992   30.1823   24.7231 H   0  0  0  0  0
   28.1370   29.0001   24.1988 H   0  0  0  0  0
   27.6635   30.6247   23.4995 H   0  0  0  0  0
   25.9792   29.6368   22.1803 H   0  0  0  0  0
   26.1217   28.0715   23.0308 H   0  0  0  0  0
   27.0378   29.6602   20.4478 H   0  0  0  0  0
   24.7654   27.8764   24.7074 H   0  0  0  0  0
   26.2652   26.0776   26.5714 H   0  0  0  0  0
   24.1958   24.9162   27.1298 H   0  0  0  0  0
   25.1356   26.5650   28.6871 H   0  0  0  0  0
   24.2536   27.8760   27.8658 H   0  0  0  0  0
   23.3570   26.6204   28.7550 H   0  0  0  0  0
   22.7622   27.2334   25.8067 H   0  0  0  0  0
   22.7394   25.5267   25.2991 H   0  0  0  0  0
   22.0005   26.0052   26.8471 H   0  0  0  0  0
   25.1561   23.6081   26.0016 H   0  0  0  0  0
   26.1490   23.1134   23.3081 H   0  0  0  0  0
   25.1430   22.1678   21.7374 H   0  0  0  0  0
   24.8647   21.3191   25.3779 H   0  0  0  0  0
   26.6277   21.4938   24.9655 H   0  0  0  0  0
   27.0786   20.8178   22.8604 H   0  0  0  0  0
  1  2  1  0  0  0
  2  3  1  0  0  0
  2  5  1  0  0  0
  3  4  2  0  0  0
  3  9  1  0  0  0
  5  6  1  0  0  0
  6  7  1  0  0  0
  6  8  2  0  0  0
  9 10  1  0  0  0
 10 11  1  0  0  0
 10 13  1  0  0  0
 11 12  2  0  0  0
 11 16  1  0  0  0
 13 14  1  0  0  0
 13 15  1  0  0  0
 16 17  1  0  0  0
 17 18  1  0  0  0
 17 20  1  0  0  0
 18 19  2  0  0  0
 18 22  1  0  0  0
 20 21  1  0  0  0
 22 23  1  0  0  0
 23 24  1  0  0  0
 23 26  1  0  0  0
 24 25  2  0  0  0
 24 33  1  0  0  0
 26 27  1  0  0  0
 27 28  1  0  0  0
 28 29  1  0  0  0
 29 30  1  0  0  0
 30 31  1  0  0  0
 30 32  2  0  0  0
 33 34  1  0  0  0
 34 35  1  0  0  0
 34 37  1  0  0  0
 35 36  2  0  0  0
 35 41  1  0  0  0
 37 38  1  0  0  0
 38 39  1  0  0  0
 39 40  1  0  0  0
 41 42  1  0  0  0
 42 43  1  0  0  0
 42 45  1  0  0  0
 43 44  2  0  0  0
 43 50  1  0  0  0
 45 46  1  0  0  0
 46 47  1  0  0  0
 47 48  1  0  0  0
 47 49  2  0  0  0
 50 51  1  0  0  0
 51 52  1  0  0  0
 51 54  1  0  0  0
 52 53  2  0  0  0
 52 59  1  0  0  0
 54 55  1  0  0  0
 55 56  1  0  0  0
 56 57  2  0  0  0
 56 58  1  0  0  0
 59 60  1  0  0  0
 60 61  1  0  0  0
 60 63  1  0  0  0
 61 62  2  0  0  0
 61 66  1  0  0  0
 63 64  1  0  0  0
 63 65  1  0  0  0
 66 67  1  0  0  0
 67 68  1  0  0  0
 67 70  1  0  0  0
 68 69  1  0  0  0
 68 74  2  0  0  0
 70 71  1  0  0  0
 71 72  1  0  0  0
 71 73  2  0  0  0
  1 75  1  0  0  0
  1 76  1  0  0  0
  1 77  1  0  0  0
  2 78  1  0  0  0
  5 79  1  0  0  0
  5 80  1  0  0  0
  7 81  1  0  0  0
  9 82  1  0  0  0
 10 83  1  0  0  0
 13 84  1  0  0  0
 14 85  1  0  0  0
 15 86  1  0  0  0
 15 87  1  0  0  0
 15 88  1  0  0  0
 16 89  1  0  0  0
 17 90  1  0  0  0
 20 91  1  0  0  0
 20 92  1  0  0  0
 21 93  1  0  0  0
 22 94  1  0  0  0
 23 95  1  0  0  0
 26 96  1  0  0  0
 26 97  1  0  0  0
 27 98  1  0  0  0
 27 99  1  0  0  0
 28100  1  0  0  0
 28101  1  0  0  0
 29102  1  0  0  0
 31103  1  0  0  0
 31104  1  0  0  0
 32105  1  0  0  0
 33106  1  0  0  0
 34107  1  0  0  0
 37108  1  0  0  0
 37109  1  0  0  0
 38110  1  0  0  0
 38111  1  0  0  0
 40112  1  0  0  0
 40113  1  0  0  0
 40114  1  0  0  0
 41115  1  0  0  0
 42116  1  0  0  0
 45117  1  0  0  0
 45118  1  0  0  0
 46119  1  0  0  0
 46120  1  0  0  0
 48121  1  0  0  0
 50122  1  0  0  0
 51123  1  0  0  0
 54124  1  0  0  0
 54125  1  0  0  0
 55126  1  0  0  0
 55127  1  0  0  0
 58128  1  0  0  0
 59129  1  0  0  0
 60130  1  0  0  0
 63131  1  0  0  0
 64132  1  0  0  0
 64133  1  0  0  0
 64134  1  0  0  0
 65135  1  0  0  0
 65136  1  0  0  0
 65137  1  0  0  0
 66138  1  0  0  0
 67139  1  0  0  0
 69140  1  0  0  0
 70141  1  0  0  0
 70142  1  0  0  0
 72143  1  0  0  0
M  END
$$$$
