6mg5_ligand
  -I-interpret- 

 34 35  0  0  0  0  0  0  0  0999 V2000
   -5.7460  -20.0870   37.7320 O   0  0  0  0  0
   -4.8230  -19.9560   36.9520 C   0  0  0  0  0
   -3.8230  -20.9060   37.0090 O   0  0  0  0  0
   -2.6900  -20.8090   36.2050 C   0  0  0  0  0
   -4.6610  -18.8900   35.9720 C   0  0  0  0  0
   -3.5770  -18.7820   35.1740 C   0  0  0  0  0
   -3.4730  -17.6840   34.1540 C   0  0  0  0  0
   -2.5150  -19.7570   35.3050 C   0  0  0  0  0
   -1.3090  -19.7140   34.6030 C   0  0  0  0  0
   -0.3450  -20.6880   34.7800 C   0  0  0  0  0
   -0.5450  -21.7330   35.6890 C   0  0  0  0  0
   -1.7430  -21.7730   36.3860 C   0  0  0  0  0
    0.4380  -22.6970   35.9130 N   0  0  0  0  0
    1.8960  -22.4700   35.5270 C   0  0  0  0  0
    2.1550  -23.2400   34.3070 C   0  0  0  0  0
    0.1840  -23.8760   36.7470 C   0  0  0  0  0
   -0.5520  -25.0240   36.1150 C   0  0  0  0  0
   -5.4514  -18.1452   35.8787 H   0  0  0  0  0
   -4.3003  -17.7652   33.4490 H   0  0  0  0  0
   -3.5157  -16.7177   34.6566 H   0  0  0  0  0
   -2.5277  -17.7752   33.6190 H   0  0  0  0  0
   -1.1248  -18.8985   33.9036 H   0  0  0  0  0
    0.5804  -20.6419   34.2059 H   0  0  0  0  0
   -1.9301  -22.5858   37.0878 H   0  0  0  0  0
    2.5575  -22.7950   36.3300 H   0  0  0  0  0
    2.0838  -21.4101   35.3554 H   0  0  0  0  0
    1.9721  -24.2970   34.5003 H   0  0  0  0  0
    1.4925  -22.8946   33.5134 H   0  0  0  0  0
    3.1923  -23.0990   34.0032 H   0  0  0  0  0
   -0.4536  -23.5295   37.5603 H   0  0  0  0  0
    1.1666  -24.2664   37.0120 H   0  0  0  0  0
   -1.5339  -24.6861   35.7837 H   0  0  0  0  0
    0.0152  -25.3907   35.2595 H   0  0  0  0  0
   -0.6692  -25.8248   36.8451 H   0  0  0  0  0
  1  2  2  0  0  0
  2  3  1  0  0  0
  2  5  1  0  0  0
  3  4  1  0  0  0
  4  8  4  0  0  0
  4 12  4  0  0  0
  5  6  2  0  0  0
  6  7  1  0  0  0
  6  8  1  0  0  0
  8  9  4  0  0  0
  9 10  4  0  0  0
 10 11  4  0  0  0
 11 12  4  0  0  0
 11 13  1  0  0  0
 13 14  1  0  0  0
 13 16  1  0  0  0
 14 15  1  0  0  0
 16 17  1  0  0  0
  5 18  1  0  0  0
  7 19  1  0  0  0
  7 20  1  0  0  0
  7 21  1  0  0  0
  9 22  1  0  0  0
 10 23  1  0  0  0
 12 24  1  0  0  0
 14 25  1  0  0  0
 14 26  1  0  0  0
 15 27  1  0  0  0
 15 28  1  0  0  0
 15 29  1  0  0  0
 16 30  1  0  0  0
 16 31  1  0  0  0
 17 32  1  0  0  0
 17 33  1  0  0  0
 17 34  1  0  0  0
M  END
$$$$
