5ls6_ligand
  -I-interpret- 

 74 77  0  0  0  0  0  0  0  0999 V2000
  208.2100    3.0610   15.0760 C   0  0  0  0  0
  209.4910    2.5870   15.7640 C   0  0  0  0  0
  209.9570    3.5450   16.5260 F   0  0  0  0  0
  210.3850    2.2840   14.8560 F   0  0  0  0  0
  209.1940    1.3550   16.6120 C   0  0  0  0  0
  209.6990    0.1450   15.9530 N   0  3  0  0  0
  209.3910   -1.0280   16.7790 C   0  0  0  0  0
  209.9060   -2.2980   16.1290 C   0  0  0  0  0
  209.0410   -0.0040   14.6500 C   0  0  0  0  0
  209.5560   -1.2330   13.9320 C   0  0  0  0  0
  209.2620   -2.4590   14.7690 C   0  0  0  0  0
  209.8430   -3.6880   14.0770 C   0  0  0  0  0
  211.3650   -3.5690   14.0290 C   0  0  0  0  0
  209.4370   -4.9190   14.7630 N   0  0  0  0  0
  208.2540   -5.5510   14.6340 C   0  0  0  0  0
  207.1450   -5.1900   13.6490 C   0  0  0  0  0
  210.1150   -5.5430   15.8920 C   0  0  0  0  0
  211.4020   -5.4350   16.4560 C   0  0  0  0  0
  211.7790   -6.3470   17.4680 C   0  0  0  0  0
  210.9440   -7.4310   17.8340 C   0  0  0  0  0
  209.6790   -7.6120   17.2290 C   0  0  0  0  0
  209.2950   -6.7660   16.1690 C   0  0  0  0  0
  208.1020   -6.6030   15.4680 C   0  0  0  0  0
  207.0790   -7.4480   15.4710 C   0  0  0  0  0
  205.9460   -7.0650   15.1870 O   0  0  0  0  0
  207.4150   -8.7360   15.5930 N   0  0  0  0  0
  206.4370   -9.8090   15.3850 C   0  0  0  0  0
  207.0280  -10.8440   14.6740 C   0  0  0  0  0
  207.8190  -11.7740   15.3360 C   0  0  0  0  0
  208.0030  -11.6900   16.5490 O   0  0  0  0  0
  208.4120  -12.8170   14.6160 N   0  0  0  0  0
  208.2090  -12.9220   13.2360 C   0  0  0  0  0
  208.8000  -13.9590   12.5260 C   0  0  0  0  0
  207.4170  -11.9890   12.5780 C   0  0  0  0  0
  206.8340  -10.9600   13.3040 C   0  0  0  0  0
  206.0500  -10.0180   12.7170 O   0  0  0  0  0
  206.8160   -9.3120   11.7390 C   0  0  0  0  0
  207.8268    2.2657   14.4367 H   0  0  0  0  0
  207.4653    3.3126   15.8311 H   0  0  0  0  0
  208.4282    3.9414   14.4715 H   0  0  0  0  0
  208.1154    1.2648   16.7407 H   0  0  0  0  0
  209.6852    1.4633   17.5790 H   0  0  0  0  0
  210.7084    0.2219   15.8282 H   0  0  0  0  0
  208.3093   -1.1046   16.8896 H   0  0  0  0  0
  209.8738   -0.9101   17.7491 H   0  0  0  0  0
  209.6575   -3.1553   16.7547 H   0  0  0  0  0
  210.9884   -2.2374   16.0158 H   0  0  0  0  0
  209.2550    0.8758   14.0431 H   0  0  0  0  0
  207.9674   -0.1095   14.8060 H   0  0  0  0  0
  210.6316   -1.1436   13.7799 H   0  0  0  0  0
  209.0630   -1.3243   12.9642 H   0  0  0  0  0
  208.1848   -2.5783   14.8853 H   0  0  0  0  0
  209.4557   -3.7386   13.0594 H   0  0  0  0  0
  211.6407   -2.6726   13.4736 H   0  0  0  0  0
  211.7552   -3.5031   15.0446 H   0  0  0  0  0
  211.7814   -4.4467   13.5347 H   0  0  0  0  0
  206.8101   -4.1702   13.8387 H   0  0  0  0  0
  207.5266   -5.2649   12.6307 H   0  0  0  0  0
  206.3092   -5.8780   13.7767 H   0  0  0  0  0
  212.0934   -4.6630   16.1183 H   0  0  0  0  0
  212.7331   -6.2132   17.9778 H   0  0  0  0  0
  211.2817   -8.1362   18.5934 H   0  0  0  0  0
  209.0082   -8.3969   17.5784 H   0  0  0  0  0
  208.3753   -8.9786   15.8368 H   0  0  0  0  0
  205.5873   -9.4215   14.8228 H   0  0  0  0  0
  206.0956  -10.1810   16.3510 H   0  0  0  0  0
  209.8833  -13.8982   12.6307 H   0  0  0  0  0
  208.4487  -14.9131   12.9189 H   0  0  0  0  0
  208.5302  -13.8767   11.4731 H   0  0  0  0  0
  206.5775  -12.5635   12.1864 H   0  0  0  0  0
  208.0931  -11.4908   11.8832 H   0  0  0  0  0
  207.6662   -8.8314   12.2229 H   0  0  0  0  0
  207.1740  -10.0126   10.9847 H   0  0  0  0  0
  206.1900   -8.5553   11.2660 H   0  0  0  0  0
  1  2  1  0  0  0
  2  3  1  0  0  0
  2  4  1  0  0  0
  2  5  1  0  0  0
  5  6  1  0  0  0
  6  7  1  0  0  0
  6  9  1  0  0  0
  7  8  1  0  0  0
  8 11  1  0  0  0
  9 10  1  0  0  0
 10 11  1  0  0  0
 11 12  1  0  0  0
 12 13  1  0  0  0
 12 14  1  0  0  0
 14 15  4  0  0  0
 14 17  4  0  0  0
 15 16  1  0  0  0
 15 23  4  0  0  0
 17 18  4  0  0  0
 17 22  4  0  0  0
 18 19  4  0  0  0
 19 20  4  0  0  0
 20 21  4  0  0  0
 21 22  4  0  0  0
 22 23  4  0  0  0
 23 24  1  0  0  0
 24 25  2  0  0  0
 24 26  1  0  0  0
 26 27  1  0  0  0
 27 28  1  0  0  0
 28 29  1  0  0  0
 28 35  2  0  0  0
 29 30  2  0  0  0
 29 31  1  0  0  0
 31 32  2  0  0  0
 32 33  1  0  0  0
 32 34  1  0  0  0
 34 35  1  0  0  0
 35 36  1  0  0  0
 36 37  1  0  0  0
  1 38  1  0  0  0
  1 39  1  0  0  0
  1 40  1  0  0  0
  5 41  1  0  0  0
  5 42  1  0  0  0
  6 43  1  0  0  0
  7 44  1  0  0  0
  7 45  1  0  0  0
  8 46  1  0  0  0
  8 47  1  0  0  0
  9 48  1  0  0  0
  9 49  1  0  0  0
 10 50  1  0  0  0
 10 51  1  0  0  0
 11 52  1  0  0  0
 12 53  1  0  0  0
 13 54  1  0  0  0
 13 55  1  0  0  0
 13 56  1  0  0  0
 16 57  1  0  0  0
 16 58  1  0  0  0
 16 59  1  0  0  0
 18 60  1  0  0  0
 19 61  1  0  0  0
 20 62  1  0  0  0
 21 63  1  0  0  0
 26 64  1  0  0  0
 27 65  1  0  0  0
 27 66  1  0  0  0
 33 67  1  0  0  0
 33 68  1  0  0  0
 33 69  1  0  0  0
 34 70  1  0  0  0
 34 71  1  0  0  0
 37 72  1  0  0  0
 37 73  1  0  0  0
 37 74  1  0  0  0
M  END
$$$$
