4ede_ligand
  -I-interpret- 

 50 50  0  0  0  0  0  0  0  0999 V2000
   -7.6490   -1.0010    7.1940 C   0  0  0  0  0
   -7.5430   -1.2730    5.6820 C   0  0  0  0  0
   -8.0690   -2.6090    5.1420 C   0  0  0  0  0
   -9.0030   -3.2940    6.1370 C   0  0  0  0  0
   -8.3230   -3.3750    7.4800 C   0  0  0  0  0
   -7.8930   -2.2580    8.0430 C   0  0  0  0  0
   -7.6960   -2.3160    9.5170 C   0  0  0  0  0
   -6.5380   -1.8640   10.0110 C   0  0  0  0  0
   -6.2690   -1.8470   11.4500 C   0  0  0  0  0
   -5.4150   -0.8820   11.8910 C   0  0  0  0  0
   -5.0510   -0.6610   13.2750 C   0  0  0  0  0
   -3.9390    0.0530   13.5450 C   0  0  0  0  0
   -3.6160    0.3170   14.9550 C   0  0  0  0  0
   -2.7240    1.2530   15.2180 C   0  0  0  0  0
   -2.4870    1.5070   16.6760 C   0  0  0  0  0
   -6.3660   -0.3100    7.6370 C   0  0  0  0  0
   -8.6720    0.1010    7.4380 C   0  0  0  0  0
   -8.1200   -4.6880    8.1720 C   0  0  0  0  0
   -6.9240   -2.8690   12.3430 C   0  0  0  0  0
   -4.2260   -0.4210   16.1270 C   0  0  0  0  0
   -6.4744   -1.2788    5.4670 H   0  0  0  0  0
   -8.1628   -0.5104    5.2104 H   0  0  0  0  0
   -7.2175   -3.2656    4.9633 H   0  0  0  0  0
   -8.6275   -2.4128    4.2268 H   0  0  0  0  0
   -9.2392   -4.2983    5.7853 H   0  0  0  0  0
   -9.9252   -2.7201    6.2279 H   0  0  0  0  0
   -8.4703   -2.7140   10.1729 H   0  0  0  0  0
   -5.7746   -1.4987    9.3241 H   0  0  0  0  0
   -4.9708   -0.2246   11.1436 H   0  0  0  0  0
   -5.6631   -1.0634   14.0821 H   0  0  0  0  0
   -3.2999    0.4227   12.7432 H   0  0  0  0  0
   -2.1994    1.7999   14.4346 H   0  0  0  0  0
   -3.4194    1.8214   17.1450 H   0  0  0  0  0
   -2.1309    0.5922   17.1497 H   0  0  0  0  0
   -1.7389    2.2916   16.7899 H   0  0  0  0  0
   -6.2036    0.5780    7.0262 H   0  0  0  0  0
   -6.4534   -0.0211    8.6844 H   0  0  0  0  0
   -5.5261   -0.9942    7.5164 H   0  0  0  0  0
   -8.6661    0.3733    8.4934 H   0  0  0  0  0
   -8.4162    0.9724    6.8352 H   0  0  0  0  0
   -9.6631   -0.2569    7.1593 H   0  0  0  0  0
   -7.0535   -4.8591    8.3183 H   0  0  0  0  0
   -8.6222   -4.6690    9.1392 H   0  0  0  0  0
   -8.5371   -5.4880    7.5603 H   0  0  0  0  0
   -6.1556   -3.4619   12.8390 H   0  0  0  0  0
   -7.5313   -2.3598   13.0913 H   0  0  0  0  0
   -7.5572   -3.5219   11.7423 H   0  0  0  0  0
   -3.4383   -0.9242   16.6877 H   0  0  0  0  0
   -4.7381    0.2898   16.7756 H   0  0  0  0  0
   -4.9395   -1.1583   15.7589 H   0  0  0  0  0
  1  2  1  0  0  0
  1  6  1  0  0  0
  1 16  1  0  0  0
  1 17  1  0  0  0
  2  3  1  0  0  0
  3  4  1  0  0  0
  4  5  1  0  0  0
  5  6  2  0  0  0
  5 18  1  0  0  0
  6  7  1  0  0  0
  7  8  2  0  0  0
  8  9  1  0  0  0
  9 10  2  0  0  0
  9 19  1  0  0  0
 10 11  1  0  0  0
 11 12  2  0  0  0
 12 13  1  0  0  0
 13 14  2  0  0  0
 13 20  1  0  0  0
 14 15  1  0  0  0
  2 21  1  0  0  0
  2 22  1  0  0  0
  3 23  1  0  0  0
  3 24  1  0  0  0
  4 25  1  0  0  0
  4 26  1  0  0  0
  7 27  1  0  0  0
  8 28  1  0  0  0
 10 29  1  0  0  0
 11 30  1  0  0  0
 12 31  1  0  0  0
 14 32  1  0  0  0
 15 33  1  0  0  0
 15 34  1  0  0  0
 15 35  1  0  0  0
 16 36  1  0  0  0
 16 37  1  0  0  0
 16 38  1  0  0  0
 17 39  1  0  0  0
 17 40  1  0  0  0
 17 41  1  0  0  0
 18 42  1  0  0  0
 18 43  1  0  0  0
 18 44  1  0  0  0
 19 45  1  0  0  0
 19 46  1  0  0  0
 19 47  1  0  0  0
 20 48  1  0  0  0
 20 49  1  0  0  0
 20 50  1  0  0  0
M  END
$$$$
