3eka_ligand
  -I-interpret- 

 20 20  0  0  0  0  0  0  0  0999 V2000
   16.9680   -1.3800   37.3300 C   0  0  0  0  0
   16.7050   -2.6430   36.7180 C   0  0  0  0  0
   15.8370   -2.4020   35.7370 C   0  0  0  0  0
   15.5180   -0.9070   35.6250 C   0  0  0  0  0
   14.1500   -0.4690   36.1490 C   0  0  0  0  0
   14.1600    1.0740   36.1530 C   0  0  0  0  0
   17.4850   -1.2550   38.4420 O   0  0  0  0  0
   17.2450   -3.7940   37.1220 O   0  0  0  0  0
   15.3060   -3.3330   34.9470 O   0  0  0  0  0
   16.5010   -0.2680   36.4830 O   0  0  0  0  0
   13.9870   -0.9890   37.4800 O   0  0  0  0  0
   13.1650    1.6290   37.3630 O   0  0  0  0  0
   15.5285   -0.6451   34.5670 H   0  0  0  0  0
   13.3264   -0.8369   35.5371 H   0  0  0  0  0
   13.8041    1.4429   35.1910 H   0  0  0  0  0
   15.1755    1.4311   36.3242 H   0  0  0  0  0
   17.8369   -3.6271   37.8592 H   0  0  0  0  0
   14.7111   -2.9168   34.3189 H   0  0  0  0  0
   13.9842   -1.9485   37.4494 H   0  0  0  0  0
   13.1711    2.5890   37.3657 H   0  0  0  0  0
  1  2  1  0  0  0
  1  7  2  0  0  0
  1 10  1  0  0  0
  2  3  2  0  0  0
  2  8  1  0  0  0
  3  4  1  0  0  0
  3  9  1  0  0  0
  4  5  1  0  0  0
  4 10  1  0  0  0
  5  6  1  0  0  0
  5 11  1  0  0  0
  6 12  1  0  0  0
  4 13  1  0  0  0
  5 14  1  0  0  0
  6 15  1  0  0  0
  6 16  1  0  0  0
  8 17  1  0  0  0
  9 18  1  0  0  0
 11 19  1  0  0  0
 12 20  1  0  0  0
M  END
$$$$
