3u93_ligand
  -I-interpret- 

 20 19  0  0  0  0  0  0  0  0999 V2000
   20.9800   21.2130   16.9410 N   0  3  0  0  0
   21.4550   21.4220   18.3350 C   0  0  0  0  0
   22.6450   20.5360   18.6690 C   0  0  0  0  0
   23.2060   19.8910   17.7910 O   0  0  0  0  0
   20.3100   21.1470   19.3080 C   0  0  0  0  0
   19.3090   22.2970   19.3870 C   0  0  0  0  0
   19.8730   23.5000   20.1140 C   0  0  0  0  0
   20.8290   23.3140   20.8960 O   0  0  0  0  0
   19.3550   24.6260   19.9180 O   0  0  0  0  0
   23.0680   20.4430   19.8220 O   0  0  0  0  0
   21.7446   21.3967   16.2914 H   0  0  0  0  0
   20.6635   20.2495   16.8318 H   0  0  0  0  0
   20.2073   21.8500   16.7473 H   0  0  0  0  0
   21.7833   22.4573   18.4274 H   0  0  0  0  0
   20.7411   21.0119   20.3000 H   0  0  0  0  0
   19.7766   20.2648   18.9539 H   0  0  0  0  0
   18.4353   21.9480   19.9373 H   0  0  0  0  0
   19.0622   22.6013   18.3699 H   0  0  0  0  0
   18.6397   24.5418   19.2833 H   0  0  0  0  0
   22.5395   20.9969   20.4012 H   0  0  0  0  0
  1  2  1  0  0  0
  2  3  1  0  0  0
  2  5  1  0  0  0
  3  4  2  0  0  0
  3 10  1  0  0  0
  5  6  1  0  0  0
  6  7  1  0  0  0
  7  8  2  0  0  0
  7  9  1  0  0  0
  1 11  1  0  0  0
  1 12  1  0  0  0
  1 13  1  0  0  0
  2 14  1  0  0  0
  5 15  1  0  0  0
  5 16  1  0  0  0
  6 17  1  0  0  0
  6 18  1  0  0  0
  9 19  1  0  0  0
 10 20  1  0  0  0
M  END
$$$$
