3fzt_ligand
  -I-interpret- 

 59 62  0  0  0  0  0  0  0  0999 V2000
   -5.8340    3.9610    9.8660 C   0  0  0  0  0
   -7.5500    0.3850   15.9770 C   0  0  0  0  0
    0.4380   -8.4020   10.1830 C   0  0  0  0  0
   -6.8760    0.2730   14.7630 C   0  0  0  0  0
   -5.9510    0.2050   10.4410 C   0  0  0  0  0
   -6.2800    1.5800   10.3960 C   0  0  0  0  0
   -4.3530   -4.6630   12.3980 C   0  0  0  0  0
   -9.3960    1.4990   14.9260 C   0  0  0  0  0
   -0.9190   -8.4430    9.8390 C   0  0  0  0  0
   -8.7890    1.0170   16.0680 C   0  0  0  0  0
   -2.6350   -6.0330   12.0680 C   0  0  0  0  0
   -9.5170    1.1140   17.3980 C   0  0  0  0  0
   -7.2900    2.5700    8.3850 C   0  0  0  0  0
   -4.8680    2.1640    8.3720 C   0  0  0  0  0
    1.3430   -9.1830    9.4540 C   0  0  0  0  0
   -8.7400    1.3850   13.7100 C   0  0  0  0  0
    0.8670   -9.9720    8.4120 C   0  0  0  0  0
   -3.4090   -5.0140   11.4690 C   0  0  0  0  0
   -1.3180   -9.2570    8.7890 C   0  0  0  0  0
   -1.4560   -6.7960   11.4990 C   0  0  0  0  0
   -7.4790    0.7860   13.6180 C   0  0  0  0  0
   -6.3420   -0.2870   11.6510 C   0  0  0  0  0
   -5.2640   -2.4750   11.8140 C   0  0  0  0  0
   -6.0490    2.5600    9.2680 C   0  0  0  0  0
   -4.1130   -5.3670   13.5160 N   0  0  0  0  0
   -0.4180   -9.9790    8.1190 N   0  0  0  0  0
   -3.0620   -6.2270   13.2890 N   0  0  0  0  0
   -6.8340    1.8990   11.5350 N   0  0  0  0  0
   -5.3190   -3.6660   12.4510 N   0  0  0  0  0
   -6.2290   -1.6010   12.1520 N   0  0  0  0  0
   -6.8960    0.7510   12.3390 N   0  0  0  0  0
   -4.4110   -2.2200   10.9690 O   0  0  0  0  0
   -1.8630   -7.7050   10.4940 O   0  0  0  0  0
   -5.7013    4.6824    9.0597 H   0  0  0  0  0
   -6.7032    4.2372   10.4629 H   0  0  0  0  0
   -4.9457    3.9526   10.4976 H   0  0  0  0  0
   -7.0977   -0.0315   16.8771 H   0  0  0  0  0
    0.7835   -7.7733   11.0037 H   0  0  0  0  0
   -5.8981   -0.2057   14.7108 H   0  0  0  0  0
   -5.4683   -0.3631    9.6458 H   0  0  0  0  0
  -10.3803    1.9642   14.9796 H   0  0  0  0  0
   -9.7125    0.1112   17.7777 H   0  0  0  0  0
   -8.8982    1.6595   18.1105 H   0  0  0  0  0
  -10.4608    1.6407   17.2566 H   0  0  0  0  0
   -7.1558    3.2926    7.5801 H   0  0  0  0  0
   -7.4414    1.5769    7.9620 H   0  0  0  0  0
   -8.1578    2.8476    8.9833 H   0  0  0  0  0
   -5.0498    1.1760    7.9490 H   0  0  0  0  0
   -4.7642    2.8917    7.5671 H   0  0  0  0  0
   -3.9540    2.1440    8.9655 H   0  0  0  0  0
    2.4050   -9.1729    9.6994 H   0  0  0  0  0
   -9.2160    1.7696   12.8080 H   0  0  0  0  0
    1.5589  -10.5864    7.8360 H   0  0  0  0  0
   -3.2813   -4.5931   10.4717 H   0  0  0  0  0
   -2.3706   -9.3070    8.5103 H   0  0  0  0  0
   -0.9879   -7.3600   12.3057 H   0  0  0  0  0
   -0.7624   -6.0806   11.0572 H   0  0  0  0  0
   -6.1441   -3.8492   13.0220 H   0  0  0  0  0
   -6.9328   -1.9120   12.8216 H   0  0  0  0  0
 24  1  1  0  0  0
  4  2  4  0  0  0
  2 10  4  0  0  0
  9  3  4  0  0  0
  3 15  4  0  0  0
 21  4  4  0  0  0
  5  6  4  0  0  0
 22  5  4  0  0  0
  6 24  1  0  0  0
  6 28  4  0  0  0
  7 18  4  0  0  0
  7 25  4  0  0  0
 29  7  1  0  0  0
  8 10  4  0  0  0
 16  8  4  0  0  0
  9 19  4  0  0  0
 33  9  1  0  0  0
 10 12  1  0  0  0
 18 11  4  0  0  0
 11 20  1  0  0  0
 11 27  4  0  0  0
 24 13  1  0  0  0
 24 14  1  0  0  0
 15 17  4  0  0  0
 21 16  4  0  0  0
 26 17  4  0  0  0
 19 26  4  0  0  0
 20 33  1  0  0  0
 31 21  1  0  0  0
 30 22  1  0  0  0
 22 31  4  0  0  0
 23 29  1  0  0  0
 23 30  1  0  0  0
 23 32  2  0  0  0
 25 27  4  0  0  0
 28 31  4  0  0  0
  1 34  1  0  0  0
  1 35  1  0  0  0
  1 36  1  0  0  0
  2 37  1  0  0  0
  3 38  1  0  0  0
  4 39  1  0  0  0
  5 40  1  0  0  0
  8 41  1  0  0  0
 12 42  1  0  0  0
 12 43  1  0  0  0
 12 44  1  0  0  0
 13 45  1  0  0  0
 13 46  1  0  0  0
 13 47  1  0  0  0
 14 48  1  0  0  0
 14 49  1  0  0  0
 14 50  1  0  0  0
 15 51  1  0  0  0
 16 52  1  0  0  0
 17 53  1  0  0  0
 18 54  1  0  0  0
 19 55  1  0  0  0
 20 56  1  0  0  0
 20 57  1  0  0  0
 29 58  1  0  0  0
 30 59  1  0  0  0
M  END
$$$$
