3m6p_ligand
  -I-interpret- 

 62 62  0  0  0  0  0  0  0  0999 V2000
   16.6930   11.4440   26.4200 C   0  0  0  0  0
   16.2320   11.4980   27.8370 C   0  0  0  0  0
   16.8700   10.8950   28.6730 O   0  0  0  0  0
   15.1070   12.1800   28.1040 N   0  0  0  0  0
   14.7060   12.1920   29.4080 O   0  0  0  0  0
   16.3060   10.0010   26.0410 C   0  0  0  0  0
   16.9130    9.6400   24.7250 C   0  0  0  0  0
   16.8880   10.4350   23.7850 O   0  0  0  0  0
   14.7340    9.9090   25.8150 C   0  0  0  0  0
   14.2780    8.5110   25.2870 C   0  0  0  0  0
   12.7890    8.4730   25.0830 C   0  0  0  0  0
   12.3180    6.9530   25.0570 C   0  0  0  0  0
   13.1440    6.0580   24.0800 C   0  0  0  0  0
   17.4130    8.4370   24.6770 N   0  0  0  0  0
   17.9520    7.9160   23.4410 C   0  0  0  0  0
   19.4650    7.6840   23.5130 C   0  0  0  0  0
   20.1800    9.0590   23.6460 C   0  0  0  0  0
   19.7830    6.8770   24.7190 C   0  0  0  0  0
   17.1280    6.6430   23.0870 C   0  0  0  0  0
   16.6840    5.9060   23.9880 O   0  0  0  0  0
   16.8840    6.3400   21.7840 N   0  0  0  0  0
   16.1200    5.1700   21.3430 C   0  0  0  0  0
   17.3290    7.1430   20.6180 C   0  0  0  0  0
   16.3290    6.7780   19.5230 C   0  0  0  0  0
   15.9020    5.3640   19.8400 C   0  0  0  0  0
   16.9330    3.8650   21.5450 C   0  0  0  0  0
   15.9890    2.7900   21.3710 O   0  0  0  0  0
   17.7526   11.6651   26.2918 H   0  0  0  0  0
   16.2441   12.2039   25.7804 H   0  0  0  0  0
   14.5821   12.6616   27.3739 H   0  0  0  0  0
   13.8975   12.7034   29.4883 H   0  0  0  0  0
   16.6467    9.3449   26.8420 H   0  0  0  0  0
   14.4605   10.6533   25.0671 H   0  0  0  0  0
   14.2485   10.0769   26.7764 H   0  0  0  0  0
   14.5502    7.7534   26.0218 H   0  0  0  0  0
   14.7673    8.3209   24.3317 H   0  0  0  0  0
   12.5312    8.9573   24.1412 H   0  0  0  0  0
   12.2898    9.0021   25.8947 H   0  0  0  0  0
   11.2825    6.9379   24.7170 H   0  0  0  0  0
   12.4543    6.5519   26.0613 H   0  0  0  0  0
   13.0489    6.4458   23.0658 H   0  0  0  0  0
   14.1925    6.0690   24.3778 H   0  0  0  0  0
   12.7652    5.0366   24.1168 H   0  0  0  0  0
   17.4240    7.8593   25.5175 H   0  0  0  0  0
   17.8501    8.6428   22.6351 H   0  0  0  0  0
   19.7965    7.1639   22.6143 H   0  0  0  0  0
   19.9421    9.6761   22.7796 H   0  0  0  0  0
   19.8396    9.5578   24.5534 H   0  0  0  0  0
   21.2576    8.9032   23.6979 H   0  0  0  0  0
   19.4531    7.4117   25.6097 H   0  0  0  0  0
   19.2693    5.9176   24.6584 H   0  0  0  0  0
   20.8592    6.7117   24.7706 H   0  0  0  0  0
   15.1921    5.0841   21.9084 H   0  0  0  0  0
   18.3575    6.9242   20.3311 H   0  0  0  0  0
   17.3410    8.2121   20.8301 H   0  0  0  0  0
   16.7717    6.8535   18.5298 H   0  0  0  0  0
   15.4807    7.4622   19.5059 H   0  0  0  0  0
   14.8574    5.2030   19.5734 H   0  0  0  0  0
   16.4833    4.6429   19.2653 H   0  0  0  0  0
   17.3966    3.8327   22.5310 H   0  0  0  0  0
   17.7548    3.7930   20.8326 H   0  0  0  0  0
   16.4383    1.9494   21.4854 H   0  0  0  0  0
  1  2  1  0  0  0
  1  6  1  0  0  0
  2  3  2  0  0  0
  2  4  1  0  0  0
  4  5  1  0  0  0
  6  7  1  0  0  0
  6  9  1  0  0  0
  7  8  2  0  0  0
  7 14  1  0  0  0
  9 10  1  0  0  0
 10 11  1  0  0  0
 11 12  1  0  0  0
 12 13  1  0  0  0
 14 15  1  0  0  0
 15 16  1  0  0  0
 15 19  1  0  0  0
 16 17  1  0  0  0
 16 18  1  0  0  0
 19 20  2  0  0  0
 19 21  1  0  0  0
 21 22  1  0  0  0
 21 23  1  0  0  0
 22 25  1  0  0  0
 22 26  1  0  0  0
 23 24  1  0  0  0
 24 25  1  0  0  0
 26 27  1  0  0  0
  1 28  1  0  0  0
  1 29  1  0  0  0
  4 30  1  0  0  0
  5 31  1  0  0  0
  6 32  1  0  0  0
  9 33  1  0  0  0
  9 34  1  0  0  0
 10 35  1  0  0  0
 10 36  1  0  0  0
 11 37  1  0  0  0
 11 38  1  0  0  0
 12 39  1  0  0  0
 12 40  1  0  0  0
 13 41  1  0  0  0
 13 42  1  0  0  0
 13 43  1  0  0  0
 14 44  1  0  0  0
 15 45  1  0  0  0
 16 46  1  0  0  0
 17 47  1  0  0  0
 17 48  1  0  0  0
 17 49  1  0  0  0
 18 50  1  0  0  0
 18 51  1  0  0  0
 18 52  1  0  0  0
 22 53  1  0  0  0
 23 54  1  0  0  0
 23 55  1  0  0  0
 24 56  1  0  0  0
 24 57  1  0  0  0
 25 58  1  0  0  0
 25 59  1  0  0  0
 26 60  1  0  0  0
 26 61  1  0  0  0
 27 62  1  0  0  0
M  END
$$$$
