3vp4_ligand
  -I-interpret- 

 15 15  0  0  0  0  0  0  0  0999 V2000
    4.3050   -9.9910    0.5300 N   0  0  0  0  0
    2.3240  -10.0450   -2.6500 N   0  0  0  0  0
    3.1280  -10.0250   -0.1270 N   0  0  0  0  0
    6.6810   -9.9200    0.4440 C   0  0  0  0  0
    3.2120  -10.0210   -1.5620 C   0  0  0  0  0
    7.1040   -8.4550    0.5190 C   0  0  0  0  0
    5.4020   -9.9580   -0.3380 C   0  0  0  0  0
    4.8870   -9.9730   -1.8660 S   0  0  0  0  0
    1.3176  -10.0738   -2.4864 H   0  0  0  0  0
    2.6855  -10.0337   -3.6037 H   0  0  0  0  0
    6.5394  -10.3356    1.4417 H   0  0  0  0  0
    7.4502  -10.5228   -0.0388 H   0  0  0  0  0
    7.2531   -8.0691   -0.4894 H   0  0  0  0  0
    6.3254   -7.8785    1.0186 H   0  0  0  0  0
    8.0344   -8.3751    1.0812 H   0  0  0  0  0
  1  3  4  0  0  0
  7  1  4  0  0  0
  5  2  1  0  0  0
  3  5  4  0  0  0
  4  6  1  0  0  0
  4  7  1  0  0  0
  5  8  4  0  0  0
  7  8  4  0  0  0
  2  9  1  0  0  0
  2 10  1  0  0  0
  4 11  1  0  0  0
  4 12  1  0  0  0
  6 13  1  0  0  0
  6 14  1  0  0  0
  6 15  1  0  0  0
M  END
$$$$
