2wc4_ligand
  -I-interpret- 

 50 51  0  0  0  0  0  0  0  0999 V2000
    0.7280    7.5290   14.3270 O   0  0  0  0  0
    1.6200    6.6390   13.6320 C   0  0  0  0  0
    0.9800    6.2960   12.2800 C   0  0  0  0  0
    0.5540    7.4960   11.4160 C   0  0  0  0  0
    0.6600    6.9870    9.7150 S   0  0  0  0  0
    1.8110    5.3290   14.3850 C   0  0  0  0  0
    2.3660    5.5290   15.6720 O   0  0  0  0  0
    2.8660    4.4700   13.6870 C   0  0  0  0  0
    2.7650    3.1160   14.1630 O   0  0  0  0  0
    2.7050    4.4200   12.1600 C   0  0  0  0  0
    4.0160    4.3950   11.5500 O   0  0  0  0  0
    1.9240    5.4520   11.5040 N   0  0  0  0  0
    1.7950    5.7170   10.1190 C   0  0  0  0  0
    2.4930    5.0800    9.1530 N   0  0  0  0  0
    2.3840    5.3600    7.7010 C   0  0  0  0  0
    3.6330    6.0350    7.1610 C   0  0  0  0  0
    3.6000    6.0750    5.6300 C   0  0  0  0  0
    4.8600    6.7980    5.1500 C   0  0  0  0  0
    4.9050    6.8160    3.6270 C   0  0  0  0  0
    6.3550    6.9580    3.1520 C   0  0  0  0  0
    6.3940    7.8860    1.9490 C   0  0  0  0  0
    7.8090    8.4080    1.7750 C   0  0  0  0  0
    0.6322    8.3412   13.8243 H   0  0  0  0  0
    2.5866    7.1323   13.5298 H   0  0  0  0  0
    0.0531    5.7763   12.5225 H   0  0  0  0  0
    1.2041    8.3511   11.6011 H   0  0  0  0  0
   -0.4628    7.8028   11.6613 H   0  0  0  0  0
    0.8214    4.8742   14.4283 H   0  0  0  0  0
    1.7685    6.0666   16.1969 H   0  0  0  0  0
    3.8280    4.9281   13.9168 H   0  0  0  0  0
    2.8611    3.1058   15.1181 H   0  0  0  0  0
    2.1158    3.5152   12.0105 H   0  0  0  0  0
    3.9228    4.3637   10.5950 H   0  0  0  0  0
    1.5380    6.0290    7.5438 H   0  0  0  0  0
    2.2536    4.4124    7.1783 H   0  0  0  0  0
    4.5083    5.4705    7.4823 H   0  0  0  0  0
    3.6774    7.0554    7.5416 H   0  0  0  0  0
    2.7094    6.6006    5.2857 H   0  0  0  0  0
    3.5695    5.0627    5.2269 H   0  0  0  0  0
    5.7385    6.2749    5.5278 H   0  0  0  0  0
    4.8470    7.8233    5.5197 H   0  0  0  0  0
    4.3211    7.6597    3.2592 H   0  0  0  0  0
    4.4897    5.8841    3.2432 H   0  0  0  0  0
    6.7479    5.9799    2.8742 H   0  0  0  0  0
    6.9655    7.3715    3.9547 H   0  0  0  0  0
    5.7104    8.7205    2.1055 H   0  0  0  0  0
    6.0896    7.3423    1.0547 H   0  0  0  0  0
    8.1066    8.9530    2.6709 H   0  0  0  0  0
    8.4872    7.5696    1.6161 H   0  0  0  0  0
    7.8455    9.0749    0.9136 H   0  0  0  0  0
  1  2  1  0  0  0
  2  3  1  0  0  0
  2  6  1  0  0  0
  3  4  1  0  0  0
  3 12  1  0  0  0
  4  5  1  0  0  0
  5 13  1  0  0  0
  6  7  1  0  0  0
  6  8  1  0  0  0
  8  9  1  0  0  0
  8 10  1  0  0  0
 10 11  1  0  0  0
 10 12  1  0  0  0
 12 13  1  0  0  0
 13 14  2  0  0  0
 14 15  1  0  0  0
 15 16  1  0  0  0
 16 17  1  0  0  0
 17 18  1  0  0  0
 18 19  1  0  0  0
 19 20  1  0  0  0
 20 21  1  0  0  0
 21 22  1  0  0  0
  1 23  1  0  0  0
  2 24  1  0  0  0
  3 25  1  0  0  0
  4 26  1  0  0  0
  4 27  1  0  0  0
  6 28  1  0  0  0
  7 29  1  0  0  0
  8 30  1  0  0  0
  9 31  1  0  0  0
 10 32  1  0  0  0
 11 33  1  0  0  0
 15 34  1  0  0  0
 15 35  1  0  0  0
 16 36  1  0  0  0
 16 37  1  0  0  0
 17 38  1  0  0  0
 17 39  1  0  0  0
 18 40  1  0  0  0
 18 41  1  0  0  0
 19 42  1  0  0  0
 19 43  1  0  0  0
 20 44  1  0  0  0
 20 45  1  0  0  0
 21 46  1  0  0  0
 21 47  1  0  0  0
 22 48  1  0  0  0
 22 49  1  0  0  0
 22 50  1  0  0  0
M  END
$$$$
