5aom_ligand
  -I-interpret- 

 33 34  0  0  0  0  0  0  0  0999 V2000
   91.9560   91.8700  -45.3150 Cl  0  0  0  0  0
   91.5440   97.2050  -43.8860 C   0  0  0  0  0
   91.6880   96.3790  -42.7920 N   0  0  0  0  0
   91.3770   96.8330  -45.0460 O   0  0  0  0  0
   91.8510   94.9790  -42.8300 C   0  0  0  0  0
   91.2040  101.4610  -44.3570 N   0  3  0  0  0
   92.0940   95.1860  -40.4780 O   0  0  0  0  0
   91.8250   94.1930  -43.9890 C   0  0  0  0  0
   92.0730   94.3640  -41.5890 C   0  0  0  0  0
   91.4930   98.6960  -43.5720 C   0  0  0  0  0
   92.2660   92.9920  -41.4830 C   0  0  0  0  0
   92.0140   92.8190  -43.8800 C   0  0  0  0  0
   92.2340   92.2080  -42.6450 C   0  0  0  0  0
   92.5470  100.9180  -44.0080 C   0  0  0  0  0
   90.0610  100.7620  -43.6920 C   0  0  0  0  0
   92.5770   99.4420  -44.3620 C   0  0  0  0  0
   90.1290   99.2640  -43.9690 C   0  0  0  0  0
   91.6755   96.8201  -41.8724 H   0  0  0  0  0
   91.0845  101.3389  -45.3626 H   0  0  0  0  0
   91.1836  102.4315  -44.0438 H   0  0  0  0  0
   92.2526   94.6569  -39.6928 H   0  0  0  0  0
   91.6589   94.6518  -44.9637 H   0  0  0  0  0
   91.6586   98.8277  -42.5027 H   0  0  0  0  0
   92.4398   92.5318  -40.5103 H   0  0  0  0  0
   92.3799   91.1295  -42.5841 H   0  0  0  0  0
   92.7357  101.0489  -42.9425 H   0  0  0  0  0
   93.3192  101.4497  -44.5641 H   0  0  0  0  0
   89.1237  101.1559  -44.0850 H   0  0  0  0  0
   90.1167  100.9294  -42.6164 H   0  0  0  0  0
   92.3910   99.3235  -45.4295 H   0  0  0  0  0
   93.5544   99.0306  -44.1098 H   0  0  0  0  0
   89.3575   98.7641  -43.3833 H   0  0  0  0  0
   89.9773   99.0978  -45.0355 H   0  0  0  0  0
 12  1  1  0  0  0
  2  3  1  0  0  0
  2  4  2  0  0  0
 10  2  1  0  0  0
  3  5  1  0  0  0
  5  8  4  0  0  0
  5  9  4  0  0  0
 14  6  1  0  0  0
  6 15  1  0  0  0
  9  7  1  0  0  0
  8 12  4  0  0  0
  9 11  4  0  0  0
 16 10  1  0  0  0
 10 17  1  0  0  0
 11 13  4  0  0  0
 12 13  4  0  0  0
 14 16  1  0  0  0
 15 17  1  0  0  0
  3 18  1  0  0  0
  6 19  1  0  0  0
  6 20  1  0  0  0
  7 21  1  0  0  0
  8 22  1  0  0  0
 10 23  1  0  0  0
 11 24  1  0  0  0
 13 25  1  0  0  0
 14 26  1  0  0  0
 14 27  1  0  0  0
 15 28  1  0  0  0
 15 29  1  0  0  0
 16 30  1  0  0  0
 16 31  1  0  0  0
 17 32  1  0  0  0
 17 33  1  0  0  0
M  END
$$$$
