6me4_ligand
  -I-interpret- 

 32 33  0  0  0  0  0  0  0  0999 V2000
   23.0100  -25.0520   47.5440 C   0  0  0  0  0
   24.8670  -25.9940   48.3370 C   0  0  0  0  0
   25.8490  -26.7630   48.9660 C   0  0  0  0  0
   27.1960  -26.3780   48.9110 C   0  0  0  0  0
   29.2260  -23.5770   47.6490 C   0  0  0  0  0
   24.0460  -24.2380   47.1860 C   0  0  0  0  0
   23.9370  -22.9200   46.4690 C   0  0  0  0  0
   23.7960  -20.5020   46.8760 N   0  0  0  0  0
   23.3380  -19.4580   47.5790 C   0  0  0  0  0
   23.0700  -18.2060   46.7400 C   0  0  0  0  0
   20.9940  -24.7020   47.0470 I   0  0  0  0  0
   23.4970  -26.1310   48.2270 N   0  0  0  0  0
   27.5770  -25.1990   48.2620 C   0  0  0  0  0
   28.9040  -24.8550   48.2330 O   0  0  0  0  0
   26.5890  -24.4170   47.6510 C   0  0  0  0  0
   25.2470  -24.8100   47.6970 C   0  0  0  0  0
   24.1300  -21.7930   47.4880 C   0  0  0  0  0
   23.1520  -19.4660   48.7980 O   0  0  0  0  0
   25.5662  -27.6683   49.5031 H   0  0  0  0  0
   27.9550  -27.0046   49.3794 H   0  0  0  0  0
   28.8906  -23.5579   46.6121 H   0  0  0  0  0
   28.7256  -22.7868   48.2087 H   0  0  0  0  0
   30.3045  -23.4233   47.6862 H   0  0  0  0  0
   22.9572  -22.8325   45.9995 H   0  0  0  0  0
   24.7005  -22.8546   45.6938 H   0  0  0  0  0
   23.9182  -20.3947   45.8691 H   0  0  0  0  0
   22.0214  -17.9241   46.8351 H   0  0  0  0  0
   23.7004  -17.3906   47.0948 H   0  0  0  0  0
   23.2980  -18.4149   45.6948 H   0  0  0  0  0
   26.8670  -23.4970   47.1367 H   0  0  0  0  0
   25.1701  -21.7776   47.8136 H   0  0  0  0  0
   23.4754  -21.9654   48.3423 H   0  0  0  0  0
  6  1  4  0  0  0
  1 11  1  0  0  0
 12  1  4  0  0  0
  3  2  4  0  0  0
  2 12  4  0  0  0
  2 16  4  0  0  0
  4  3  4  0  0  0
 13  4  4  0  0  0
 14  5  1  0  0  0
  6  7  1  0  0  0
 16  6  4  0  0  0
  7 17  1  0  0  0
  8  9  1  0  0  0
 17  8  1  0  0  0
  9 10  1  0  0  0
  9 18  2  0  0  0
 13 14  1  0  0  0
 13 15  4  0  0  0
 15 16  4  0  0  0
  3 19  1  0  0  0
  4 20  1  0  0  0
  5 21  1  0  0  0
  5 22  1  0  0  0
  5 23  1  0  0  0
  7 24  1  0  0  0
  7 25  1  0  0  0
  8 26  1  0  0  0
 10 27  1  0  0  0
 10 28  1  0  0  0
 10 29  1  0  0  0
 15 30  1  0  0  0
 17 31  1  0  0  0
 17 32  1  0  0  0
M  END
$$$$
