6ety_ligand
  -I-interpret- 

 40 39  0  0  0  0  0  0  0  0999 V2000
   13.9850   48.8570   40.3310 O   0  0  0  0  0
   14.0050   47.6160   40.0930 C   0  0  0  0  0
   13.2350   47.0230   39.3000 O   0  0  0  0  0
   15.0910   46.7960   40.8090 C   0  0  0  0  0
   14.8560   45.2660   40.7710 C   0  0  0  0  0
   16.1900   44.5670   41.1060 C   0  0  0  0  0
   17.1880   44.7850   39.9360 C   0  0  0  0  0
   18.0430   45.7090   39.9990 O   0  0  0  0  0
   17.0940   43.9740   38.9950 O   0  0  0  0  0
   16.7070   45.0620   42.3570 O   0  0  0  0  0
   18.0220   44.8230   42.6390 C   0  0  0  0  0
   18.6320   43.8460   42.1540 O   0  0  0  0  0
   18.6010   45.6720   43.5040 N   0  0  0  0  0
   19.9580   45.6100   44.0200 C   0  0  0  0  0
   20.2740   47.0000   44.6430 C   0  0  0  0  0
   21.2870   47.5790   44.2010 O   0  0  0  0  0
   19.5230   47.4320   45.5450 O   0  0  0  0  0
   20.0450   44.4720   45.0650 C   0  0  0  0  0
   21.4120   44.4150   45.7670 C   0  0  0  0  0
   22.5450   44.0990   44.7620 C   0  0  0  0  0
   21.3700   43.3210   46.8280 C   0  0  0  0  0
   14.6686   49.0701   40.9705 H   0  0  0  0  0
   15.0845   47.0973   41.8565 H   0  0  0  0  0
   16.0328   46.9904   40.2958 H   0  0  0  0  0
   14.5116   44.9635   39.7821 H   0  0  0  0  0
   14.0925   44.9853   41.4965 H   0  0  0  0  0
   16.0336   43.4947   41.2233 H   0  0  0  0  0
   17.9203   46.2020   40.8136 H   0  0  0  0  0
   18.0245   46.4456   43.8352 H   0  0  0  0  0
   20.6879   45.3927   43.2402 H   0  0  0  0  0
   18.8168   46.8008   45.7014 H   0  0  0  0  0
   19.8966   43.5264   44.5435 H   0  0  0  0  0
   19.2857   44.6564   45.8250 H   0  0  0  0  0
   21.6143   45.3867   46.2175 H   0  0  0  0  0
   22.3541   43.1338   44.2929 H   0  0  0  0  0
   22.5782   44.8756   43.9979 H   0  0  0  0  0
   23.4982   44.0657   45.2897 H   0  0  0  0  0
   20.5894   43.5500   47.5534 H   0  0  0  0  0
   21.1565   42.3636   46.3526 H   0  0  0  0  0
   22.3342   43.2700   47.3338 H   0  0  0  0  0
  1  2  1  0  0  0
  2  3  2  0  0  0
  2  4  1  0  0  0
  4  5  1  0  0  0
  5  6  1  0  0  0
  6  7  1  0  0  0
  6 10  1  0  0  0
  7  8  1  0  0  0
  7  9  2  0  0  0
 10 11  1  0  0  0
 11 12  2  0  0  0
 11 13  1  0  0  0
 13 14  1  0  0  0
 14 15  1  0  0  0
 14 18  1  0  0  0
 15 16  2  0  0  0
 15 17  1  0  0  0
 18 19  1  0  0  0
 19 20  1  0  0  0
 19 21  1  0  0  0
  1 22  1  0  0  0
  4 23  1  0  0  0
  4 24  1  0  0  0
  5 25  1  0  0  0
  5 26  1  0  0  0
  6 27  1  0  0  0
  8 28  1  0  0  0
 13 29  1  0  0  0
 14 30  1  0  0  0
 17 31  1  0  0  0
 18 32  1  0  0  0
 18 33  1  0  0  0
 19 34  1  0  0  0
 20 35  1  0  0  0
 20 36  1  0  0  0
 20 37  1  0  0  0
 21 38  1  0  0  0
 21 39  1  0  0  0
 21 40  1  0  0  0
M  END
$$$$
