### 
### Created by X-TOOL on Mon Sep 10 21:12:47 2018
### 

@<TRIPOS>MOLECULE
1fpp_ligand
   49    48     1     0     0
SMALL
GAST_HUCK


@<TRIPOS>ATOM
      1 C1        -32.5640   98.1220   23.1650 C.3       1 FPP         0.0917
      2 O1        -33.3690   97.4570   24.1550 O.3       1 FPP        -0.2411
      3 C2        -32.9460   99.5490   22.8280 C.2       1 FPP        -0.0782
      4 C3        -32.0630  100.5720   22.7390 C.2       1 FPP        -0.0804
      5 C4        -32.5030  102.0030   22.3830 C.3       1 FPP        -0.0402
      6 C5        -30.6130  100.2660   22.9990 C.3       1 FPP        -0.0253
      7 C6        -29.7910  101.5270   23.3600 C.3       1 FPP        -0.0388
      8 C7        -28.2570  101.3710   23.2860 C.2       1 FPP        -0.1070
      9 C8        -27.4210  101.5050   22.2130 C.2       1 FPP        -0.0827
     10 C10       -27.9560  101.8670   20.8040 C.3       1 FPP        -0.0402
     11 C9        -25.9140  101.2860   22.4210 C.3       1 FPP        -0.0254
     12 C11       -25.4860   99.8310   22.7340 C.3       1 FPP        -0.0388
     13 C12       -25.4440   98.8730   21.5410 C.2       1 FPP        -0.1074
     14 C13       -24.6830   97.7450   21.3570 C.2       1 FPP        -0.0870
     15 C14       -24.7200   96.8610   20.1280 C.3       1 FPP        -0.0406
     16 C15       -23.6910   97.2170   22.3710 C.3       1 FPP        -0.0406
     17 PA        -34.1510   96.0610   23.8010 P.3       1 FPP         0.3288
     18 O1A       -33.0910   94.8960   23.8410 O.co2     1 FPP        -0.5555
     19 O2A       -35.2970   96.1520   24.8150 O.co2     1 FPP        -0.5555
     20 O3A       -34.7800   95.7330   22.4430 O.3       1 FPP        -0.1547
     21 PB        -35.1320   96.8830   21.4830 P.3       1 FPP         0.2070
     22 O1B       -35.8160   98.1230   22.0000 O.co2     1 FPP        -0.5891
     23 O2B       -35.9110   96.2950   20.3450 O.co2     1 FPP        -0.5891
     24 O3B       -33.8900   97.5800   20.8440 O.co2     1 FPP        -0.5891
     25 H1        -32.6213   97.5332   22.2376 H         1 FPP         0.0696
     26 H2        -31.5263   98.1315   23.5298 H         1 FPP         0.0696
     27 H3        -33.9975   99.7658   22.6458 H         1 FPP         0.0268
     28 H4        -31.6238  102.6639   22.3682 H         1 FPP         0.0375
     29 H5        -33.2203  102.3638   23.1349 H         1 FPP         0.0375
     30 H6        -32.9793  102.0042   21.3915 H         1 FPP         0.0375
     31 H7        -30.1816   99.8119   22.0947 H         1 FPP         0.0425
     32 H8        -30.5482   99.5529   23.8340 H         1 FPP         0.0425
     33 H9        -30.0517  101.8172   24.3885 H         1 FPP         0.0361
     34 H10       -30.0826  102.3301   22.6672 H         1 FPP         0.0361
     35 H11       -27.7696  101.1171   24.2262 H         1 FPP         0.0244
     36 H12       -27.1160  101.9226   20.0960 H         1 FPP         0.0375
     37 H13       -28.4663  102.8406   20.8445 H         1 FPP         0.0375
     38 H14       -28.6653  101.0947   20.4715 H         1 FPP         0.0375
     39 H15       -25.5923  101.9211   23.2595 H         1 FPP         0.0425
     40 H16       -25.3964  101.6009   21.5029 H         1 FPP         0.0425
     41 H17       -26.1949   99.4223   23.4691 H         1 FPP         0.0361
     42 H18       -24.4788   99.8638   23.1749 H         1 FPP         0.0361
     43 H19       -26.1144   99.1219   20.7197 H         1 FPP         0.0244
     44 H20       -24.0088   96.0311   20.2518 H         1 FPP         0.0375
     45 H21       -24.4431   97.4521   19.2426 H         1 FPP         0.0375
     46 H22       -25.7349   96.4576   19.9969 H         1 FPP         0.0375
     47 H23       -23.6826   97.8748   23.2526 H         1 FPP         0.0375
     48 H24       -22.6868   97.1918   21.9228 H         1 FPP         0.0375
     49 H25       -23.9827   96.2008   22.6746 H         1 FPP         0.0375
@<TRIPOS>BOND
     1    1    2 1  
     2    1    3 1  
     3    2   17 1  
     4    3    4 2  
     5    4    5 1  
     6    4    6 1  
     7    6    7 1  
     8    7    8 1  
     9    8    9 2  
    10    9   10 1  
    11    9   11 1  
    12   11   12 1  
    13   12   13 1  
    14   13   14 2  
    15   14   15 1  
    16   14   16 1  
    17   17   18 ar 
    18   17   19 ar 
    19   17   20 1  
    20   20   21 1  
    21   21   22 ar 
    22   21   23 ar 
    23   21   24 ar 
    24    1   25 1  
    25    1   26 1  
    26    3   27 1  
    27    5   28 1  
    28    5   29 1  
    29    5   30 1  
    30    6   31 1  
    31    6   32 1  
    32    7   33 1  
    33    7   34 1  
    34    8   35 1  
    35   10   36 1  
    36   10   37 1  
    37   10   38 1  
    38   11   39 1  
    39   11   40 1  
    40   12   41 1  
    41   12   42 1  
    42   13   43 1  
    43   15   44 1  
    44   15   45 1  
    45   15   46 1  
    46   16   47 1  
    47   16   48 1  
    48   16   49 1  
@<TRIPOS>SUBSTRUCTURE
     1 FPP         1

