1fpp_ligand
  -I-interpret- 

 52 51  0  0  0  0  0  0  0  0999 V2000
  -32.5640   98.1220   23.1650 C   0  0  0  0  0
  -33.3690   97.4570   24.1550 O   0  0  0  0  0
  -32.9460   99.5490   22.8280 C   0  0  0  0  0
  -32.0630  100.5720   22.7390 C   0  0  0  0  0
  -32.5030  102.0030   22.3830 C   0  0  0  0  0
  -30.6130  100.2660   22.9990 C   0  0  0  0  0
  -29.7910  101.5270   23.3600 C   0  0  0  0  0
  -28.2570  101.3710   23.2860 C   0  0  0  0  0
  -27.4210  101.5050   22.2130 C   0  0  0  0  0
  -27.9560  101.8670   20.8040 C   0  0  0  0  0
  -25.9140  101.2860   22.4210 C   0  0  0  0  0
  -25.4860   99.8310   22.7340 C   0  0  0  0  0
  -25.4440   98.8730   21.5410 C   0  0  0  0  0
  -24.6830   97.7450   21.3570 C   0  0  0  0  0
  -24.7200   96.8610   20.1280 C   0  0  0  0  0
  -23.6910   97.2170   22.3710 C   0  0  0  0  0
  -34.1510   96.0610   23.8010 P   0  0  0  0  0
  -33.0910   94.8960   23.8410 O   0  0  0  0  0
  -35.2970   96.1520   24.8150 O   0  0  0  0  0
  -34.7800   95.7330   22.4430 O   0  0  0  0  0
  -35.1320   96.8830   21.4830 P   0  0  0  0  0
  -35.8160   98.1230   22.0000 O   0  0  0  0  0
  -35.9110   96.2950   20.3450 O   0  0  0  0  0
  -33.8900   97.5800   20.8440 O   0  0  0  0  0
  -32.6869   97.5518   22.2442 H   0  0  0  0  0
  -31.5565   98.1694   23.5783 H   0  0  0  0  0
  -33.9985   99.7660   22.6456 H   0  0  0  0  0
  -32.9748  102.0028   21.4004 H   0  0  0  0  0
  -33.2137  102.3593   23.1287 H   0  0  0  0  0
  -31.6310  102.6569   22.3686 H   0  0  0  0  0
  -30.1920   99.8420   22.0873 H   0  0  0  0  0
  -30.5624   99.5803   23.8448 H   0  0  0  0  0
  -30.0273  101.7625   24.3977 H   0  0  0  0  0
  -30.0590  102.2896   22.6288 H   0  0  0  0  0
  -27.7692  101.1168   24.2270 H   0  0  0  0  0
  -28.6587  101.1011   20.4757 H   0  0  0  0  0
  -28.4615  102.8318   20.8455 H   0  0  0  0  0
  -27.1228  101.9218   20.1034 H   0  0  0  0  0
  -25.6309  101.8849   23.2866 H   0  0  0  0  0
  -25.4297  101.5560   21.4826 H   0  0  0  0  0
  -26.2334   99.4329   23.4203 H   0  0  0  0  0
  -24.4673   99.8873   23.1176 H   0  0  0  0  0
  -26.1150   99.1222   20.7189 H   0  0  0  0  0
  -25.7261   96.4620   19.9992 H   0  0  0  0  0
  -24.4455   97.4479   19.2515 H   0  0  0  0  0
  -24.0149   96.0391   20.2519 H   0  0  0  0  0
  -22.9282   97.9726   22.5586 H   0  0  0  0  0
  -24.2116   96.9858   23.3003 H   0  0  0  0  0
  -23.2214   96.3137   21.9817 H   0  0  0  0  0
  -32.4590   95.0154   23.1284 H   0  0  0  0  0
  -35.3069   98.4883   22.7273 H   0  0  0  0  0
  -33.3549   97.9751   21.5362 H   0  0  0  0  0
  1  2  1  0  0  0
  1  3  1  0  0  0
  2 17  1  0  0  0
  3  4  2  0  0  0
  4  5  1  0  0  0
  4  6  1  0  0  0
  6  7  1  0  0  0
  7  8  1  0  0  0
  8  9  2  0  0  0
  9 10  1  0  0  0
  9 11  1  0  0  0
 11 12  1  0  0  0
 12 13  1  0  0  0
 13 14  2  0  0  0
 14 15  1  0  0  0
 14 16  1  0  0  0
 17 18  1  0  0  0
 17 19  2  0  0  0
 17 20  1  0  0  0
 20 21  1  0  0  0
 21 22  1  0  0  0
 21 23  2  0  0  0
 21 24  1  0  0  0
  1 25  1  0  0  0
  1 26  1  0  0  0
  3 27  1  0  0  0
  5 28  1  0  0  0
  5 29  1  0  0  0
  5 30  1  0  0  0
  6 31  1  0  0  0
  6 32  1  0  0  0
  7 33  1  0  0  0
  7 34  1  0  0  0
  8 35  1  0  0  0
 10 36  1  0  0  0
 10 37  1  0  0  0
 10 38  1  0  0  0
 11 39  1  0  0  0
 11 40  1  0  0  0
 12 41  1  0  0  0
 12 42  1  0  0  0
 13 43  1  0  0  0
 15 44  1  0  0  0
 15 45  1  0  0  0
 15 46  1  0  0  0
 16 47  1  0  0  0
 16 48  1  0  0  0
 16 49  1  0  0  0
 18 50  1  0  0  0
 22 51  1  0  0  0
 24 52  1  0  0  0
M  END
$$$$
