5er1_ligand
  -I-interpret- 

 87 87  0  0  0  0  0  0  0  0999 V2000
   36.8870   -4.6090    1.6280 C   0  0  0  0  0
   38.3870   -6.4960    2.0040 C   0  0  0  0  0
   36.9420   -6.1370    1.6530 C   0  0  0  0  0
   35.9240   -6.7550    2.6110 C   0  0  0  0  0
   34.8830   -8.9140    2.0700 N   0  3  0  0  0
   36.0430   -8.2750    2.7100 C   0  0  0  0  0
   36.0700   -8.6090    4.1960 C   0  0  0  0  0
   34.8400   -8.2350    4.7810 O   0  0  0  0  0
   36.4000  -10.0830    4.4700 C   0  0  0  0  0
   35.3670  -10.8190    4.8460 N   0  3  0  0  0
   35.5180  -12.0550    5.6330 C   0  0  0  0  0
   36.9810  -12.4800    5.6680 C   0  0  0  0  0
   37.5530  -12.8830    4.6450 O   0  0  0  0  0
   34.8040  -13.2220    4.9470 C   0  0  0  0  0
   35.1140  -14.5740    5.5950 C   0  0  0  0  0
   33.2810  -13.0900    4.9680 C   0  0  0  0  0
   37.5410  -12.3800    6.8530 N   0  0  0  0  0
   38.9210  -12.7960    7.1110 C   0  0  0  0  0
   39.0550  -14.3010    6.8730 C   0  0  0  0  0
   38.2960  -15.1060    7.4340 O   0  0  0  0  0
   39.3040  -12.4700    8.5540 C   0  0  0  0  0
   40.6630  -13.0470    8.9550 C   0  0  0  0  0
   38.3010  -13.0100    9.5750 C   0  0  0  0  0
   41.4910  -12.0850    9.8090 C   0  0  0  0  0
   40.0140  -14.6280    6.0300 N   0  0  0  0  0
   40.3100  -16.0180    5.6550 C   0  0  0  0  0
   41.6600  -16.4400    6.2390 C   0  0  0  0  0
   42.3860  -17.2510    5.6460 O   0  0  0  0  0
   40.3720  -16.1470    4.1310 C   0  0  0  0  0
   39.0240  -16.5060    3.5020 C   0  0  0  0  0
   37.8320  -16.1110    4.1230 C   0  0  0  0  0
   38.9810  -17.2280    2.3030 C   0  0  0  0  0
   36.5990  -16.4360    3.5440 C   0  0  0  0  0
   37.7480  -17.5520    1.7240 C   0  0  0  0  0
   36.5570  -17.1560    2.3440 C   0  0  0  0  0
   43.1450  -14.9660    7.2560 C   0  0  0  0  0
   42.0980  -15.9000    7.4770 O   0  0  0  0  0
   35.8950   -4.2876    1.3108 H   0  0  0  0  0
   37.0936   -4.2229    2.6262 H   0  0  0  0  0
   37.6334   -4.2312    0.9293 H   0  0  0  0  0
   38.6156   -6.1375    3.0077 H   0  0  0  0  0
   38.5105   -7.5783    1.9665 H   0  0  0  0  0
   39.0609   -6.0271    1.2870 H   0  0  0  0  0
   36.6624   -6.5522    0.6848 H   0  0  0  0  0
   34.9286   -6.5240    2.2317 H   0  0  0  0  0
   36.1085   -6.3423    3.6028 H   0  0  0  0  0
   34.8749   -8.6839    1.0763 H   0  0  0  0  0
   34.9468   -9.9254    2.1855 H   0  0  0  0  0
   34.0257   -8.5742    2.5059 H   0  0  0  0  0
   36.9403   -8.6357    2.2072 H   0  0  0  0  0
   36.8774   -8.0383    4.6549 H   0  0  0  0  0
   34.6646   -7.3105    4.5911 H   0  0  0  0  0
   37.1180  -10.1007    5.2900 H   0  0  0  0  0
   36.7675  -10.5055    3.5348 H   0  0  0  0  0
   34.8541  -10.2009    5.4747 H   0  0  0  0  0
   34.9789  -11.1487    3.9622 H   0  0  0  0  0
   35.1143  -11.8461    6.6237 H   0  0  0  0  0
   35.1816  -13.1825    3.9253 H   0  0  0  0  0
   36.1862  -14.7631    5.5429 H   0  0  0  0  0
   34.7971  -14.5569    6.6378 H   0  0  0  0  0
   34.5787  -15.3612    5.0641 H   0  0  0  0  0
   32.9351  -13.0521    6.0010 H   0  0  0  0  0
   32.9897  -12.1750    4.4521 H   0  0  0  0  0
   32.8362  -13.9491    4.4658 H   0  0  0  0  0
   36.9926  -11.9975    7.6233 H   0  0  0  0  0
   39.5873  -12.2595    6.4355 H   0  0  0  0  0
   39.3248  -11.3803    8.5710 H   0  0  0  0  0
   41.2225  -13.2459    8.0410 H   0  0  0  0  0
   40.4817  -13.9446    9.5462 H   0  0  0  0  0
   37.3205  -12.5733    9.3852 H   0  0  0  0  0
   38.2408  -14.0946    9.4846 H   0  0  0  0  0
   38.6296  -12.7456   10.5801 H   0  0  0  0  0
   41.6718  -11.1676    9.2488 H   0  0  0  0  0
   40.9460  -11.8522   10.7238 H   0  0  0  0  0
   42.4431  -12.5522   10.0607 H   0  0  0  0  0
   40.5762  -13.8826    5.6192 H   0  0  0  0  0
   39.5206  -16.6589    6.0477 H   0  0  0  0  0
   41.0710  -16.9494    3.8953 H   0  0  0  0  0
   40.6773  -15.1807    3.7295 H   0  0  0  0  0
   37.8643  -15.5504    5.0573 H   0  0  0  0  0
   39.9078  -17.5379    1.8202 H   0  0  0  0  0
   35.6719  -16.1284    4.0276 H   0  0  0  0  0
   37.7155  -18.1129    0.7900 H   0  0  0  0  0
   35.5974  -17.4081    1.8927 H   0  0  0  0  0
   43.9802  -15.4674    6.7671 H   0  0  0  0  0
   42.7817  -14.1586    6.6202 H   0  0  0  0  0
   43.4737  -14.5578    8.2117 H   0  0  0  0  0
  3  1  1  0  0  0
  3  2  1  0  0  0
  4  3  1  0  0  0
  6  4  1  0  0  0
  6  5  1  0  0  0
  7  6  1  0  0  0
  7  8  1  0  0  0
 12 11  1  0  0  0
 11 14  1  0  0  0
 11 10  1  0  0  0
 14 15  1  0  0  0
 14 16  1  0  0  0
 12 13  2  0  0  0
 19 18  1  0  0  0
 18 21  1  0  0  0
 18 17  1  0  0  0
 21 22  1  0  0  0
 21 23  1  0  0  0
 22 24  1  0  0  0
 19 20  2  0  0  0
 27 26  1  0  0  0
 26 29  1  0  0  0
 26 25  1  0  0  0
 29 30  1  0  0  0
 30 32  4  0  0  0
 30 31  4  0  0  0
 31 33  4  0  0  0
 33 35  4  0  0  0
 34 35  4  0  0  0
 32 34  4  0  0  0
 27 28  2  0  0  0
 37 36  1  0  0  0
 17 12  1  0  0  0
 25 19  1  0  0  0
  9  7  1  0  0  0
 10  9  1  0  0  0
 37 27  1  0  0  0
  1 38  1  0  0  0
  1 39  1  0  0  0
  1 40  1  0  0  0
  2 41  1  0  0  0
  2 42  1  0  0  0
  2 43  1  0  0  0
  3 44  1  0  0  0
  4 45  1  0  0  0
  4 46  1  0  0  0
  5 47  1  0  0  0
  5 48  1  0  0  0
  5 49  1  0  0  0
  6 50  1  0  0  0
  7 51  1  0  0  0
  8 52  1  0  0  0
  9 53  1  0  0  0
  9 54  1  0  0  0
 10 55  1  0  0  0
 10 56  1  0  0  0
 11 57  1  0  0  0
 14 58  1  0  0  0
 15 59  1  0  0  0
 15 60  1  0  0  0
 15 61  1  0  0  0
 16 62  1  0  0  0
 16 63  1  0  0  0
 16 64  1  0  0  0
 17 65  1  0  0  0
 18 66  1  0  0  0
 21 67  1  0  0  0
 22 68  1  0  0  0
 22 69  1  0  0  0
 23 70  1  0  0  0
 23 71  1  0  0  0
 23 72  1  0  0  0
 24 73  1  0  0  0
 24 74  1  0  0  0
 24 75  1  0  0  0
 25 76  1  0  0  0
 26 77  1  0  0  0
 29 78  1  0  0  0
 29 79  1  0  0  0
 31 80  1  0  0  0
 32 81  1  0  0  0
 33 82  1  0  0  0
 34 83  1  0  0  0
 35 84  1  0  0  0
 36 85  1  0  0  0
 36 86  1  0  0  0
 36 87  1  0  0  0
M  END
$$$$
