4x24_ligand
  -I-interpret- 

 39 41  0  0  0  0  0  0  0  0999 V2000
   14.8510   -6.4650   19.2960 C   0  0  0  0  0
   13.1090   -7.4060   20.5370 C   0  0  0  0  0
   13.9010   -8.5940   20.7960 C   0  0  0  0  0
   15.2410   -8.6060   20.2240 C   0  0  0  0  0
    9.1500   -9.4550   15.1140 C   0  0  0  0  0
   10.2490   -8.1340   15.4210 S   0  0  0  0  0
   10.2850   -8.2290   17.2090 C   0  0  0  0  0
    9.1600   -7.4590   17.9120 C   0  0  0  0  0
    9.1180   -7.7280   19.4160 C   0  0  0  0  0
   10.0120   -6.7060   19.9370 N   0  3  0  0  0
   10.5760   -6.7150   21.2860 C   0  0  0  0  0
   11.7940   -7.6110   21.1870 C   0  0  0  0  0
   11.9150   -8.8610   21.7670 C   0  0  0  0  0
   13.1520   -9.4170   21.5490 N   0  0  0  0  0
   16.0490   -9.6700   20.4330 N   0  0  0  0  0
   15.6490   -7.5420   19.5040 N   0  0  0  0  0
   13.5990   -6.3910   19.7860 N   0  0  0  0  0
   10.2710   -5.6010   19.0170 C   0  0  0  0  0
    9.3740   -5.9610   17.8500 C   0  0  0  0  0
    8.1530   -5.2710   18.0620 O   0  0  0  0  0
   15.2369   -5.6299   18.7115 H   0  0  0  0  0
    9.5727  -10.3775   15.5120 H   0  0  0  0  0
    8.1954   -9.2521   15.5995 H   0  0  0  0  0
    8.9981   -9.5573   14.0395 H   0  0  0  0  0
   11.2258   -7.7835   17.5324 H   0  0  0  0  0
   10.1656   -9.2795   17.4743 H   0  0  0  0  0
    8.2586   -7.7900   17.3963 H   0  0  0  0  0
    9.4231   -8.7406   19.6799 H   0  0  0  0  0
    8.1129   -7.6732   19.8342 H   0  0  0  0  0
   10.5619   -7.2108   20.6321 H   0  0  0  0  0
    9.8612   -7.0801   22.0235 H   0  0  0  0  0
   10.8351   -5.7121   21.6254 H   0  0  0  0  0
   11.1204   -9.3485   22.3319 H   0  0  0  0  0
   15.7195  -10.4592   20.9889 H   0  0  0  0  0
   16.9880   -9.6834   20.0348 H   0  0  0  0  0
   11.3212   -5.4983   18.7439 H   0  0  0  0  0
   10.0592   -4.6204   19.4431 H   0  0  0  0  0
    9.7889   -5.6929   16.8784 H   0  0  0  0  0
    8.3098   -4.3249   18.0189 H   0  0  0  0  0
  1 16  4  0  0  0
 17  1  4  0  0  0
  2  3  4  0  0  0
 12  2  4  0  0  0
  2 17  4  0  0  0
  3  4  4  0  0  0
  3 14  4  0  0  0
  4 15  1  0  0  0
  4 16  4  0  0  0
  6  5  1  0  0  0
  7  6  1  0  0  0
  8  7  1  0  0  0
  9  8  1  0  0  0
  8 19  1  0  0  0
 10  9  1  0  0  0
 11 10  1  0  0  0
 10 18  1  0  0  0
 11 12  1  0  0  0
 12 13  4  0  0  0
 13 14  4  0  0  0
 18 19  1  0  0  0
 19 20  1  0  0  0
  1 21  1  0  0  0
  5 22  1  0  0  0
  5 23  1  0  0  0
  5 24  1  0  0  0
  7 25  1  0  0  0
  7 26  1  0  0  0
  8 27  1  0  0  0
  9 28  1  0  0  0
  9 29  1  0  0  0
 10 30  1  0  0  0
 11 31  1  0  0  0
 11 32  1  0  0  0
 13 33  1  0  0  0
 15 34  1  0  0  0
 15 35  1  0  0  0
 18 36  1  0  0  0
 18 37  1  0  0  0
 19 38  1  0  0  0
 20 39  1  0  0  0
M  END
$$$$
