5izc_ligand
  -I-interpret- 

 21 22  0  0  0  0  0  0  0  0999 V2000
    6.0560  -17.4570   15.7770 C   0  0  0  0  0
    4.8370  -18.0270   15.8310 C   0  0  0  0  0
    4.0090  -17.6800   14.8350 C   0  0  0  0  0
    4.8390  -16.5670   13.8240 S   0  0  0  0  0
    6.1810  -16.6230   14.7240 C   0  0  0  0  0
    7.4250  -15.8160   14.2950 C   0  0  0  0  0
    7.1280  -14.3910   14.1810 N   0  0  0  0  0
    8.0770  -13.4630   14.3970 C   0  0  0  0  0
    9.7250  -13.6400   14.0650 S   0  0  0  0  0
    7.8480  -12.2720   14.9500 N   0  0  0  0  0
    8.9140  -11.4630   15.0970 N   0  0  0  0  0
   10.0360  -12.0090   14.6860 C   0  0  0  0  0
   11.1710  -11.3960   14.7440 N   0  0  0  0  0
    6.8493  -17.6474   16.4999 H   0  0  0  0  0
    4.5460  -18.7170   16.6230 H   0  0  0  0  0
    2.9902  -18.0403   14.6923 H   0  0  0  0  0
    7.7517  -16.1788   13.3204 H   0  0  0  0  0
    8.1985  -15.9472   15.0517 H   0  0  0  0  0
    6.1841  -14.0942   13.9332 H   0  0  0  0  0
   12.0170  -11.8562   14.4079 H   0  0  0  0  0
   11.2216  -10.4515   15.1259 H   0  0  0  0  0
  1  2  4  0  0  0
  1  5  4  0  0  0
  2  3  4  0  0  0
  3  4  4  0  0  0
  4  5  4  0  0  0
  5  6  1  0  0  0
  6  7  1  0  0  0
  7  8  1  0  0  0
  8  9  4  0  0  0
  8 10  4  0  0  0
  9 12  4  0  0  0
 10 11  4  0  0  0
 11 12  4  0  0  0
 12 13  1  0  0  0
  1 14  1  0  0  0
  2 15  1  0  0  0
  3 16  1  0  0  0
  6 17  1  0  0  0
  6 18  1  0  0  0
  7 19  1  0  0  0
 13 20  1  0  0  0
 13 21  1  0  0  0
M  END
$$$$
