2on6_ligand
  -I-interpret- 

 33 35  0  0  0  0  0  0  0  0999 V2000
   13.5460   11.8920   57.8740 C   0  0  0  0  0
   14.5140   12.6510   57.2000 C   0  0  0  0  0
   14.9500   11.9320   56.0930 N   0  0  0  0  0
   14.3450   10.7150   56.0180 C   0  0  0  0  0
   14.3540    9.5200   55.1430 C   0  0  0  0  0
   15.1470    9.4410   54.0480 O   0  0  0  0  0
   13.5340    8.4750   55.4520 N   0  0  0  0  0
   12.7090    8.4630   56.5240 C   0  0  0  0  0
   12.6340    9.5040   57.3650 N   0  0  0  0  0
   13.4170   10.5970   57.1610 C   0  0  0  0  0
   11.8990   15.7990   61.6140 O   0  0  0  0  0
   11.0290   14.9850   60.8250 C   0  0  0  0  0
   11.5770   13.5810   60.7170 C   0  0  0  0  0
   11.7040   13.1300   59.3210 N   0  3  0  0  0
   12.9960   13.5380   61.2970 C   0  0  0  0  0
   13.0530   13.0910   62.6700 O   0  0  0  0  0
   13.8320   12.7190   60.2760 C   0  0  0  0  0
   14.7220   11.7240   60.8560 O   0  0  0  0  0
   12.8400   12.2090   59.1820 C   0  0  0  0  0
   14.8657   13.6396   57.4950 H   0  0  0  0  0
   13.5433    7.6579   54.8415 H   0  0  0  0  0
   12.0899    7.5850   56.7084 H   0  0  0  0  0
   11.5383   16.6866   61.6735 H   0  0  0  0  0
   10.9504   15.4136   59.8259 H   0  0  0  0  0
   10.0487   14.9483   61.3002 H   0  0  0  0  0
   10.8778   12.9400   61.2540 H   0  0  0  0  0
   11.8588   13.9413   58.7225 H   0  0  0  0  0
   10.8484   12.6458   59.0491 H   0  0  0  0  0
   13.4244   14.5347   61.4023 H   0  0  0  0  0
   13.9659   13.0885   62.9669 H   0  0  0  0  0
   14.5772   13.3594   59.8042 H   0  0  0  0  0
   15.1942   11.2706   60.1538 H   0  0  0  0  0
   12.4042   11.2138   59.2699 H   0  0  0  0  0
  1  2  4  0  0  0
  1 10  4  0  0  0
 19  1  1  0  0  0
  2  3  4  0  0  0
  4  3  4  0  0  0
  4  5  1  0  0  0
 10  4  4  0  0  0
  5  6  2  0  0  0
  5  7  1  0  0  0
  8  7  1  0  0  0
  9  8  2  0  0  0
 10  9  1  0  0  0
 12 11  1  0  0  0
 13 12  1  0  0  0
 14 13  1  0  0  0
 13 15  1  0  0  0
 14 19  1  0  0  0
 15 16  1  0  0  0
 15 17  1  0  0  0
 17 18  1  0  0  0
 17 19  1  0  0  0
  2 20  1  0  0  0
  7 21  1  0  0  0
  8 22  1  0  0  0
 11 23  1  0  0  0
 12 24  1  0  0  0
 12 25  1  0  0  0
 13 26  1  0  0  0
 14 27  1  0  0  0
 14 28  1  0  0  0
 15 29  1  0  0  0
 16 30  1  0  0  0
 17 31  1  0  0  0
 18 32  1  0  0  0
 19 33  1  0  0  0
M  END
$$$$
