2f0z_ligand
  -I-interpret- 

 45 45  0  0  0  0  0  0  0  0999 V2000
   34.2530   27.7430   25.5550 C   0  0  0  0  0
   34.5710   26.6130   24.8490 O   0  0  0  0  0
   34.2150   28.8730   24.9340 O   0  0  0  0  0
   33.9760   27.6940   26.9340 C   0  0  0  0  0
   33.5770   28.9500   27.6530 C   0  0  0  0  0
   33.0900   28.6670   29.0860 C   0  0  0  0  0
   33.7970   27.4560   29.6910 C   0  0  0  0  0
   33.2300   27.2730   31.0320 N   0  0  0  0  0
   33.9170   27.1260   32.1600 C   0  0  0  0  0
   35.2920   27.1310   32.2030 O   0  0  0  0  0
   33.1590   26.9390   33.4550 C   0  0  0  0  0
   33.5650   26.2410   28.7720 C   0  0  0  0  0
   34.1130   26.5330   27.4770 O   0  0  0  0  0
   34.2630   24.9490   29.2640 C   0  0  0  0  0
   35.6760   25.1540   29.3090 O   0  0  0  0  0
   34.0390   23.7210   28.3490 C   0  0  0  0  0
   32.6450   23.4200   28.2400 O   0  0  0  0  0
   34.7370   22.4350   28.8470 C   0  0  0  0  0
   35.6840   22.6290   29.8690 O   0  0  0  0  0
   33.3450   29.8670   29.8650 N   0  0  0  0  0
   32.4970   30.5190   30.8700 C   0  0  0  0  0
   31.3010   30.0260   31.1990 N   0  0  0  0  0
   32.9390   31.6250   31.4620 N   0  0  0  0  0
   34.5600   25.8552   25.4383 H   0  0  0  0  0
   33.5371   28.0378   27.8706 H   0  0  0  0  0
   32.7589   29.4126   27.1009 H   0  0  0  0  0
   34.4502   29.5997   27.7127 H   0  0  0  0  0
   32.0270   28.4258   29.0843 H   0  0  0  0  0
   34.8759   27.5857   29.7759 H   0  0  0  0  0
   32.2128   27.2571   31.1052 H   0  0  0  0  0
   33.4294   25.9803   33.8976 H   0  0  0  0  0
   33.4152   27.7438   34.1440 H   0  0  0  0  0
   32.0879   26.9586   33.2537 H   0  0  0  0  0
   32.4888   26.0685   28.7585 H   0  0  0  0  0
   33.8247   24.7438   30.2407 H   0  0  0  0  0
   36.1051   24.3513   29.6143 H   0  0  0  0  0
   34.4722   24.0062   27.3903 H   0  0  0  0  0
   32.5272   22.6569   27.6696 H   0  0  0  0  0
   35.2748   22.0192   27.9950 H   0  0  0  0  0
   33.9576   21.7935   29.2583 H   0  0  0  0  0
   36.0652   21.7830   30.1153 H   0  0  0  0  0
   34.2411   30.3209   29.6881 H   0  0  0  0  0
   30.7308   30.4972   31.9013 H   0  0  0  0  0
   30.9573   29.1781   30.7481 H   0  0  0  0  0
   33.8526   32.0054   31.2150 H   0  0  0  0  0
  1  2  1  0  0  0
  1  3  2  0  0  0
  1  4  1  0  0  0
  4  5  1  0  0  0
  4 13  1  0  0  0
  5  6  1  0  0  0
  6  7  1  0  0  0
  6 20  1  0  0  0
  7  8  1  0  0  0
  7 12  1  0  0  0
  8  9  1  0  0  0
  9 10  2  0  0  0
  9 11  1  0  0  0
 12 13  1  0  0  0
 12 14  1  0  0  0
 14 15  1  0  0  0
 14 16  1  0  0  0
 16 17  1  0  0  0
 16 18  1  0  0  0
 18 19  1  0  0  0
 20 21  1  0  0  0
 21 22  1  0  0  0
 21 23  2  0  0  0
  2 24  1  0  0  0
  4 25  1  0  0  0
  5 26  1  0  0  0
  5 27  1  0  0  0
  6 28  1  0  0  0
  7 29  1  0  0  0
  8 30  1  0  0  0
 11 31  1  0  0  0
 11 32  1  0  0  0
 11 33  1  0  0  0
 12 34  1  0  0  0
 14 35  1  0  0  0
 15 36  1  0  0  0
 16 37  1  0  0  0
 17 38  1  0  0  0
 18 39  1  0  0  0
 18 40  1  0  0  0
 19 41  1  0  0  0
 20 42  1  0  0  0
 22 43  1  0  0  0
 22 44  1  0  0  0
 23 45  1  0  0  0
M  END
$$$$
