6hvh_ligand
  -I-interpret- 

 62 67  0  0  0  0  0  0  0  0999 V2000
   84.8270   46.5630  267.5780 C   0  0  0  0  0
   83.8690   46.5790  268.7920 C   0  0  0  0  0
   83.5910   45.2250  269.2750 O   0  0  0  0  0
   84.7810   44.4310  269.6190 C   0  0  0  0  0
   85.8240   44.3920  268.4790 C   0  0  0  0  0
   86.1310   45.8240  267.9640 C   0  0  0  0  0
   87.0450   45.7670  266.8020 N   0  0  0  0  0
   87.8470   46.7990  266.5440 C   0  0  0  0  0
   87.8580   47.7660  267.2890 O   0  0  0  0  0
   88.7160   46.7090  265.4330 C   0  0  0  0  0
   88.3060   46.0390  264.2990 C   0  0  0  0  0
   89.1140   45.8970  263.1850 C   0  0  0  0  0
   90.3720   46.4490  263.1600 N   0  0  0  0  0
   90.8170   47.1330  264.2870 C   0  0  0  0  0
   90.0070   47.2630  265.4160 C   0  0  0  0  0
   90.3810   47.9510  266.5080 N   0  0  0  0  0
   91.6690   48.1760  266.8320 C   0  0  0  0  0
   91.9800   49.4050  267.4180 C   0  0  0  0  0
   92.6780   47.2340  266.6540 C   0  0  0  0  0
   93.9670   47.5290  267.0410 C   0  0  0  0  0
   94.9230   46.6110  266.8430 N   0  0  0  0  0
   96.2420   46.8770  267.2230 C   0  0  0  0  0
   96.5600   48.0960  267.8040 C   0  0  0  0  0
   95.5530   49.0300  267.9920 N   0  0  0  0  0
   94.2820   48.7620  267.6200 C   0  0  0  0  0
   93.2780   49.7150  267.8090 C   0  0  0  0  0
   93.5400   50.9680  268.3910 C   0  0  0  0  0
   92.8220   51.4020  269.5040 C   0  0  0  0  0
   93.0670   52.5990  270.0560 C   0  0  0  0  0
   92.5200   53.2280  271.1000 N   0  0  0  0  0
   91.4350   52.6990  271.9460 C   0  0  0  0  0
   93.1100   54.4150  271.2630 C   0  0  0  0  0
   94.0390   54.5270  270.3090 C   0  0  0  0  0
   94.0160   53.4000  269.5680 C   0  0  0  0  0
   94.7340   53.0250  268.5000 C   0  0  0  0  0
   94.5240   51.8100  267.8840 C   0  0  0  0  0
   85.0611   47.5864  267.2848 H   0  0  0  0  0
   84.3498   46.0488  266.7438 H   0  0  0  0  0
   82.9284   47.0350  268.4832 H   0  0  0  0  0
   84.3414   47.1422  269.5968 H   0  0  0  0  0
   84.4564   43.4081  269.8100 H   0  0  0  0  0
   85.2516   44.8932  270.4868 H   0  0  0  0  0
   85.4231   43.8007  267.6557 H   0  0  0  0  0
   86.7449   43.9504  268.8599 H   0  0  0  0  0
   86.6147   46.3775  268.7689 H   0  0  0  0  0
   87.0610   44.9424  266.2019 H   0  0  0  0  0
   87.3065   45.6045  264.2799 H   0  0  0  0  0
   88.7496   45.3427  262.3201 H   0  0  0  0  0
   91.8137   47.5742  264.2881 H   0  0  0  0  0
   89.6545   48.3207  267.1212 H   0  0  0  0  0
   91.1877   50.1375  267.5723 H   0  0  0  0  0
   92.4490   46.2654  266.2096 H   0  0  0  0  0
   97.0183   46.1287  267.0632 H   0  0  0  0  0
   97.5837   48.3155  268.1073 H   0  0  0  0  0
   92.0515   50.7601  269.9311 H   0  0  0  0  0
   90.5547   52.5122  271.3310 H   0  0  0  0  0
   91.7594   51.7679  272.4107 H   0  0  0  0  0
   91.1914   53.4271  272.7197 H   0  0  0  0  0
   92.8775   55.1536  272.0301 H   0  0  0  0  0
   94.7000   55.3801  270.1562 H   0  0  0  0  0
   95.5003   53.6952  268.1104 H   0  0  0  0  0
   95.1165   51.5153  267.0179 H   0  0  0  0  0
  1  2  1  0  0  0
  1  6  1  0  0  0
  2  3  1  0  0  0
  3  4  1  0  0  0
  4  5  1  0  0  0
  5  6  1  0  0  0
  6  7  1  0  0  0
  7  8  1  0  0  0
  8  9  2  0  0  0
  8 10  1  0  0  0
 10 11  4  0  0  0
 10 15  4  0  0  0
 11 12  4  0  0  0
 12 13  4  0  0  0
 13 14  4  0  0  0
 14 15  4  0  0  0
 15 16  1  0  0  0
 16 17  1  0  0  0
 17 18  4  0  0  0
 17 19  4  0  0  0
 18 26  4  0  0  0
 19 20  4  0  0  0
 20 21  4  0  0  0
 20 25  4  0  0  0
 21 22  4  0  0  0
 22 23  4  0  0  0
 23 24  4  0  0  0
 24 25  4  0  0  0
 25 26  4  0  0  0
 26 27  1  0  0  0
 27 28  4  0  0  0
 27 36  4  0  0  0
 28 29  4  0  0  0
 29 30  4  0  0  0
 29 34  4  0  0  0
 30 31  1  0  0  0
 30 32  4  0  0  0
 32 33  4  0  0  0
 33 34  4  0  0  0
 34 35  4  0  0  0
 35 36  4  0  0  0
  1 37  1  0  0  0
  1 38  1  0  0  0
  2 39  1  0  0  0
  2 40  1  0  0  0
  4 41  1  0  0  0
  4 42  1  0  0  0
  5 43  1  0  0  0
  5 44  1  0  0  0
  6 45  1  0  0  0
  7 46  1  0  0  0
 11 47  1  0  0  0
 12 48  1  0  0  0
 14 49  1  0  0  0
 16 50  1  0  0  0
 18 51  1  0  0  0
 19 52  1  0  0  0
 22 53  1  0  0  0
 23 54  1  0  0  0
 28 55  1  0  0  0
 31 56  1  0  0  0
 31 57  1  0  0  0
 31 58  1  0  0  0
 32 59  1  0  0  0
 33 60  1  0  0  0
 35 61  1  0  0  0
 36 62  1  0  0  0
M  END
$$$$
