5ura_ligand
  -I-interpret- 

 54 58  0  0  0  0  0  0  0  0999 V2000
    9.1630   -9.2520    2.4830 C   0  0  0  0  0
   12.5600   -9.0510    3.2310 C   0  0  0  0  0
   13.6540   -8.2770    3.5660 C   0  0  0  0  0
    9.6640   -7.2370    3.8250 O   0  0  0  0  0
    9.4380   -5.9230    4.0760 C   0  0  0  0  0
    9.1200  -11.8750    0.8310 O   0  0  0  0  0
    9.6680  -12.1470    1.9330 C   0  0  0  0  0
    9.6920  -13.2840    2.4770 O   0  0  0  0  0
   10.3880  -11.0090    2.6870 C   0  0  0  0  0
   10.5240   -9.6720    1.8730 C   0  0  0  0  0
   11.6900   -8.7790    2.1800 C   0  0  0  0  0
   11.9800   -7.6280    1.4470 C   0  0  0  0  0
   13.0770   -6.8300    1.7710 C   0  0  0  0  0
   13.9220   -7.1420    2.8260 C   0  0  0  0  0
    9.0120   -7.8030    2.7410 C   0  0  0  0  0
    8.6710   -6.9810    1.8960 O   0  0  0  0  0
   10.2530   -4.9550    3.5350 C   0  0  0  0  0
   10.0190   -3.5930    3.7920 C   0  0  0  0  0
    8.9760   -3.2110    4.5840 C   0  0  0  0  0
    8.1110   -4.1890    5.1610 C   0  0  0  0  0
    7.0180   -3.7920    5.9910 C   0  0  0  0  0
    6.1770   -4.7130    6.5590 C   0  0  0  0  0
    6.4000   -6.0870    6.3080 C   0  0  0  0  0
    7.4440   -6.4800    5.5110 C   0  0  0  0  0
    8.3340   -5.5500    4.9100 C   0  0  0  0  0
    9.4660  -10.2460    3.6810 C   0  0  0  0  0
    8.3210  -11.0010    4.3070 C   0  0  0  0  0
    8.5000  -12.0240    5.2340 C   0  0  0  0  0
    7.4150  -12.6910    5.8020 C   0  0  0  0  0
    6.1080  -12.3520    5.4700 C   0  0  0  0  0
    5.9100  -11.3310    4.5560 C   0  0  0  0  0
    6.9980  -10.6910    4.0110 C   0  0  0  0  0
    8.2122   -9.3321    1.9561 H   0  0  0  0  0
   12.3644   -9.9383    3.8331 H   0  0  0  0  0
   14.2957   -8.5576    4.4012 H   0  0  0  0  0
   10.1691  -13.2298    3.3083 H   0  0  0  0  0
   11.2696  -11.5565    3.0203 H   0  0  0  0  0
   10.7048   -9.6867    0.7982 H   0  0  0  0  0
   11.3405   -7.3485    0.6097 H   0  0  0  0  0
   13.2759   -5.9366    1.1790 H   0  0  0  0  0
   14.7756   -6.5077    3.0649 H   0  0  0  0  0
   11.0893   -5.2477    2.9001 H   0  0  0  0  0
   10.6740   -2.8385    3.3564 H   0  0  0  0  0
    8.8021   -2.1525    4.7774 H   0  0  0  0  0
    6.8490   -2.7314    6.1769 H   0  0  0  0  0
    5.3506   -4.3922    7.1932 H   0  0  0  0  0
    5.7407   -6.8346    6.7490 H   0  0  0  0  0
    7.5967   -7.5443    5.3320 H   0  0  0  0  0
    9.8192   -9.8863    4.6474 H   0  0  0  0  0
    9.5114  -12.3102    5.5225 H   0  0  0  0  0
    7.5947  -13.4922    6.5189 H   0  0  0  0  0
    5.2628  -12.8755    5.9169 H   0  0  0  0  0
    4.8999  -11.0370    4.2709 H   0  0  0  0  0
    6.8111   -9.8868    3.2993 H   0  0  0  0  0
 10  1  1  0  0  0
  1 15  1  0  0  0
  1 26  1  0  0  0
  2  3  4  0  0  0
 11  2  4  0  0  0
  3 14  4  0  0  0
  4  5  1  0  0  0
 15  4  1  0  0  0
  5 17  4  0  0  0
  5 25  4  0  0  0
  7  6  2  0  0  0
  7  8  1  0  0  0
  9  7  1  0  0  0
 10  9  1  0  0  0
  9 26  1  0  0  0
 10 11  1  0  0  0
 11 12  4  0  0  0
 12 13  4  0  0  0
 13 14  4  0  0  0
 15 16  2  0  0  0
 17 18  4  0  0  0
 18 19  4  0  0  0
 19 20  4  0  0  0
 20 21  4  0  0  0
 20 25  4  0  0  0
 21 22  4  0  0  0
 22 23  4  0  0  0
 23 24  4  0  0  0
 24 25  4  0  0  0
 26 27  1  0  0  0
 27 28  4  0  0  0
 27 32  4  0  0  0
 28 29  4  0  0  0
 29 30  4  0  0  0
 30 31  4  0  0  0
 31 32  4  0  0  0
  1 33  1  0  0  0
  2 34  1  0  0  0
  3 35  1  0  0  0
  8 36  1  0  0  0
  9 37  1  0  0  0
 10 38  1  0  0  0
 12 39  1  0  0  0
 13 40  1  0  0  0
 14 41  1  0  0  0
 17 42  1  0  0  0
 18 43  1  0  0  0
 19 44  1  0  0  0
 21 45  1  0  0  0
 22 46  1  0  0  0
 23 47  1  0  0  0
 24 48  1  0  0  0
 26 49  1  0  0  0
 28 50  1  0  0  0
 29 51  1  0  0  0
 30 52  1  0  0  0
 31 53  1  0  0  0
 32 54  1  0  0  0
M  END
$$$$
