6m9f_ligand
  -I-interpret- 

 78 79  0  0  0  0  0  0  0  0999 V2000
   23.6440   12.1070    4.3450 C   0  0  0  0  0
   23.3320   13.5030    3.7470 C   0  0  0  0  0
   24.1140   14.5670    4.4780 C   0  0  0  0  0
   23.6620   13.4630    2.2600 C   0  0  0  0  0
   23.0420   12.0040    5.7350 C   0  0  0  0  0
   21.8320   12.1550    5.9310 O   0  0  0  0  0
   23.9130   11.7500    6.7060 N   0  0  0  0  0
   23.5050   11.6080    8.0930 C   0  0  0  0  0
   24.1020   12.6830    8.9630 C   0  0  0  0  0
   25.2140   13.1340    8.7350 O   0  0  0  0  0
   23.9280   10.2330    8.5870 C   0  0  0  0  0
   23.2520    9.1600    7.7520 C   0  0  0  0  0
   23.9800    8.4620    6.8170 C   0  0  0  0  0
   21.9110    8.8620    7.9170 C   0  0  0  0  0
   23.4060    7.4800    6.0380 C   0  0  0  0  0
   21.3090    7.8760    7.1530 C   0  0  0  0  0
   22.0630    7.1890    6.2150 C   0  0  0  0  0
   21.4510    6.2070    5.4600 O   0  0  0  0  0
   23.3320   13.0880    9.9600 N   0  0  0  0  0
   23.8890   14.0430   10.9100 C   0  0  0  0  0
   24.6590   13.2920   11.9830 C   0  0  0  0  0
   24.1320   12.3650   12.5850 O   0  0  0  0  0
   22.7220   14.8470   11.4730 C   0  0  0  0  0
   21.7560   15.5140   10.4790 C   0  0  0  0  0
   20.6480   16.2300   11.1880 C   0  0  0  0  0
   22.5510   16.4370    9.5660 C   0  0  0  0  0
   26.7330   13.7630   14.5260 C   0  0  0  0  0
   25.8920   13.7610   12.1910 N   0  0  0  0  0
   27.5760   13.1980   15.4690 O   0  0  0  0  0
   26.7540   13.0810   13.1590 C   0  0  0  0  0
   28.1360   13.0030   12.5450 C   0  0  0  0  0
   28.3130   12.0210   11.4020 C   0  0  0  0  0
   28.9090    9.3560    8.2280 O   0  0  0  0  0
   28.7110   10.2490    9.2800 C   0  0  0  0  0
   29.3040   12.2710   10.4550 C   0  0  0  0  0
   27.5380   10.8840   11.2700 C   0  0  0  0  0
   29.5020   11.3940    9.3900 C   0  0  0  0  0
   27.7280    9.9900   10.2210 C   0  0  0  0  0
   25.8740   14.8460   14.6210 O   0  0  0  0  0
   24.7238   11.9718    4.4064 H   0  0  0  0  0
   23.2157   11.3347    3.7061 H   0  0  0  0  0
   22.2777   13.7527    3.8663 H   0  0  0  0  0
   25.1807   14.3686    4.3732 H   0  0  0  0  0
   23.8813   15.5435    4.0532 H   0  0  0  0  0
   23.8428   14.5546    5.5337 H   0  0  0  0  0
   23.4241   14.4270    1.8103 H   0  0  0  0  0
   24.7235   13.2522    2.1303 H   0  0  0  0  0
   23.0736   12.6814    1.7795 H   0  0  0  0  0
   24.9003   11.6515    6.4697 H   0  0  0  0  0
   22.4217   11.7130    8.1524 H   0  0  0  0  0
   23.6347   10.1176    9.6304 H   0  0  0  0  0
   25.0097   10.1334    8.4970 H   0  0  0  0  0
   25.0379    8.6911    6.6886 H   0  0  0  0  0
   21.3231    9.4080    8.6548 H   0  0  0  0  0
   23.9976    6.9426    5.2968 H   0  0  0  0  0
   20.2529    7.6428    7.2882 H   0  0  0  0  0
   20.5273    6.1398    5.7126 H   0  0  0  0  0
   22.3776   12.7424   10.0607 H   0  0  0  0  0
   24.5954   14.7291   10.4427 H   0  0  0  0  0
   23.1777   15.6676   12.0272 H   0  0  0  0  0
   22.1166   14.1285   12.0256 H   0  0  0  0  0
   21.2742   14.7501    9.8687 H   0  0  0  0  0
   20.0855   15.5184   11.7924 H   0  0  0  0  0
   21.0695   17.0021   11.8317 H   0  0  0  0  0
   19.9855   16.6888   10.4541 H   0  0  0  0  0
   23.0487   17.1989   10.1659 H   0  0  0  0  0
   23.2965   15.8555    9.0236 H   0  0  0  0  0
   21.8750   16.9151    8.8571 H   0  0  0  0  0
   26.2276   14.5797   11.6836 H   0  0  0  0  0
   26.3906   12.0734   13.3607 H   0  0  0  0  0
   28.8012   12.6651   13.3396 H   0  0  0  0  0
   28.3384   13.9902   12.1295 H   0  0  0  0  0
   28.2850    8.6304    8.3039 H   0  0  0  0  0
   29.9291   13.1591   10.5478 H   0  0  0  0  0
   26.7591   10.6830   12.0056 H   0  0  0  0  0
   30.2713   11.6013    8.6461 H   0  0  0  0  0
   27.1101    9.0956   10.1405 H   0  0  0  0  0
   25.4311   14.9765   13.7793 H   0  0  0  0  0
  1  2  1  0  0  0
  5  1  1  0  0  0
  2  3  1  0  0  0
  2  4  1  0  0  0
  5  6  2  0  0  0
  7  5  1  0  0  0
  8  7  1  0  0  0
  9  8  1  0  0  0
  8 11  1  0  0  0
  9 10  2  0  0  0
 19  9  1  0  0  0
 11 12  1  0  0  0
 12 13  4  0  0  0
 12 14  4  0  0  0
 13 15  4  0  0  0
 14 16  4  0  0  0
 15 17  4  0  0  0
 16 17  4  0  0  0
 17 18  1  0  0  0
 20 19  1  0  0  0
 21 20  1  0  0  0
 20 23  1  0  0  0
 21 22  2  0  0  0
 28 21  1  0  0  0
 23 24  1  0  0  0
 24 25  1  0  0  0
 24 26  1  0  0  0
 27 29  2  0  0  0
 30 27  1  0  0  0
 27 39  1  0  0  0
 30 28  1  0  0  0
 31 30  1  0  0  0
 32 31  1  0  0  0
 35 32  4  0  0  0
 32 36  4  0  0  0
 34 33  1  0  0  0
 37 34  4  0  0  0
 34 38  4  0  0  0
 35 37  4  0  0  0
 36 38  4  0  0  0
  1 40  1  0  0  0
  1 41  1  0  0  0
  2 42  1  0  0  0
  3 43  1  0  0  0
  3 44  1  0  0  0
  3 45  1  0  0  0
  4 46  1  0  0  0
  4 47  1  0  0  0
  4 48  1  0  0  0
  7 49  1  0  0  0
  8 50  1  0  0  0
 11 51  1  0  0  0
 11 52  1  0  0  0
 13 53  1  0  0  0
 14 54  1  0  0  0
 15 55  1  0  0  0
 16 56  1  0  0  0
 18 57  1  0  0  0
 19 58  1  0  0  0
 20 59  1  0  0  0
 23 60  1  0  0  0
 23 61  1  0  0  0
 24 62  1  0  0  0
 25 63  1  0  0  0
 25 64  1  0  0  0
 25 65  1  0  0  0
 26 66  1  0  0  0
 26 67  1  0  0  0
 26 68  1  0  0  0
 28 69  1  0  0  0
 30 70  1  0  0  0
 31 71  1  0  0  0
 31 72  1  0  0  0
 33 73  1  0  0  0
 35 74  1  0  0  0
 36 75  1  0  0  0
 37 76  1  0  0  0
 38 77  1  0  0  0
 39 78  1  0  0  0
M  END
$$$$
