3l1s_ligand
  -I-interpret- 

 40 42  0  0  0  0  0  0  0  0999 V2000
   35.0880   31.5500   56.7030 C   0  0  0  0  0
   35.3480   32.8750   56.3420 O   0  0  0  0  0
   36.1030   33.0150   55.2400 C   0  0  0  0  0
   36.9540   34.0700   55.1670 C   0  0  0  0  0
   37.7400   34.2970   54.0820 C   0  0  0  0  0
   37.6690   33.4320   53.0340 C   0  0  0  0  0
   36.8130   32.3630   53.1030 C   0  0  0  0  0
   36.0350   32.1470   54.1930 C   0  0  0  0  0
   35.1800   31.1190   54.2560 O   0  0  0  0  0
   35.3560   29.9580   53.4920 C   0  0  0  0  0
   38.4900   33.6150   51.8350 C   0  0  0  0  0
   38.5270   32.7660   50.8960 N   0  0  0  0  0
   39.3500   33.1310   49.8740 N   0  0  0  0  0
   39.8590   34.2770   50.1570 C   0  0  0  0  0
   40.6190   34.9300   49.5580 O   0  0  0  0  0
   39.3840   34.6780   51.4030 C   0  0  0  0  0
   39.7510   35.8170   51.8280 N   0  0  0  0  0
   39.4260   36.2440   52.9300 N   0  0  0  0  0
   39.8220   37.5140   53.2270 C   0  0  0  0  0
   39.6000   37.9010   54.5070 C   0  0  0  0  0
   39.9300   39.1540   54.8660 C   0  0  0  0  0
   40.4480   40.0280   53.9730 C   0  0  0  0  0
   40.7770   41.5980   54.5980 Cl  0  0  0  0  0
   40.6620   39.6500   52.6800 C   0  0  0  0  0
   40.3400   38.3810   52.2970 C   0  0  0  0  0
   34.5597   31.0505   55.8909 H   0  0  0  0  0
   36.0296   31.0359   56.8961 H   0  0  0  0  0
   34.4727   31.5339   57.6026 H   0  0  0  0  0
   37.0089   34.7600   56.0091 H   0  0  0  0  0
   38.4131   35.1538   54.0518 H   0  0  0  0  0
   36.7564   31.6710   52.2628 H   0  0  0  0  0
   35.3484   30.2167   52.4332 H   0  0  0  0  0
   36.3102   29.4974   53.7479 H   0  0  0  0  0
   34.5459   29.2598   53.7026 H   0  0  0  0  0
   39.5313   32.5885   49.0295 H   0  0  0  0  0
   38.8888   35.6800   53.5886 H   0  0  0  0  0
   39.1635   37.2114   55.2295 H   0  0  0  0  0
   39.7770   39.4719   55.8973 H   0  0  0  0  0
   41.0848   40.3528   51.9621 H   0  0  0  0  0
   40.4919   38.0597   51.2666 H   0  0  0  0  0
  1  2  1  0  0  0
  2  3  1  0  0  0
  3  4  4  0  0  0
  3  8  4  0  0  0
  4  5  4  0  0  0
  5  6  4  0  0  0
  6  7  4  0  0  0
  6 11  1  0  0  0
  7  8  4  0  0  0
  8  9  1  0  0  0
  9 10  1  0  0  0
 11 12  2  0  0  0
 11 16  1  0  0  0
 12 13  1  0  0  0
 13 14  1  0  0  0
 14 15  2  0  0  0
 14 16  1  0  0  0
 16 17  2  0  0  0
 17 18  1  0  0  0
 18 19  1  0  0  0
 19 20  4  0  0  0
 19 25  4  0  0  0
 20 21  4  0  0  0
 21 22  4  0  0  0
 22 23  1  0  0  0
 22 24  4  0  0  0
 24 25  4  0  0  0
  1 26  1  0  0  0
  1 27  1  0  0  0
  1 28  1  0  0  0
  4 29  1  0  0  0
  5 30  1  0  0  0
  7 31  1  0  0  0
 10 32  1  0  0  0
 10 33  1  0  0  0
 10 34  1  0  0  0
 13 35  1  0  0  0
 18 36  1  0  0  0
 20 37  1  0  0  0
 21 38  1  0  0  0
 24 39  1  0  0  0
 25 40  1  0  0  0
M  END
$$$$
