4rfz_ligand
  -I-interpret- 

 79 84  0  0  0  0  0  0  0  0999 V2000
   22.0290    5.1820    1.1880 C   0  0  0  0  0
   23.2630    5.4430    0.6120 C   0  0  0  0  0
   24.3680    5.8230    1.3040 C   0  0  0  0  0
   24.2560    5.9490    2.7500 C   0  0  0  0  0
   23.0310    5.7050    3.2950 C   0  0  0  0  0
   21.9520    5.3280    2.5670 N   0  0  0  0  0
   20.6380    5.1280    3.1470 C   0  0  0  0  0
   21.0060    4.8210    0.5920 O   0  0  0  0  0
   23.2250    5.2340   -0.8190 N   0  0  0  0  0
   24.2590    5.2880   -1.7060 C   0  0  0  0  0
   23.9390    4.9040   -3.0400 C   0  0  0  0  0
   24.9500    4.9440   -3.9630 C   0  0  0  0  0
   26.2470    5.2700   -3.5970 C   0  0  0  0  0
   26.4670    5.6380   -2.2600 C   0  0  0  0  0
   25.4620    5.6170   -1.3660 N   0  0  0  0  0
   27.3500    5.3090   -4.5690 C   0  0  0  0  0
   27.1500    5.9900   -5.5670 O   0  0  0  0  0
   28.4910    4.5880   -4.3900 N   0  0  0  0  0
   29.5370    4.6310   -5.5000 C   0  0  0  0  0
   30.9310    4.6980   -4.8600 C   0  0  0  0  0
   31.1290    3.5530   -4.0090 O   0  0  0  0  0
   30.1890    3.5070   -2.8740 C   0  0  0  0  0
   28.7180    3.6840   -3.2370 C   0  0  0  0  0
   25.4170    6.3090    3.5490 C   0  0  0  0  0
   26.6370    5.6650    3.3400 C   0  0  0  0  0
   27.7850    5.9240    4.0470 C   0  0  0  0  0
   27.7050    6.8930    5.0840 C   0  0  0  0  0
   26.4910    7.5100    5.3260 C   0  0  0  0  0
   25.3480    7.3080    4.5890 C   0  0  0  0  0
   24.1140    8.1330    4.8190 C   0  0  0  0  0
   26.4420    8.5290    6.3600 N   0  0  0  0  0
   26.4910    9.8590    5.9870 C   0  0  0  0  0
   26.2480   10.8690    6.8430 C   0  0  0  0  0
   26.1320    8.1230    7.6170 C   0  0  0  0  0
   25.8900    9.1590    8.6140 C   0  0  0  0  0
   25.8870   10.5170    8.2100 C   0  0  0  0  0
   25.5630   11.5640    9.1160 C   0  0  0  0  0
   25.2320   11.2660   10.4290 C   0  0  0  0  0
   25.2500    9.9340   10.8730 C   0  0  0  0  0
   25.5230    8.9660    9.9310 C   0  0  0  0  0
   24.8880   12.2610   11.3090 N   0  0  0  0  0
   24.5170   13.6060   10.8000 C   0  0  0  0  0
   25.0670   12.0690   12.7440 C   0  0  0  0  0
   26.0380    6.9200    7.9080 O   0  0  0  0  0
   23.3930    7.6090    5.9500 O   0  0  0  0  0
   25.4410    7.6700   10.3850 F   0  0  0  0  0
   25.3089    6.0272    0.7930 H   0  0  0  0  0
   22.9130    5.8190    4.3726 H   0  0  0  0  0
   20.6922    4.3475    3.9059 H   0  0  0  0  0
   20.2985    6.0577    3.6037 H   0  0  0  0  0
   19.9391    4.8291    2.3658 H   0  0  0  0  0
   22.3095    5.0192   -1.2140 H   0  0  0  0  0
   22.9316    4.5914   -3.3146 H   0  0  0  0  0
   24.7307    4.7150   -5.0059 H   0  0  0  0  0
   27.4638    5.9443   -1.9427 H   0  0  0  0  0
   29.3751    5.5073   -6.1277 H   0  0  0  0  0
   29.4565    3.7379   -6.1196 H   0  0  0  0  0
   31.0130    5.6084   -4.2662 H   0  0  0  0  0
   31.6888    4.7017   -5.6434 H   0  0  0  0  0
   30.4506    4.3378   -2.2187 H   0  0  0  0  0
   30.2836    2.5157   -2.4308 H   0  0  0  0  0
   28.3306    2.7029   -3.5119 H   0  0  0  0  0
   28.2211    4.1269   -2.3738 H   0  0  0  0  0
   26.6817    4.9035    2.5614 H   0  0  0  0  0
   28.7187    5.4082    3.8226 H   0  0  0  0  0
   28.5839    7.1451    5.6773 H   0  0  0  0  0
   23.4799    8.0946    3.9333 H   0  0  0  0  0
   24.3984    9.1667    5.0155 H   0  0  0  0  0
   26.7375   10.1009    4.9532 H   0  0  0  0  0
   26.3185   11.9095    6.5259 H   0  0  0  0  0
   25.5749   12.6003    8.7784 H   0  0  0  0  0
   25.0569    9.6775   11.9147 H   0  0  0  0  0
   25.3537   14.0250   10.2409 H   0  0  0  0  0
   23.6489   13.5191   10.1466 H   0  0  0  0  0
   24.2771   14.2576   11.6402 H   0  0  0  0  0
   24.4749   11.2145   13.0716 H   0  0  0  0  0
   26.1203   11.8855   12.9561 H   0  0  0  0  0
   24.7391   12.9640   13.2727 H   0  0  0  0  0
   22.6042    8.1360    6.0973 H   0  0  0  0  0
  1  2  1  0  0  0
  1  6  1  0  0  0
  1  8  2  0  0  0
  2  3  2  0  0  0
  2  9  1  0  0  0
  3  4  1  0  0  0
  4  5  2  0  0  0
  4 24  1  0  0  0
  5  6  1  0  0  0
  6  7  1  0  0  0
  9 10  1  0  0  0
 10 11  4  0  0  0
 10 15  4  0  0  0
 11 12  4  0  0  0
 12 13  4  0  0  0
 13 14  4  0  0  0
 13 16  1  0  0  0
 14 15  4  0  0  0
 16 17  2  0  0  0
 16 18  1  0  0  0
 18 19  1  0  0  0
 18 23  1  0  0  0
 19 20  1  0  0  0
 20 21  1  0  0  0
 21 22  1  0  0  0
 22 23  1  0  0  0
 24 25  4  0  0  0
 24 29  4  0  0  0
 25 26  4  0  0  0
 26 27  4  0  0  0
 27 28  4  0  0  0
 28 29  4  0  0  0
 28 31  1  0  0  0
 29 30  1  0  0  0
 30 45  1  0  0  0
 31 32  1  0  0  0
 31 34  1  0  0  0
 32 33  2  0  0  0
 33 36  1  0  0  0
 34 35  1  0  0  0
 34 44  2  0  0  0
 35 36  4  0  0  0
 35 40  4  0  0  0
 36 37  4  0  0  0
 37 38  4  0  0  0
 38 39  4  0  0  0
 38 41  1  0  0  0
 39 40  4  0  0  0
 40 46  1  0  0  0
 41 42  1  0  0  0
 41 43  1  0  0  0
  3 47  1  0  0  0
  5 48  1  0  0  0
  7 49  1  0  0  0
  7 50  1  0  0  0
  7 51  1  0  0  0
  9 52  1  0  0  0
 11 53  1  0  0  0
 12 54  1  0  0  0
 14 55  1  0  0  0
 19 56  1  0  0  0
 19 57  1  0  0  0
 20 58  1  0  0  0
 20 59  1  0  0  0
 22 60  1  0  0  0
 22 61  1  0  0  0
 23 62  1  0  0  0
 23 63  1  0  0  0
 25 64  1  0  0  0
 26 65  1  0  0  0
 27 66  1  0  0  0
 30 67  1  0  0  0
 30 68  1  0  0  0
 32 69  1  0  0  0
 33 70  1  0  0  0
 37 71  1  0  0  0
 39 72  1  0  0  0
 42 73  1  0  0  0
 42 74  1  0  0  0
 42 75  1  0  0  0
 43 76  1  0  0  0
 43 77  1  0  0  0
 43 78  1  0  0  0
 45 79  1  0  0  0
M  END
$$$$
