2oxn_ligand
  -I-interpret- 

 44 45  0  0  0  0  0  0  0  0999 V2000
    6.0760   -9.0380   13.5880 C   0  0  0  0  0
    5.7730   -8.7620   12.1440 C   0  0  0  0  0
    6.5900   -8.2250   11.4090 O   0  0  0  0  0
    4.5650   -9.1310   11.7140 N   0  0  0  0  0
    4.1970   -8.9000   10.3120 C   0  0  0  0  0
    3.1290   -7.7990   10.3010 C   0  0  0  0  0
    3.7980   -6.5570   10.5820 O   0  0  0  0  0
    2.4200   -7.7660    8.9440 C   0  0  0  0  0
    1.4540   -6.7000    8.9150 O   0  0  0  0  0
    1.7420   -9.1000    8.6200 C   0  0  0  0  0
    1.2520   -9.0700    7.1830 C   0  0  0  0  0
    2.0770   -9.1540    6.2710 O   0  0  0  0  0
    2.6360  -10.2260    8.7110 O   0  0  0  0  0
    3.7330  -10.1560    9.6430 C   0  0  0  0  0
    4.3760  -11.2080    9.8890 N   0  0  0  0  0
    3.9440  -12.3300    9.2750 O   0  0  0  0  0
    4.7300  -13.5280    9.4400 C   0  0  0  0  0
    5.6450  -13.4650   10.2520 O   0  0  0  0  0
    4.3730  -14.5860    8.7070 N   0  0  0  0  0
    4.9760  -15.8540    8.6880 C   0  0  0  0  0
    6.1030  -16.1600    9.4520 C   0  0  0  0  0
    6.6520  -17.4330    9.3910 C   0  0  0  0  0
    6.0970  -18.3990    8.5620 C   0  0  0  0  0
    4.9720  -18.1060    7.7930 C   0  0  0  0  0
    4.4180  -16.8270    7.8610 C   0  0  0  0  0
    6.9421   -9.6963   13.6568 H   0  0  0  0  0
    6.2900   -8.0992   14.0989 H   0  0  0  0  0
    5.2151   -9.5182   14.0532 H   0  0  0  0  0
    3.9030   -9.5698   12.3540 H   0  0  0  0  0
    5.0653   -8.5797    9.7362 H   0  0  0  0  0
    2.3612   -7.9828   11.0525 H   0  0  0  0  0
    4.2299   -6.6139   11.4375 H   0  0  0  0  0
    3.1787   -7.5890    8.1817 H   0  0  0  0  0
    1.8896   -5.8693    9.1193 H   0  0  0  0  0
    0.9393   -9.2186    9.3478 H   0  0  0  0  0
    0.7962   -8.0874    7.0611 H   0  0  0  0  0
    0.6266   -9.9568    7.0799 H   0  0  0  0  0
    1.6226   -9.1213    5.4260 H   0  0  0  0  0
    3.5705  -14.4583    8.0905 H   0  0  0  0  0
    6.5505  -15.4017   10.0945 H   0  0  0  0  0
    7.5243  -17.6762    9.9976 H   0  0  0  0  0
    6.5437  -19.3920    8.5124 H   0  0  0  0  0
    4.5310  -18.8655    7.1474 H   0  0  0  0  0
    3.5401  -16.5866    7.2613 H   0  0  0  0  0
  1  2  1  0  0  0
  2  3  2  0  0  0
  2  4  1  0  0  0
  4  5  1  0  0  0
  5  6  1  0  0  0
  5 14  1  0  0  0
  6  7  1  0  0  0
  6  8  1  0  0  0
  8  9  1  0  0  0
  8 10  1  0  0  0
 10 11  1  0  0  0
 10 13  1  0  0  0
 11 12  1  0  0  0
 13 14  1  0  0  0
 14 15  2  0  0  0
 15 16  1  0  0  0
 16 17  1  0  0  0
 17 18  2  0  0  0
 17 19  1  0  0  0
 19 20  1  0  0  0
 20 21  4  0  0  0
 20 25  4  0  0  0
 21 22  4  0  0  0
 22 23  4  0  0  0
 23 24  4  0  0  0
 24 25  4  0  0  0
  1 26  1  0  0  0
  1 27  1  0  0  0
  1 28  1  0  0  0
  4 29  1  0  0  0
  5 30  1  0  0  0
  6 31  1  0  0  0
  7 32  1  0  0  0
  8 33  1  0  0  0
  9 34  1  0  0  0
 10 35  1  0  0  0
 11 36  1  0  0  0
 11 37  1  0  0  0
 12 38  1  0  0  0
 19 39  1  0  0  0
 21 40  1  0  0  0
 22 41  1  0  0  0
 23 42  1  0  0  0
 24 43  1  0  0  0
 25 44  1  0  0  0
M  END
$$$$
