4w9o_ligand
  -I-interpret- 

 71 74  0  0  0  0  0  0  0  0999 V2000
    7.4850    1.0980   11.3810 C   0  0  0  0  0
    8.3020   -0.0750   11.4910 O   0  0  0  0  0
    9.4180    0.0280   12.2740 C   0  0  0  0  0
    9.7810    1.1860   12.9100 C   0  0  0  0  0
   10.1540   -1.1350   12.4470 C   0  0  0  0  0
    9.6970   -2.2240   11.7770 O   0  0  0  0  0
   10.3740   -3.4640   11.9140 C   0  0  0  0  0
   11.3110   -1.1180   13.2440 C   0  0  0  0  0
   11.6950    0.0530   13.8840 C   0  0  0  0  0
   10.9170    1.2180   13.7220 C   0  0  0  0  0
   11.1960    2.4130   14.3110 O   0  0  0  0  0
   12.2360    2.5010   15.3030 C   0  0  0  0  0
   13.6230    2.6190   14.6750 C   0  0  0  0  0
   13.7970    3.8900   13.9490 N   0  0  0  0  0
   13.8130    3.9080   12.5900 C   0  0  0  0  0
   13.5430    2.8570   11.9860 O   0  0  0  0  0
   14.0660    5.0740   14.7960 C   0  0  0  0  0
   15.5000    5.6040   14.5510 C   0  0  0  0  0
   16.0650    6.4320   15.7360 C   0  0  0  0  0
   15.1250    7.4650   15.9920 O   0  0  0  0  0
   16.2120    5.5540   16.9500 C   0  0  0  0  0
   16.9670    6.2880   17.8930 O   0  0  0  0  0
   15.5490    6.4470   13.2600 C   0  0  0  0  0
   16.7240    6.0930   12.3480 C   0  0  0  0  0
   16.5640    4.8080   11.6460 C   0  0  0  0  0
   15.2580    4.8140   10.8580 C   0  0  0  0  0
   14.0320    5.0840   11.7750 C   0  0  0  0  0
   14.2390    6.3290   12.5490 N   0  0  0  0  0
   13.6180    7.7310   11.9500 S   0  0  0  0  0
   12.6300    7.3780   10.8820 O   0  0  0  0  0
   14.6760    8.7170   11.6390 O   0  0  0  0  0
   12.7260    8.3610   13.3030 C   0  0  0  0  0
   11.4930    7.7960   13.6100 C   0  0  0  0  0
   10.7710    8.2430   14.7110 C   0  0  0  0  0
    9.2640    7.5450   15.0800 Cl  0  0  0  0  0
   11.2530    9.2680   15.5000 C   0  0  0  0  0
   12.4850    9.8310   15.1970 C   0  0  0  0  0
   13.0930   11.0780   16.1730 Cl  0  0  0  0  0
   13.2220    9.3720   14.1090 C   0  0  0  0  0
    7.1291    1.3854   12.3703 H   0  0  0  0  0
    8.0736    1.9105   10.9550 H   0  0  0  0  0
    6.6334    0.8867   10.7343 H   0  0  0  0  0
    9.1804    2.0865   12.7817 H   0  0  0  0  0
   11.4044   -3.3532   11.5763 H   0  0  0  0  0
   10.3640   -3.7682   12.9606 H   0  0  0  0  0
    9.8716   -4.2195   11.3099 H   0  0  0  0  0
   11.9068   -2.0234   13.3599 H   0  0  0  0  0
   12.5899    0.0716   14.5061 H   0  0  0  0  0
   12.2112    1.5909   15.9023 H   0  0  0  0  0
   12.0581    3.3935   15.9029 H   0  0  0  0  0
   13.7447    1.8020   13.9639 H   0  0  0  0  0
   14.3626    2.5804   15.4748 H   0  0  0  0  0
   13.9688    4.7886   15.8435 H   0  0  0  0  0
   13.3517    5.8580   14.5446 H   0  0  0  0  0
   16.1336    4.7229   14.4497 H   0  0  0  0  0
   17.0464    6.8434   15.5000 H   0  0  0  0  0
   15.4358    8.0052   16.7222 H   0  0  0  0  0
   16.7116    4.6194   16.6952 H   0  0  0  0  0
   15.2366    5.2869   17.3566 H   0  0  0  0  0
   17.0846    5.7612   18.6869 H   0  0  0  0  0
   15.7179    7.4854   13.5449 H   0  0  0  0  0
   17.6110    6.0124   12.9764 H   0  0  0  0  0
   16.7931    6.8722   11.5889 H   0  0  0  0  0
   16.5434    3.9976   12.3746 H   0  0  0  0  0
   17.3994    4.6632   10.9610 H   0  0  0  0  0
   15.1317    3.8346   10.3965 H   0  0  0  0  0
   15.3106    5.6083   10.1135 H   0  0  0  0  0
   13.1244    5.2536   11.1957 H   0  0  0  0  0
   11.0907    6.9990   12.9846 H   0  0  0  0  0
   10.6740    9.6303   16.3494 H   0  0  0  0  0
   14.1954    9.8110   13.8901 H   0  0  0  0  0
  1  2  1  0  0  0
  2  3  1  0  0  0
  3  4  4  0  0  0
  3  5  4  0  0  0
  4 10  4  0  0  0
  5  6  1  0  0  0
  5  8  4  0  0  0
  6  7  1  0  0  0
  8  9  4  0  0  0
  9 10  4  0  0  0
 10 11  1  0  0  0
 11 12  1  0  0  0
 12 13  1  0  0  0
 13 14  1  0  0  0
 14 15  1  0  0  0
 14 17  1  0  0  0
 15 16  2  0  0  0
 15 27  1  0  0  0
 17 18  1  0  0  0
 18 19  1  0  0  0
 18 23  1  0  0  0
 19 20  1  0  0  0
 19 21  1  0  0  0
 21 22  1  0  0  0
 23 24  1  0  0  0
 23 28  1  0  0  0
 24 25  1  0  0  0
 25 26  1  0  0  0
 26 27  1  0  0  0
 27 28  1  0  0  0
 28 29  1  0  0  0
 29 30  2  0  0  0
 29 31  2  0  0  0
 29 32  1  0  0  0
 32 33  4  0  0  0
 32 39  4  0  0  0
 33 34  4  0  0  0
 34 35  1  0  0  0
 34 36  4  0  0  0
 36 37  4  0  0  0
 37 38  1  0  0  0
 37 39  4  0  0  0
  1 40  1  0  0  0
  1 41  1  0  0  0
  1 42  1  0  0  0
  4 43  1  0  0  0
  7 44  1  0  0  0
  7 45  1  0  0  0
  7 46  1  0  0  0
  8 47  1  0  0  0
  9 48  1  0  0  0
 12 49  1  0  0  0
 12 50  1  0  0  0
 13 51  1  0  0  0
 13 52  1  0  0  0
 17 53  1  0  0  0
 17 54  1  0  0  0
 18 55  1  0  0  0
 19 56  1  0  0  0
 20 57  1  0  0  0
 21 58  1  0  0  0
 21 59  1  0  0  0
 22 60  1  0  0  0
 23 61  1  0  0  0
 24 62  1  0  0  0
 24 63  1  0  0  0
 25 64  1  0  0  0
 25 65  1  0  0  0
 26 66  1  0  0  0
 26 67  1  0  0  0
 27 68  1  0  0  0
 33 69  1  0  0  0
 36 70  1  0  0  0
 39 71  1  0  0  0
M  END
$$$$
