3btr_ligand
  -I-interpret- 

238237  0  0  0  0  0  0  0  0999 V2000
   21.5930   80.0350   65.2080 N   0  3  0  0  0
   22.8170   80.6590   64.6260 C   0  0  0  0  0
   23.3070   79.8200   63.4500 C   0  0  0  0  0
   23.6790   78.6650   63.6200 O   0  0  0  0  0
   23.9290   80.7650   65.6790 C   0  0  0  0  0
   23.4590   81.2330   67.0560 C   0  0  0  0  0
   24.5420   81.1490   68.1230 C   0  0  0  0  0
   25.5630   80.4590   67.9070 O   0  0  0  0  0
   24.3610   81.7750   69.1900 O   0  0  0  0  0
   23.2870   80.3940   62.2550 N   0  0  0  0  0
   23.8560   79.7380   61.0840 C   0  0  0  0  0
   25.2260   80.3340   60.8270 C   0  0  0  0  0
   25.6430   81.2860   61.4900 O   0  0  0  0  0
   22.9560   79.9180   59.8640 C   0  0  0  0  0
   25.9220   79.7670   59.8560 N   0  0  0  0  0
   27.2570   80.2140   59.5180 C   0  0  0  0  0
   28.0720   78.9960   59.1940 C   0  0  0  0  0
   28.8010   78.4850   60.0440 O   0  0  0  0  0
   27.9110   78.5240   57.9600 N   0  0  0  0  0
   28.6820   77.4000   57.4490 C   0  0  0  0  0
   29.9500   77.9490   56.8150 C   0  0  0  0  0
   29.8970   78.8620   55.9910 O   0  0  0  0  0
   27.8510   76.5740   56.4510 C   0  0  0  0  0
   26.8070   75.6880   57.1380 C   0  0  0  0  0
   27.3970   74.0650   57.6910 S   0  0  0  0  0
   29.1920   74.2150   57.5920 C   0  0  0  0  0
   31.0880   77.3950   57.2240 N   0  0  0  0  0
   32.3850   77.8560   56.7580 C   0  0  0  0  0
   32.5360   77.5420   55.2780 C   0  0  0  0  0
   33.2830   78.2160   54.5710 O   0  0  0  0  0
   33.5460   77.1720   57.5260 C   0  0  0  0  0
   33.0550   76.5460   58.7160 O   0  0  0  0  0
   34.5810   78.1870   57.9050 C   0  0  0  0  0
   31.8020   76.5270   54.8170 N   0  0  0  0  0
   32.1020   75.8710   53.5590 C   0  0  0  0  0
   33.5830   75.4770   53.7150 C   0  0  0  0  0
   34.0790   75.4130   54.8510 O   0  0  0  0  0
   31.7520   76.7780   52.3600 C   0  0  0  0  0
   30.2570   77.1810   52.3160 C   0  0  0  0  0
   29.9750   78.1960   51.2080 C   0  0  0  0  0
   29.3380   75.9600   52.1740 C   0  0  0  0  0
   34.3030   75.1710   52.6490 N   0  0  0  0  0
   35.6550   74.6680   52.8690 C   0  0  0  0  0
   36.6950   75.7640   52.8940 C   0  0  0  0  0
   37.7910   75.5370   52.4290 O   0  0  0  0  0
   36.3770   76.9390   53.4440 N   0  0  0  0  0
   37.1450   78.1760   53.1510 C   0  0  0  0  0
   38.5540   78.1890   53.7410 C   0  0  0  0  0
   38.7200   77.8870   54.9120 O   0  0  0  0  0
   36.3820   79.4170   53.6150 C   0  0  0  0  0
   39.5510   78.5550   52.9250 N   0  0  0  0  0
   40.9500   78.6610   53.3860 C   0  0  0  0  0
   41.0960   79.7830   54.3960 C   0  0  0  0  0
   41.7330   79.6000   55.4260 O   0  0  0  0  0
   41.9380   78.8830   52.2240 C   0  0  0  0  0
   41.8310   77.8230   51.1580 C   0  0  0  0  0
   43.0920   77.5780   50.3130 C   0  0  0  0  0
   42.7850   76.5330   49.3220 N   0  0  0  0  0
   43.4630   76.2740   48.2000 C   0  0  0  0  0
   44.5510   76.9650   47.8560 N   0  0  0  0  0
   43.0380   75.2960   47.4040 N   0  0  0  0  0
   40.4950   80.9370   54.1070 N   0  0  0  0  0
   40.5580   82.0830   55.0100 C   0  0  0  0  0
   39.1640   82.6710   55.2860 C   0  0  0  0  0
   38.2580   82.6140   54.4440 O   0  0  0  0  0
   41.5250   83.1420   54.4460 C   0  0  0  0  0
   43.0040   82.7050   54.4640 C   0  0  0  0  0
   43.8820   83.5400   53.5390 C   0  0  0  0  0
   45.3620   83.1160   53.6440 C   0  0  0  0  0
   46.2900   83.7610   52.6450 N   0  3  0  0  0
   39.0000   83.2000   56.4930 N   0  0  0  0  0
   37.7380   83.7990   56.9500 C   0  0  0  0  0
   38.0230   85.1780   57.5090 C   0  0  0  0  0
   38.8440   85.3240   58.4080 O   0  0  0  0  0
   37.0510   82.9560   58.0410 C   0  0  0  0  0
   36.2950   81.6760   57.6510 C   0  0  0  0  0
   35.5470   81.1420   58.8940 C   0  0  0  0  0
   35.3280   81.9040   56.4730 C   0  0  0  0  0
   37.3510   86.1770   56.9500 N   0  0  0  0  0
   37.4080   87.5500   57.4300 C   0  0  0  0  0
   36.3430   87.6840   58.5090 C   0  0  0  0  0
   35.2250   87.2020   58.3240 O   0  0  0  0  0
   37.1240   88.4780   56.2530 C   0  0  0  0  0
   36.9160   89.9530   56.5460 C   0  0  0  0  0
   36.6390   90.6430   55.2080 C   0  0  0  0  0
   36.3360   92.1210   55.3140 C   0  0  0  0  0
   35.6740   92.5860   54.0360 N   0  3  0  0  0
   36.6820   88.3060   59.6360 N   0  0  0  0  0
   35.6910   88.5090   60.7090 C   0  0  0  0  0
   34.8860   89.8000   60.5040 C   0  0  0  0  0
   35.4160   90.9050   60.6650 O   0  0  0  0  0
   36.3430   88.5260   62.0900 C   0  0  0  0  0
   35.3110   88.6890   63.1810 C   0  0  0  0  0
   35.8580   88.5170   64.5730 C   0  0  0  0  0
   34.7140   88.5910   65.6010 C   0  0  0  0  0
   35.1800   88.9200   66.9720 N   0  3  0  0  0
   33.6070   89.6560   60.1580 N   0  0  0  0  0
   32.7500   90.8140   59.9070 C   0  0  0  0  0
   32.3340   91.4770   61.2220 C   0  0  0  0  0
   32.3170   90.8330   62.2830 O   0  0  0  0  0
   31.5130   90.4280   59.0790 C   0  0  0  0  0
   31.7340   90.0220   57.6120 C   0  0  0  0  0
   30.3960   89.7790   56.9200 C   0  0  0  0  0
   32.5620   91.0480   56.8260 C   0  0  0  0  0
   32.0060   92.7690   61.1370 N   0  0  0  0  0
   31.6810   93.5890   62.3160 C   0  0  0  0  0
   30.4590   93.1150   63.0970 C   0  0  0  0  0
   30.5390   92.8450   64.3040 O   0  0  0  0  0
   29.2909   92.9897   62.4735 O   0  0  0  0  0
   21.2670   80.5974   65.9940 H   0  0  0  0  0
   20.8644   79.9896   64.4956 H   0  0  0  0  0
   21.8138   79.0930   65.5308 H   0  0  0  0  0
   22.5654   81.6633   64.2852 H   0  0  0  0  0
   24.6405   81.5070   65.3166 H   0  0  0  0  0
   24.3422   79.7645   65.8070 H   0  0  0  0  0
   22.6417   80.5809   67.3642 H   0  0  0  0  0
   23.1658   82.2790   66.9660 H   0  0  0  0  0
   25.5030   80.0656   67.0334 H   0  0  0  0  0
   22.8635   81.3163   62.1526 H   0  0  0  0  0
   23.9408   78.6671   61.2683 H   0  0  0  0  0
   21.9778   79.4826   60.0683 H   0  0  0  0  0
   22.8445   80.9810   59.6500 H   0  0  0  0  0
   23.4054   79.4185   59.0057 H   0  0  0  0  0
   25.5081   78.9958   59.3323 H   0  0  0  0  0
   27.6996   80.7579   60.3525 H   0  0  0  0  0
   27.2276   80.8911   58.6644 H   0  0  0  0  0
   27.2227   78.9657   57.3505 H   0  0  0  0  0
   28.9494   76.7227   58.2601 H   0  0  0  0  0
   28.5345   75.9230   55.9059 H   0  0  0  0  0
   27.3218   77.2704   55.8005 H   0  0  0  0  0
   26.0280   75.4986   56.3995 H   0  0  0  0  0
   26.4885   76.2226   58.0329 H   0  0  0  0  0
   29.4809   74.4343   56.5641 H   0  0  0  0  0
   29.5244   75.0226   58.2443 H   0  0  0  0  0
   29.6516   73.2785   57.9080 H   0  0  0  0  0
   31.0490   76.6207   57.8869 H   0  0  0  0  0
   32.4347   78.9306   56.9335 H   0  0  0  0  0
   33.9892   76.4188   56.8746 H   0  0  0  0  0
   33.7837   76.1275   59.1801 H   0  0  0  0  0
   34.9750   78.6563   57.0035 H   0  0  0  0  0
   34.1275   78.9458   58.5427 H   0  0  0  0  0
   35.3908   77.6947   58.4435 H   0  0  0  0  0
   31.0059   76.2029   55.3662 H   0  0  0  0  0
   31.5056   74.9848   53.3420 H   0  0  0  0  0
   31.9709   76.2207   51.4492 H   0  0  0  0  0
   32.3380   77.6922   52.4551 H   0  0  0  0  0
   30.0365   77.6559   53.2720 H   0  0  0  0  0
   30.5674   79.0945   51.3808 H   0  0  0  0  0
   30.2419   77.7631   50.2439 H   0  0  0  0  0
   28.9154   78.4515   51.2121 H   0  0  0  0  0
   29.5769   75.4325   51.2506 H   0  0  0  0  0
   29.4873   75.2937   53.0236 H   0  0  0  0  0
   28.2994   76.2897   52.1473 H   0  0  0  0  0
   33.9271   75.2825   51.7074 H   0  0  0  0  0
   35.8984   73.9976   52.0448 H   0  0  0  0  0
   35.6713   74.1721   53.8395 H   0  0  0  0  0
   35.5840   76.9881   54.0836 H   0  0  0  0  0
   37.2596   78.1915   52.0672 H   0  0  0  0  0
   35.4245   79.4681   53.0967 H   0  0  0  0  0
   36.2120   79.3566   54.6900 H   0  0  0  0  0
   36.9675   80.3079   53.3880 H   0  0  0  0  0
   39.3365   78.7680   51.9508 H   0  0  0  0  0
   41.1964   77.7086   53.8553 H   0  0  0  0  0
   42.9480   78.8460   52.6322 H   0  0  0  0  0
   41.7041   79.8436   51.7651 H   0  0  0  0  0
   41.0627   78.1656   50.4649 H   0  0  0  0  0
   41.6280   76.8874   51.6792 H   0  0  0  0  0
   43.9153   77.2586   50.9519 H   0  0  0  0  0
   43.3898   78.4972   49.8086 H   0  0  0  0  0
   41.9718   75.9470   49.5113 H   0  0  0  0  0
   45.0456   76.7410   46.9925 H   0  0  0  0  0
   44.8883   77.7174   48.4564 H   0  0  0  0  0
   42.2079   74.7589   47.6546 H   0  0  0  0  0
   39.9775   81.0219   53.2322 H   0  0  0  0  0
   40.9427   81.7428   55.9714 H   0  0  0  0  0
   41.4398   84.0283   55.0747 H   0  0  0  0  0
   41.2489   83.3136   53.4056 H   0  0  0  0  0
   43.0494   81.6712   54.1216 H   0  0  0  0  0
   43.3761   82.8329   55.4805 H   0  0  0  0  0
   43.7980   84.5870   53.8301 H   0  0  0  0  0
   43.5484   83.3895   52.5123 H   0  0  0  0  0
   45.3937   82.0435   53.4521 H   0  0  0  0  0
   45.7051   83.4229   54.6320 H   0  0  0  0  0
   47.2392   83.4189   52.7944 H   0  0  0  0  0
   45.9871   83.5253   51.6999 H   0  0  0  0  0
   46.2689   84.7734   52.7675 H   0  0  0  0  0
   39.7912   83.1901   57.1366 H   0  0  0  0  0
   37.0662   83.8489   56.0931 H   0  0  0  0  0
   36.2853   83.6125   58.4544 H   0  0  0  0  0
   37.8667   82.6108   58.6762 H   0  0  0  0  0
   37.0175   80.9350   57.3088 H   0  0  0  0  0
   36.2665   80.9214   59.6825 H   0  0  0  0  0
   34.8422   81.8962   59.2441 H   0  0  0  0  0
   35.0067   80.2333   58.6287 H   0  0  0  0  0
   34.5930   82.6601   56.7490 H   0  0  0  0  0
   35.8906   82.2429   55.6031 H   0  0  0  0  0
   34.8188   80.9697   56.2366 H   0  0  0  0  0
   36.7638   85.9717   56.1416 H   0  0  0  0  0
   38.3825   87.8101   57.8433 H   0  0  0  0  0
   36.1813   88.1304   55.8303 H   0  0  0  0  0
   38.0131   88.4296   55.6243 H   0  0  0  0  0
   37.7988   90.3787   57.0229 H   0  0  0  0  0
   36.0811   90.0949   57.2322 H   0  0  0  0  0
   35.7566   90.1668   54.7807 H   0  0  0  0  0
   37.5425   90.5454   54.6062 H   0  0  0  0  0
   37.2625   92.6742   55.4682 H   0  0  0  0  0
   35.6682   92.2979   56.1571 H   0  0  0  0  0
   35.4683   93.5827   54.1042 H   0  0  0  0  0
   36.3019   92.4203   53.2495 H   0  0  0  0  0
   34.8069   92.0675   53.8955 H   0  0  0  0  0
   37.6361   88.6453   59.7585 H   0  0  0  0  0
   35.0087   87.6605   60.6579 H   0  0  0  0  0
   37.0344   89.3673   62.1374 H   0  0  0  0  0
   36.8616   87.5792   62.2410 H   0  0  0  0  0
   34.5582   87.9150   63.0318 H   0  0  0  0  0
   34.9231   89.7051   63.1096 H   0  0  0  0  0
   36.5756   89.3116   64.7771 H   0  0  0  0  0
   36.3462   87.5454   64.6490 H   0  0  0  0  0
   34.2406   87.6099   65.6396 H   0  0  0  0  0
   34.0356   89.3829   65.2838 H   0  0  0  0  0
   34.3793   88.9540   67.6030 H   0  0  0  0  0
   35.8337   88.2039   67.2886 H   0  0  0  0  0
   35.6460   89.8273   66.9629 H   0  0  0  0  0
   33.2175   88.7178   60.0663 H   0  0  0  0  0
   33.3280   91.5329   59.3263 H   0  0  0  0  0
   30.8939   91.3244   59.0438 H   0  0  0  0  0
   31.0987   89.5457   59.5669 H   0  0  0  0  0
   32.3099   89.0967   57.6262 H   0  0  0  0  0
   29.8626   88.9792   57.4338 H   0  0  0  0  0
   29.8015   90.6921   56.9506 H   0  0  0  0  0
   30.5714   89.4927   55.8830 H   0  0  0  0  0
   32.0474   92.0089   56.8311 H   0  0  0  0  0
   33.5413   91.1564   57.2921 H   0  0  0  0  0
   32.6832   90.7048   55.7986 H   0  0  0  0  0
   31.9795   93.2063   60.2159 H   0  0  0  0  0
   31.4599   94.5936   61.9555 H   0  0  0  0  0
   32.5345   93.5300   62.9914 H   0  0  0  0  0
   29.3940   93.2346   61.5510 H   0  0  0  0  0
  2  1  1  0  0  0
  2  5  1  0  0  0
  3  2  1  0  0  0
  3  4  2  0  0  0
  5  6  1  0  0  0
  6  7  1  0  0  0
  7  9  2  0  0  0
  7  8  1  0  0  0
 11 10  1  0  0  0
 11 14  1  0  0  0
 12 11  1  0  0  0
 12 13  2  0  0  0
 10  3  1  0  0  0
 16 15  1  0  0  0
 17 16  1  0  0  0
 17 18  2  0  0  0
 15 12  1  0  0  0
 20 19  1  0  0  0
 20 23  1  0  0  0
 21 20  1  0  0  0
 21 22  2  0  0  0
 23 24  1  0  0  0
 24 25  1  0  0  0
 25 26  1  0  0  0
 19 17  1  0  0  0
 28 27  1  0  0  0
 28 31  1  0  0  0
 29 28  1  0  0  0
 29 30  2  0  0  0
 31 33  1  0  0  0
 31 32  1  0  0  0
 27 21  1  0  0  0
 35 34  1  0  0  0
 35 38  1  0  0  0
 36 35  1  0  0  0
 36 37  2  0  0  0
 38 39  1  0  0  0
 39 40  1  0  0  0
 39 41  1  0  0  0
 34 29  1  0  0  0
 43 42  1  0  0  0
 44 43  1  0  0  0
 44 45  2  0  0  0
 42 36  1  0  0  0
 47 46  1  0  0  0
 47 50  1  0  0  0
 48 47  1  0  0  0
 48 49  2  0  0  0
 46 44  1  0  0  0
 52 51  1  0  0  0
 52 55  1  0  0  0
 53 52  1  0  0  0
 53 54  2  0  0  0
 55 56  1  0  0  0
 56 57  1  0  0  0
 57 58  1  0  0  0
 58 59  1  0  0  0
 59 61  2  0  0  0
 59 60  1  0  0  0
 51 48  1  0  0  0
 63 62  1  0  0  0
 63 66  1  0  0  0
 64 63  1  0  0  0
 64 65  2  0  0  0
 66 67  1  0  0  0
 67 68  1  0  0  0
 68 69  1  0  0  0
 69 70  1  0  0  0
 62 53  1  0  0  0
 72 71  1  0  0  0
 72 75  1  0  0  0
 73 72  1  0  0  0
 73 74  2  0  0  0
 75 76  1  0  0  0
 76 77  1  0  0  0
 76 78  1  0  0  0
 71 64  1  0  0  0
 80 79  1  0  0  0
 80 83  1  0  0  0
 81 80  1  0  0  0
 81 82  2  0  0  0
 83 84  1  0  0  0
 84 85  1  0  0  0
 85 86  1  0  0  0
 86 87  1  0  0  0
 79 73  1  0  0  0
 89 88  1  0  0  0
 89 92  1  0  0  0
 90 89  1  0  0  0
 90 91  2  0  0  0
 92 93  1  0  0  0
 93 94  1  0  0  0
 94 95  1  0  0  0
 95 96  1  0  0  0
 88 81  1  0  0  0
 98 97  1  0  0  0
 98101  1  0  0  0
 99 98  1  0  0  0
 99100  2  0  0  0
101102  1  0  0  0
102103  1  0  0  0
102104  1  0  0  0
 97 90  1  0  0  0
105106  1  0  0  0
106107  1  0  0  0
107108  2  0  0  0
 99105  1  0  0  0
107109  1  0  0  0
  1110  1  0  0  0
  1111  1  0  0  0
  1112  1  0  0  0
  2113  1  0  0  0
  5114  1  0  0  0
  5115  1  0  0  0
  6116  1  0  0  0
  6117  1  0  0  0
  8118  1  0  0  0
 10119  1  0  0  0
 11120  1  0  0  0
 14121  1  0  0  0
 14122  1  0  0  0
 14123  1  0  0  0
 15124  1  0  0  0
 16125  1  0  0  0
 16126  1  0  0  0
 19127  1  0  0  0
 20128  1  0  0  0
 23129  1  0  0  0
 23130  1  0  0  0
 24131  1  0  0  0
 24132  1  0  0  0
 26133  1  0  0  0
 26134  1  0  0  0
 26135  1  0  0  0
 27136  1  0  0  0
 28137  1  0  0  0
 31138  1  0  0  0
 32139  1  0  0  0
 33140  1  0  0  0
 33141  1  0  0  0
 33142  1  0  0  0
 34143  1  0  0  0
 35144  1  0  0  0
 38145  1  0  0  0
 38146  1  0  0  0
 39147  1  0  0  0
 40148  1  0  0  0
 40149  1  0  0  0
 40150  1  0  0  0
 41151  1  0  0  0
 41152  1  0  0  0
 41153  1  0  0  0
 42154  1  0  0  0
 43155  1  0  0  0
 43156  1  0  0  0
 46157  1  0  0  0
 47158  1  0  0  0
 50159  1  0  0  0
 50160  1  0  0  0
 50161  1  0  0  0
 51162  1  0  0  0
 52163  1  0  0  0
 55164  1  0  0  0
 55165  1  0  0  0
 56166  1  0  0  0
 56167  1  0  0  0
 57168  1  0  0  0
 57169  1  0  0  0
 58170  1  0  0  0
 60171  1  0  0  0
 60172  1  0  0  0
 61173  1  0  0  0
 62174  1  0  0  0
 63175  1  0  0  0
 66176  1  0  0  0
 66177  1  0  0  0
 67178  1  0  0  0
 67179  1  0  0  0
 68180  1  0  0  0
 68181  1  0  0  0
 69182  1  0  0  0
 69183  1  0  0  0
 70184  1  0  0  0
 70185  1  0  0  0
 70186  1  0  0  0
 71187  1  0  0  0
 72188  1  0  0  0
 75189  1  0  0  0
 75190  1  0  0  0
 76191  1  0  0  0
 77192  1  0  0  0
 77193  1  0  0  0
 77194  1  0  0  0
 78195  1  0  0  0
 78196  1  0  0  0
 78197  1  0  0  0
 79198  1  0  0  0
 80199  1  0  0  0
 83200  1  0  0  0
 83201  1  0  0  0
 84202  1  0  0  0
 84203  1  0  0  0
 85204  1  0  0  0
 85205  1  0  0  0
 86206  1  0  0  0
 86207  1  0  0  0
 87208  1  0  0  0
 87209  1  0  0  0
 87210  1  0  0  0
 88211  1  0  0  0
 89212  1  0  0  0
 92213  1  0  0  0
 92214  1  0  0  0
 93215  1  0  0  0
 93216  1  0  0  0
 94217  1  0  0  0
 94218  1  0  0  0
 95219  1  0  0  0
 95220  1  0  0  0
 96221  1  0  0  0
 96222  1  0  0  0
 96223  1  0  0  0
 97224  1  0  0  0
 98225  1  0  0  0
101226  1  0  0  0
101227  1  0  0  0
102228  1  0  0  0
103229  1  0  0  0
103230  1  0  0  0
103231  1  0  0  0
104232  1  0  0  0
104233  1  0  0  0
104234  1  0  0  0
105235  1  0  0  0
106236  1  0  0  0
106237  1  0  0  0
109238  1  0  0  0
M  END
$$$$
