### 
### Created by X-TOOL on Mon Sep 10 21:12:57 2018
### 

@<TRIPOS>MOLECULE
3btr_ligand
  238   237     1     0     0
SMALL
GAST_HUCK


@<TRIPOS>ATOM
      1 N          21.5930   80.0350   65.2080 N.4       1 GLU         0.2380
      2 CA         22.8170   80.6590   64.6260 C.3       1 GLU         0.0665
      3 C          23.3070   79.8200   63.4500 C.2       1 GLU         0.2268
      4 O          23.6790   78.6650   63.6200 O.2       1 GLU        -0.3907
      5 CB         23.9290   80.7650   65.6790 C.3       1 GLU         0.0194
      6 CG         23.4590   81.2330   67.0560 C.3       1 GLU         0.0075
      7 CD         24.5420   81.1490   68.1230 C.2       1 GLU         0.0351
      8 OE1        25.5630   80.4590   67.9070 O.co2     1 GLU        -0.5690
      9 OE2        24.3610   81.7750   69.1900 O.co2     1 GLU        -0.5690
     10 N          23.2870   80.3940   62.2550 N.am      1 ALA        -0.2613
     11 CA         23.8560   79.7380   61.0840 C.3       1 ALA         0.1283
     12 C          25.2260   80.3340   60.8270 C.2       1 ALA         0.2034
     13 O          25.6430   81.2860   61.4900 O.2       1 ALA        -0.3944
     14 CB         22.9560   79.9180   59.8640 C.3       1 ALA        -0.0244
     15 N          25.9220   79.7670   59.8560 N.am      1 GLY        -0.2664
     16 CA         27.2570   80.2140   59.5180 C.3       1 GLY         0.1201
     17 C          28.0720   78.9960   59.1940 C.2       1 GLY         0.2007
     18 O          28.8010   78.4850   60.0440 O.2       1 GLY        -0.3947
     19 N          27.9110   78.5240   57.9600 N.am      1 MET        -0.2639
     20 CA         28.6820   77.4000   57.4490 C.3       1 MET         0.1317
     21 C          29.9500   77.9490   56.8150 C.2       1 MET         0.2040
     22 O          29.8970   78.8620   55.9910 O.2       1 MET        -0.3944
     23 CB         27.8510   76.5740   56.4510 C.3       1 MET        -0.0034
     24 CG         26.8070   75.6880   57.1380 C.3       1 MET        -0.0024
     25 SD         27.3970   74.0650   57.6910 S.3       1 MET        -0.1639
     26 CE         29.1920   74.2150   57.5920 C.3       1 MET        -0.0181
     27 N          31.0880   77.3950   57.2240 N.am      1 THR        -0.2613
     28 CA         32.3850   77.8560   56.7580 C.3       1 THR         0.1565
     29 C          32.5360   77.5420   55.2780 C.2       1 THR         0.2065
     30 O          33.2830   78.2160   54.5710 O.2       1 THR        -0.3943
     31 CB         33.5460   77.1720   57.5260 C.3       1 THR         0.0924
     32 OG1        33.0550   76.5460   58.7160 O.3       1 THR        -0.3874
     33 CG2        34.5810   78.1870   57.9050 C.3       1 THR        -0.0346
     34 N          31.8020   76.5270   54.8170 N.am      1 LEU        -0.2636
     35 CA         32.1020   75.8710   53.5590 C.3       1 LEU         0.1312
     36 C          33.5830   75.4770   53.7150 C.2       1 LEU         0.2037
     37 O          34.0790   75.4130   54.8510 O.2       1 LEU        -0.3944
     38 CB         31.7520   76.7780   52.3600 C.3       1 LEU        -0.0101
     39 CG         30.2570   77.1810   52.3160 C.3       1 LEU        -0.0425
     40 CD1        29.9750   78.1960   51.2080 C.3       1 LEU        -0.0625
     41 CD2        29.3380   75.9600   52.1740 C.3       1 LEU        -0.0625
     42 N          34.3030   75.1710   52.6490 N.am      1 GLY        -0.2664
     43 CA         35.6550   74.6680   52.8690 C.3       1 GLY         0.1201
     44 C          36.6950   75.7640   52.8940 C.2       1 GLY         0.2007
     45 O          37.7910   75.5370   52.4290 O.2       1 GLY        -0.3947
     46 N          36.3770   76.9390   53.4440 N.am      1 ALA        -0.2642
     47 CA         37.1450   78.1760   53.1510 C.3       1 ALA         0.1282
     48 C          38.5540   78.1890   53.7410 C.2       1 ALA         0.2036
     49 O          38.7200   77.8870   54.9120 O.2       1 ALA        -0.3944
     50 CB         36.3820   79.4170   53.6150 C.3       1 ALA        -0.0244
     51 N          39.5510   78.5550   52.9250 N.am      1 ARG        -0.2637
     52 CA         40.9500   78.6610   53.3860 C.3       1 ARG         0.1311
     53 C          41.0960   79.7830   54.3960 C.2       1 ARG         0.2039
     54 O          41.7330   79.6000   55.4260 O.2       1 ARG        -0.3944
     55 CB         41.9380   78.8830   52.2240 C.3       1 ARG        -0.0092
     56 CG         41.8310   77.8230   51.1580 C.3       1 ARG        -0.0156
     57 CD         43.0920   77.5780   50.3130 C.3       1 ARG         0.0627
     58 NE         42.7850   76.5330   49.3220 N.pl3     1 ARG        -0.2723
     59 CZ         43.4630   76.2740   48.2000 C.cat     1 ARG         0.2882
     60 NH1        44.5510   76.9650   47.8560 N.pl3     1 ARG        -0.2849
     61 NH2        43.0380   75.2960   47.4040 N.pl3     1 ARG        -0.2849
     62 N          40.4950   80.9370   54.1070 N.am      1 LYS        -0.2637
     63 CA         40.5580   82.0830   55.0100 C.3       1 LYS         0.1310
     64 C          39.1640   82.6710   55.2860 C.2       1 LYS         0.2039
     65 O          38.2580   82.6140   54.4440 O.2       1 LYS        -0.3944
     66 CB         41.5250   83.1420   54.4460 C.3       1 LYS        -0.0122
     67 CG         43.0040   82.7050   54.4640 C.3       1 LYS        -0.0440
     68 CD         43.8820   83.5400   53.5390 C.3       1 LYS        -0.0124
     69 CE         45.3620   83.1160   53.6440 C.3       1 LYS        -0.0354
     70 NZ         46.2900   83.7610   52.6450 N.4       1 LYS         0.2185
     71 N          39.0000   83.2000   56.4930 N.am      1 LEU        -0.2637
     72 CA         37.7380   83.7990   56.9500 C.3       1 LEU         0.1312
     73 C          38.0230   85.1780   57.5090 C.2       1 LEU         0.2039
     74 O          38.8440   85.3240   58.4080 O.2       1 LEU        -0.3944
     75 CB         37.0510   82.9560   58.0410 C.3       1 LEU        -0.0101
     76 CG         36.2950   81.6760   57.6510 C.3       1 LEU        -0.0425
     77 CD1        35.5470   81.1420   58.8940 C.3       1 LEU        -0.0625
     78 CD2        35.3280   81.9040   56.4730 C.3       1 LEU        -0.0625
     79 N          37.3510   86.1770   56.9500 N.am      1 LYS        -0.2637
     80 CA         37.4080   87.5500   57.4300 C.3       1 LYS         0.1310
     81 C          36.3430   87.6840   58.5090 C.2       1 LYS         0.2039
     82 O          35.2250   87.2020   58.3240 O.2       1 LYS        -0.3944
     83 CB         37.1240   88.4780   56.2530 C.3       1 LYS        -0.0122
     84 CG         36.9160   89.9530   56.5460 C.3       1 LYS        -0.0440
     85 CD         36.6390   90.6430   55.2080 C.3       1 LYS        -0.0124
     86 CE         36.3360   92.1210   55.3140 C.3       1 LYS        -0.0354
     87 NZ         35.6740   92.5860   54.0360 N.4       1 LYS         0.2185
     88 N          36.6820   88.3060   59.6360 N.am      1 LYS        -0.2637
     89 CA         35.6910   88.5090   60.7090 C.3       1 LYS         0.1310
     90 C          34.8860   89.8000   60.5040 C.2       1 LYS         0.2039
     91 O          35.4160   90.9050   60.6650 O.2       1 LYS        -0.3944
     92 CB         36.3430   88.5260   62.0900 C.3       1 LYS        -0.0122
     93 CG         35.3110   88.6890   63.1810 C.3       1 LYS        -0.0440
     94 CD         35.8580   88.5170   64.5730 C.3       1 LYS        -0.0124
     95 CE         34.7140   88.5910   65.6010 C.3       1 LYS        -0.0354
     96 NZ         35.1800   88.9200   66.9720 N.4       1 LYS         0.2185
     97 N          33.6070   89.6560   60.1580 N.am      1 LEU        -0.2637
     98 CA         32.7500   90.8140   59.9070 C.3       1 LEU         0.1312
     99 C          32.3340   91.4770   61.2220 C.2       1 LEU         0.2038
    100 O          32.3170   90.8330   62.2830 O.2       1 LEU        -0.3944
    101 CB         31.5130   90.4280   59.0790 C.3       1 LEU        -0.0101
    102 CG         31.7340   90.0220   57.6120 C.3       1 LEU        -0.0425
    103 CD1        30.3960   89.7790   56.9200 C.3       1 LEU        -0.0625
    104 CD2        32.5620   91.0480   56.8260 C.3       1 LEU        -0.0625
    105 N          32.0060   92.7690   61.1370 N.am      1 GLY        -0.2650
    106 CA         31.6810   93.5890   62.3160 C.3       1 GLY         0.1312
    107 C          30.4590   93.1150   63.0970 C.2       1 GLY         0.2539
    108 O          30.5390   92.8450   64.3040 O.2       1 GLY        -0.3683
    109 O1         29.2909   92.9897   62.4735 O.3       1 GLY        -0.2912
    110 H1         21.2699   80.5900   65.9850 H         1 GLU         0.2015
    111 H2         21.8099   79.1039   65.5275 H         1 GLU         0.2015
    112 H3         20.8722   79.9896   64.5049 H         1 GLU         0.2015
    113 H4         22.5667   81.6690   64.2693 H         1 GLU         0.1099
    114 H5         24.6816   81.4787   65.3126 H         1 GLU         0.0363
    115 H6         24.3895   79.7726   65.7928 H         1 GLU         0.0363
    116 H7         22.6120   80.6043   67.3681 H         1 GLU         0.0434
    117 H8         23.1289   82.2792   66.9753 H         1 GLU         0.0434
    118 H9         22.8718   81.2982   62.1546 H         1 ALA         0.1884
    119 H10        23.9612   78.6623   61.2885 H         1 ALA         0.0797
    120 H11        23.4085   79.4143   58.9971 H         1 ALA         0.0277
    121 H12        22.8427   80.9904   59.6469 H         1 ALA         0.0277
    122 H13        21.9685   79.4790   60.0689 H         1 ALA         0.0277
    123 H14        25.5163   79.0109   59.3425 H         1 GLY         0.1881
    124 H15        27.7017   80.7474   60.3710 H         1 GLY         0.0763
    125 H16        27.2194   80.8835   58.6461 H         1 GLY         0.0763
    126 H17        27.2362   78.9571   57.3625 H         1 MET         0.1883
    127 H18        28.9606   76.7460   58.2884 H         1 MET         0.0800
    128 H19        28.5320   75.9314   55.8737 H         1 MET         0.0320
    129 H20        27.3323   77.2643   55.7695 H         1 MET         0.0320
    130 H21        25.9826   75.5244   56.4284 H         1 MET         0.0378
    131 H22        26.4309   76.2292   58.0187 H         1 MET         0.0378
    132 H23        29.6570   73.2704   57.9107 H         1 MET         0.0340
    133 H24        29.5287   75.0297   58.2499 H         1 MET         0.0340
    134 H25        29.4849   74.4362   56.5551 H         1 MET         0.0340
    135 H26        31.0498   76.6359   57.8739 H         1 THR         0.1884
    136 H27        32.4486   78.9438   56.9087 H         1 THR         0.0826
    137 H28        34.0041   76.4102   56.8781 H         1 THR         0.0639
    138 H29        33.7738   76.1199   59.1680 H         1 THR         0.2101
    139 H30        35.3988   77.6913   58.4486 H         1 THR         0.0257
    140 H31        34.1246   78.9534   58.5486 H         1 THR         0.0257
    141 H32        34.9795   78.6613   56.9961 H         1 THR         0.0257
    142 H33        31.0215   76.2093   55.3554 H         1 LEU         0.1883
    143 H34        31.5005   74.9552   53.4616 H         1 LEU         0.0800
    144 H35        31.9967   76.2406   51.4319 H         1 LEU         0.0315
    145 H36        32.3590   77.6931   52.4248 H         1 LEU         0.0315
    146 H37        30.0205   77.6635   53.2758 H         1 LEU         0.0298
    147 H38        28.9058   78.4546   51.2112 H         1 LEU         0.0232
    148 H39        30.2439   77.7603   50.2344 H         1 LEU         0.0232
    149 H40        30.5722   79.1034   51.3812 H         1 LEU         0.0232
    150 H41        29.5553   75.2421   52.9786 H         1 LEU         0.0232
    151 H42        29.5119   75.4816   51.1989 H         1 LEU         0.0232
    152 H43        28.2882   76.2812   52.2428 H         1 LEU         0.0232
    153 H44        33.9345   75.2803   51.7258 H         1 GLY         0.1881
    154 H45        35.9043   73.9665   52.0593 H         1 GLY         0.0763
    155 H46        35.6798   74.1390   53.8331 H         1 GLY         0.0763
    156 H47        35.5995   76.9872   54.0710 H         1 ALA         0.1883
    157 H48        37.2504   78.2357   52.0577 H         1 ALA         0.0797
    158 H49        36.9719   80.3169   53.3864 H         1 ALA         0.0277
    159 H50        36.2098   79.3573   54.6998 H         1 ALA         0.0277
    160 H51        35.4154   79.4698   53.0926 H         1 ALA         0.0277
    161 H52        39.3407   78.7639   51.9699 H         1 ARG         0.1883
    162 H53        41.2135   77.7140   53.8797 H         1 ARG         0.0800
    163 H54        42.9617   78.8751   52.6263 H         1 ARG         0.0313
    164 H55        41.7306   79.8624   51.7682 H         1 ARG         0.0313
    165 H56        41.0208   78.1159   50.4740 H         1 ARG         0.0301
    166 H57        41.5693   76.8757   51.6521 H         1 ARG         0.0301
    167 H58        43.9162   77.2458   50.9614 H         1 ARG         0.0689
    168 H59        43.3816   78.5060   49.7982 H         1 ARG         0.0689
    169 H60        41.9639   75.9413   49.5132 H         1 ARG         0.2642
    170 H61        45.0501   76.7392   46.9838 H         1 ARG         0.2615
    171 H62        44.8920   77.7244   48.4626 H         1 ARG         0.2615
    172 H63        42.1994   74.7540   47.6568 H         1 ARG         0.2615
    173 H64        43.5476   75.0810   46.5351 H         1 ARG         0.2615
    174 H65        39.9876   81.0203   53.2493 H         1 LYS         0.1883
    175 H66        40.9644   81.7332   55.9704 H         1 LYS         0.0800
    176 H67        41.4263   84.0576   55.0477 H         1 LYS         0.0312
    177 H68        41.2386   83.3544   53.4054 H         1 LYS         0.0312
    178 H69        43.0628   81.6530   54.1481 H         1 LYS         0.0269
    179 H70        43.3857   82.8013   55.4911 H         1 LYS         0.0269
    180 H71        43.7915   84.6001   53.8183 H         1 LYS         0.0317
    181 H72        43.5422   83.4038   52.5017 H         1 LYS         0.0317
    182 H73        45.4142   82.0265   53.5020 H         1 LYS         0.0813
    183 H74        45.7180   83.3718   54.6528 H         1 LYS         0.0813
    184 H75        47.2285   83.4236   52.7917 H         1 LYS         0.1994
    185 H76        46.2701   84.7616   52.7652 H         1 LYS         0.1994
    186 H77        45.9917   83.5288   51.7106 H         1 LYS         0.1994
    187 H78        39.7757   83.1903   57.1240 H         1 LEU         0.1883
    188 H79        37.0575   83.8864   56.0902 H         1 LEU         0.0800
    189 H80        36.3265   83.6138   58.5435 H         1 LEU         0.0315
    190 H81        37.8335   82.6593   58.7549 H         1 LEU         0.0315
    191 H82        37.0327   80.9223   57.3382 H         1 LEU         0.0298
    192 H83        35.0013   80.2248   58.6276 H         1 LEU         0.0232
    193 H84        34.8353   81.9022   59.2484 H         1 LEU         0.0232
    194 H85        36.2721   80.9189   59.6905 H         1 LEU         0.0232
    195 H86        35.8891   82.2830   55.6061 H         1 LEU         0.0232
    196 H87        34.5625   82.6385   56.7638 H         1 LEU         0.0232
    197 H88        34.8421   80.9533   56.2081 H         1 LEU         0.0232
    198 H89        36.7753   85.9758   56.1575 H         1 LYS         0.1883
    199 H90        38.3999   87.7739   57.8495 H         1 LYS         0.0800
    200 H91        36.2127   88.1105   55.7585 H         1 LYS         0.0312
    201 H92        37.9747   88.3984   55.5602 H         1 LYS         0.0312
    202 H93        37.8193   90.3768   57.0091 H         1 LYS         0.0269
    203 H94        36.0597   90.0860   57.2235 H         1 LYS         0.0269
    204 H95        35.7757   90.1484   54.7388 H         1 LYS         0.0317
    205 H96        37.5250   90.5193   54.5680 H         1 LYS         0.0317
    206 H97        37.2719   92.6783   55.4674 H         1 LYS         0.0813
    207 H98        35.6603   92.2980   56.1638 H         1 LYS         0.0813
    208 H99        35.4702   93.5710   54.1023 H         1 LYS         0.1994
    209 H100       34.8169   92.0743   53.8961 H         1 LYS         0.1994
    210 H101       36.2937   92.4228   53.2579 H         1 LYS         0.1994
    211 H102       37.6174   88.6387   59.7561 H         1 LYS         0.1883
    212 H103       34.9891   87.6627   60.6759 H         1 LYS         0.0800
    213 H104       37.0537   89.3641   62.1407 H         1 LYS         0.0312
    214 H105       36.8811   87.5791   62.2441 H         1 LYS         0.0312
    215 H106       34.5213   87.9393   63.0248 H         1 LYS         0.0269
    216 H107       34.8799   89.6978   63.1012 H         1 LYS         0.0269
    217 H108       36.5857   89.3155   64.7797 H         1 LYS         0.0317
    218 H109       36.3550   87.5388   64.6509 H         1 LYS         0.0317
    219 H110       34.2056   87.6159   65.6292 H         1 LYS         0.0813
    220 H111       34.0033   89.3659   65.2780 H         1 LYS         0.0813
    221 H112       34.3895   88.9539   67.5965 H         1 LYS         0.1994
    222 H113       35.6407   89.8165   66.9642 H         1 LYS         0.1994
    223 H114       35.8261   88.2129   67.2860 H         1 LYS         0.1994
    224 H115       33.2251   88.7362   60.0681 H         1 LEU         0.1883
    225 H116       33.3314   91.5451   59.3260 H         1 LEU         0.0800
    226 H117       30.8327   91.2924   59.0819 H         1 LEU         0.0315
    227 H118       31.0300   89.5795   59.5856 H         1 LEU         0.0315
    228 H119       32.2938   89.0751   57.6118 H         1 LEU         0.0298
    229 H120       30.5717   89.4900   55.8733 H         1 LEU         0.0232
    230 H121       29.7950   90.6998   56.9501 H         1 LEU         0.0232
    231 H122       29.8567   88.9720   57.4376 H         1 LEU         0.0232
    232 H123       33.5224   91.2125   57.3365 H         1 LEU         0.0232
    233 H124       32.0101   91.9978   56.7683 H         1 LEU         0.0232
    234 H125       32.7470   90.6690   55.8101 H         1 LEU         0.0232
    235 H126       31.9800   93.1978   60.2340 H         1 GLY         0.1882
    236 H127       31.4946   94.6190   61.9778 H         1 GLY         0.0780
    237 H128       32.5478   93.5766   62.9931 H         1 GLY         0.0780
    238 H129       28.6513   93.5597   62.8841 H         1 GLY         0.2540
@<TRIPOS>BOND
     1    2    1 1  
     2    2    5 1  
     3    3    2 1  
     4    3    4 2  
     5    5    6 1  
     6    6    7 1  
     7    7    9 ar 
     8    7    8 ar 
     9   11   10 1  
    10   11   14 1  
    11   12   11 1  
    12   12   13 2  
    13   10    3 am 
    14   16   15 1  
    15   17   16 1  
    16   17   18 2  
    17   15   12 am 
    18   20   19 1  
    19   20   23 1  
    20   21   20 1  
    21   21   22 2  
    22   23   24 1  
    23   24   25 1  
    24   25   26 1  
    25   19   17 am 
    26   28   27 1  
    27   28   31 1  
    28   29   28 1  
    29   29   30 2  
    30   31   33 1  
    31   31   32 1  
    32   27   21 am 
    33   35   34 1  
    34   35   38 1  
    35   36   35 1  
    36   36   37 2  
    37   38   39 1  
    38   39   40 1  
    39   39   41 1  
    40   34   29 am 
    41   43   42 1  
    42   44   43 1  
    43   44   45 2  
    44   42   36 am 
    45   47   46 1  
    46   47   50 1  
    47   48   47 1  
    48   48   49 2  
    49   46   44 am 
    50   52   51 1  
    51   52   55 1  
    52   53   52 1  
    53   53   54 2  
    54   55   56 1  
    55   56   57 1  
    56   57   58 1  
    57   58   59 ar 
    58   59   61 ar 
    59   59   60 ar 
    60   51   48 am 
    61   63   62 1  
    62   63   66 1  
    63   64   63 1  
    64   64   65 2  
    65   66   67 1  
    66   67   68 1  
    67   68   69 1  
    68   69   70 1  
    69   62   53 am 
    70   72   71 1  
    71   72   75 1  
    72   73   72 1  
    73   73   74 2  
    74   75   76 1  
    75   76   77 1  
    76   76   78 1  
    77   71   64 am 
    78   80   79 1  
    79   80   83 1  
    80   81   80 1  
    81   81   82 2  
    82   83   84 1  
    83   84   85 1  
    84   85   86 1  
    85   86   87 1  
    86   79   73 am 
    87   89   88 1  
    88   89   92 1  
    89   90   89 1  
    90   90   91 2  
    91   92   93 1  
    92   93   94 1  
    93   94   95 1  
    94   95   96 1  
    95   88   81 am 
    96   98   97 1  
    97   98  101 1  
    98   99   98 1  
    99   99  100 2  
   100  101  102 1  
   101  102  103 1  
   102  102  104 1  
   103   97   90 am 
   104  105  106 1  
   105  106  107 1  
   106  107  108 2  
   107   99  105 am 
   108  107  109 1  
   109    1  110 1  
   110    1  111 1  
   111    1  112 1  
   112    2  113 1  
   113    5  114 1  
   114    5  115 1  
   115    6  116 1  
   116    6  117 1  
   117   10  118 1  
   118   11  119 1  
   119   14  120 1  
   120   14  121 1  
   121   14  122 1  
   122   15  123 1  
   123   16  124 1  
   124   16  125 1  
   125   19  126 1  
   126   20  127 1  
   127   23  128 1  
   128   23  129 1  
   129   24  130 1  
   130   24  131 1  
   131   26  132 1  
   132   26  133 1  
   133   26  134 1  
   134   27  135 1  
   135   28  136 1  
   136   31  137 1  
   137   32  138 1  
   138   33  139 1  
   139   33  140 1  
   140   33  141 1  
   141   34  142 1  
   142   35  143 1  
   143   38  144 1  
   144   38  145 1  
   145   39  146 1  
   146   40  147 1  
   147   40  148 1  
   148   40  149 1  
   149   41  150 1  
   150   41  151 1  
   151   41  152 1  
   152   42  153 1  
   153   43  154 1  
   154   43  155 1  
   155   46  156 1  
   156   47  157 1  
   157   50  158 1  
   158   50  159 1  
   159   50  160 1  
   160   51  161 1  
   161   52  162 1  
   162   55  163 1  
   163   55  164 1  
   164   56  165 1  
   165   56  166 1  
   166   57  167 1  
   167   57  168 1  
   168   58  169 1  
   169   60  170 1  
   170   60  171 1  
   171   61  172 1  
   172   61  173 1  
   173   62  174 1  
   174   63  175 1  
   175   66  176 1  
   176   66  177 1  
   177   67  178 1  
   178   67  179 1  
   179   68  180 1  
   180   68  181 1  
   181   69  182 1  
   182   69  183 1  
   183   70  184 1  
   184   70  185 1  
   185   70  186 1  
   186   71  187 1  
   187   72  188 1  
   188   75  189 1  
   189   75  190 1  
   190   76  191 1  
   191   77  192 1  
   192   77  193 1  
   193   77  194 1  
   194   78  195 1  
   195   78  196 1  
   196   78  197 1  
   197   79  198 1  
   198   80  199 1  
   199   83  200 1  
   200   83  201 1  
   201   84  202 1  
   202   84  203 1  
   203   85  204 1  
   204   85  205 1  
   205   86  206 1  
   206   86  207 1  
   207   87  208 1  
   208   87  209 1  
   209   87  210 1  
   210   88  211 1  
   211   89  212 1  
   212   92  213 1  
   213   92  214 1  
   214   93  215 1  
   215   93  216 1  
   216   94  217 1  
   217   94  218 1  
   218   95  219 1  
   219   95  220 1  
   220   96  221 1  
   221   96  222 1  
   222   96  223 1  
   223   97  224 1  
   224   98  225 1  
   225  101  226 1  
   226  101  227 1  
   227  102  228 1  
   228  103  229 1  
   229  103  230 1  
   230  103  231 1  
   231  104  232 1  
   232  104  233 1  
   233  104  234 1  
   234  105  235 1  
   235  106  236 1  
   236  106  237 1  
   237  109  238 1  
@<TRIPOS>SUBSTRUCTURE
     1 GLU         1

