5nxg_ligand
  -I-interpret- 

 33 34  0  0  0  0  0  0  0  0999 V2000
   -1.9090    9.6500   14.4050 Cl  0  0  0  0  0
   -2.1970    9.6290   12.6930 C   0  0  0  0  0
   -1.4020   10.5210   11.9450 C   0  0  0  0  0
   -1.5820   10.5720   10.5520 C   0  0  0  0  0
   -0.7450   11.4800    9.7440 N   0  0  0  0  0
   -0.3400   11.0910    8.6750 O   0  0  0  0  0
   -0.4750   12.5790   10.1520 O   0  0  0  0  0
   -2.5280    9.7940    9.8610 C   0  0  0  0  0
   -3.3210    8.9380   10.5930 C   0  0  0  0  0
   -3.1500    8.8580   11.9830 C   0  0  0  0  0
   -4.0770    7.9240   12.6670 C   0  0  0  0  0
   -5.3080    8.0890   12.6520 O   0  0  0  0  0
   -3.5290    6.9420   13.3900 N   0  0  0  0  0
   -4.1710    5.9860   14.1890 C   0  0  0  0  0
   -5.5350    5.9230   14.4990 C   0  0  0  0  0
   -6.0110    4.8970   15.2860 C   0  0  0  0  0
   -3.2940    4.9870   14.6750 C   0  0  0  0  0
   -3.8040    3.9430   15.4260 C   0  0  0  0  0
   -5.1940    3.8690   15.7630 C   0  0  0  0  0
   -5.8320    2.5820   16.6680 S   0  0  0  0  0
   -5.2980    2.6950   17.9980 O   0  0  0  0  0
   -7.2760    2.6840   16.5340 O   0  0  0  0  0
   -5.2680    1.2370   16.0270 N   0  0  0  0  0
   -0.6647   11.1565   12.4356 H   0  0  0  0  0
   -2.6307    9.8662    8.7783 H   0  0  0  0  0
   -4.0753    8.3278   10.0962 H   0  0  0  0  0
   -2.5114    6.8805   13.3557 H   0  0  0  0  0
   -6.2179    6.6829   14.1191 H   0  0  0  0  0
   -7.0692    4.8870   15.5473 H   0  0  0  0  0
   -2.2268    5.0397   14.4596 H   0  0  0  0  0
   -3.1312    3.1573   15.7697 H   0  0  0  0  0
   -4.6418    0.6387   16.5658 H   0  0  0  0  0
   -5.5331    0.9741   15.0778 H   0  0  0  0  0
  1  2  1  0  0  0
  2  3  4  0  0  0
  2 10  4  0  0  0
  3  4  4  0  0  0
  4  5  1  0  0  0
  4  8  4  0  0  0
  5  6  2  0  0  0
  5  7  2  0  0  0
  8  9  4  0  0  0
  9 10  4  0  0  0
 10 11  1  0  0  0
 11 12  2  0  0  0
 11 13  1  0  0  0
 13 14  1  0  0  0
 14 15  4  0  0  0
 14 17  4  0  0  0
 15 16  4  0  0  0
 16 19  4  0  0  0
 17 18  4  0  0  0
 18 19  4  0  0  0
 19 20  1  0  0  0
 20 21  2  0  0  0
 20 22  2  0  0  0
 20 23  1  0  0  0
  3 24  1  0  0  0
  8 25  1  0  0  0
  9 26  1  0  0  0
 13 27  1  0  0  0
 15 28  1  0  0  0
 16 29  1  0  0  0
 17 30  1  0  0  0
 18 31  1  0  0  0
 23 32  1  0  0  0
 23 33  1  0  0  0
M  END
$$$$
