4fl1_ligand
  -I-interpret- 

 48 50  0  0  0  0  0  0  0  0999 V2000
   -1.1030    6.8570    8.5530 P   0  0  0  0  0
   -1.1310    6.8560   10.1190 O   0  0  0  0  0
   -1.3840    8.3120    8.0270 O   0  0  0  0  0
   -2.2630    5.9090    8.0810 O   0  0  0  0  0
    1.7870    7.0150    8.4970 P   0  0  0  0  0
    2.6810    7.4380    7.3050 O   0  0  0  0  0
    1.5010    8.2560    9.3810 O   0  0  0  0  0
    0.3670    6.2880    7.9320 N   0  0  0  0  0
    2.4540    5.3990   10.8840 P   0  0  0  0  0
    3.7690    5.5720   11.6890 O   0  0  0  0  0
    1.3240    6.1930   11.5910 O   0  0  0  0  0
    2.6220    5.9510    9.3770 O   0  0  0  0  0
    2.0270    3.8530   10.7630 O   0  0  0  0  0
    0.6800    3.4680   10.4460 C   0  0  0  0  0
    0.1620    2.4370   11.4530 C   0  0  0  0  0
    1.0720    1.3140   11.5180 O   0  0  0  0  0
    0.1100    2.9870   12.8950 C   0  0  0  0  0
   -1.0880    3.7270   13.1310 O   0  0  0  0  0
    0.1700    1.6820   13.7250 C   0  0  0  0  0
   -1.1260    1.0610   13.7740 O   0  0  0  0  0
    1.1560    0.8200   12.8810 C   0  0  0  0  0
    2.5330    0.8730   13.4110 N   0  0  0  0  0
    3.5550    1.6970   13.0160 C   0  0  0  0  0
    4.6280    1.4840   13.7450 N   0  0  0  0  0
    4.3470    0.5390   14.6850 C   0  0  0  0  0
    5.0470   -0.0750   15.7570 C   0  0  0  0  0
    6.3570    0.2410   16.0860 N   0  0  0  0  0
    4.4040   -0.9860   16.5000 N   0  0  0  0  0
    3.1410   -1.2910   16.2740 C   0  0  0  0  0
    2.4530   -0.7660   15.2890 N   0  0  0  0  0
    3.0020    0.1580   14.4850 C   0  0  0  0  0
   -1.3669    8.3129    7.0672 H   0  0  0  0  0
   -2.2813    5.8808    7.1216 H   0  0  0  0  0
    0.9469    7.9991   10.1217 H   0  0  0  0  0
    0.3951    5.5358    7.2437 H   0  0  0  0  0
    0.5063    6.0909   11.0985 H   0  0  0  0  0
    0.6644    3.0267    9.4495 H   0  0  0  0  0
    0.0421    4.3510   10.4852 H   0  0  0  0  0
   -0.8364    2.1662   11.1095 H   0  0  0  0  0
    0.9048    3.6930   13.1358 H   0  0  0  0  0
   -1.0884    4.0537   14.0337 H   0  0  0  0  0
    0.4752    1.8230   14.7619 H   0  0  0  0  0
   -1.0735    0.2540   14.2913 H   0  0  0  0  0
    0.8816   -0.2340   12.9240 H   0  0  0  0  0
    3.4873    2.4272   12.2096 H   0  0  0  0  0
    6.8626    0.9443   15.5474 H   0  0  0  0  0
    6.8146   -0.2300   16.8665 H   0  0  0  0  0
    2.6497   -2.0078   16.9320 H   0  0  0  0  0
  1  2  2  0  0  0
  1  3  1  0  0  0
  1  4  1  0  0  0
  8  1  1  0  0  0
  5  6  2  0  0  0
  5  7  1  0  0  0
  5  8  1  0  0  0
 12  5  1  0  0  0
  9 10  2  0  0  0
  9 11  1  0  0  0
  9 12  1  0  0  0
  9 13  1  0  0  0
 13 14  1  0  0  0
 14 15  1  0  0  0
 15 16  1  0  0  0
 15 17  1  0  0  0
 16 21  1  0  0  0
 17 18  1  0  0  0
 17 19  1  0  0  0
 19 20  1  0  0  0
 19 21  1  0  0  0
 21 22  1  0  0  0
 22 23  4  0  0  0
 22 31  4  0  0  0
 23 24  4  0  0  0
 24 25  4  0  0  0
 25 26  4  0  0  0
 25 31  4  0  0  0
 26 27  1  0  0  0
 26 28  4  0  0  0
 28 29  4  0  0  0
 29 30  4  0  0  0
 30 31  4  0  0  0
  3 32  1  0  0  0
  4 33  1  0  0  0
  7 34  1  0  0  0
  8 35  1  0  0  0
 11 36  1  0  0  0
 14 37  1  0  0  0
 14 38  1  0  0  0
 15 39  1  0  0  0
 17 40  1  0  0  0
 18 41  1  0  0  0
 19 42  1  0  0  0
 20 43  1  0  0  0
 21 44  1  0  0  0
 23 45  1  0  0  0
 27 46  1  0  0  0
 27 47  1  0  0  0
 29 48  1  0  0  0
M  END
$$$$
