3e6y_ligand
  -I-interpret- 

 98103  0  0  0  0  0  0  0  0999 V2000
  -21.0040  -19.6560  -23.5080 O   0  0  0  0  0
  -20.5910  -20.8200  -23.3930 C   0  0  0  0  0
  -19.2240  -21.0780  -23.4230 O   0  0  0  0  0
  -18.4880  -19.8980  -23.5430 C   0  0  0  0  0
  -17.8410  -19.9740  -24.9270 C   0  0  0  0  0
  -16.2940  -20.0650  -24.7330 C   0  0  0  0  0
  -15.6070  -21.3800  -25.1730 C   0  0  0  0  0
  -15.3710  -18.9500  -24.2850 O   0  0  0  0  0
  -14.8860  -18.2850  -25.4250 C   0  0  0  0  0
  -13.3970  -17.7490  -25.5090 C   0  0  0  0  0
  -13.2650  -16.5110  -24.7930 O   0  0  0  0  0
  -12.3490  -18.8140  -25.3140 C   0  0  0  0  0
  -11.5170  -18.5330  -24.2350 O   0  0  0  0  0
  -12.3270  -18.9540  -23.1020 C   0  0  0  0  0
  -15.0170  -19.2430  -26.4960 O   0  0  0  0  0
  -16.3140  -19.5040  -26.3050 C   0  0  0  0  0
  -16.6720  -18.1480  -26.7100 O   0  0  0  0  0
  -15.9220  -17.2860  -25.8090 C   0  0  0  0  0
  -15.1650  -16.0880  -26.3930 C   0  0  0  0  0
  -16.1260  -15.1400  -26.8400 O   0  0  0  0  0
  -14.1650  -15.5000  -25.3520 C   0  0  0  0  0
  -14.9110  -15.1290  -24.1920 O   0  0  0  0  0
  -14.1850  -14.1290  -23.4010 C   0  0  0  0  0
  -14.0940  -14.7420  -21.9990 C   0  0  0  0  0
  -15.0270  -15.5040  -21.2690 C   0  0  0  0  0
  -16.5220  -15.5440  -21.6900 C   0  0  0  0  0
  -17.2180  -16.9360  -21.6820 C   0  0  0  0  0
  -17.2630  -14.4710  -20.8490 C   0  0  0  0  0
  -14.4390  -15.9340  -19.9470 C   0  0  0  0  0
  -12.9310  -15.9080  -20.1970 C   0  0  0  0  0
  -12.7270  -14.7650  -21.2380 C   0  0  0  0  0
  -11.5430  -15.0690  -22.1740 C   0  0  0  0  0
  -12.4140  -13.6010  -20.4880 C   0  0  0  0  0
  -12.9990  -12.3170  -20.4360 C   0  0  0  0  0
  -12.6550  -11.1640  -19.4750 C   0  0  0  0  0
  -11.4500  -10.3240  -19.8300 C   0  0  0  0  0
  -10.5490  -10.5170  -18.7150 O   0  0  0  0  0
   -9.2690   -9.9230  -19.0030 C   0  0  0  0  0
  -12.4710  -11.6990  -18.1410 O   0  0  0  0  0
  -13.8630  -10.3030  -19.3820 C   0  0  0  0  0
  -14.6970  -10.5280  -20.6330 C   0  0  0  0  0
  -14.2870  -11.8770  -21.1960 C   0  0  0  0  0
  -14.1800  -11.6860  -22.7470 C   0  0  0  0  0
  -12.7500  -11.4470  -23.3400 C   0  0  0  0  0
  -14.9690  -12.8140  -23.3900 C   0  0  0  0  0
  -15.3820  -12.4260  -24.7090 O   0  0  0  0  0
  -21.2983  -21.6400  -23.2686 H   0  0  0  0  0
  -17.7426  -19.8047  -22.7532 H   0  0  0  0  0
  -19.1197  -19.0157  -23.4403 H   0  0  0  0  0
  -18.0957  -19.0893  -25.5106 H   0  0  0  0  0
  -18.2049  -20.8493  -25.4650 H   0  0  0  0  0
  -14.9446  -21.1783  -26.0149 H   0  0  0  0  0
  -15.0279  -21.7817  -24.3415 H   0  0  0  0  0
  -16.3663  -22.1029  -25.4715 H   0  0  0  0  0
  -13.1671  -17.4725  -26.5380 H   0  0  0  0  0
  -11.7366  -18.8594  -26.2146 H   0  0  0  0  0
  -12.8552  -19.7592  -25.1178 H   0  0  0  0  0
  -13.2532  -18.3796  -23.0858 H   0  0  0  0  0
  -12.5576  -20.0151  -23.1962 H   0  0  0  0  0
  -11.7748  -18.7815  -22.1782 H   0  0  0  0  0
  -16.9844  -20.2208  -26.7793 H   0  0  0  0  0
  -16.5825  -16.8142  -25.0815 H   0  0  0  0  0
  -14.5539  -16.3915  -27.2430 H   0  0  0  0  0
  -15.6741  -14.3785  -27.2109 H   0  0  0  0  0
  -13.6253  -14.7064  -25.8688 H   0  0  0  0  0
  -13.1975  -13.8970  -23.7999 H   0  0  0  0  0
  -16.5708  -15.3135  -22.7542 H   0  0  0  0  0
  -16.6998  -17.6038  -22.3702 H   0  0  0  0  0
  -17.1839  -17.3521  -20.6751 H   0  0  0  0  0
  -18.2560  -16.8236  -21.9951 H   0  0  0  0  0
  -17.1556  -14.7036  -19.7895 H   0  0  0  0  0
  -16.8324  -13.4906  -21.0525 H   0  0  0  0  0
  -18.3197  -14.4677  -21.1163 H   0  0  0  0  0
  -14.7922  -16.9166  -19.6342 H   0  0  0  0  0
  -14.7363  -15.2805  -19.1269 H   0  0  0  0  0
  -12.5613  -16.8654  -20.5641 H   0  0  0  0  0
  -12.3681  -15.7310  -19.2805 H   0  0  0  0  0
  -11.6889  -16.0448  -22.6372 H   0  0  0  0  0
  -11.4869  -14.3030  -22.9474 H   0  0  0  0  0
  -10.6178  -15.0737  -21.5977 H   0  0  0  0  0
  -11.5574  -13.7217  -19.8248 H   0  0  0  0  0
  -11.7063   -9.2749  -19.9776 H   0  0  0  0  0
  -11.0035  -10.6218  -20.7787 H   0  0  0  0  0
   -8.8445  -10.3907  -19.8913 H   0  0  0  0  0
   -9.3969   -8.8549  -19.1791 H   0  0  0  0  0
   -8.6003  -10.0754  -18.1558 H   0  0  0  0  0
  -12.2562  -10.9840  -17.5375 H   0  0  0  0  0
  -13.5737   -9.2549  -19.3055 H   0  0  0  0  0
  -14.4402  -10.5584  -18.4934 H   0  0  0  0  0
  -14.5252   -9.7354  -21.3613 H   0  0  0  0  0
  -15.7611  -10.5133  -20.3974 H   0  0  0  0  0
  -14.9899  -12.6967  -21.0476 H   0  0  0  0  0
  -14.6205  -10.7222  -23.0021 H   0  0  0  0  0
  -12.3236  -10.5436  -22.9039 H   0  0  0  0  0
  -12.1136  -12.3004  -23.1058 H   0  0  0  0  0
  -12.8212  -11.3312  -24.4215 H   0  0  0  0  0
  -15.8590  -12.9981  -22.7883 H   0  0  0  0  0
  -15.8688  -11.6000  -24.6607 H   0  0  0  0  0
  1  2  2  0  0  0
  2  3  1  0  0  0
  3  4  1  0  0  0
  4  5  1  0  0  0
  5  6  1  0  0  0
  6  7  1  0  0  0
  6  8  1  0  0  0
  6 16  1  0  0  0
  8  9  1  0  0  0
  9 10  1  0  0  0
  9 15  1  0  0  0
  9 18  1  0  0  0
 10 11  1  0  0  0
 10 12  1  0  0  0
 11 21  1  0  0  0
 12 13  1  0  0  0
 13 14  1  0  0  0
 15 16  1  0  0  0
 16 17  1  0  0  0
 17 18  1  0  0  0
 18 19  1  0  0  0
 19 20  1  0  0  0
 19 21  1  0  0  0
 21 22  1  0  0  0
 22 23  1  0  0  0
 23 24  1  0  0  0
 23 45  1  0  0  0
 24 25  2  0  0  0
 24 31  1  0  0  0
 25 26  1  0  0  0
 25 29  1  0  0  0
 26 27  1  0  0  0
 26 28  1  0  0  0
 29 30  1  0  0  0
 30 31  1  0  0  0
 31 32  1  0  0  0
 31 33  1  0  0  0
 33 34  2  0  0  0
 34 35  1  0  0  0
 34 42  1  0  0  0
 35 36  1  0  0  0
 35 39  1  0  0  0
 35 40  1  0  0  0
 36 37  1  0  0  0
 37 38  1  0  0  0
 40 41  1  0  0  0
 41 42  1  0  0  0
 42 43  1  0  0  0
 43 44  1  0  0  0
 43 45  1  0  0  0
 45 46  1  0  0  0
  2 47  1  0  0  0
  4 48  1  0  0  0
  4 49  1  0  0  0
  5 50  1  0  0  0
  5 51  1  0  0  0
  7 52  1  0  0  0
  7 53  1  0  0  0
  7 54  1  0  0  0
 10 55  1  0  0  0
 12 56  1  0  0  0
 12 57  1  0  0  0
 14 58  1  0  0  0
 14 59  1  0  0  0
 14 60  1  0  0  0
 16 61  1  0  0  0
 18 62  1  0  0  0
 19 63  1  0  0  0
 20 64  1  0  0  0
 21 65  1  0  0  0
 23 66  1  0  0  0
 26 67  1  0  0  0
 27 68  1  0  0  0
 27 69  1  0  0  0
 27 70  1  0  0  0
 28 71  1  0  0  0
 28 72  1  0  0  0
 28 73  1  0  0  0
 29 74  1  0  0  0
 29 75  1  0  0  0
 30 76  1  0  0  0
 30 77  1  0  0  0
 32 78  1  0  0  0
 32 79  1  0  0  0
 32 80  1  0  0  0
 33 81  1  0  0  0
 36 82  1  0  0  0
 36 83  1  0  0  0
 38 84  1  0  0  0
 38 85  1  0  0  0
 38 86  1  0  0  0
 39 87  1  0  0  0
 40 88  1  0  0  0
 40 89  1  0  0  0
 41 90  1  0  0  0
 41 91  1  0  0  0
 42 92  1  0  0  0
 43 93  1  0  0  0
 44 94  1  0  0  0
 44 95  1  0  0  0
 44 96  1  0  0  0
 45 97  1  0  0  0
 46 98  1  0  0  0
M  END
$$$$
