4zsp_ligand
  -I-interpret- 

 39 41  0  0  0  0  0  0  0  0999 V2000
   26.5490   57.2620   83.2420 O   0  0  0  0  0
   24.3760   56.8740   85.1060 C   0  0  0  0  0
   23.7180   55.4960   84.9520 C   0  0  0  0  0
   22.3000   55.7260   88.5720 C   0  0  0  0  0
   22.0180   55.3310   87.3410 N   0  0  0  0  0
   22.2010   55.5840   84.9080 C   0  0  0  0  0
   21.6700   56.1960   86.2050 C   0  0  0  0  0
   22.2780   57.5800   86.3210 C   0  0  0  0  0
   21.7040   58.2560   87.5510 C   0  0  0  0  0
   22.6490   54.8580   89.4960 N   0  0  0  0  0
   22.2610   57.3930   89.0490 S   0  0  0  0  0
   25.7910   56.6970   85.3410 N   0  0  0  0  0
   26.7590   56.9490   84.4040 C   0  0  0  0  0
   28.1460   56.8520   84.9190 C   0  0  0  0  0
   28.4400   56.0010   85.9650 C   0  0  0  0  0
   29.7280   55.9340   86.4340 C   0  0  0  0  0
   30.0980   54.8670   87.7450 Cl  0  0  0  0  0
   30.7290   56.7140   85.8770 C   0  0  0  0  0
   30.4330   57.5640   84.8330 C   0  0  0  0  0
   29.1370   57.6320   84.3480 C   0  0  0  0  0
   23.8050   57.6460   86.2770 C   0  0  0  0  0
   24.1861   57.4336   84.1901 H   0  0  0  0  0
   23.9971   54.8893   85.8135 H   0  0  0  0  0
   24.0593   55.0609   84.0127 H   0  0  0  0  0
   22.0448   54.3270   87.1629 H   0  0  0  0  0
   21.7886   54.5818   84.7912 H   0  0  0  0  0
   21.9042   56.2131   84.0688 H   0  0  0  0  0
   20.5832   56.2797   86.2035 H   0  0  0  0  0
   21.9977   58.1223   85.4180 H   0  0  0  0  0
   20.6155   58.2253   87.5026 H   0  0  0  0  0
   22.0456   59.2905   87.5846 H   0  0  0  0  0
   22.8794   55.1791   90.4363 H   0  0  0  0  0
   26.0869   56.3647   86.2589 H   0  0  0  0  0
   27.6577   55.3888   86.4137 H   0  0  0  0  0
   31.7467   56.6555   86.2631 H   0  0  0  0  0
   31.2157   58.1804   84.3907 H   0  0  0  0  0
   28.8982   58.2980   83.5188 H   0  0  0  0  0
   24.0969   58.6907   86.1698 H   0  0  0  0  0
   24.1907   57.2040   87.1957 H   0  0  0  0  0
 13  1  2  0  0  0
  2  3  1  0  0  0
 12  2  1  0  0  0
  2 21  1  0  0  0
  3  6  1  0  0  0
  5  4  1  0  0  0
  4 10  2  0  0  0
 11  4  1  0  0  0
  7  5  1  0  0  0
  6  7  1  0  0  0
  8  7  1  0  0  0
  8  9  1  0  0  0
 21  8  1  0  0  0
  9 11  1  0  0  0
 12 13  1  0  0  0
 13 14  1  0  0  0
 14 15  4  0  0  0
 14 20  4  0  0  0
 15 16  4  0  0  0
 16 17  1  0  0  0
 16 18  4  0  0  0
 18 19  4  0  0  0
 19 20  4  0  0  0
  2 22  1  0  0  0
  3 23  1  0  0  0
  3 24  1  0  0  0
  5 25  1  0  0  0
  6 26  1  0  0  0
  6 27  1  0  0  0
  7 28  1  0  0  0
  8 29  1  0  0  0
  9 30  1  0  0  0
  9 31  1  0  0  0
 10 32  1  0  0  0
 12 33  1  0  0  0
 15 34  1  0  0  0
 18 35  1  0  0  0
 19 36  1  0  0  0
 20 37  1  0  0  0
 21 38  1  0  0  0
 21 39  1  0  0  0
M  END
$$$$
