7kme_ligand
  -I-interpret- 

 80 82  0  0  0  0  0  0  0  0999 V2000
   17.1830  -13.0920   19.9320 N   0  0  0  0  0
   16.2520  -12.7200   20.8510 C   0  0  0  0  0
   15.8890  -13.8980   21.6630 C   0  0  0  0  0
   15.7060  -13.8480   22.9360 O   0  0  0  0  0
   18.9700  -13.6290   21.3040 O   0  0  0  0  0
   19.3800  -12.9130   18.9610 C   0  0  0  0  0
   18.4600  -13.2120   20.0640 C   0  0  0  0  0
   10.8860  -10.2570   24.5510 N   0  0  0  0  0
   10.0420  -12.1350   24.0130 N   0  0  0  0  0
   13.9100  -11.8440   21.0910 C   0  0  0  0  0
   12.8690  -12.8540   21.2740 C   0  0  0  0  0
   11.8690  -12.5930   22.1980 C   0  0  0  0  0
   11.8780  -11.4260   23.0010 C   0  0  0  0  0
   12.8540  -10.5110   22.8090 C   0  0  0  0  0
   13.8480  -10.7230   21.8400 C   0  0  0  0  0
   14.9020  -12.0870   20.1450 C   0  0  0  0  0
   10.9600  -11.2390   23.8670 C   0  0  0  0  0
   14.1640  -17.0260   20.6410 C   0  0  0  0  0
   13.5110  -18.1410   21.5080 C   0  0  0  0  0
   12.3520  -18.7530   20.7480 C   0  0  0  0  0
   11.3160  -17.6690   20.4930 C   0  0  0  0  0
   12.0310  -16.7160   19.5180 C   0  0  0  0  0
   13.0980  -16.1210   20.2590 C   0  0  0  0  0
   15.0130  -16.1900   21.6330 C   0  0  0  0  0
   16.1600  -17.0100   22.2910 C   0  0  0  0  0
   15.5850  -14.9890   21.0270 N   0  0  0  0  0
   17.1540  -17.4110   21.6370 O   0  0  0  0  0
   16.1180  -17.1110   23.7880 N   0  0  0  0  0
   17.1110  -17.9460   24.5690 C   0  0  0  0  0
   16.5940  -19.3330   24.7570 C   0  0  0  0  0
   15.1360  -19.7050   24.8520 O   0  0  0  0  0
   21.0380  -15.8350   25.3890 N   0  0  0  0  0
   20.9250  -14.7830   24.4640 C   0  0  0  0  0
   19.6920  -14.5210   23.9610 C   0  0  0  0  0
   18.5770  -15.2240   24.3420 C   0  0  0  0  0
   17.4970  -17.0130   25.6500 C   0  0  0  0  0
   18.6740  -16.2240   25.2660 C   0  0  0  0  0
   19.9290  -16.5860   25.7830 C   0  0  0  0  0
   22.2260  -16.1590   25.8950 C   0  0  0  0  0
   16.8183  -13.3072   19.0041 H   0  0  0  0  0
   16.6826  -11.9399   21.4788 H   0  0  0  0  0
   20.0511  -12.1069   19.2577 H   0  0  0  0  0
   19.9622  -13.8034   18.7237 H   0  0  0  0  0
   18.8078  -12.6073   18.0850 H   0  0  0  0  0
   11.5805   -9.5160   24.4563 H   0  0  0  0  0
    9.2926  -11.9917   24.6899 H   0  0  0  0  0
   10.0662  -12.9861   23.4514 H   0  0  0  0  0
   12.8788  -13.7821   20.7025 H   0  0  0  0  0
   11.0524  -13.3062   22.3098 H   0  0  0  0  0
   12.8697   -9.6021   23.4105 H   0  0  0  0  0
   14.6009   -9.9499   21.6864 H   0  0  0  0  0
   14.5214  -12.8021   19.4157 H   0  0  0  0  0
   15.1674  -11.1439   19.6672 H   0  0  0  0  0
   14.7157  -17.4320   19.7931 H   0  0  0  0  0
   13.1484  -17.7114   22.4418 H   0  0  0  0  0
   14.2500  -18.9114   21.7283 H   0  0  0  0  0
   11.9096  -19.5607   21.3312 H   0  0  0  0  0
   12.7030  -19.1625   19.8008 H   0  0  0  0  0
   10.9972  -17.1704   21.4083 H   0  0  0  0  0
   10.3862  -18.0655   20.0853 H   0  0  0  0  0
   11.3474  -15.9589   19.1338 H   0  0  0  0  0
   12.4069  -17.2522   18.6466 H   0  0  0  0  0
   13.5452  -15.3660   19.6123 H   0  0  0  0  0
   12.6632  -15.7416   21.1837 H   0  0  0  0  0
   14.3034  -15.8911   22.4045 H   0  0  0  0  0
   15.7597  -15.0094   20.0223 H   0  0  0  0  0
   15.3963  -16.6000   24.2964 H   0  0  0  0  0
   18.0569  -18.2683   24.1338 H   0  0  0  0  0
   16.9646  -19.5873   25.7500 H   0  0  0  0  0
   16.8998  -19.8230   23.8326 H   0  0  0  0  0
   15.0562  -20.6542   24.9714 H   0  0  0  0  0
   21.7948  -14.1996   24.1620 H   0  0  0  0  0
   19.5835  -13.7224   23.2271 H   0  0  0  0  0
   17.6083  -14.9826   23.9044 H   0  0  0  0  0
   17.7384  -17.5909   26.5421 H   0  0  0  0  0
   16.6662  -16.3334   25.8396 H   0  0  0  0  0
   20.0336  -17.4261   26.4696 H   0  0  0  0  0
   22.8971  -16.4486   25.0864 H   0  0  0  0  0
   22.6408  -15.3006   26.4234 H   0  0  0  0  0
   22.1093  -16.9922   26.5881 H   0  0  0  0  0
  1  7  1  0  0  0
  2  1  1  0  0  0
  2 16  1  0  0  0
  3  2  1  0  0  0
  3  4  2  0  0  0
 16 10  1  0  0  0
 10 15  4  0  0  0
 10 11  4  0  0  0
 11 12  4  0  0  0
 12 13  4  0  0  0
 13 17  1  0  0  0
 14 13  4  0  0  0
 15 14  4  0  0  0
 17  8  2  0  0  0
 17  9  1  0  0  0
  7  5  2  0  0  0
  7  6  1  0  0  0
 24 18  1  0  0  0
 18 23  1  0  0  0
 18 19  1  0  0  0
 19 20  1  0  0  0
 20 21  1  0  0  0
 22 21  1  0  0  0
 23 22  1  0  0  0
 26 24  1  0  0  0
 24 25  1  0  0  0
 25 27  2  0  0  0
 28 29  1  0  0  0
 29 36  1  0  0  0
 29 30  1  0  0  0
 30 31  1  0  0  0
 36 37  1  0  0  0
 37 38  4  0  0  0
 37 35  4  0  0  0
 35 34  4  0  0  0
 34 33  4  0  0  0
 32 33  4  0  0  0
 32 39  1  0  0  0
 38 32  4  0  0  0
 25 28  1  0  0  0
 26  3  1  0  0  0
  1 40  1  0  0  0
  2 41  1  0  0  0
  6 42  1  0  0  0
  6 43  1  0  0  0
  6 44  1  0  0  0
  8 45  1  0  0  0
  9 46  1  0  0  0
  9 47  1  0  0  0
 11 48  1  0  0  0
 12 49  1  0  0  0
 14 50  1  0  0  0
 15 51  1  0  0  0
 16 52  1  0  0  0
 16 53  1  0  0  0
 18 54  1  0  0  0
 19 55  1  0  0  0
 19 56  1  0  0  0
 20 57  1  0  0  0
 20 58  1  0  0  0
 21 59  1  0  0  0
 21 60  1  0  0  0
 22 61  1  0  0  0
 22 62  1  0  0  0
 23 63  1  0  0  0
 23 64  1  0  0  0
 24 65  1  0  0  0
 26 66  1  0  0  0
 28 67  1  0  0  0
 29 68  1  0  0  0
 30 69  1  0  0  0
 30 70  1  0  0  0
 31 71  1  0  0  0
 33 72  1  0  0  0
 34 73  1  0  0  0
 35 74  1  0  0  0
 36 75  1  0  0  0
 36 76  1  0  0  0
 38 77  1  0  0  0
 39 78  1  0  0  0
 39 79  1  0  0  0
 39 80  1  0  0  0
M  END
$$$$
