4dbn_ligand
  -I-interpret- 

 57 62  0  0  0  0  0  0  0  0999 V2000
   48.4610  -32.9140    9.6660 F   0  0  0  0  0
   47.6410  -33.9860    9.7350 C   0  0  0  0  0
   47.0020  -34.2890   10.9260 C   0  0  0  0  0
   46.1620  -35.3840   11.0090 C   0  0  0  0  0
   45.9420  -36.1670    9.8820 C   0  0  0  0  0
   45.1310  -37.2610    9.9720 O   0  0  0  0  0
   43.7770  -37.2890   10.0880 C   0  0  0  0  0
   42.9300  -36.1960    9.8780 C   0  0  0  0  0
   41.5670  -36.3620   10.0140 C   0  0  0  0  0
   41.0350  -37.6370   10.3540 C   0  0  0  0  0
   39.7500  -38.0590   10.5390 N   0  0  0  0  0
   39.5360  -39.2990   10.8620 C   0  0  0  0  0
   38.2980  -39.9460   11.0440 N   0  0  0  0  0
   38.1850  -41.2760   11.3690 C   0  0  0  0  0
   39.1630  -41.9490   11.5730 O   0  0  0  0  0
   36.8930  -42.0470   11.5200 C   0  0  0  0  0
   36.1340  -42.0180   12.8450 C   0  0  0  0  0
   35.5640  -41.3070   11.6150 C   0  0  0  0  0
   41.0940  -40.1030   10.9430 S   0  0  0  0  0
   41.9700  -38.6530   10.5360 C   0  0  0  0  0
   43.2730  -38.4580   10.4050 N   0  0  0  0  0
   46.5990  -35.8730    8.6830 C   0  0  0  0  0
   47.4460  -34.7640    8.5990 C   0  0  0  0  0
   48.1410  -34.3850    7.4350 N   0  0  0  0  0
   47.8050  -34.6940    6.1620 C   0  0  0  0  0
   46.8380  -35.3890    5.9230 O   0  0  0  0  0
   48.6430  -34.2430    5.0290 C   0  0  0  0  0
   50.0310  -34.3910    5.1130 C   0  0  0  0  0
   50.8470  -34.0020    4.0680 C   0  0  0  0  0
   50.2940  -33.4620    2.9190 C   0  0  0  0  0
   48.9180  -33.3120    2.8070 C   0  0  0  0  0
   48.0910  -33.7000    3.8560 C   0  0  0  0  0
   46.3770  -33.4980    3.6810 Cl  0  0  0  0  0
   48.3160  -32.7310    1.5430 C   0  0  0  0  0
   48.9200  -33.1160    0.1900 C   0  0  0  0  0
   47.5650  -33.6860    0.6110 C   0  0  0  0  0
   47.7540  -31.3850    1.6720 C   0  0  0  0  0
   47.3310  -30.3360    1.7710 N   0  0  0  0  0
   47.1622  -33.6609   11.8023 H   0  0  0  0  0
   45.6754  -35.6316   11.9524 H   0  0  0  0  0
   43.3423  -35.2233    9.6097 H   0  0  0  0  0
   40.8973  -35.5157    9.8608 H   0  0  0  0  0
   37.4439  -39.4004   10.9289 H   0  0  0  0  0
   37.2913  -42.8322   10.8775 H   0  0  0  0  0
   36.3290  -41.8067   13.8964 H   0  0  0  0  0
   35.8032  -42.7149   13.6151 H   0  0  0  0  0
   34.6221  -41.2448   11.0700 H   0  0  0  0  0
   35.1496  -40.3337   11.3522 H   0  0  0  0  0
   46.4502  -36.5104    7.8114 H   0  0  0  0  0
   48.9813  -33.8215    7.5645 H   0  0  0  0  0
   50.4741  -34.8179    6.0127 H   0  0  0  0  0
   51.9276  -34.1204    4.1482 H   0  0  0  0  0
   50.9418  -33.1532    2.0986 H   0  0  0  0  0
   49.8689  -33.4745   -0.2089 H   0  0  0  0  0
   49.3670  -32.6253   -0.6746 H   0  0  0  0  0
   46.5639  -33.8046    0.1965 H   0  0  0  0  0
   47.0656  -34.6535    0.6621 H   0  0  0  0  0
  1  2  1  0  0  0
  2  3  4  0  0  0
  2 23  4  0  0  0
  3  4  4  0  0  0
  4  5  4  0  0  0
  5  6  1  0  0  0
  5 22  4  0  0  0
  6  7  1  0  0  0
  7  8  4  0  0  0
  7 21  4  0  0  0
  8  9  4  0  0  0
  9 10  4  0  0  0
 10 11  4  0  0  0
 10 20  4  0  0  0
 11 12  4  0  0  0
 12 13  1  0  0  0
 12 19  4  0  0  0
 13 14  1  0  0  0
 14 15  2  0  0  0
 14 16  1  0  0  0
 16 17  1  0  0  0
 16 18  1  0  0  0
 17 18  1  0  0  0
 19 20  4  0  0  0
 20 21  4  0  0  0
 22 23  4  0  0  0
 23 24  1  0  0  0
 24 25  1  0  0  0
 25 26  2  0  0  0
 25 27  1  0  0  0
 27 28  4  0  0  0
 27 32  4  0  0  0
 28 29  4  0  0  0
 29 30  4  0  0  0
 30 31  4  0  0  0
 31 32  4  0  0  0
 31 34  1  0  0  0
 32 33  1  0  0  0
 34 35  1  0  0  0
 34 36  1  0  0  0
 34 37  1  0  0  0
 35 36  1  0  0  0
 37 38  3  0  0  0
  3 39  1  0  0  0
  4 40  1  0  0  0
  8 41  1  0  0  0
  9 42  1  0  0  0
 13 43  1  0  0  0
 16 44  1  0  0  0
 17 45  1  0  0  0
 17 46  1  0  0  0
 18 47  1  0  0  0
 18 48  1  0  0  0
 22 49  1  0  0  0
 24 50  1  0  0  0
 28 51  1  0  0  0
 29 52  1  0  0  0
 30 53  1  0  0  0
 35 54  1  0  0  0
 35 55  1  0  0  0
 36 56  1  0  0  0
 36 57  1  0  0  0
M  END
$$$$
