4n1t_ligand
  -I-interpret- 

 27 28  0  0  0  0  0  0  0  0999 V2000
   16.2810  -10.7210    2.6500 C   0  0  0  0  0
   17.4760  -13.1170    5.7870 N   0  0  0  0  0
   17.0860  -12.2500    4.7540 C   0  0  0  0  0
   15.7540  -12.1010    4.4600 N   0  0  0  0  0
   15.3470  -11.2810    3.4220 C   0  0  0  0  0
   13.8890  -11.2650    3.1270 C   0  0  0  0  0
   13.4250  -11.6570    1.9000 C   0  0  0  0  0
   12.0300  -11.7020    1.6790 C   0  0  0  0  0
   11.1680  -11.3390    2.6560 C   0  0  0  0  0
   11.6610  -10.9470    3.8460 C   0  0  0  0  0
   10.6300  -10.5160    5.1210 Cl  0  0  0  0  0
   13.0310  -10.9050    4.0990 C   0  0  0  0  0
   13.5790  -10.3550    5.6010 Cl  0  0  0  0  0
   17.6680  -10.8520    3.0430 C   0  0  0  0  0
   18.6820  -10.2420    2.2580 N   0  0  0  0  0
   18.3850   -9.4420    1.0840 C   0  0  0  0  0
   18.0250  -11.5950    4.0700 N   0  0  0  0  0
   16.0059  -10.1783    1.7456 H   0  0  0  0  0
   16.7708  -13.6319    6.3142 H   0  0  0  0  0
   18.4646  -13.2320    6.0103 H   0  0  0  0  0
   14.1205  -11.9300    1.1063 H   0  0  0  0  0
   11.6457  -12.0318    0.7138 H   0  0  0  0  0
   10.0921  -11.3634    2.4829 H   0  0  0  0  0
   19.6566  -10.3710    2.5297 H   0  0  0  0  0
   17.8536  -10.0531    0.3544 H   0  0  0  0  0
   17.7632   -8.5941    1.3715 H   0  0  0  0  0
   19.3159   -9.0801    0.6475 H   0  0  0  0  0
  5  1  4  0  0  0
  1 14  4  0  0  0
  3  2  1  0  0  0
  4  3  4  0  0  0
  3 17  4  0  0  0
  4  5  4  0  0  0
  5  6  1  0  0  0
  6  7  4  0  0  0
  6 12  4  0  0  0
  7  8  4  0  0  0
  8  9  4  0  0  0
  9 10  4  0  0  0
 10 11  1  0  0  0
 10 12  4  0  0  0
 12 13  1  0  0  0
 14 15  1  0  0  0
 14 17  4  0  0  0
 15 16  1  0  0  0
  1 18  1  0  0  0
  2 19  1  0  0  0
  2 20  1  0  0  0
  7 21  1  0  0  0
  8 22  1  0  0  0
  9 23  1  0  0  0
 15 24  1  0  0  0
 16 25  1  0  0  0
 16 26  1  0  0  0
 16 27  1  0  0  0
M  END
$$$$
