6q9q_ligand
  -I-interpret- 

 90 96  0  0  0  0  0  0  0  0999 V2000
   38.5070    1.6220   16.3510 C   0  0  0  0  0
   38.2300    1.0330   17.5870 C   0  0  0  0  0
   40.5310   -2.3180   14.4560 C   0  0  0  0  0
   41.1450   -1.6790   15.5380 C   0  0  0  0  0
   40.8170   -2.0190   16.8540 C   0  0  0  0  0
   39.8690   -3.0170   17.0940 C   0  0  0  0  0
   36.2660   -3.1620   19.0610 C   0  0  0  0  0
   34.9490   -5.2470   19.3730 C   0  0  0  0  0
   34.3840   -6.2890   18.3720 C   0  0  0  0  0
   33.1790   -6.3470   16.1630 C   0  0  0  0  0
   37.6170   -0.2760   15.1150 C   0  0  0  0  0
   38.2070    0.9900   15.1280 C   0  0  0  0  0
   36.2920   -3.1760   15.8340 C   0  0  0  0  0
   36.3770   -5.0050   14.7100 C   0  0  0  0  0
   35.2430   -3.1450   14.9780 C   0  0  0  0  0
   34.1250   -2.1630   14.7180 C   0  0  0  0  0
   33.6430   -1.2860   15.7090 C   0  0  0  0  0
   32.5920   -0.3980   15.4110 C   0  0  0  0  0
   32.0300   -0.4030   14.1290 C   0  0  0  0  0
   32.5070   -1.2750   13.1400 C   0  0  0  0  0
   33.5510   -2.1540   13.4350 C   0  0  0  0  0
   39.2430    3.1950   16.3550 Cl  0  0  0  0  0
   37.6420   -0.2280   17.5480 C   0  0  0  0  0
   37.2840   -1.0040   18.5740 N   0  0  0  0  0
   36.7510   -2.1190   18.1540 C   0  0  0  0  0
   36.7210   -2.1460   16.8020 C   0  0  0  0  0
   37.3450   -0.8570   16.3520 C   0  0  0  0  0
   36.9610   -4.3160   15.6490 N   0  0  0  0  0
   35.3730   -4.3910   14.2900 N   0  0  0  0  0
   38.1970   -4.7340   16.3430 C   0  0  0  0  0
   38.6020   -6.2110   16.0620 C   0  0  0  0  0
   39.2520   -3.6680   16.0160 C   0  0  0  0  0
   39.5790   -3.3070   14.6990 C   0  0  0  0  0
   42.3340   -0.4380   15.2540 Cl  0  0  0  0  0
   36.6090   -3.0550   20.2330 O   0  0  0  0  0
   35.4850   -4.1500   18.5750 N   0  0  0  0  0
   33.3600   -5.6720   17.4790 N   0  3  0  0  0
   32.1500   -5.6250   15.2460 C   0  0  0  0  0
   30.8990   -5.2580   15.9760 N   0  3  0  0  0
   31.1790   -4.5910   17.2700 C   0  0  0  0  0
   32.0580   -5.4870   18.1600 C   0  0  0  0  0
   29.7460   -4.5630   15.3120 C   0  0  0  0  0
   30.1880   -3.8090   14.0200 C   0  0  0  0  0
   29.0650   -2.8440   13.5420 C   0  0  0  0  0
   27.6910   -3.5600   13.3820 C   0  0  0  0  0
   27.3250   -4.4800   14.5830 C   0  0  0  0  0
   28.4920   -5.4300   14.9730 C   0  0  0  0  0
   38.4611    1.5322   18.5280 H   0  0  0  0  0
   40.7940   -2.0457   13.4338 H   0  0  0  0  0
   41.2982   -1.5083   17.6881 H   0  0  0  0  0
   39.6095   -3.2890   18.1171 H   0  0  0  0  0
   35.7250   -5.6888   19.9981 H   0  0  0  0  0
   34.1694   -4.8929   20.0475 H   0  0  0  0  0
   33.9161   -7.0967   18.9349 H   0  0  0  0  0
   35.2029   -6.6641   17.7582 H   0  0  0  0  0
   32.8050   -7.3528   16.3543 H   0  0  0  0  0
   34.1415   -6.3408   15.6514 H   0  0  0  0  0
   37.3804   -0.7856   14.1810 H   0  0  0  0  0
   38.4364    1.4913   14.1877 H   0  0  0  0  0
   36.7147   -5.9748   14.3444 H   0  0  0  0  0
   34.0834   -1.2948   16.7060 H   0  0  0  0  0
   32.2191    0.2875   16.1720 H   0  0  0  0  0
   31.2120    0.2790   13.8968 H   0  0  0  0  0
   32.0642   -1.2667   12.1440 H   0  0  0  0  0
   33.9217   -2.8347   12.6686 H   0  0  0  0  0
   38.0580   -4.7700   17.4235 H   0  0  0  0  0
   37.8028   -6.8746   16.3921 H   0  0  0  0  0
   38.7680   -6.3438   14.9929 H   0  0  0  0  0
   39.5178   -6.4449   16.6050 H   0  0  0  0  0
   39.0861   -3.8025   13.8626 H   0  0  0  0  0
   35.2539   -4.1279   17.5818 H   0  0  0  0  0
   33.7491   -4.7544   17.2623 H   0  0  0  0  0
   31.8824   -6.3051   14.4373 H   0  0  0  0  0
   32.6094   -4.7069   14.8798 H   0  0  0  0  0
   30.5323   -6.2062   16.0585 H   0  0  0  0  0
   30.2355   -4.4009   17.7815 H   0  0  0  0  0
   31.7057   -3.6560   17.0794 H   0  0  0  0  0
   32.2055   -5.0212   19.1344 H   0  0  0  0  0
   31.5749   -6.4514   18.3173 H   0  0  0  0  0
   29.4248   -3.8719   16.0913 H   0  0  0  0  0
   30.3867   -4.5382   13.2346 H   0  0  0  0  0
   31.0849   -3.2290   14.2375 H   0  0  0  0  0
   29.3535   -2.4486   12.5681 H   0  0  0  0  0
   28.9513   -2.0623   14.2930 H   0  0  0  0  0
   27.7517   -4.1896   12.4943 H   0  0  0  0  0
   26.9251   -2.7872   13.3167 H   0  0  0  0  0
   26.4717   -5.0929   14.2926 H   0  0  0  0  0
   27.1037   -3.8452   15.4410 H   0  0  0  0  0
   28.2098   -6.0297   15.8383 H   0  0  0  0  0
   28.7173   -6.1015   14.1445 H   0  0  0  0  0
  2  1  4  0  0  0
 12  1  4  0  0  0
  1 22  1  0  0  0
 23  2  4  0  0  0
  4  3  4  0  0  0
  3 33  4  0  0  0
  5  4  4  0  0  0
  4 34  1  0  0  0
  6  5  4  0  0  0
 32  6  4  0  0  0
 25  7  1  0  0  0
  7 35  2  0  0  0
  7 36  1  0  0  0
  8  9  1  0  0  0
 36  8  1  0  0  0
  9 37  1  0  0  0
 37 10  1  0  0  0
 10 38  1  0  0  0
 11 12  4  0  0  0
 27 11  4  0  0  0
 13 15  4  0  0  0
 13 26  1  0  0  0
 28 13  4  0  0  0
 28 14  4  0  0  0
 14 29  4  0  0  0
 15 16  1  0  0  0
 29 15  4  0  0  0
 16 17  4  0  0  0
 16 21  4  0  0  0
 17 18  4  0  0  0
 18 19  4  0  0  0
 20 19  4  0  0  0
 21 20  4  0  0  0
 23 24  4  0  0  0
 27 23  4  0  0  0
 25 24  4  0  0  0
 26 25  4  0  0  0
 26 27  4  0  0  0
 30 28  1  0  0  0
 30 31  1  0  0  0
 30 32  1  0  0  0
 32 33  4  0  0  0
 37 41  1  0  0  0
 38 39  1  0  0  0
 39 40  1  0  0  0
 39 42  1  0  0  0
 40 41  1  0  0  0
 42 43  1  0  0  0
 42 47  1  0  0  0
 43 44  1  0  0  0
 44 45  1  0  0  0
 45 46  1  0  0  0
 46 47  1  0  0  0
  2 48  1  0  0  0
  3 49  1  0  0  0
  5 50  1  0  0  0
  6 51  1  0  0  0
  8 52  1  0  0  0
  8 53  1  0  0  0
  9 54  1  0  0  0
  9 55  1  0  0  0
 10 56  1  0  0  0
 10 57  1  0  0  0
 11 58  1  0  0  0
 12 59  1  0  0  0
 14 60  1  0  0  0
 17 61  1  0  0  0
 18 62  1  0  0  0
 19 63  1  0  0  0
 20 64  1  0  0  0
 21 65  1  0  0  0
 30 66  1  0  0  0
 31 67  1  0  0  0
 31 68  1  0  0  0
 31 69  1  0  0  0
 33 70  1  0  0  0
 36 71  1  0  0  0
 37 72  1  0  0  0
 38 73  1  0  0  0
 38 74  1  0  0  0
 39 75  1  0  0  0
 40 76  1  0  0  0
 40 77  1  0  0  0
 41 78  1  0  0  0
 41 79  1  0  0  0
 42 80  1  0  0  0
 43 81  1  0  0  0
 43 82  1  0  0  0
 44 83  1  0  0  0
 44 84  1  0  0  0
 45 85  1  0  0  0
 45 86  1  0  0  0
 46 87  1  0  0  0
 46 88  1  0  0  0
 47 89  1  0  0  0
 47 90  1  0  0  0
M  END
$$$$
