5eng_ligand
  -I-interpret- 

 67 69  0  0  0  0  0  0  0  0999 V2000
   34.0850    0.0050   80.7710 C   0  0  0  0  0
   31.1050    0.2300   83.6550 C   0  0  0  0  0
   29.5860   -0.0860   84.0680 C   0  0  0  0  0
   28.5510    1.8040   83.6290 C   0  0  0  0  0
   27.9830    0.2890   85.4620 C   0  0  0  0  0
   33.9600    1.2150   74.0860 C   0  0  0  0  0
   35.3910    1.6160   74.2380 C   0  0  0  0  0
   35.6040    1.6350   75.6510 O   0  0  0  0  0
   36.9260    1.7280   76.0950 C   0  0  0  0  0
   38.0230    1.8960   75.2580 C   0  0  0  0  0
   39.2820    1.9530   75.7970 C   0  0  0  0  0
   39.4500    1.8620   77.1680 C   0  0  0  0  0
   40.8870    1.9970   77.6880 C   0  0  0  0  0
   41.1350    1.9870   79.2050 C   0  0  0  0  0
   41.7520    2.1260   76.9360 O   0  0  0  0  0
   38.3390    1.7240   78.0030 C   0  0  0  0  0
   37.0930    1.6370   77.4350 C   0  0  0  0  0
   35.9180    1.5960   78.2350 N   0  0  0  0  0
   35.6770    0.8050   79.2590 C   0  0  0  0  0
   36.5000    0.0540   79.5890 O   0  0  0  0  0
   34.4330    1.0770   80.0490 C   0  0  0  0  0
   33.0420    0.1550   81.6300 C   0  0  0  0  0
   32.4030    1.3240   81.8330 C   0  0  0  0  0
   31.3210    1.4050   82.7950 O   0  0  0  0  0
   28.9210    0.8370   84.5710 N   0  3  0  0  0
   27.0690    1.7260   83.2050 C   0  0  0  0  0
   26.1170    1.3570   84.1810 N   0  3  0  0  0
   26.5730    0.9170   85.4320 C   0  0  0  0  0
   32.7710    2.4690   81.1400 C   0  0  0  0  0
   32.0510    3.8250   81.3590 C   0  0  0  0  0
   30.9830    3.9880   81.9460 O   0  0  0  0  0
   32.7640    4.9820   80.9400 O   0  0  0  0  0
   32.0870    6.2030   80.8610 C   0  0  0  0  0
   33.8370    2.3180   80.2360 C   0  0  0  0  0
   34.6130   -0.9437   80.6748 H   0  0  0  0  0
   31.4471   -0.6311   83.0810 H   0  0  0  0  0
   31.6342    0.4356   84.5855 H   0  0  0  0  0
   29.6464   -0.8556   84.8375 H   0  0  0  0  0
   29.0771   -0.3397   83.1381 H   0  0  0  0  0
   29.1536    1.6355   82.7365 H   0  0  0  0  0
   28.7069    2.7806   84.0874 H   0  0  0  0  0
   28.3745    0.4640   86.4641 H   0  0  0  0  0
   27.8593   -0.7545   85.1723 H   0  0  0  0  0
   33.8094    0.2334   74.5353 H   0  0  0  0  0
   33.3241    1.9460   74.5854 H   0  0  0  0  0
   33.7060    1.1740   73.0268 H   0  0  0  0  0
   35.5973    2.5828   73.7788 H   0  0  0  0  0
   36.0664    0.9273   73.7304 H   0  0  0  0  0
   37.8830    1.9818   74.1804 H   0  0  0  0  0
   40.1493    2.0698   75.1472 H   0  0  0  0  0
   41.8076    1.1669   79.4565 H   0  0  0  0  0
   41.5858    2.9332   79.5044 H   0  0  0  0  0
   40.1869    1.8538   79.7260 H   0  0  0  0  0
   38.4595    1.6861   79.0857 H   0  0  0  0  0
   35.1787    2.2537   77.9873 H   0  0  0  0  0
   32.7036   -0.7194   82.1858 H   0  0  0  0  0
   29.4680    1.4445   85.1811 H   0  0  0  0  0
   27.0260    0.9419   82.4491 H   0  0  0  0  0
   26.8000    2.7398   82.9083 H   0  0  0  0  0
   25.6237    0.5583   83.7822 H   0  0  0  0  0
   25.5912    2.2093   84.3747 H   0  0  0  0  0
   26.6206    1.8018   86.0668 H   0  0  0  0  0
   25.8843    0.1336   85.7484 H   0  0  0  0  0
   31.2644    6.1156   80.1513 H   0  0  0  0  0
   31.6944    6.4636   81.8439 H   0  0  0  0  0
   32.7764    6.9782   80.5265 H   0  0  0  0  0
   34.1987    3.1813   79.6774 H   0  0  0  0  0
  1 21  4  0  0  0
 22  1  4  0  0  0
  2  3  1  0  0  0
 24  2  1  0  0  0
  3 25  1  0  0  0
 25  4  1  0  0  0
  4 26  1  0  0  0
 25  5  1  0  0  0
  5 28  1  0  0  0
  7  6  1  0  0  0
  8  7  1  0  0  0
  9  8  1  0  0  0
  9 10  4  0  0  0
 17  9  4  0  0  0
 10 11  4  0  0  0
 12 11  4  0  0  0
 12 13  1  0  0  0
 16 12  4  0  0  0
 13 14  1  0  0  0
 13 15  2  0  0  0
 17 16  4  0  0  0
 18 17  1  0  0  0
 19 18  1  0  0  0
 19 20  2  0  0  0
 21 19  1  0  0  0
 21 34  4  0  0  0
 23 22  4  0  0  0
 23 24  1  0  0  0
 23 29  4  0  0  0
 26 27  1  0  0  0
 27 28  1  0  0  0
 29 30  1  0  0  0
 29 34  4  0  0  0
 30 31  2  0  0  0
 30 32  1  0  0  0
 32 33  1  0  0  0
  1 35  1  0  0  0
  2 36  1  0  0  0
  2 37  1  0  0  0
  3 38  1  0  0  0
  3 39  1  0  0  0
  4 40  1  0  0  0
  4 41  1  0  0  0
  5 42  1  0  0  0
  5 43  1  0  0  0
  6 44  1  0  0  0
  6 45  1  0  0  0
  6 46  1  0  0  0
  7 47  1  0  0  0
  7 48  1  0  0  0
 10 49  1  0  0  0
 11 50  1  0  0  0
 14 51  1  0  0  0
 14 52  1  0  0  0
 14 53  1  0  0  0
 16 54  1  0  0  0
 18 55  1  0  0  0
 22 56  1  0  0  0
 25 57  1  0  0  0
 26 58  1  0  0  0
 26 59  1  0  0  0
 27 60  1  0  0  0
 27 61  1  0  0  0
 28 62  1  0  0  0
 28 63  1  0  0  0
 33 64  1  0  0  0
 33 65  1  0  0  0
 33 66  1  0  0  0
 34 67  1  0  0  0
M  END
$$$$
