### 
### Created by X-TOOL on Mon Sep 10 21:13:01 2018
### 

@<TRIPOS>MOLECULE
3gl6_ligand
  147   146     1     0     0
SMALL
GAST_HUCK


@<TRIPOS>ATOM
      1 N          -7.1190  -23.7610   -8.9400 N.4       1 ALA         0.2377
      2 CA         -7.2290  -22.3730   -8.4080 C.3       1 ALA         0.0621
      3 C          -7.0980  -22.3810   -6.8880 C.2       1 ALA         0.2264
      4 O          -7.1630  -23.4350   -6.2590 O.2       1 ALA        -0.3907
      5 CB         -8.5770  -21.7730   -8.8150 C.3       1 ALA        -0.0040
      6 N          -6.9080  -21.2030   -6.3020 N.am      1 ARG        -0.2610
      7 CA         -6.7940  -21.0920   -4.8550 C.3       1 ARG         0.1312
      8 C          -8.1720  -21.3340   -4.2480 C.2       1 ARG         0.2040
      9 O          -9.1610  -20.7420   -4.6780 O.2       1 ARG        -0.3944
     10 CB         -6.2710  -19.7040   -4.4740 C.3       1 ARG        -0.0092
     11 CG         -4.8380  -19.4500   -4.9460 C.3       1 ARG        -0.0156
     12 CD         -4.4710  -17.9730   -4.8910 C.3       1 ARG         0.0627
     13 NE         -5.2920  -17.1730   -5.7980 N.pl3     1 ARG        -0.2723
     14 CZ         -5.1510  -15.8630   -5.9770 C.cat     1 ARG         0.2882
     15 NH1        -4.2150  -15.1960   -5.3130 N.pl3     1 ARG        -0.2849
     16 NH2        -5.9470  -15.2170   -6.8180 N.pl3     1 ARG        -0.2849
     17 N          -8.2330  -22.2200   -3.2600 N.am      1 THR        -0.2613
     18 CA         -9.4930  -22.5460   -2.6090 C.3       1 THR         0.1565
     19 C          -9.3520  -22.5340   -1.0940 C.2       1 THR         0.2065
     20 O          -8.2470  -22.4680   -0.5590 O.2       1 THR        -0.3943
     21 CB         -9.9880  -23.9470   -3.0150 C.3       1 THR         0.0924
     22 OG1        -9.0590  -24.9340   -2.5490 O.3       1 THR        -0.3874
     23 CG2       -10.1140  -24.0540   -4.5310 C.3       1 THR        -0.0346
     24 N         -10.4860  -22.5930   -0.4100 N.am      1 M3L        -0.2637
     25 CA        -10.5020  -22.6210    1.0430 C.3       1 M3L         0.1310
     26 CB        -10.2330  -21.2290    1.6280 C.3       1 M3L        -0.0122
     27 CG        -11.3410  -20.2080    1.3840 C.3       1 M3L        -0.0440
     28 CD        -11.1110  -18.9260    2.1850 C.3       1 M3L        -0.0123
     29 CE        -12.1560  -17.8630    1.8490 C.3       1 M3L        -0.0309
     30 NZ        -12.0030  -16.6020    2.6160 N.4       1 M3L         0.2369
     31 C         -11.8700  -23.1010    1.4910 C.2       1 M3L         0.2039
     32 O         -12.8310  -23.0910    0.7170 O.2       1 M3L        -0.3944
     33 CM1       -13.0120  -15.6410    2.1440 C.3       1 M3L        -0.0418
     34 CM2       -10.6780  -15.9880    2.4260 C.3       1 M3L        -0.0418
     35 CM3       -12.2260  -16.7620    4.0570 C.3       1 M3L        -0.0418
     36 N         -11.9430  -23.5320    2.7430 N.am      1 GLN        -0.2636
     37 CA        -13.1890  -23.9960    3.3290 C.3       1 GLN         0.1330
     38 C         -13.3990  -23.2690    4.6450 C.2       1 GLN         0.2041
     39 O         -12.4460  -23.0480    5.3920 O.2       1 GLN        -0.3944
     40 CB        -13.1380  -25.4980    3.6150 C.3       1 GLN         0.0045
     41 CG        -13.4230  -26.3910    2.4330 C.3       1 GLN         0.0412
     42 CD        -13.6540  -27.8330    2.8550 C.2       1 GLN         0.1737
     43 OE1       -14.1850  -28.6370    2.0900 O.2       1 GLN        -0.3973
     44 NE2       -13.2500  -28.1660    4.0770 N.am      1 GLN        -0.3009
     45 N         -14.6400  -22.8820    4.9140 N.am      1 THR        -0.2613
     46 CA        -14.9750  -22.2230    6.1670 C.3       1 THR         0.1565
     47 C         -16.1260  -23.0110    6.7880 C.2       1 THR         0.2065
     48 O         -16.6320  -23.9560    6.1840 O.2       1 THR        -0.3943
     49 CB        -15.3730  -20.7470    5.9620 C.3       1 THR         0.0924
     50 OG1       -16.4540  -20.6600    5.0300 O.3       1 THR        -0.3874
     51 CG2       -14.1790  -19.9440    5.4440 C.3       1 THR        -0.0346
     52 N         -16.5480  -22.6130    7.9810 N.am      1 ALA        -0.2639
     53 CA        -17.5970  -23.3270    8.7060 C.3       1 ALA         0.1282
     54 C         -19.0750  -23.1720    8.3190 C.2       1 ALA         0.2037
     55 O         -19.5840  -22.0630    8.1460 O.2       1 ALA        -0.3944
     56 CB        -17.4400  -23.0470   10.1870 C.3       1 ALA        -0.0244
     57 N         -19.7350  -24.3270    8.2100 N.am      1 ARG        -0.2650
     58 CA        -21.1630  -24.4870    7.9140 C.3       1 ARG         0.1129
     59 C         -21.7740  -23.9500    6.6250 C.2       1 ARG         0.1245
     60 O         -22.9370  -23.4880    6.6670 O.2       1 ARG        -0.3725
     61 CB        -21.9640  -23.9790    9.1090 C.3       1 ARG        -0.0105
     62 CG        -21.9150  -24.9340   10.2890 C.3       1 ARG        -0.0155
     63 CD        -21.8640  -24.1930   11.6070 C.3       1 ARG         0.0627
     64 NE        -20.5470  -23.6120   11.8640 N.pl3     1 ARG        -0.2723
     65 CZ        -19.5960  -24.1990   12.5850 C.cat     1 ARG         0.2882
     66 NH1       -19.8100  -25.3900   13.1280 N.pl3     1 ARG        -0.2849
     67 NH2       -18.4330  -23.5910   12.7760 N.pl3     1 ARG        -0.2849
     68 H1         -7.2069  -23.7439   -9.9440 H         1 ALA         0.2015
     69 H2         -7.8529  -24.3302   -8.5482 H         1 ALA         0.2015
     70 H3         -6.2229  -24.1475   -8.6877 H         1 ALA         0.2015
     71 H4         -6.4202  -21.7605   -8.8331 H         1 ALA         0.1095
     72 H5         -8.6562  -20.7488   -8.4215 H         1 ALA         0.0310
     73 H6         -9.3912  -22.3878   -8.4037 H         1 ALA         0.0310
     74 H7         -8.6523  -21.7511   -9.9122 H         1 ALA         0.0310
     75 H8         -6.8423  -20.3790   -6.8648 H         1 ARG         0.1884
     76 H9         -6.0928  -21.8533   -4.4827 H         1 ARG         0.0800
     77 H10        -6.3006  -19.6077   -3.3786 H         1 ARG         0.0313
     78 H11        -6.9277  -18.9465   -4.9266 H         1 ARG         0.0313
     79 H12        -4.7384  -19.8019   -5.9834 H         1 ARG         0.0301
     80 H13        -4.1469  -20.0116   -4.3003 H         1 ARG         0.0301
     81 H14        -3.4141  -17.8584   -5.1736 H         1 ARG         0.0689
     82 H15        -4.6175  -17.6082   -3.8637 H         1 ARG         0.0689
     83 H16        -6.0278  -17.6556   -6.3334 H         1 ARG         0.2642
     84 H17        -4.1080  -14.1813   -5.4536 H         1 ARG         0.2615
     85 H18        -3.5957  -15.6932   -4.6571 H         1 ARG         0.2615
     86 H19        -6.6748  -15.7303   -7.3355 H         1 ARG         0.2615
     87 H20        -5.8376  -14.2019   -6.9538 H         1 ARG         0.2615
     88 H21        -7.3945  -22.6729   -2.9569 H         1 THR         0.1884
     89 H22       -10.2419  -21.7979   -2.9080 H         1 THR         0.0826
     90 H23       -10.9721  -24.1273   -2.5578 H         1 THR         0.0639
     91 H24        -9.3644  -25.7980   -2.7995 H         1 THR         0.2101
     92 H25       -10.4682  -25.0603   -4.7993 H         1 THR         0.0257
     93 H26        -9.1324  -23.8752   -4.9941 H         1 THR         0.0257
     94 H27       -10.8324  -23.3038   -4.8931 H         1 THR         0.0257
     95 H28       -11.3534  -22.6189   -0.9069 H         1 M3L         0.1883
     96 H29        -9.7295  -23.3169    1.4020 H         1 M3L         0.0800
     97 H30        -9.3062  -20.8422    1.1791 H         1 M3L         0.0312
     98 H31       -10.0980  -21.3345    2.7146 H         1 M3L         0.0312
     99 H32       -12.3039  -20.6478    1.6829 H         1 M3L         0.0269
    100 H33       -11.3681  -19.9596    0.3128 H         1 M3L         0.0269
    101 H34       -10.1113  -18.5318    1.9500 H         1 M3L         0.0317
    102 H35       -11.1703  -19.1592    3.2583 H         1 M3L         0.0317
    103 H36       -13.1523  -18.2781    2.0613 H         1 M3L         0.0815
    104 H37       -12.0776  -17.6276    0.7774 H         1 M3L         0.0815
    105 H38       -12.9116  -14.6994    2.7037 H         1 M3L         0.0778
    106 H39       -14.0177  -16.0570    2.3038 H         1 M3L         0.0778
    107 H40       -12.8611  -15.4479    1.0716 H         1 M3L         0.0778
    108 H41        -9.8987  -16.6837    2.7705 H         1 M3L         0.0778
    109 H42       -10.6194  -15.0554    3.0063 H         1 M3L         0.0778
    110 H43       -10.5261  -15.7663    1.3593 H         1 M3L         0.0778
    111 H44       -13.2116  -17.2199    4.2269 H         1 M3L         0.0778
    112 H45       -12.1903  -15.7769    4.5452 H         1 M3L         0.0778
    113 H46       -11.4434  -17.4092    4.4795 H         1 M3L         0.0778
    114 H47       -11.1137  -23.5379    3.3018 H         1 GLN         0.1883
    115 H48       -14.0205  -23.7807    2.6418 H         1 GLN         0.0801
    116 H49       -13.8806  -25.7205    4.3954 H         1 GLN         0.0337
    117 H50       -12.1314  -25.7387    3.9874 H         1 GLN         0.0337
    118 H51       -12.5655  -26.3548    1.7450 H         1 GLN         0.0504
    119 H52       -14.3224  -26.0228    1.9177 H         1 GLN         0.0504
    120 H53       -13.3765  -29.1011    4.4080 H         1 GLN         0.1814
    121 H54       -12.8196  -27.4814    4.6652 H         1 GLN         0.1814
    122 H55       -15.3605  -23.0471    4.2405 H         1 THR         0.1884
    123 H56       -14.1035  -22.2576    6.8372 H         1 THR         0.0826
    124 H57       -15.6954  -20.3268    6.9261 H         1 THR         0.0639
    125 H58       -16.6936  -19.7487    4.9088 H         1 THR         0.2101
    126 H59       -14.4766  -18.8945    5.3025 H         1 THR         0.0257
    127 H60       -13.8443  -20.3629    4.4835 H         1 THR         0.0257
    128 H61       -13.3573  -19.9969    6.1734 H         1 THR         0.0257
    129 H62       -16.1367  -21.8014    8.3960 H         1 ALA         0.1883
    130 H63       -17.3749  -24.3928    8.5488 H         1 ALA         0.0797
    131 H64       -18.2241  -23.5789   10.7458 H         1 ALA         0.0277
    132 H65       -17.5306  -21.9657   10.3674 H         1 ALA         0.0277
    133 H66       -16.4514  -23.3933   10.5229 H         1 ALA         0.0277
    134 H67       -19.2048  -25.1644    8.3430 H         1 ARG         0.1884
    135 H68       -21.3170  -25.5748    7.8599 H         1 ARG         0.0790
    136 H69       -21.2134  -23.9677    5.6915 H         1 ARG         0.1373
    137 H70       -23.0125  -23.8505    8.8022 H         1 ARG         0.0314
    138 H71       -21.5523  -23.0085    9.4231 H         1 ARG         0.0314
    139 H72       -21.0184  -25.5650   10.1999 H         1 ARG         0.0301
    140 H73       -22.8133  -25.5687   10.2715 H         1 ARG         0.0301
    141 H74       -22.1053  -24.8958   12.4180 H         1 ARG         0.0689
    142 H75       -22.6100  -23.3848   11.5880 H         1 ARG         0.0689
    143 H76       -20.3423  -22.6870   11.4599 H         1 ARG         0.2642
    144 H77       -19.0714  -25.8419   13.6858 H         1 ARG         0.2615
    145 H78       -20.7148  -25.8630   12.9919 H         1 ARG         0.2615
    146 H79       -18.2605  -22.6660   12.3571 H         1 ARG         0.2615
    147 H80       -17.7022  -24.0438   13.3433 H         1 ARG         0.2615
@<TRIPOS>BOND
     1    1    2 1  
     2    2    3 1  
     3    2    5 1  
     4    3    4 2  
     5    3    6 am 
     6    6    7 1  
     7    7    8 1  
     8    7   10 1  
     9    8    9 2  
    10    8   17 am 
    11   10   11 1  
    12   11   12 1  
    13   12   13 1  
    14   13   14 ar 
    15   14   15 ar 
    16   14   16 ar 
    17   17   18 1  
    18   18   19 1  
    19   18   21 1  
    20   19   20 2  
    21   19   24 am 
    22   21   22 1  
    23   21   23 1  
    24   24   25 1  
    25   25   26 1  
    26   25   31 1  
    27   26   27 1  
    28   27   28 1  
    29   28   29 1  
    30   29   30 1  
    31   30   33 1  
    32   30   34 1  
    33   30   35 1  
    34   31   32 2  
    35   31   36 am 
    36   36   37 1  
    37   37   38 1  
    38   37   40 1  
    39   38   39 2  
    40   38   45 am 
    41   40   41 1  
    42   41   42 1  
    43   42   43 2  
    44   42   44 am 
    45   45   46 1  
    46   46   47 1  
    47   46   49 1  
    48   47   48 2  
    49   47   52 am 
    50   49   50 1  
    51   49   51 1  
    52   52   53 1  
    53   53   54 1  
    54   53   56 1  
    55   54   55 2  
    56   54   57 am 
    57   57   58 1  
    58   58   59 1  
    59   58   61 1  
    60   59   60 2  
    61   61   62 1  
    62   62   63 1  
    63   63   64 1  
    64   64   65 ar 
    65   65   66 ar 
    66   65   67 ar 
    67    1   68 1  
    68    1   69 1  
    69    1   70 1  
    70    2   71 1  
    71    5   72 1  
    72    5   73 1  
    73    5   74 1  
    74    6   75 1  
    75    7   76 1  
    76   10   77 1  
    77   10   78 1  
    78   11   79 1  
    79   11   80 1  
    80   12   81 1  
    81   12   82 1  
    82   13   83 1  
    83   15   84 1  
    84   15   85 1  
    85   16   86 1  
    86   16   87 1  
    87   17   88 1  
    88   18   89 1  
    89   21   90 1  
    90   22   91 1  
    91   23   92 1  
    92   23   93 1  
    93   23   94 1  
    94   24   95 1  
    95   25   96 1  
    96   26   97 1  
    97   26   98 1  
    98   27   99 1  
    99   27  100 1  
   100   28  101 1  
   101   28  102 1  
   102   29  103 1  
   103   29  104 1  
   104   33  105 1  
   105   33  106 1  
   106   33  107 1  
   107   34  108 1  
   108   34  109 1  
   109   34  110 1  
   110   35  111 1  
   111   35  112 1  
   112   35  113 1  
   113   36  114 1  
   114   37  115 1  
   115   40  116 1  
   116   40  117 1  
   117   41  118 1  
   118   41  119 1  
   119   44  120 1  
   120   44  121 1  
   121   45  122 1  
   122   46  123 1  
   123   49  124 1  
   124   50  125 1  
   125   51  126 1  
   126   51  127 1  
   127   51  128 1  
   128   52  129 1  
   129   53  130 1  
   130   56  131 1  
   131   56  132 1  
   132   56  133 1  
   133   57  134 1  
   134   58  135 1  
   135   59  136 1  
   136   61  137 1  
   137   61  138 1  
   138   62  139 1  
   139   62  140 1  
   140   63  141 1  
   141   63  142 1  
   142   64  143 1  
   143   66  144 1  
   144   66  145 1  
   145   67  146 1  
   146   67  147 1  
@<TRIPOS>SUBSTRUCTURE
     1 ALA         1

