3gl6_ligand
  -I-interpret- 

145144  0  0  0  0  0  0  0  0999 V2000
   -7.1190  -23.7610   -8.9400 N   0  3  0  0  0
   -7.2290  -22.3730   -8.4080 C   0  0  0  0  0
   -7.0980  -22.3810   -6.8880 C   0  0  0  0  0
   -7.1630  -23.4350   -6.2590 O   0  0  0  0  0
   -8.5770  -21.7730   -8.8150 C   0  0  0  0  0
   -6.9080  -21.2030   -6.3020 N   0  0  0  0  0
   -6.7940  -21.0920   -4.8550 C   0  0  0  0  0
   -8.1720  -21.3340   -4.2480 C   0  0  0  0  0
   -9.1610  -20.7420   -4.6780 O   0  0  0  0  0
   -6.2710  -19.7040   -4.4740 C   0  0  0  0  0
   -4.8380  -19.4500   -4.9460 C   0  0  0  0  0
   -4.4710  -17.9730   -4.8910 C   0  0  0  0  0
   -5.2920  -17.1730   -5.7980 N   0  0  0  0  0
   -5.1510  -15.8630   -5.9770 C   0  0  0  0  0
   -4.2150  -15.1960   -5.3130 N   0  0  0  0  0
   -5.9470  -15.2170   -6.8180 N   0  0  0  0  0
   -8.2330  -22.2200   -3.2600 N   0  0  0  0  0
   -9.4930  -22.5460   -2.6090 C   0  0  0  0  0
   -9.3520  -22.5340   -1.0940 C   0  0  0  0  0
   -8.2470  -22.4680   -0.5590 O   0  0  0  0  0
   -9.9880  -23.9470   -3.0150 C   0  0  0  0  0
   -9.0590  -24.9340   -2.5490 O   0  0  0  0  0
  -10.1140  -24.0540   -4.5310 C   0  0  0  0  0
  -10.4860  -22.5930   -0.4100 N   0  0  0  0  0
  -10.5020  -22.6210    1.0430 C   0  0  0  0  0
  -10.2330  -21.2290    1.6280 C   0  0  0  0  0
  -11.3410  -20.2080    1.3840 C   0  0  0  0  0
  -11.1110  -18.9260    2.1850 C   0  0  0  0  0
  -12.1560  -17.8630    1.8490 C   0  0  0  0  0
  -12.0030  -16.6020    2.6160 N   0  3  0  0  0
  -11.8700  -23.1010    1.4910 C   0  0  0  0  0
  -12.8310  -23.0910    0.7170 O   0  0  0  0  0
  -13.0120  -15.6410    2.1440 C   0  0  0  0  0
  -10.6780  -15.9880    2.4260 C   0  0  0  0  0
  -12.2260  -16.7620    4.0570 C   0  0  0  0  0
  -11.9430  -23.5320    2.7430 N   0  0  0  0  0
  -13.1890  -23.9960    3.3290 C   0  0  0  0  0
  -13.3990  -23.2690    4.6450 C   0  0  0  0  0
  -12.4460  -23.0480    5.3920 O   0  0  0  0  0
  -13.1380  -25.4980    3.6150 C   0  0  0  0  0
  -13.4230  -26.3910    2.4330 C   0  0  0  0  0
  -13.6540  -27.8330    2.8550 C   0  0  0  0  0
  -14.1850  -28.6370    2.0900 O   0  0  0  0  0
  -13.2500  -28.1660    4.0770 N   0  0  0  0  0
  -14.6400  -22.8820    4.9140 N   0  0  0  0  0
  -14.9750  -22.2230    6.1670 C   0  0  0  0  0
  -16.1260  -23.0110    6.7880 C   0  0  0  0  0
  -16.6320  -23.9560    6.1840 O   0  0  0  0  0
  -15.3730  -20.7470    5.9620 C   0  0  0  0  0
  -16.4540  -20.6600    5.0300 O   0  0  0  0  0
  -14.1790  -19.9440    5.4440 C   0  0  0  0  0
  -16.5480  -22.6130    7.9810 N   0  0  0  0  0
  -17.5970  -23.3270    8.7060 C   0  0  0  0  0
  -19.0750  -23.1720    8.3190 C   0  0  0  0  0
  -19.5840  -22.0630    8.1460 O   0  0  0  0  0
  -17.4400  -23.0470   10.1870 C   0  0  0  0  0
  -19.7350  -24.3270    8.2100 N   0  0  0  0  0
  -21.1630  -24.4870    7.9140 C   0  0  0  0  0
  -21.7740  -23.9500    6.6250 C   0  0  0  0  0
  -22.9370  -23.4880    6.6670 O   0  0  0  0  0
  -21.9640  -23.9790    9.1090 C   0  0  0  0  0
  -21.9150  -24.9340   10.2890 C   0  0  0  0  0
  -21.8640  -24.1930   11.6070 C   0  0  0  0  0
  -20.5470  -23.6120   11.8640 N   0  0  0  0  0
  -19.5960  -24.1990   12.5850 C   0  0  0  0  0
  -19.8100  -25.3900   13.1280 N   0  0  0  0  0
  -18.4330  -23.5910   12.7760 N   0  0  0  0  0
   -6.2199  -24.1581   -8.6673 H   0  0  0  0  0
   -7.8737  -24.3310   -8.5581 H   0  0  0  0  0
   -7.1883  -23.7404   -9.9574 H   0  0  0  0  0
   -6.4251  -21.7660   -8.8244 H   0  0  0  0  0
   -9.3828  -22.3704   -8.3885 H   0  0  0  0  0
   -8.6452  -20.7505   -8.4435 H   0  0  0  0  0
   -8.6596  -21.7723   -9.9019 H   0  0  0  0  0
   -6.8409  -20.3626   -6.8761 H   0  0  0  0  0
   -6.0894  -21.8307   -4.4730 H   0  0  0  0  0
   -6.2777  -19.6354   -3.3862 H   0  0  0  0  0
   -6.9130  -18.9656   -4.9544 H   0  0  0  0  0
   -4.7566  -19.7826   -5.9808 H   0  0  0  0  0
   -4.1612  -19.9936   -4.2868 H   0  0  0  0  0
   -3.4285  -17.8685   -5.1918 H   0  0  0  0  0
   -4.6386  -17.6169   -3.8745 H   0  0  0  0  0
   -6.0206  -17.6509   -6.3282 H   0  0  0  0  0
   -4.1104  -14.1908   -5.4507 H   0  0  0  0  0
   -3.6004  -15.6887   -4.6650 H   0  0  0  0  0
   -6.6690  -15.7250   -7.3289 H   0  0  0  0  0
   -7.3778  -22.6820   -2.9509 H   0  0  0  0  0
  -10.2070  -21.7867   -2.9281 H   0  0  0  0  0
  -10.9677  -24.1135   -2.5672 H   0  0  0  0  0
   -9.3676  -25.8071   -2.8021 H   0  0  0  0  0
  -10.8260  -23.3102   -4.8885 H   0  0  0  0  0
   -9.1407  -23.8766   -4.9886 H   0  0  0  0  0
  -10.4650  -25.0514   -4.7956 H   0  0  0  0  0
  -11.3708  -22.6194   -0.9169 H   0  0  0  0  0
   -9.7180  -23.2903    1.3972 H   0  0  0  0  0
   -9.3371  -20.8473    1.1383 H   0  0  0  0  0
  -10.1464  -21.3505    2.7077 H   0  0  0  0  0
  -12.2883  -20.6457    1.6990 H   0  0  0  0  0
  -11.3490  -19.9550    0.3238 H   0  0  0  0  0
  -10.1254  -18.5336    1.9344 H   0  0  0  0  0
  -11.1872  -19.1628    3.2462 H   0  0  0  0  0
  -13.1319  -18.2781    2.1009 H   0  0  0  0  0
  -12.0380  -17.6159    0.7940 H   0  0  0  0  0
  -12.8615  -15.4506    1.0814 H   0  0  0  0  0
  -14.0080  -16.0544    2.3028 H   0  0  0  0  0
  -12.9115  -14.7085    2.6993 H   0  0  0  0  0
   -9.9063  -16.6818    2.7594 H   0  0  0  0  0
  -10.5324  -15.7607    1.3700 H   0  0  0  0  0
  -10.6181  -15.0686    3.0085 H   0  0  0  0  0
  -13.2384  -17.1277    4.2283 H   0  0  0  0  0
  -11.5074  -17.4771    4.4574 H   0  0  0  0  0
  -12.0973  -15.7996    4.5523 H   0  0  0  0  0
  -11.0972  -23.5380    3.3130 H   0  0  0  0  0
  -13.9999  -23.7982    2.6280 H   0  0  0  0  0
  -13.9139  -25.7011    4.3531 H   0  0  0  0  0
  -12.1198  -25.7198    3.9347 H   0  0  0  0  0
  -12.5599  -26.3635    1.7678 H   0  0  0  0  0
  -14.3264  -26.0297    1.9415 H   0  0  0  0  0
  -13.3759  -29.1207    4.4133 H   0  0  0  0  0
  -12.8142  -27.4668    4.6783 H   0  0  0  0  0
  -15.3749  -23.0504    4.2270 H   0  0  0  0  0
  -14.1038  -22.2095    6.8219 H   0  0  0  0  0
  -15.6888  -20.3327    6.9195 H   0  0  0  0  0
  -16.6961  -19.7391    4.9075 H   0  0  0  0  0
  -13.3656  -19.9972    6.1676 H   0  0  0  0  0
  -13.8483  -20.3601    4.4924 H   0  0  0  0  0
  -14.4751  -18.9044    5.3042 H   0  0  0  0  0
  -16.1285  -21.7852    8.4043 H   0  0  0  0  0
  -17.4094  -24.3566    8.4012 H   0  0  0  0  0
  -16.4601  -23.3905   10.5185 H   0  0  0  0  0
  -17.5299  -21.9753   10.3644 H   0  0  0  0  0
  -18.2175  -23.5745   10.7396 H   0  0  0  0  0
  -19.1942  -25.1811    8.3456 H   0  0  0  0  0
  -21.2270  -25.5588    7.7260 H   0  0  0  0  0
  -21.2129  -23.9677    5.6907 H   0  0  0  0  0
  -23.0043  -23.8796    8.7993 H   0  0  0  0  0
  -21.5311  -23.0301    9.4256 H   0  0  0  0  0
  -21.0144  -25.5418   10.2017 H   0  0  0  0  0
  -22.8172  -25.5455   10.2735 H   0  0  0  0  0
  -22.0823  -24.9037   12.4041 H   0  0  0  0  0
  -22.5907  -23.3815   11.5679 H   0  0  0  0  0
  -20.3443  -22.6959   11.4638 H   0  0  0  0  0
  -19.0822  -25.8331   13.6887 H   0  0  0  0  0
  -20.7024  -25.8629   12.9849 H   0  0  0  0  0
  -18.2659  -22.6706   12.3695 H   0  0  0  0  0
  1  2  1  0  0  0
  2  3  1  0  0  0
  2  5  1  0  0  0
  3  4  2  0  0  0
  3  6  1  0  0  0
  6  7  1  0  0  0
  7  8  1  0  0  0
  7 10  1  0  0  0
  8  9  2  0  0  0
  8 17  1  0  0  0
 10 11  1  0  0  0
 11 12  1  0  0  0
 12 13  1  0  0  0
 13 14  1  0  0  0
 14 15  1  0  0  0
 14 16  2  0  0  0
 17 18  1  0  0  0
 18 19  1  0  0  0
 18 21  1  0  0  0
 19 20  2  0  0  0
 19 24  1  0  0  0
 21 22  1  0  0  0
 21 23  1  0  0  0
 24 25  1  0  0  0
 25 26  1  0  0  0
 25 31  1  0  0  0
 26 27  1  0  0  0
 27 28  1  0  0  0
 28 29  1  0  0  0
 29 30  1  0  0  0
 30 33  1  0  0  0
 30 34  1  0  0  0
 30 35  1  0  0  0
 31 32  2  0  0  0
 31 36  1  0  0  0
 36 37  1  0  0  0
 37 38  1  0  0  0
 37 40  1  0  0  0
 38 39  2  0  0  0
 38 45  1  0  0  0
 40 41  1  0  0  0
 41 42  1  0  0  0
 42 43  2  0  0  0
 42 44  1  0  0  0
 45 46  1  0  0  0
 46 47  1  0  0  0
 46 49  1  0  0  0
 47 48  2  0  0  0
 47 52  1  0  0  0
 49 50  1  0  0  0
 49 51  1  0  0  0
 52 53  1  0  0  0
 53 54  1  0  0  0
 53 56  1  0  0  0
 54 55  2  0  0  0
 54 57  1  0  0  0
 57 58  1  0  0  0
 58 59  1  0  0  0
 58 61  1  0  0  0
 59 60  2  0  0  0
 61 62  1  0  0  0
 62 63  1  0  0  0
 63 64  1  0  0  0
 64 65  1  0  0  0
 65 66  1  0  0  0
 65 67  2  0  0  0
  1 68  1  0  0  0
  1 69  1  0  0  0
  1 70  1  0  0  0
  2 71  1  0  0  0
  5 72  1  0  0  0
  5 73  1  0  0  0
  5 74  1  0  0  0
  6 75  1  0  0  0
  7 76  1  0  0  0
 10 77  1  0  0  0
 10 78  1  0  0  0
 11 79  1  0  0  0
 11 80  1  0  0  0
 12 81  1  0  0  0
 12 82  1  0  0  0
 13 83  1  0  0  0
 15 84  1  0  0  0
 15 85  1  0  0  0
 16 86  1  0  0  0
 17 87  1  0  0  0
 18 88  1  0  0  0
 21 89  1  0  0  0
 22 90  1  0  0  0
 23 91  1  0  0  0
 23 92  1  0  0  0
 23 93  1  0  0  0
 24 94  1  0  0  0
 25 95  1  0  0  0
 26 96  1  0  0  0
 26 97  1  0  0  0
 27 98  1  0  0  0
 27 99  1  0  0  0
 28100  1  0  0  0
 28101  1  0  0  0
 29102  1  0  0  0
 29103  1  0  0  0
 33104  1  0  0  0
 33105  1  0  0  0
 33106  1  0  0  0
 34107  1  0  0  0
 34108  1  0  0  0
 34109  1  0  0  0
 35110  1  0  0  0
 35111  1  0  0  0
 35112  1  0  0  0
 36113  1  0  0  0
 37114  1  0  0  0
 40115  1  0  0  0
 40116  1  0  0  0
 41117  1  0  0  0
 41118  1  0  0  0
 44119  1  0  0  0
 44120  1  0  0  0
 45121  1  0  0  0
 46122  1  0  0  0
 49123  1  0  0  0
 50124  1  0  0  0
 51125  1  0  0  0
 51126  1  0  0  0
 51127  1  0  0  0
 52128  1  0  0  0
 53129  1  0  0  0
 56130  1  0  0  0
 56131  1  0  0  0
 56132  1  0  0  0
 57133  1  0  0  0
 58134  1  0  0  0
 59135  1  0  0  0
 61136  1  0  0  0
 61137  1  0  0  0
 62138  1  0  0  0
 62139  1  0  0  0
 63140  1  0  0  0
 63141  1  0  0  0
 64142  1  0  0  0
 66143  1  0  0  0
 66144  1  0  0  0
 67145  1  0  0  0
M  END
$$$$
