5fe7_ligand
  -I-interpret- 

 28 29  0  0  0  0  0  0  0  0999 V2000
  -10.0410   39.1250   22.7750 C   0  0  0  0  0
   -9.8060   38.7560   24.0810 C   0  0  0  0  0
   -8.9880   37.6170   24.4490 C   0  0  0  0  0
  -10.8760   40.2010   22.8350 N   0  0  0  0  0
   -8.3200   36.8650   23.3260 C   0  0  0  0  0
   -9.0580   36.9690   21.9810 C   0  0  0  0  0
   -9.4310   38.4220   21.6050 C   0  0  0  0  0
   -8.8090   37.3060   25.6320 O   0  0  0  0  0
  -10.5360   39.6920   24.8630 C   0  0  0  0  0
  -10.5860   39.8530   26.3440 C   0  0  0  0  0
  -11.1950   40.5370   24.1060 N   0  0  0  0  0
  -11.3620   41.0610   21.7550 C   0  0  0  0  0
  -10.7080   42.4370   21.7660 C   0  0  0  0  0
   -9.2970   42.3720   21.4910 O   0  0  0  0  0
   -8.3033   35.8117   23.6060 H   0  0  0  0  0
   -7.3306   37.3009   23.1874 H   0  0  0  0  0
   -9.9842   36.4006   22.0664 H   0  0  0  0  0
   -8.3921   36.5870   21.2072 H   0  0  0  0  0
   -8.5279   38.9530   21.3040 H   0  0  0  0  0
  -10.1522   38.4025   20.7880 H   0  0  0  0  0
  -10.9562   38.9328   26.7959 H   0  0  0  0  0
   -9.5850   40.0664   26.7190 H   0  0  0  0  0
  -11.2533   40.6772   26.5963 H   0  0  0  0  0
  -12.4349   41.1974   21.8906 H   0  0  0  0  0
  -11.1189   40.5806   20.8072 H   0  0  0  0  0
  -10.8400   42.8667   22.7590 H   0  0  0  0  0
  -11.1769   43.0410   20.9892 H   0  0  0  0  0
   -8.9277   43.2580   21.5079 H   0  0  0  0  0
  1  2  4  0  0  0
  1  4  4  0  0  0
  1  7  1  0  0  0
  2  3  1  0  0  0
  2  9  4  0  0  0
  3  5  1  0  0  0
  3  8  2  0  0  0
  4 11  4  0  0  0
  4 12  1  0  0  0
  5  6  1  0  0  0
  6  7  1  0  0  0
  9 10  1  0  0  0
  9 11  4  0  0  0
 12 13  1  0  0  0
 13 14  1  0  0  0
  5 15  1  0  0  0
  5 16  1  0  0  0
  6 17  1  0  0  0
  6 18  1  0  0  0
  7 19  1  0  0  0
  7 20  1  0  0  0
 10 21  1  0  0  0
 10 22  1  0  0  0
 10 23  1  0  0  0
 12 24  1  0  0  0
 12 25  1  0  0  0
 13 26  1  0  0  0
 13 27  1  0  0  0
 14 28  1  0  0  0
M  END
$$$$
