1nw7_ligand
  -I-interpret- 

 47 49  0  0  0  0  0  0  0  0999 V2000
   32.1050   21.0830    2.2810 N   0  3  0  0  0
   32.7850   20.0740    1.4480 C   0  0  0  0  0
   31.9580   19.8100    0.1710 C   0  0  0  0  0
   31.6500   21.0980   -0.6090 C   0  0  0  0  0
   30.6180   20.8150   -2.1010 S   0  0  0  0  0
   34.2000   20.5660    1.0980 C   0  0  0  0  0
   34.4940   21.7350    1.4270 O   0  0  0  0  0
   34.9560   19.7570    0.5160 O   0  0  0  0  0
   29.9130   22.4910   -2.2940 C   0  0  0  0  0
   28.7790   22.5530   -3.3240 C   0  0  0  0  0
   28.1780   23.8750   -3.2700 O   0  0  0  0  0
   29.2820   22.3550   -4.7600 C   0  0  0  0  0
   28.4320   21.4190   -5.4340 O   0  0  0  0  0
   29.1710   23.7270   -5.4020 C   0  0  0  0  0
   28.7690   23.5900   -6.7710 O   0  0  0  0  0
   28.0440   24.3860   -4.6220 C   0  0  0  0  0
   28.0850   25.8850   -4.6170 N   0  0  0  0  0
   29.1840   26.6590   -4.5410 C   0  0  0  0  0
   28.8160   27.9420   -4.4650 N   0  0  0  0  0
   27.4860   27.9840   -4.4980 C   0  0  0  0  0
   26.5480   29.0200   -4.4490 C   0  0  0  0  0
   26.9470   30.2940   -4.3680 N   0  0  0  0  0
   25.2240   28.7190   -4.5010 N   0  0  0  0  0
   24.8080   27.4470   -4.6010 C   0  0  0  0  0
   25.6890   26.4410   -4.6500 N   0  0  0  0  0
   27.0230   26.6820   -4.5990 C   0  0  0  0  0
   31.1671   20.7553    2.5121 H   0  0  0  0  0
   32.6369   21.2281    3.1392 H   0  0  0  0  0
   32.0423   21.9611    1.7659 H   0  0  0  0  0
   32.8715   19.1372    1.9985 H   0  0  0  0  0
   31.0097   19.3642    0.4712 H   0  0  0  0  0
   32.5410   19.1560   -0.4774 H   0  0  0  0  0
   32.6000   21.5173   -0.9404 H   0  0  0  0  0
   31.0943   21.7601    0.0550 H   0  0  0  0  0
   34.4908   18.9287    0.3777 H   0  0  0  0  0
   30.7110   23.1476   -2.6407 H   0  0  0  0  0
   29.5009   22.7895   -1.3300 H   0  0  0  0  0
   28.0757   21.7568   -3.0799 H   0  0  0  0  0
   30.2996   21.9670   -4.8038 H   0  0  0  0  0
   28.7451   21.2937   -6.3328 H   0  0  0  0  0
   30.1070   24.2852   -5.3827 H   0  0  0  0  0
   28.7004   24.4596   -7.1718 H   0  0  0  0  0
   27.0888   24.1482   -5.0902 H   0  0  0  0  0
   30.2120   26.2966   -4.5414 H   0  0  0  0  0
   27.9422   30.5160   -4.3415 H   0  0  0  0  0
   26.2561   31.0435   -4.3327 H   0  0  0  0  0
   23.7405   27.2309   -4.6428 H   0  0  0  0  0
  1  2  1  0  0  0
  2  3  1  0  0  0
  2  6  1  0  0  0
  3  4  1  0  0  0
  4  5  1  0  0  0
  5  9  1  0  0  0
  6  7  2  0  0  0
  6  8  1  0  0  0
  9 10  1  0  0  0
 10 11  1  0  0  0
 10 12  1  0  0  0
 11 16  1  0  0  0
 12 13  1  0  0  0
 12 14  1  0  0  0
 14 15  1  0  0  0
 14 16  1  0  0  0
 16 17  1  0  0  0
 17 18  4  0  0  0
 17 26  4  0  0  0
 18 19  4  0  0  0
 19 20  4  0  0  0
 20 21  4  0  0  0
 20 26  4  0  0  0
 21 22  1  0  0  0
 21 23  4  0  0  0
 23 24  4  0  0  0
 24 25  4  0  0  0
 25 26  4  0  0  0
  1 27  1  0  0  0
  1 28  1  0  0  0
  1 29  1  0  0  0
  2 30  1  0  0  0
  3 31  1  0  0  0
  3 32  1  0  0  0
  4 33  1  0  0  0
  4 34  1  0  0  0
  8 35  1  0  0  0
  9 36  1  0  0  0
  9 37  1  0  0  0
 10 38  1  0  0  0
 12 39  1  0  0  0
 13 40  1  0  0  0
 14 41  1  0  0  0
 15 42  1  0  0  0
 16 43  1  0  0  0
 18 44  1  0  0  0
 22 45  1  0  0  0
 22 46  1  0  0  0
 24 47  1  0  0  0
M  END
$$$$
