4bcc_ligand
  -I-interpret- 

 78 81  0  0  0  0  0  0  0  0999 V2000
   42.6820   37.5600   85.9250 C   0  0  0  0  0
   44.0940   37.8460   85.4300 C   0  0  0  0  0
   45.0890   37.7900   86.5920 C   0  0  0  0  0
   45.1650   36.3770   87.1640 C   0  0  0  0  0
   44.9430   36.1700   88.5160 C   0  0  0  0  0
   45.4810   35.3140   86.3440 C   0  0  0  0  0
   44.9900   34.8780   89.0560 C   0  0  0  0  0
   45.5360   34.0220   86.8650 C   0  0  0  0  0
   45.2810   33.7940   88.2200 C   0  0  0  0  0
   41.7600   37.2300   84.7710 C   0  0  0  0  0
   42.1310   37.2630   83.6150 O   0  0  0  0  0
   40.4370   37.0190   85.0730 N   0  0  0  0  0
   40.1030   36.5200   86.4200 C   0  0  0  0  0
   39.6100   36.3810   84.0440 C   0  0  0  0  0
   39.1030   37.5220   83.1770 C   0  0  0  0  0
   39.2010   38.7100   83.5140 O   0  0  0  0  0
   38.5610   35.6240   84.8290 C   0  0  0  0  0
   38.6410   36.1850   86.2340 C   0  0  0  0  0
   37.8030   37.4090   86.1970 N   0  0  0  0  0
   38.2400   38.5820   86.8260 N   0  0  0  0  0
   37.1990   39.5130   86.6230 N   0  0  0  0  0
   36.5960   37.5810   85.6660 C   0  0  0  0  0
   36.2240   38.8880   85.9200 C   0  0  0  0  0
   34.9230   39.4670   85.4250 C   0  0  0  0  0
   34.1190   40.1220   86.4470 N   0  0  0  0  0
   32.8830   41.0750   84.9220 O   0  0  0  0  0
   32.9440   40.5510   86.0220 C   0  0  0  0  0
   31.7410   40.3450   86.8430 O   0  0  0  0  0
   30.7510   41.3470   87.1040 C   0  0  0  0  0
   30.6340   42.3270   85.9390 C   0  0  0  0  0
   31.1180   42.1120   88.3760 C   0  0  0  0  0
   29.4060   40.6580   87.3010 C   0  0  0  0  0
   38.5920   37.1900   81.9840 N   0  0  0  0  0
   38.0940   38.2280   81.0640 C   0  0  0  0  0
   36.6470   38.7280   81.2430 C   0  0  0  0  0
   35.8120   37.8540   81.6180 N   0  0  0  0  0
   38.1290   37.4430   79.7490 C   0  0  0  0  0
   37.8320   35.9990   80.1150 C   0  0  0  0  0
   38.4680   35.8200   81.4820 C   0  0  0  0  0
   42.3030   38.4466   86.4333 H   0  0  0  0  0
   42.7147   36.7064   86.6020 H   0  0  0  0  0
   44.1202   38.8421   84.9882 H   0  0  0  0  0
   44.3697   37.0944   84.6903 H   0  0  0  0  0
   44.7570   38.4715   87.3753 H   0  0  0  0  0
   46.0752   38.0778   86.2276 H   0  0  0  0  0
   44.7300   37.0195   89.1649 H   0  0  0  0  0
   45.6880   35.4842   85.2875 H   0  0  0  0  0
   44.8016   34.7186   90.1177 H   0  0  0  0  0
   45.7794   33.1844   86.2113 H   0  0  0  0  0
   45.3085   32.7812   88.6220 H   0  0  0  0  0
   40.2988   37.2329   87.2209 H   0  0  0  0  0
   40.7147   35.6799   86.7488 H   0  0  0  0  0
   40.0894   35.6708   83.3703 H   0  0  0  0  0
   38.7419   34.5492   84.8125 H   0  0  0  0  0
   37.5669   35.7498   84.4001 H   0  0  0  0  0
   38.3023   35.5302   87.0369 H   0  0  0  0  0
   36.0106   36.8329   85.1315 H   0  0  0  0  0
   34.3318   38.6354   85.0416 H   0  0  0  0  0
   35.1755   40.2268   84.6854 H   0  0  0  0  0
   34.4360   40.2396   87.4093 H   0  0  0  0  0
   31.5938   42.8192   85.7821 H   0  0  0  0  0
   30.3505   41.7848   85.0369 H   0  0  0  0  0
   29.8745   43.0741   86.1692 H   0  0  0  0  0
   31.1622   41.4183   89.2156 H   0  0  0  0  0
   32.0898   42.5878   88.2447 H   0  0  0  0  0
   30.3627   42.8733   88.5713 H   0  0  0  0  0
   29.1471   40.1045   86.3984 H   0  0  0  0  0
   29.4715   39.9703   88.1442 H   0  0  0  0  0
   28.6408   41.4081   87.5009 H   0  0  0  0  0
   38.6829   39.1373   81.1843 H   0  0  0  0  0
   36.3622   39.7639   81.0591 H   0  0  0  0  0
   36.1165   36.8941   81.7801 H   0  0  0  0  0
   39.0990   37.5348   79.2603 H   0  0  0  0  0
   37.3971   37.8289   79.0394 H   0  0  0  0  0
   38.2322   35.2991   79.3814 H   0  0  0  0  0
   36.7621   35.7912   80.1298 H   0  0  0  0  0
   37.8728   35.1865   82.1397 H   0  0  0  0  0
   39.4275   35.3052   81.4320 H   0  0  0  0  0
  1  2  1  0  0  0
  1 10  1  0  0  0
  2  3  1  0  0  0
  3  4  1  0  0  0
  4  5  4  0  0  0
  4  6  4  0  0  0
  5  7  4  0  0  0
  6  8  4  0  0  0
  7  9  4  0  0  0
  8  9  4  0  0  0
 10 11  2  0  0  0
 10 12  1  0  0  0
 12 13  1  0  0  0
 12 14  1  0  0  0
 13 18  1  0  0  0
 14 15  1  0  0  0
 14 17  1  0  0  0
 15 16  2  0  0  0
 15 33  1  0  0  0
 17 18  1  0  0  0
 18 19  1  0  0  0
 19 20  4  0  0  0
 19 22  4  0  0  0
 20 21  4  0  0  0
 21 23  4  0  0  0
 22 23  4  0  0  0
 23 24  1  0  0  0
 24 25  1  0  0  0
 25 27  1  0  0  0
 27 26  2  0  0  0
 27 28  1  0  0  0
 28 29  1  0  0  0
 29 30  1  0  0  0
 29 31  1  0  0  0
 29 32  1  0  0  0
 33 34  1  0  0  0
 33 39  1  0  0  0
 34 35  1  0  0  0
 34 37  1  0  0  0
 35 36  2  0  0  0
 37 38  1  0  0  0
 38 39  1  0  0  0
  1 40  1  0  0  0
  1 41  1  0  0  0
  2 42  1  0  0  0
  2 43  1  0  0  0
  3 44  1  0  0  0
  3 45  1  0  0  0
  5 46  1  0  0  0
  6 47  1  0  0  0
  7 48  1  0  0  0
  8 49  1  0  0  0
  9 50  1  0  0  0
 13 51  1  0  0  0
 13 52  1  0  0  0
 14 53  1  0  0  0
 17 54  1  0  0  0
 17 55  1  0  0  0
 18 56  1  0  0  0
 22 57  1  0  0  0
 24 58  1  0  0  0
 24 59  1  0  0  0
 25 60  1  0  0  0
 30 61  1  0  0  0
 30 62  1  0  0  0
 30 63  1  0  0  0
 31 64  1  0  0  0
 31 65  1  0  0  0
 31 66  1  0  0  0
 32 67  1  0  0  0
 32 68  1  0  0  0
 32 69  1  0  0  0
 34 70  1  0  0  0
 35 71  1  0  0  0
 36 72  1  0  0  0
 37 73  1  0  0  0
 37 74  1  0  0  0
 38 75  1  0  0  0
 38 76  1  0  0  0
 39 77  1  0  0  0
 39 78  1  0  0  0
M  END
$$$$
