### 
### Created by X-TOOL on Mon Sep 10 21:13:12 2018
### 

@<TRIPOS>MOLECULE
4bcc_ligand
   78    81     1     0     0
SMALL
GAST_HUCK


@<TRIPOS>ATOM
      1 C14        42.6820   37.5600   85.9250 C.3       1 JKT         0.0393
      2 C15        44.0940   37.8460   85.4300 C.3       1 JKT        -0.0263
      3 C16        45.0890   37.7900   86.5920 C.3       1 JKT        -0.0171
      4 C17        45.1650   36.3770   87.1640 C.ar      1 JKT        -0.0429
      5 C18        44.9430   36.1700   88.5160 C.ar      1 JKT        -0.0603
      6 C22        45.4810   35.3140   86.3440 C.ar      1 JKT        -0.0603
      7 C19        44.9900   34.8780   89.0560 C.ar      1 JKT        -0.0686
      8 C21        45.5360   34.0220   86.8650 C.ar      1 JKT        -0.0686
      9 C20        45.2810   33.7940   88.2200 C.ar      1 JKT        -0.0687
     10 C12        41.7600   37.2300   84.7710 C.2       1 JKT         0.1810
     11 O13        42.1310   37.2630   83.6150 O.2       1 JKT        -0.3967
     12 N11        40.4370   37.0190   85.0730 N.am      1 JKT        -0.2484
     13 C23        40.1030   36.5200   86.4200 C.3       1 JKT         0.0700
     14 C10        39.6100   36.3810   84.0440 C.3       1 JKT         0.1371
     15 C8         39.1030   37.5220   83.1770 C.2       1 JKT         0.2076
     16 O9         39.2010   38.7100   83.5140 O.2       1 JKT        -0.3941
     17 C25        38.5610   35.6240   84.8290 C.3       1 JKT         0.0230
     18 C24        38.6410   36.1850   86.2340 C.3       1 JKT         0.1107
     19 N26        37.8030   37.4090   86.1970 N.pl3     1 JKT        -0.1760
     20 N27        38.2400   38.5820   86.8260 N.2       1 JKT        -0.1016
     21 N28        37.1990   39.5130   86.6230 N.2       1 JKT        -0.2245
     22 C30        36.5960   37.5810   85.6660 C.2       1 JKT         0.0717
     23 C29        36.2240   38.8880   85.9200 C.2       1 JKT         0.0589
     24 C31        34.9230   39.4670   85.4250 C.3       1 JKT         0.0673
     25 N32        34.1190   40.1220   86.4470 N.am      1 JKT        -0.2546
     26 O34        32.8830   41.0750   84.9220 O.2       1 JKT        -0.3775
     27 C33        32.9440   40.5510   86.0220 C.2       1 JKT         0.3214
     28 O35        31.7410   40.3450   86.8430 O.3       1 JKT        -0.2581
     29 C36        30.7510   41.3470   87.1040 C.3       1 JKT         0.0905
     30 C39        30.6340   42.3270   85.9390 C.3       1 JKT        -0.0320
     31 C37        31.1180   42.1120   88.3760 C.3       1 JKT        -0.0320
     32 C38        29.4060   40.6580   87.3010 C.3       1 JKT        -0.0320
     33 N7         38.5920   37.1900   81.9840 N.am      1 JKT        -0.2486
     34 C3         38.0940   38.2280   81.0640 C.3       1 JKT         0.1036
     35 C1         36.6470   38.7280   81.2430 C.2       1 JKT         0.0209
     36 N2         35.8120   37.8540   81.6180 N.2       1 JKT        -0.3619
     37 C4         38.1290   37.4430   79.7490 C.3       1 JKT        -0.0096
     38 C5         37.8320   35.9990   80.1150 C.3       1 JKT        -0.0272
     39 C6         38.4680   35.8200   81.4820 C.3       1 JKT         0.0380
     40 H1         42.2981   38.4471   86.4500 H         1 JKT         0.0504
     41 H2         42.7097   36.7068   86.6187 H         1 JKT         0.0504
     42 H3         44.1230   38.8476   84.9762 H         1 JKT         0.0312
     43 H4         44.3734   37.0941   84.6773 H         1 JKT         0.0312
     44 H5         44.7627   38.4829   87.3816 H         1 JKT         0.0427
     45 H6         46.0843   38.0881   86.2308 H         1 JKT         0.0427
     46 H7         44.7312   37.0148   89.1614 H         1 JKT         0.0557
     47 H8         45.6868   35.4833   85.2933 H         1 JKT         0.0557
     48 H9         44.8026   34.7194   90.1119 H         1 JKT         0.0599
     49 H10        45.7781   33.1890   86.2149 H         1 JKT         0.0599
     50 H11        45.3083   32.7868   88.6198 H         1 JKT         0.0559
     51 H12        40.2478   37.2945   87.1876 H         1 JKT         0.0557
     52 H13        40.6937   35.6296   86.6814 H         1 JKT         0.0557
     53 H14        40.1895   35.6792   83.4262 H         1 JKT         0.0803
     54 H15        38.7818   34.5464   84.8300 H         1 JKT         0.0345
     55 H16        37.5616   35.7931   84.4017 H         1 JKT         0.0345
     56 H17        38.2880   35.4782   86.9993 H         1 JKT         0.0707
     57 H18        36.0111   36.8335   85.1320 H         1 JKT         0.0899
     58 H19        34.3272   38.6498   84.9924 H         1 JKT         0.0636
     59 H20        35.1526   40.2067   84.6439 H         1 JKT         0.0636
     60 H21        34.4298   40.2373   87.3905 H         1 JKT         0.1887
     61 H22        29.8677   43.0816   86.1702 H         1 JKT         0.0260
     62 H23        30.3479   41.7811   85.0279 H         1 JKT         0.0260
     63 H24        31.6021   42.8245   85.7796 H         1 JKT         0.0260
     64 H25        30.3565   42.8806   88.5742 H         1 JKT         0.0260
     65 H26        32.0986   42.5928   88.2447 H         1 JKT         0.0260
     66 H27        31.1629   41.4131   89.2242 H         1 JKT         0.0260
     67 H28        28.6329   41.4140   87.5028 H         1 JKT         0.0260
     68 H29        29.4708   39.9637   88.1517 H         1 JKT         0.0260
     69 H30        29.1435   40.0991   86.3907 H         1 JKT         0.0260
     70 H31        38.7734   39.0931   81.0615 H         1 JKT         0.0842
     71 H32        36.3625   39.7630   81.0593 H         1 JKT         0.1225
     72 H33        34.8460   38.1065   81.7565 H         1 JKT         0.1054
     73 H34        39.1221   37.5225   79.2828 H         1 JKT         0.0324
     74 H35        37.3663   37.8259   79.0549 H         1 JKT         0.0324
     75 H36        38.2810   35.3113   79.3833 H         1 JKT         0.0288
     76 H37        36.7470   35.8247   80.1642 H         1 JKT         0.0288
     77 H38        37.8240   35.2173   82.1392 H         1 JKT         0.0525
     78 H39        39.4549   35.3417   81.3967 H         1 JKT         0.0525
@<TRIPOS>BOND
     1    1    2 1  
     2    1   10 1  
     3    2    3 1  
     4    3    4 1  
     5    4    5 ar 
     6    4    6 ar 
     7    5    7 ar 
     8    6    8 ar 
     9    7    9 ar 
    10    8    9 ar 
    11   10   11 2  
    12   10   12 am 
    13   12   13 1  
    14   12   14 1  
    15   13   18 1  
    16   14   15 1  
    17   14   17 1  
    18   15   16 2  
    19   15   33 am 
    20   17   18 1  
    21   18   19 1  
    22   19   20 1  
    23   19   22 1  
    24   20   21 2  
    25   21   23 1  
    26   22   23 2  
    27   23   24 1  
    28   24   25 1  
    29   25   27 am 
    30   27   26 2  
    31   27   28 1  
    32   28   29 1  
    33   29   30 1  
    34   29   31 1  
    35   29   32 1  
    36   33   34 1  
    37   33   39 1  
    38   34   35 1  
    39   34   37 1  
    40   35   36 2  
    41   37   38 1  
    42   38   39 1  
    43    1   40 1  
    44    1   41 1  
    45    2   42 1  
    46    2   43 1  
    47    3   44 1  
    48    3   45 1  
    49    5   46 1  
    50    6   47 1  
    51    7   48 1  
    52    8   49 1  
    53    9   50 1  
    54   13   51 1  
    55   13   52 1  
    56   14   53 1  
    57   17   54 1  
    58   17   55 1  
    59   18   56 1  
    60   22   57 1  
    61   24   58 1  
    62   24   59 1  
    63   25   60 1  
    64   30   61 1  
    65   30   62 1  
    66   30   63 1  
    67   31   64 1  
    68   31   65 1  
    69   31   66 1  
    70   32   67 1  
    71   32   68 1  
    72   32   69 1  
    73   34   70 1  
    74   35   71 1  
    75   36   72 1  
    76   37   73 1  
    77   37   74 1  
    78   38   75 1  
    79   38   76 1  
    80   39   77 1  
    81   39   78 1  
@<TRIPOS>SUBSTRUCTURE
     1 JKT         1

