2qi4_ligand
  -I-interpret- 

 72 75  0  0  0  0  0  0  0  0999 V2000
   21.4760   29.9050   12.2310 O   0  0  0  0  0
   21.3670   28.7580   12.6410 C   0  0  0  0  0
   22.1510   27.6830   11.9740 C   0  0  0  0  0
   23.4940   27.7990   11.6830 C   0  0  0  0  0
   24.1310   26.7550   11.0190 C   0  0  0  0  0
   25.4460   26.8580   10.7410 O   0  0  0  0  0
   23.4420   25.6030   10.6470 C   0  0  0  0  0
   22.0890   25.4830   10.9390 C   0  0  0  0  0
   21.4480   26.5320   11.5880 C   0  0  0  0  0
   20.5580   28.3660   13.6150 N   0  0  0  0  0
   19.6170   29.2450   14.2860 C   0  0  0  0  0
   18.3080   28.4450   14.2070 C   0  0  0  0  0
   17.9840   28.1020   12.7470 C   0  0  0  0  0
   17.5730   29.0860   11.8520 C   0  0  0  0  0
   17.2890   28.7640   10.5240 C   0  0  0  0  0
   17.4080   27.4510   10.0830 C   0  0  0  0  0
   17.8120   26.4670   10.9730 C   0  0  0  0  0
   18.0900   26.7890   12.2960 C   0  0  0  0  0
   20.0650   29.5980   15.6920 C   0  0  0  0  0
   20.0150   28.4250   16.5180 O   0  0  0  0  0
   19.1980   30.7250   16.2840 C   0  0  0  0  0
   19.4380   31.9630   15.4970 N   0  0  0  0  0
   20.1530   33.0000   16.2810 C   0  0  0  0  0
   21.6520   32.6580   16.3160 C   0  0  0  0  0
   22.3900   33.5920   17.2860 C   0  0  0  0  0
   22.1950   35.0700   17.0060 C   0  0  0  0  0
   22.3000   32.6680   14.9290 C   0  0  0  0  0
   18.0900   32.5750   14.7950 S   0  0  0  0  0
   17.3350   31.4910   14.2590 O   0  0  0  0  0
   18.5620   33.4330   13.7410 O   0  0  0  0  0
   17.2020   33.4440   15.8720 C   0  0  0  0  0
   16.2480   32.7630   16.6300 C   0  0  0  0  0
   15.4790   33.4180   17.5920 C   0  0  0  0  0
   15.6200   34.7770   17.8240 C   0  0  0  0  0
   16.5560   35.5130   17.0860 C   0  0  0  0  0
   17.3480   34.8400   16.1140 C   0  0  0  0  0
   14.9680   35.5770   18.7000 N   0  0  0  0  0
   15.3770   36.8600   18.6450 C   0  0  0  0  0
   16.6230   37.1790   17.4730 S   0  0  0  0  0
   24.0474   28.6936   11.9684 H   0  0  0  0  0
   25.7385   26.0656   10.2847 H   0  0  0  0  0
   23.9628   24.7981   10.1284 H   0  0  0  0  0
   21.5399   24.5824   10.6641 H   0  0  0  0  0
   20.3814   26.4590   11.8005 H   0  0  0  0  0
   20.5988   27.3905   13.9102 H   0  0  0  0  0
   19.5165   30.2301   13.8305 H   0  0  0  0  0
   17.4976   29.0450   14.6209 H   0  0  0  0  0
   18.4198   27.5210   14.7743 H   0  0  0  0  0
   17.4721   30.1169   12.1914 H   0  0  0  0  0
   16.9732   29.5438    9.8310 H   0  0  0  0  0
   17.1857   27.1970    9.0466 H   0  0  0  0  0
   17.9119   25.4362   10.6332 H   0  0  0  0  0
   18.3946   26.0045   12.9887 H   0  0  0  0  0
   21.0912   29.9635   15.6540 H   0  0  0  0  0
   20.2985   28.6490   17.4074 H   0  0  0  0  0
   19.4621   30.8896   17.3286 H   0  0  0  0  0
   18.1443   30.4501   16.2354 H   0  0  0  0  0
   19.7592   33.0288   17.2970 H   0  0  0  0  0
   20.0097   33.9755   15.8162 H   0  0  0  0  0
   21.7386   31.6340   16.6793 H   0  0  0  0  0
   23.4549   33.3849   17.1805 H   0  0  0  0  0
   21.9891   33.4000   18.2812 H   0  0  0  0  0
   22.5589   35.2999   16.0046 H   0  0  0  0  0
   21.1350   35.3146   17.0738 H   0  0  0  0  0
   22.7515   35.6539   17.7391 H   0  0  0  0  0
   21.8066   31.9326   14.2935 H   0  0  0  0  0
   22.1960   33.6593   14.4879 H   0  0  0  0  0
   23.3572   32.4192   15.0215 H   0  0  0  0  0
   16.1006   31.6955   16.4665 H   0  0  0  0  0
   14.7527   32.8496   18.1729 H   0  0  0  0  0
   18.0831   35.4057   15.5416 H   0  0  0  0  0
   14.9597   37.6374   19.2850 H   0  0  0  0  0
  1  2  2  0  0  0
  2  3  1  0  0  0
  2 10  1  0  0  0
  3  4  4  0  0  0
  3  9  4  0  0  0
  4  5  4  0  0  0
  5  6  1  0  0  0
  5  7  4  0  0  0
  7  8  4  0  0  0
  8  9  4  0  0  0
 10 11  1  0  0  0
 11 12  1  0  0  0
 11 19  1  0  0  0
 12 13  1  0  0  0
 13 14  4  0  0  0
 13 18  4  0  0  0
 14 15  4  0  0  0
 15 16  4  0  0  0
 16 17  4  0  0  0
 17 18  4  0  0  0
 19 20  1  0  0  0
 19 21  1  0  0  0
 21 22  1  0  0  0
 22 23  1  0  0  0
 22 28  1  0  0  0
 23 24  1  0  0  0
 24 25  1  0  0  0
 24 27  1  0  0  0
 25 26  1  0  0  0
 28 29  2  0  0  0
 28 30  2  0  0  0
 28 31  1  0  0  0
 31 32  4  0  0  0
 31 36  4  0  0  0
 32 33  4  0  0  0
 33 34  4  0  0  0
 34 35  4  0  0  0
 34 37  4  0  0  0
 35 36  4  0  0  0
 35 39  4  0  0  0
 37 38  4  0  0  0
 38 39  4  0  0  0
  4 40  1  0  0  0
  6 41  1  0  0  0
  7 42  1  0  0  0
  8 43  1  0  0  0
  9 44  1  0  0  0
 10 45  1  0  0  0
 11 46  1  0  0  0
 12 47  1  0  0  0
 12 48  1  0  0  0
 14 49  1  0  0  0
 15 50  1  0  0  0
 16 51  1  0  0  0
 17 52  1  0  0  0
 18 53  1  0  0  0
 19 54  1  0  0  0
 20 55  1  0  0  0
 21 56  1  0  0  0
 21 57  1  0  0  0
 23 58  1  0  0  0
 23 59  1  0  0  0
 24 60  1  0  0  0
 25 61  1  0  0  0
 25 62  1  0  0  0
 26 63  1  0  0  0
 26 64  1  0  0  0
 26 65  1  0  0  0
 27 66  1  0  0  0
 27 67  1  0  0  0
 27 68  1  0  0  0
 32 69  1  0  0  0
 33 70  1  0  0  0
 36 71  1  0  0  0
 38 72  1  0  0  0
M  END
$$$$
