1t79_ligand
  -I-interpret- 

132134  0  0  0  0  0  0  0  0999 V2000
   14.9630    5.5030   54.0520 N   0  3  0  0  0
   14.7050    5.3260   52.5980 C   0  0  0  0  0
   14.2420    6.6340   51.9670 C   0  0  0  0  0
   13.9650    7.6140   52.6620 O   0  0  0  0  0
   13.6370    4.2520   52.3750 C   0  0  0  0  0
   12.3730    4.6800   52.8530 O   0  0  0  0  0
   14.1600    6.6300   50.6410 N   0  0  0  0  0
   13.7400    7.7920   49.8670 C   0  0  0  0  0
   12.3220    8.2420   50.2350 C   0  0  0  0  0
   12.0440    9.4390   50.3060 O   0  0  0  0  0
   13.8080    7.4610   48.3730 C   0  0  0  0  0
   13.5840    8.6400   47.4340 C   0  0  0  0  0
   13.5950    8.1780   45.9730 C   0  0  0  0  0
   13.3340    9.3230   45.0000 C   0  0  0  0  0
   13.1320    8.8300   43.5960 N   0  3  0  0  0
   11.4270    7.2830   50.4550 N   0  0  0  0  0
   10.0370    7.5960   50.8070 C   0  0  0  0  0
    9.9870    8.2340   52.1980 C   0  0  0  0  0
    9.3950    9.2980   52.3930 O   0  0  0  0  0
    9.1970    6.3160   50.7810 C   0  0  0  0  0
    7.7510    6.5220   51.1460 C   0  0  0  0  0
    6.8740    7.1330   50.2580 C   0  0  0  0  0
    7.2650    6.0850   52.3740 C   0  0  0  0  0
    5.5240    7.3030   50.5880 C   0  0  0  0  0
    5.9210    6.2490   52.7160 C   0  0  0  0  0
    5.0500    6.8600   51.8170 C   0  0  0  0  0
   10.6300    7.5790   53.1580 N   0  0  0  0  0
   10.6770    8.0700   54.5290 C   0  0  0  0  0
   11.2700    9.4800   54.6020 C   0  0  0  0  0
   10.8990   10.2760   55.4700 O   0  0  0  0  0
   11.4920    7.1100   55.3950 C   0  0  0  0  0
   12.1820    9.7920   53.6840 N   0  0  0  0  0
   12.8230   11.1030   53.6660 C   0  0  0  0  0
   11.8320   12.2360   53.4250 C   0  0  0  0  0
   12.1230   13.4020   53.7070 O   0  0  0  0  0
   13.9270   11.1380   52.6040 C   0  0  0  0  0
   10.6590   11.8960   52.9040 N   0  0  0  0  0
    9.6350   12.8970   52.6390 C   0  0  0  0  0
    9.0880   13.4900   53.9340 C   0  0  0  0  0
    8.3460   14.4710   53.9070 O   0  0  0  0  0
    8.4920   12.2840   51.8210 C   0  0  0  0  0
    8.8620   11.8600   50.3960 C   0  0  0  0  0
    7.6720   11.1890   49.7270 C   0  0  0  0  0
    9.3000   13.0790   49.5970 C   0  0  0  0  0
    9.4680   12.8940   55.0620 N   0  0  0  0  0
    9.0340   13.3510   56.3800 C   0  0  0  0  0
   10.1410   14.0810   57.1470 C   0  0  0  0  0
    9.8750   14.7450   58.1520 O   0  0  0  0  0
    8.5390   12.1610   57.2110 C   0  0  0  0  0
    7.0850   11.8370   56.9960 C   0  0  0  0  0
    6.0250   12.2650   57.7500 C   0  0  0  0  0
    6.5290   11.0550   55.9320 C   0  0  0  0  0
    4.8420   11.7990   57.2180 N   0  0  0  0  0
    5.1230   11.0540   56.1020 C   0  0  0  0  0
    7.0800   10.3570   54.8480 C   0  0  0  0  0
    4.2620   10.3790   55.2280 C   0  0  0  0  0
    6.2220    9.6870   53.9770 C   0  0  0  0  0
    4.8260    9.7040   54.1760 C   0  0  0  0  0
   11.3800   13.9560   56.6820 N   0  0  0  0  0
   12.4920   14.6150   57.3580 C   0  0  0  0  0
   12.3430   16.1310   57.3280 C   0  0  0  0  0
   11.7420   16.6480   56.3610 O   0  0  0  0  0
   13.8210   14.2280   56.7100 C   0  0  0  0  0
   14.0880   12.7410   56.7740 C   0  0  0  0  0
   13.9200   12.1470   57.8580 O   0  0  0  0  0
   14.4760   12.1620   55.7410 O   0  0  0  0  0
   12.8131   16.8452   58.2535 O   0  0  0  0  0
   15.2710    4.6166   54.4518 H   0  0  0  0  0
   15.6888    6.2074   54.1840 H   0  0  0  0  0
   14.1055    5.8060   54.5138 H   0  0  0  0  0
   15.6377    5.0155   52.1271 H   0  0  0  0  0
   13.9285    3.3530   52.9181 H   0  0  0  0  0
   13.5571    4.0572   51.3055 H   0  0  0  0  0
   11.7240    3.9892   52.7008 H   0  0  0  0  0
   14.4021    5.7744   50.1413 H   0  0  0  0  0
   14.4171    8.6137   50.1004 H   0  0  0  0  0
   13.0081    6.7477   48.1746 H   0  0  0  0  0
   14.8166    7.0954   48.1799 H   0  0  0  0  0
   14.3850    9.3646   47.5806 H   0  0  0  0  0
   12.6149    9.0874   47.6549 H   0  0  0  0  0
   12.8027    7.4402   45.8463 H   0  0  0  0  0
   14.5817    7.7688   45.7558 H   0  0  0  0  0
   14.2012    9.9833   45.0088 H   0  0  0  0  0
   12.4269    9.8389   45.3148 H   0  0  0  0  0
   12.9610    9.6243   42.9793 H   0  0  0  0  0
   13.9676    8.3326   43.2880 H   0  0  0  0  0
   12.3307    8.1994   43.5703 H   0  0  0  0  0
   11.7134    6.3071   50.3772 H   0  0  0  0  0
    9.6297    8.3002   50.0815 H   0  0  0  0  0
    9.6222    5.6362   51.5194 H   0  0  0  0  0
    9.2207    5.9355   49.7599 H   0  0  0  0  0
    7.2412    7.4839   49.2936 H   0  0  0  0  0
    7.9438    5.6071   53.0803 H   0  0  0  0  0
    4.8457    7.7821   49.8820 H   0  0  0  0  0
    5.5553    5.9005   53.6819 H   0  0  0  0  0
    3.9995    6.9903   52.0767 H   0  0  0  0  0
   11.1052    6.7061   52.9286 H   0  0  0  0  0
    9.6551    8.1211   54.9048 H   0  0  0  0  0
   11.0261    6.1247   55.3801 H   0  0  0  0  0
   12.5061    7.0398   55.0017 H   0  0  0  0  0
   11.5230    7.4833   56.4186 H   0  0  0  0  0
   12.4380    9.1009   52.9789 H   0  0  0  0  0
   13.2572   11.2587   54.6536 H   0  0  0  0  0
   14.6741   10.3781   52.8332 H   0  0  0  0  0
   13.4932   10.9389   51.6241 H   0  0  0  0  0
   14.3963   12.1218   52.6019 H   0  0  0  0  0
   10.4720   10.9173   52.6857 H   0  0  0  0  0
   10.0965   13.7014   52.0663 H   0  0  0  0  0
    7.7259   13.0539   51.7289 H   0  0  0  0  0
    8.1824   11.3800   52.3455 H   0  0  0  0  0
    9.6859   11.1474   50.4348 H   0  0  0  0  0
    7.3836   10.3080   50.3004 H   0  0  0  0  0
    6.8367   11.8882   49.6882 H   0  0  0  0  0
    7.9459   10.8917   48.7148 H   0  0  0  0  0
    8.4835   13.8002   49.5601 H   0  0  0  0  0
   10.1668   13.5338   50.0764 H   0  0  0  0  0
    9.5622   12.7730   48.5842 H   0  0  0  0  0
   10.0872   12.0856   55.0038 H   0  0  0  0  0
    8.2243   14.0623   56.2169 H   0  0  0  0  0
    8.6629   12.4229   58.2618 H   0  0  0  0  0
    9.1162   11.2879   56.9066 H   0  0  0  0  0
    6.1053   12.8852   58.6428 H   0  0  0  0  0
    8.1582   10.3386   54.6893 H   0  0  0  0  0
    3.1825   10.3897   55.3784 H   0  0  0  0  0
    6.6366    9.1416   53.1292 H   0  0  0  0  0
    4.1814    9.1691   53.4786 H   0  0  0  0  0
   11.5542   13.3959   55.8475 H   0  0  0  0  0
   12.4812   14.2831   58.3962 H   0  0  0  0  0
   14.6188   14.7357   57.2521 H   0  0  0  0  0
   13.7785   14.5162   55.6597 H   0  0  0  0  0
   13.6203   12.7728   58.5214 H   0  0  0  0  0
   13.2372   16.2831   58.9060 H   0  0  0  0  0
  2  1  1  0  0  0
  2  5  1  0  0  0
  3  2  1  0  0  0
  3  4  2  0  0  0
  5  6  1  0  0  0
  8  7  1  0  0  0
  8 11  1  0  0  0
  9  8  1  0  0  0
  9 10  2  0  0  0
 11 12  1  0  0  0
 12 13  1  0  0  0
 13 14  1  0  0  0
 14 15  1  0  0  0
  7  3  1  0  0  0
 17 16  1  0  0  0
 17 20  1  0  0  0
 18 17  1  0  0  0
 18 19  2  0  0  0
 20 21  1  0  0  0
 21 22  4  0  0  0
 21 23  4  0  0  0
 23 25  4  0  0  0
 25 26  4  0  0  0
 24 26  4  0  0  0
 22 24  4  0  0  0
 16  9  1  0  0  0
 28 27  1  0  0  0
 28 31  1  0  0  0
 29 28  1  0  0  0
 29 30  2  0  0  0
 27 18  1  0  0  0
 33 32  1  0  0  0
 33 36  1  0  0  0
 34 33  1  0  0  0
 34 35  2  0  0  0
 32 29  1  0  0  0
 38 37  1  0  0  0
 38 41  1  0  0  0
 39 38  1  0  0  0
 39 40  2  0  0  0
 41 42  1  0  0  0
 42 43  1  0  0  0
 42 44  1  0  0  0
 37 34  1  0  0  0
 46 45  1  0  0  0
 46 49  1  0  0  0
 47 46  1  0  0  0
 47 48  2  0  0  0
 49 50  1  0  0  0
 50 51  4  0  0  0
 50 52  4  0  0  0
 52 55  4  0  0  0
 52 54  4  0  0  0
 54 56  4  0  0  0
 54 53  4  0  0  0
 51 53  4  0  0  0
 56 58  4  0  0  0
 57 58  4  0  0  0
 55 57  4  0  0  0
 45 39  1  0  0  0
 59 60  1  0  0  0
 60 63  1  0  0  0
 60 61  1  0  0  0
 61 62  2  0  0  0
 63 64  1  0  0  0
 64 66  2  0  0  0
 64 65  1  0  0  0
 47 59  1  0  0  0
 61 67  1  0  0  0
  1 68  1  0  0  0
  1 69  1  0  0  0
  1 70  1  0  0  0
  2 71  1  0  0  0
  5 72  1  0  0  0
  5 73  1  0  0  0
  6 74  1  0  0  0
  7 75  1  0  0  0
  8 76  1  0  0  0
 11 77  1  0  0  0
 11 78  1  0  0  0
 12 79  1  0  0  0
 12 80  1  0  0  0
 13 81  1  0  0  0
 13 82  1  0  0  0
 14 83  1  0  0  0
 14 84  1  0  0  0
 15 85  1  0  0  0
 15 86  1  0  0  0
 15 87  1  0  0  0
 16 88  1  0  0  0
 17 89  1  0  0  0
 20 90  1  0  0  0
 20 91  1  0  0  0
 22 92  1  0  0  0
 23 93  1  0  0  0
 24 94  1  0  0  0
 25 95  1  0  0  0
 26 96  1  0  0  0
 27 97  1  0  0  0
 28 98  1  0  0  0
 31 99  1  0  0  0
 31100  1  0  0  0
 31101  1  0  0  0
 32102  1  0  0  0
 33103  1  0  0  0
 36104  1  0  0  0
 36105  1  0  0  0
 36106  1  0  0  0
 37107  1  0  0  0
 38108  1  0  0  0
 41109  1  0  0  0
 41110  1  0  0  0
 42111  1  0  0  0
 43112  1  0  0  0
 43113  1  0  0  0
 43114  1  0  0  0
 44115  1  0  0  0
 44116  1  0  0  0
 44117  1  0  0  0
 45118  1  0  0  0
 46119  1  0  0  0
 49120  1  0  0  0
 49121  1  0  0  0
 51122  1  0  0  0
 55123  1  0  0  0
 56124  1  0  0  0
 57125  1  0  0  0
 58126  1  0  0  0
 59127  1  0  0  0
 60128  1  0  0  0
 63129  1  0  0  0
 63130  1  0  0  0
 65131  1  0  0  0
 67132  1  0  0  0
M  END
$$$$
