### 
### Created by X-TOOL on Sun Sep  9 21:50:08 2018
### 

@<TRIPOS>MOLECULE
1t79_ligand
  131   133     1     0     0
SMALL
GAST_HUCK


@<TRIPOS>ATOM
      1 N          14.9630    5.5030   54.0520 N.4       1 NON         0.2396
      2 CA         14.7050    5.3260   52.5980 C.3       1 NON         0.0885
      3 C          14.2420    6.6340   51.9670 C.2       1 NON         0.2290
      4 O          13.9650    7.6140   52.6620 O.2       1 NON        -0.3906
      5 CB         13.6370    4.2520   52.3750 C.3       1 NON         0.1041
      6 OG         12.3730    4.6800   52.8530 O.3       1 NON        -0.3870
      7 N          14.1600    6.6300   50.6410 N.am      1 NON        -0.2610
      8 CA         13.7400    7.7920   49.8670 C.3       1 NON         0.1311
      9 C          12.3220    8.2420   50.2350 C.2       1 NON         0.2040
     10 O          12.0440    9.4390   50.3060 O.2       1 NON        -0.3944
     11 CB         13.8080    7.4610   48.3730 C.3       1 NON        -0.0122
     12 CG         13.5840    8.6400   47.4340 C.3       1 NON        -0.0440
     13 CD         13.5950    8.1780   45.9730 C.3       1 NON        -0.0124
     14 CE         13.3340    9.3230   45.0000 C.3       1 NON        -0.0354
     15 NZ         13.1320    8.8300   43.5960 N.4       1 NON         0.2185
     16 N          11.4270    7.2830   50.4550 N.am      1 NON        -0.2619
     17 CA         10.0370    7.5960   50.8070 C.3       1 NON         0.1404
     18 C           9.9870    8.2340   52.1980 C.2       1 NON         0.2059
     19 O           9.3950    9.2980   52.3930 O.2       1 NON        -0.3942
     20 CB          9.1970    6.3160   50.7810 C.3       1 NON         0.0214
     21 CG          7.7510    6.5220   51.1460 C.ar      1 NON        -0.0386
     22 CD1         6.8740    7.1330   50.2580 C.ar      1 NON        -0.0601
     23 CD2         7.2650    6.0850   52.3740 C.ar      1 NON        -0.0601
     24 CE1         5.5240    7.3030   50.5880 C.ar      1 NON        -0.0686
     25 CE2         5.9210    6.2490   52.7160 C.ar      1 NON        -0.0686
     26 CZ          5.0500    6.8600   51.8170 C.ar      1 NON        -0.0687
     27 N          10.6300    7.5790   53.1580 N.am      1 NON        -0.2639
     28 CA         10.6770    8.0700   54.5290 C.3       1 NON         0.1282
     29 C          11.2700    9.4800   54.6020 C.2       1 NON         0.2036
     30 O          10.8990   10.2760   55.4700 O.2       1 NON        -0.3944
     31 CB         11.4920    7.1100   55.3950 C.3       1 NON        -0.0244
     32 N          12.1820    9.7920   53.6840 N.am      1 NON        -0.2640
     33 CA         12.8230   11.1030   53.6660 C.3       1 NON         0.1282
     34 C          11.8320   12.2360   53.4250 C.2       1 NON         0.2036
     35 O          12.1230   13.4020   53.7070 O.2       1 NON        -0.3944
     36 CB         13.9270   11.1380   52.6040 C.3       1 NON        -0.0244
     37 N          10.6590   11.8960   52.9040 N.am      1 NON        -0.2637
     38 CA          9.6350   12.8970   52.6390 C.3       1 NON         0.1312
     39 C           9.0880   13.4900   53.9340 C.2       1 NON         0.2040
     40 O           8.3460   14.4710   53.9070 O.2       1 NON        -0.3944
     41 CB          8.4920   12.2840   51.8210 C.3       1 NON        -0.0101
     42 CG          8.8620   11.8600   50.3960 C.3       1 NON        -0.0425
     43 CD1         7.6720   11.1890   49.7270 C.3       1 NON        -0.0625
     44 CD2         9.3000   13.0790   49.5970 C.3       1 NON        -0.0625
     45 N           9.4680   12.8940   55.0620 N.am      1 NON        -0.2627
     46 CA          9.0340   13.3510   56.3800 C.3       1 NON         0.1351
     47 C          10.1410   14.0810   57.1470 C.2       1 NON         0.2047
     48 O           9.8750   14.7450   58.1520 O.2       1 NON        -0.3943
     49 CB          8.5390   12.1610   57.2110 C.3       1 NON         0.0042
     50 CG          7.0850   11.8370   56.9960 C.2       1 NON        -0.0418
     51 CD1         6.0250   12.2650   57.7500 C.2       1 NON         0.0167
     52 CD2         6.5290   11.0550   55.9320 C.ar      1 NON        -0.0214
     53 NE1         4.8420   11.7990   57.2180 N.pl3     1 NON        -0.2890
     54 CE2         5.1230   11.0540   56.1020 C.ar      1 NON         0.0603
     55 CE3         7.0800   10.3570   54.8480 C.ar      1 NON        -0.0747
     56 CZ2         4.2620   10.3790   55.2280 C.ar      1 NON        -0.0443
     57 CZ3         6.2220    9.6870   53.9770 C.ar      1 NON        -0.0792
     58 CH2         4.8260    9.7040   54.1760 C.ar      1 NON        -0.0768
     59 N          11.3800   13.9560   56.6820 N.am      1 NON        -0.2678
     60 CA         12.4920   14.6150   57.3580 C.3       1 NON         0.1058
     61 C          12.3430   16.1310   57.3280 C.2       1 NON         0.0618
     62 O          11.7420   16.6480   56.3610 O.co2     1 NON        -0.5665
     63 CB         13.8210   14.2280   56.7100 C.3       1 NON         0.0351
     64 CG         14.0880   12.7410   56.7740 C.2       1 NON         0.0387
     65 OD1        13.9200   12.1470   57.8580 O.co2     1 NON        -0.5688
     66 OD2        14.4760   12.1620   55.7410 O.co2     1 NON        -0.5688
     67 O1         12.8131   16.8452   58.2535 O.co2     1 NON        -0.5665
     68 H1         15.2674    4.6276   54.4482 H         1 NON         0.2016
     69 H2         14.1162    5.8024   54.5095 H         1 NON         0.2016
     70 H3         15.6802    6.1989   54.1837 H         1 NON         0.2016
     71 H4         15.6387    5.0077   52.1114 H         1 NON         0.1122
     72 H5         13.9315    3.3366   52.9091 H         1 NON         0.0640
     73 H6         13.5605    4.0399   51.2984 H         1 NON         0.0640
     74 H7         11.7307    3.9964   52.7024 H         1 NON         0.2099
     75 H8         14.3973    5.7912   50.1511 H         1 NON         0.1884
     76 H9         14.4322    8.6200   50.0794 H         1 NON         0.0800
     77 H10        13.0396    6.7040   48.1573 H         1 NON         0.0312
     78 H11        14.8036    7.0433   48.1624 H         1 NON         0.0312
     79 H12        14.3845    9.3792   47.5850 H         1 NON         0.0269
     80 H13        12.6113    9.1016   47.6595 H         1 NON         0.0269
     81 H14        12.8146    7.4146   45.8378 H         1 NON         0.0317
     82 H15        14.5789    7.7405   45.7481 H         1 NON         0.0317
     83 H16        14.1955   10.0068   45.0162 H         1 NON         0.0813
     84 H17        12.4310    9.8632   45.3205 H         1 NON         0.0813
     85 H18        12.9629    9.6142   42.9856 H         1 NON         0.1994
     86 H19        12.3403    8.2067   43.5694 H         1 NON         0.1994
     87 H20        13.9572    8.3383   43.2905 H         1 NON         0.1994
     88 H21        11.7078    6.3263   50.3788 H         1 NON         0.1885
     89 H22         9.6305    8.3065   50.0722 H         1 NON         0.0823
     90 H23         9.6346    5.6012   51.4934 H         1 NON         0.0474
     91 H24         9.2403    5.8950   49.7657 H         1 NON         0.0474
     92 H25         7.2392    7.4820   49.2989 H         1 NON         0.0557
     93 H26         7.9401    5.6097   53.0764 H         1 NON         0.0557
     94 H27         4.8495    7.7795   49.8859 H         1 NON         0.0599
     95 H28         5.5573    5.9024   53.6766 H         1 NON         0.0599
     96 H29         4.0052    6.9896   52.0753 H         1 NON         0.0559
     97 H30        11.0958    6.7232   52.9331 H         1 NON         0.1883
     98 H31         9.6490    8.1078   54.9186 H         1 NON         0.0797
     99 H32        11.5240    7.4857   56.4284 H         1 NON         0.0277
    100 H33        12.5158    7.0383   54.9991 H         1 NON         0.0277
    101 H34        11.0228    6.1152   55.3809 H         1 NON         0.0277
    102 H35        12.4330    9.1144   52.9927 H         1 NON         0.1883
    103 H36        13.2858   11.2643   54.6508 H         1 NON         0.0797
    104 H37        14.4014   12.1304   52.6009 H         1 NON         0.0277
    105 H38        13.4905   10.9373   51.6145 H         1 NON         0.0277
    106 H39        14.6817   10.3716   52.8342 H         1 NON         0.0277
    107 H40        10.4756   10.9365   52.6900 H         1 NON         0.1883
    108 H41        10.0897   13.7085   52.0519 H         1 NON         0.0800
    109 H42         7.6840   13.0275   51.7555 H         1 NON         0.0315
    110 H43         8.1293   11.3945   52.3570 H         1 NON         0.0315
    111 H44         9.6957   11.1438   50.4403 H         1 NON         0.0298
    112 H45         7.9472   10.8884   48.7053 H         1 NON         0.0232
    113 H46         6.8283   11.8937   49.6871 H         1 NON         0.0232
    114 H47         7.3800   10.2996   50.3047 H         1 NON         0.0232
    115 H48        10.1602   13.5526   50.0928 H         1 NON         0.0232
    116 H49         8.4690   13.7974   49.5390 H         1 NON         0.0232
    117 H50         9.5875   12.7681   48.5818 H         1 NON         0.0232
    118 H51        10.0751   12.1014   55.0049 H         1 NON         0.1884
    119 H52         8.1982   14.0519   56.2377 H         1 NON         0.0815
    120 H53         8.6892   12.3941   58.2755 H         1 NON         0.0397
    121 H54         9.1354   11.2769   56.9415 H         1 NON         0.0397
    122 H55         6.1052   12.8846   58.6419 H         1 NON         0.0795
    123 H56         3.9015   11.9806   57.5966 H         1 NON         0.2216
    124 H57         8.1523   10.3387   54.6902 H         1 NON         0.0540
    125 H58         3.1884   10.3897   55.3776 H         1 NON         0.0541
    126 H59         6.6343    9.1446   53.1338 H         1 NON         0.0510
    127 H60         4.1849    9.1720   53.4824 H         1 NON         0.0530
    128 H61        11.5508   13.4069   55.8639 H         1 NON         0.1877
    129 H62        12.5017   14.2852   58.4073 H         1 NON         0.0745
    130 H63        14.6338   14.7546   57.2316 H         1 NON         0.0471
    131 H64        13.8016   14.5373   55.6546 H         1 NON         0.0471
@<TRIPOS>BOND
     1    2    1 1  
     2    2    5 1  
     3    3    2 1  
     4    3    4 2  
     5    5    6 1  
     6    8    7 1  
     7    8   11 1  
     8    9    8 1  
     9    9   10 2  
    10   11   12 1  
    11   12   13 1  
    12   13   14 1  
    13   14   15 1  
    14    7    3 am 
    15   17   16 1  
    16   17   20 1  
    17   18   17 1  
    18   18   19 2  
    19   20   21 1  
    20   21   22 ar 
    21   21   23 ar 
    22   23   25 ar 
    23   25   26 ar 
    24   24   26 ar 
    25   22   24 ar 
    26   16    9 am 
    27   28   27 1  
    28   28   31 1  
    29   29   28 1  
    30   29   30 2  
    31   27   18 am 
    32   33   32 1  
    33   33   36 1  
    34   34   33 1  
    35   34   35 2  
    36   32   29 am 
    37   38   37 1  
    38   38   41 1  
    39   39   38 1  
    40   39   40 2  
    41   41   42 1  
    42   42   43 1  
    43   42   44 1  
    44   37   34 am 
    45   46   45 1  
    46   46   49 1  
    47   47   46 1  
    48   47   48 2  
    49   49   50 1  
    50   50   51 2  
    51   50   52 1  
    52   52   55 ar 
    53   52   54 ar 
    54   54   56 ar 
    55   54   53 1  
    56   51   53 1  
    57   56   58 ar 
    58   57   58 ar 
    59   55   57 ar 
    60   45   39 am 
    61   59   60 1  
    62   60   63 1  
    63   60   61 1  
    64   61   62 ar 
    65   63   64 1  
    66   64   66 ar 
    67   64   65 ar 
    68   47   59 am 
    69   61   67 ar 
    70    1   68 1  
    71    1   69 1  
    72    1   70 1  
    73    2   71 1  
    74    5   72 1  
    75    5   73 1  
    76    6   74 1  
    77    7   75 1  
    78    8   76 1  
    79   11   77 1  
    80   11   78 1  
    81   12   79 1  
    82   12   80 1  
    83   13   81 1  
    84   13   82 1  
    85   14   83 1  
    86   14   84 1  
    87   15   85 1  
    88   15   86 1  
    89   15   87 1  
    90   16   88 1  
    91   17   89 1  
    92   20   90 1  
    93   20   91 1  
    94   22   92 1  
    95   23   93 1  
    96   24   94 1  
    97   25   95 1  
    98   26   96 1  
    99   27   97 1  
   100   28   98 1  
   101   31   99 1  
   102   31  100 1  
   103   31  101 1  
   104   32  102 1  
   105   33  103 1  
   106   36  104 1  
   107   36  105 1  
   108   36  106 1  
   109   37  107 1  
   110   38  108 1  
   111   41  109 1  
   112   41  110 1  
   113   42  111 1  
   114   43  112 1  
   115   43  113 1  
   116   43  114 1  
   117   44  115 1  
   118   44  116 1  
   119   44  117 1  
   120   45  118 1  
   121   46  119 1  
   122   49  120 1  
   123   49  121 1  
   124   51  122 1  
   125   53  123 1  
   126   55  124 1  
   127   56  125 1  
   128   57  126 1  
   129   58  127 1  
   130   59  128 1  
   131   60  129 1  
   132   63  130 1  
   133   63  131 1  
@<TRIPOS>SUBSTRUCTURE
     1 NON         1

