3tg5_ligand
  -I-interpret- 

140140  0  0  0  0  0  0  0  0999 V2000
    7.5460  -10.4470   -7.2090 N   0  3  0  0  0
    7.5260  -10.2520   -8.6910 C   0  0  0  0  0
    8.7350   -9.4750   -9.2110 C   0  0  0  0  0
    9.7600   -9.3770   -8.5300 O   0  0  0  0  0
    6.2130   -9.6010   -9.1390 C   0  0  0  0  0
    5.2520  -10.5600   -9.7710 C   0  0  0  0  0
    5.3930  -11.0040  -11.0680 N   0  0  0  0  0
    4.1390  -11.1610   -9.2870 C   0  0  0  0  0
    4.4100  -11.8380  -11.3560 C   0  0  0  0  0
    3.6350  -11.9500  -10.2920 N   0  0  0  0  0
    8.5980   -8.9260  -10.4190 N   0  0  0  0  0
    9.6830   -8.2300  -11.1110 C   0  0  0  0  0
   10.1470   -6.9580  -10.3980 C   0  0  0  0  0
    9.4390   -6.4160   -9.5490 O   0  0  0  0  0
    9.2850   -7.9170  -12.5620 C   0  0  0  0  0
    8.8150   -9.0520  -13.4800 C   0  0  0  0  0
    8.6270   -8.5350  -14.9010 C   0  0  0  0  0
    9.7770  -10.2330  -13.4700 C   0  0  0  0  0
   11.3410   -6.4940  -10.7580 N   0  0  0  0  0
   11.9700   -5.3370  -10.1150 C   0  0  0  0  0
   11.1430   -4.0610  -10.2770 C   0  0  0  0  0
   10.7780   -3.6870  -11.3940 O   0  0  0  0  0
   13.3910   -5.1380  -10.6540 C   0  0  0  0  0
   14.3380   -6.2820  -10.3140 C   0  0  0  0  0
   15.5650   -6.3090  -11.2130 C   0  0  0  0  0
   16.3890   -7.5600  -10.9510 C   0  0  0  0  0
   17.5170   -7.7220  -11.9080 N   0  3  0  0  0
   10.8410   -3.4110   -9.1520 N   0  0  0  0  0
   10.0510   -2.1740   -9.1430 C   0  0  0  0  0
   10.2730   -1.3320   -7.8850 C   0  0  0  0  0
   10.7300   -1.8370   -6.8610 O   0  0  0  0  0
    8.5610   -2.4860   -9.2930 C   0  0  0  0  0
    8.0840   -3.2350   -8.1940 O   0  0  0  0  0
    9.9360   -0.0490   -7.9800 N   0  0  0  0  0
   10.0660    0.8910   -6.8690 C   0  0  0  0  0
    8.8410    0.8460   -5.9730 C   0  0  0  0  0
    8.9110    1.1870   -4.7950 O   0  0  0  0  0
   10.2570    2.3140   -7.3910 C   0  0  0  0  0
   11.5290    2.5110   -8.1750 C   0  0  0  0  0
   11.4960    3.8120   -8.9510 C   0  0  0  0  0
   12.7100    3.9300   -9.8450 C   0  0  0  0  0
   12.8280    2.7570  -10.7590 N   0  3  0  0  0
    7.7150    0.4510   -6.5550 N   0  0  0  0  0
    6.4720    0.2770   -5.8190 C   0  0  0  0  0
    5.7500   -0.9680   -6.3320 C   0  0  0  0  0
    6.2520   -1.6650   -7.2120 O   0  0  0  0  0
    5.5870    1.5250   -5.9420 C   0  0  0  0  0
    4.6320    1.7160   -4.7700 C   0  0  0  0  0
    4.3320    3.1820   -4.5170 C   0  0  0  0  0
    3.9760    3.4220   -3.0530 C   0  0  0  0  0
    5.1430    3.2530   -2.1400 N   0  3  0  0  0
    4.5760   -1.2450   -5.7730 N   0  0  0  0  0
    3.7800   -2.4070   -6.1580 C   0  0  0  0  0
    3.0970   -2.9940   -4.9420 C   0  0  0  0  0
    2.7570   -4.1800   -4.9170 O   0  0  0  0  0
    2.9010   -2.1390   -3.9390 N   0  0  0  0  0
    2.3350   -2.5020   -2.6410 C   0  0  0  0  0
    1.1470   -3.4580   -2.7370 C   0  0  0  0  0
    0.8585   -4.2243   -1.7793 O   0  0  0  0  0
    1.9070   -1.2380   -1.8950 C   0  0  0  0  0
    3.0120   -0.2200   -1.6460 C   0  0  0  0  0
    2.5720    0.9100   -0.7300 C   0  0  0  0  0
    1.3800    1.1810   -0.5770 O   0  0  0  0  0
    3.5390    1.5750   -0.1120 N   0  0  0  0  0
    0.4482   -3.4803   -3.7852 O   0  0  0  0  0
    8.4280  -10.8808   -6.9362 H   0  0  0  0  0
    7.4534   -9.5424   -6.7470 H   0  0  0  0  0
    6.7702  -11.0505   -6.9362 H   0  0  0  0  0
    7.5908  -11.2454   -9.1350 H   0  0  0  0  0
    6.4608   -8.8472   -9.8863 H   0  0  0  0  0
    5.7308   -9.1938   -8.2503 H   0  0  0  0  0
    3.7215  -11.0410   -8.2873 H   0  0  0  0  0
    4.2633  -12.3468  -12.3087 H   0  0  0  0  0
    7.6923   -8.9948  -10.8831 H   0  0  0  0  0
   10.5334   -8.9119  -11.1046 H   0  0  0  0  0
   10.2000   -7.5482  -13.0256 H   0  0  0  0  0
    8.4218   -7.2571  -12.4751 H   0  0  0  0  0
    7.8593   -9.4087  -13.0959 H   0  0  0  0  0
    7.8795   -7.7417  -14.9017 H   0  0  0  0  0
    9.5742   -8.1438  -15.2722 H   0  0  0  0  0
    8.2933   -9.3510  -15.5420 H   0  0  0  0  0
   10.7583   -9.9036  -13.8117 H   0  0  0  0  0
    9.8569  -10.6263  -12.4566 H   0  0  0  0  0
    9.4018  -11.0112  -14.1346 H   0  0  0  0  0
   11.8398   -6.9636  -11.5137 H   0  0  0  0  0
   12.0212   -5.5454   -9.0463 H   0  0  0  0  0
   13.7915   -4.2345  -10.1941 H   0  0  0  0  0
   13.3235   -5.0815  -11.7404 H   0  0  0  0  0
   13.7980   -7.2185  -10.4536 H   0  0  0  0  0
   14.6764   -6.1446   -9.2870 H   0  0  0  0  0
   16.1768   -5.4315  -11.0040 H   0  0  0  0  0
   15.2417   -6.3092  -12.2539 H   0  0  0  0  0
   15.7308   -8.4216  -11.0635 H   0  0  0  0  0
   16.8115   -7.4765   -9.9497 H   0  0  0  0  0
   18.0314   -8.5739  -11.6843 H   0  0  0  0  0
   17.1495   -7.7847  -12.8574 H   0  0  0  0  0
   18.1406   -6.9180  -11.8360 H   0  0  0  0  0
   11.1718   -3.7881   -8.2639 H   0  0  0  0  0
   10.3954   -1.5859   -9.9937 H   0  0  0  0  0
    8.4172   -3.0705  -10.2017 H   0  0  0  0  0
    8.0111   -1.5460   -9.3390 H   0  0  0  0  0
    7.1489   -3.4164   -8.3135 H   0  0  0  0  0
    9.5704    0.2942   -8.8682 H   0  0  0  0  0
   10.9405    0.5977   -6.2881 H   0  0  0  0  0
   10.3047    2.9736   -6.5245 H   0  0  0  0  0
    9.4256    2.5272   -8.0629 H   0  0  0  0  0
   11.6349    1.6869   -8.8804 H   0  0  0  0  0
   12.3667    2.5417   -7.4783 H   0  0  0  0  0
   11.4945    4.6435   -8.2462 H   0  0  0  0  0
   10.5988    3.8314   -9.5697 H   0  0  0  0  0
   13.6000    3.9708   -9.2170 H   0  0  0  0  0
   12.6088    4.8314  -10.4495 H   0  0  0  0  0
   13.6544    2.8672  -11.3467 H   0  0  0  0  0
   12.9137    1.9041  -10.2062 H   0  0  0  0  0
   11.9963    2.7005  -11.3468 H   0  0  0  0  0
    7.7216    0.2621   -7.5573 H   0  0  0  0  0
    6.6957    0.1417   -4.7608 H   0  0  0  0  0
    4.9812    1.4079   -6.8406 H   0  0  0  0  0
    6.2474    2.3917   -5.9691 H   0  0  0  0  0
    5.1011    1.3041   -3.8765 H   0  0  0  0  0
    3.6953    1.2115   -5.0069 H   0  0  0  0  0
    3.4850    3.4777   -5.1360 H   0  0  0  0  0
    5.2179    3.7678   -4.7622 H   0  0  0  0  0
    3.2205    2.6896   -2.7685 H   0  0  0  0  0
    3.6242    4.4494   -2.9588 H   0  0  0  0  0
    4.8486    3.4245   -1.1786 H   0  0  0  0  0
    5.5026    2.3020   -2.2222 H   0  0  0  0  0
    5.8732    3.9173   -2.3969 H   0  0  0  0  0
    4.2181   -0.6228   -5.0484 H   0  0  0  0  0
    4.4342   -3.1590   -6.5992 H   0  0  0  0  0
    3.0236   -2.0996   -6.8801 H   0  0  0  0  0
    3.1639   -1.1646   -4.0870 H   0  0  0  0  0
    3.1204   -3.0285   -2.0987 H   0  0  0  0  0
    1.4813   -4.0864   -1.0618 H   0  0  0  0  0
    1.5539   -1.5596   -0.9152 H   0  0  0  0  0
    1.1641   -0.7438   -2.5211 H   0  0  0  0  0
    3.2886    0.2156   -2.6061 H   0  0  0  0  0
    3.8418   -0.7375   -1.1647 H   0  0  0  0  0
    3.3077    2.3432    0.5179 H   0  0  0  0  0
    4.5140    1.3182   -0.2666 H   0  0  0  0  0
  1  2  1  0  0  0
  2  3  1  0  0  0
  2  5  1  0  0  0
  3  4  2  0  0  0
  3 11  1  0  0  0
  5  6  1  0  0  0
  6  7  4  0  0  0
  6  8  4  0  0  0
  7  9  4  0  0  0
  8 10  4  0  0  0
  9 10  4  0  0  0
 11 12  1  0  0  0
 12 13  1  0  0  0
 12 15  1  0  0  0
 13 14  2  0  0  0
 13 19  1  0  0  0
 15 16  1  0  0  0
 16 17  1  0  0  0
 16 18  1  0  0  0
 19 20  1  0  0  0
 20 21  1  0  0  0
 20 23  1  0  0  0
 21 22  2  0  0  0
 21 28  1  0  0  0
 23 24  1  0  0  0
 24 25  1  0  0  0
 25 26  1  0  0  0
 26 27  1  0  0  0
 28 29  1  0  0  0
 29 30  1  0  0  0
 29 32  1  0  0  0
 30 31  2  0  0  0
 30 34  1  0  0  0
 32 33  1  0  0  0
 34 35  1  0  0  0
 35 36  1  0  0  0
 35 38  1  0  0  0
 36 37  2  0  0  0
 36 43  1  0  0  0
 38 39  1  0  0  0
 39 40  1  0  0  0
 40 41  1  0  0  0
 41 42  1  0  0  0
 43 44  1  0  0  0
 44 45  1  0  0  0
 44 47  1  0  0  0
 45 46  2  0  0  0
 45 52  1  0  0  0
 47 48  1  0  0  0
 48 49  1  0  0  0
 49 50  1  0  0  0
 50 51  1  0  0  0
 52 53  1  0  0  0
 53 54  1  0  0  0
 54 55  2  0  0  0
 54 56  1  0  0  0
 56 57  1  0  0  0
 57 58  1  0  0  0
 57 60  1  0  0  0
 58 59  1  0  0  0
 60 61  1  0  0  0
 61 62  1  0  0  0
 62 63  2  0  0  0
 62 64  1  0  0  0
 58 65  2  0  0  0
  1 66  1  0  0  0
  1 67  1  0  0  0
  1 68  1  0  0  0
  2 69  1  0  0  0
  5 70  1  0  0  0
  5 71  1  0  0  0
  8 72  1  0  0  0
  9 73  1  0  0  0
 11 74  1  0  0  0
 12 75  1  0  0  0
 15 76  1  0  0  0
 15 77  1  0  0  0
 16 78  1  0  0  0
 17 79  1  0  0  0
 17 80  1  0  0  0
 17 81  1  0  0  0
 18 82  1  0  0  0
 18 83  1  0  0  0
 18 84  1  0  0  0
 19 85  1  0  0  0
 20 86  1  0  0  0
 23 87  1  0  0  0
 23 88  1  0  0  0
 24 89  1  0  0  0
 24 90  1  0  0  0
 25 91  1  0  0  0
 25 92  1  0  0  0
 26 93  1  0  0  0
 26 94  1  0  0  0
 27 95  1  0  0  0
 27 96  1  0  0  0
 27 97  1  0  0  0
 28 98  1  0  0  0
 29 99  1  0  0  0
 32100  1  0  0  0
 32101  1  0  0  0
 33102  1  0  0  0
 34103  1  0  0  0
 35104  1  0  0  0
 38105  1  0  0  0
 38106  1  0  0  0
 39107  1  0  0  0
 39108  1  0  0  0
 40109  1  0  0  0
 40110  1  0  0  0
 41111  1  0  0  0
 41112  1  0  0  0
 42113  1  0  0  0
 42114  1  0  0  0
 42115  1  0  0  0
 43116  1  0  0  0
 44117  1  0  0  0
 47118  1  0  0  0
 47119  1  0  0  0
 48120  1  0  0  0
 48121  1  0  0  0
 49122  1  0  0  0
 49123  1  0  0  0
 50124  1  0  0  0
 50125  1  0  0  0
 51126  1  0  0  0
 51127  1  0  0  0
 51128  1  0  0  0
 52129  1  0  0  0
 53130  1  0  0  0
 53131  1  0  0  0
 56132  1  0  0  0
 57133  1  0  0  0
 59134  1  0  0  0
 60135  1  0  0  0
 60136  1  0  0  0
 61137  1  0  0  0
 61138  1  0  0  0
 64139  1  0  0  0
 64140  1  0  0  0
M  END
$$$$
