### 
### Created by X-TOOL on Mon Sep 10 21:13:08 2018
### 

@<TRIPOS>MOLECULE
3tg5_ligand
  140   140     1     0     0
SMALL
GAST_HUCK


@<TRIPOS>ATOM
      1 N           7.5460  -10.4470   -7.2090 N.4       1 HIS         0.2390
      2 CA          7.5260  -10.2520   -8.6910 C.3       1 HIS         0.0708
      3 C           8.7350   -9.4750   -9.2110 C.2       1 HIS         0.2282
      4 O           9.7600   -9.3770   -8.5300 O.2       1 HIS        -0.3906
      5 CB          6.2130   -9.6010   -9.1390 C.3       1 HIS         0.0347
      6 CG          5.2520  -10.5600   -9.7710 C.2       1 HIS         0.0005
      7 ND1         5.3930  -11.0040  -11.0680 N.2       1 HIS        -0.3251
      8 CD2         4.1390  -11.1610   -9.2870 C.2       1 HIS         0.0293
      9 CE1         4.4100  -11.8380  -11.3560 C.2       1 HIS         0.0907
     10 NE2         3.6350  -11.9500  -10.2920 N.pl3     1 HIS        -0.2752
     11 N           8.5980   -8.9260  -10.4190 N.am      1 LEU        -0.2609
     12 CA          9.6830   -8.2300  -11.1110 C.3       1 LEU         0.1313
     13 C          10.1470   -6.9580  -10.3980 C.2       1 LEU         0.2039
     14 O           9.4390   -6.4160   -9.5490 O.2       1 LEU        -0.3944
     15 CB          9.2850   -7.9170  -12.5620 C.3       1 LEU        -0.0101
     16 CG          8.8150   -9.0520  -13.4800 C.3       1 LEU        -0.0425
     17 CD1         8.6270   -8.5350  -14.9010 C.3       1 LEU        -0.0625
     18 CD2         9.7770  -10.2330  -13.4700 C.3       1 LEU        -0.0625
     19 N          11.3410   -6.4940  -10.7580 N.am      1 LYS        -0.2637
     20 CA         11.9700   -5.3370  -10.1150 C.3       1 LYS         0.1310
     21 C          11.1430   -4.0610  -10.2770 C.2       1 LYS         0.2040
     22 O          10.7780   -3.6870  -11.3940 O.2       1 LYS        -0.3944
     23 CB         13.3910   -5.1380  -10.6540 C.3       1 LYS        -0.0122
     24 CG         14.3380   -6.2820  -10.3140 C.3       1 LYS        -0.0440
     25 CD         15.5650   -6.3090  -11.2130 C.3       1 LYS        -0.0124
     26 CE         16.3890   -7.5600  -10.9510 C.3       1 LYS        -0.0354
     27 NZ         17.5170   -7.7220  -11.9080 N.4       1 LYS         0.2185
     28 N          10.8410   -3.4110   -9.1520 N.am      1 SER        -0.2616
     29 CA         10.0510   -2.1740   -9.1430 C.3       1 SER         0.1539
     30 C          10.2730   -1.3320   -7.8850 C.2       1 SER         0.2062
     31 O          10.7300   -1.8370   -6.8610 O.2       1 SER        -0.3943
     32 CB          8.5610   -2.4860   -9.2930 C.3       1 SER         0.0843
     33 OG          8.0840   -3.2350   -8.1940 O.3       1 SER        -0.3903
     34 N           9.9360   -0.0490   -7.9800 N.am      1 LYS        -0.2637
     35 CA         10.0660    0.8910   -6.8690 C.3       1 LYS         0.1310
     36 C           8.8410    0.8460   -5.9730 C.2       1 LYS         0.2039
     37 O           8.9110    1.1870   -4.7950 O.2       1 LYS        -0.3944
     38 CB         10.2570    2.3140   -7.3910 C.3       1 LYS        -0.0122
     39 CG         11.5290    2.5110   -8.1750 C.3       1 LYS        -0.0440
     40 CD         11.4960    3.8120   -8.9510 C.3       1 LYS        -0.0124
     41 CE         12.7100    3.9300   -9.8450 C.3       1 LYS        -0.0354
     42 NZ         12.8280    2.7570  -10.7590 N.4       1 LYS         0.2185
     43 N           7.7150    0.4510   -6.5550 N.am      1 LYS        -0.2637
     44 CA          6.4720    0.2770   -5.8190 C.3       1 LYS         0.1310
     45 C           5.7500   -0.9680   -6.3320 C.2       1 LYS         0.2037
     46 O           6.2520   -1.6650   -7.2120 O.2       1 LYS        -0.3944
     47 CB          5.5870    1.5250   -5.9420 C.3       1 LYS        -0.0122
     48 CG          4.6320    1.7160   -4.7700 C.3       1 LYS        -0.0440
     49 CD          4.3320    3.1820   -4.5170 C.3       1 LYS        -0.0124
     50 CE          3.9760    3.4220   -3.0530 C.3       1 LYS        -0.0354
     51 NZ          5.1430    3.2530   -2.1400 N.4       1 LYS         0.2185
     52 N           4.5760   -1.2450   -5.7730 N.am      1 GLY        -0.2664
     53 CA          3.7800   -2.4070   -6.1580 C.3       1 GLY         0.1201
     54 C           3.0970   -2.9940   -4.9420 C.2       1 GLY         0.2002
     55 O           2.7570   -4.1800   -4.9170 O.2       1 GLY        -0.3947
     56 N           2.9010   -2.1390   -3.9390 N.am      1 GLN        -0.2696
     57 CA          2.3350   -2.5020   -2.6410 C.3       1 GLN         0.0964
     58 C           1.1470   -3.4580   -2.7370 C.2       1 GLN         0.0602
     59 O           0.8585   -4.2243   -1.7793 O.co2     1 GLN        -0.5666
     60 CB          1.9070   -1.2380   -1.8950 C.3       1 GLN        -0.0010
     61 CG          3.0120   -0.2200   -1.6460 C.3       1 GLN         0.0407
     62 CD          2.5720    0.9100   -0.7300 C.2       1 GLN         0.1737
     63 OE1         1.3800    1.1810   -0.5770 O.2       1 GLN        -0.3973
     64 NE2         3.5390    1.5750   -0.1120 N.am      1 GLN        -0.3009
     65 O           0.4482   -3.4803   -3.7852 O.co2     1 GLN        -0.5666
     66 H1          6.7275  -10.9633   -6.9270 H         1 HIS         0.2016
     67 H2          7.5506   -9.5486   -6.7519 H         1 HIS         0.2016
     68 H3          8.3734  -10.9606   -6.9488 H         1 HIS         0.2016
     69 H4          7.5684  -11.2521   -9.1470 H         1 HIS         0.1116
     70 H5          6.4475   -8.8123   -9.8690 H         1 HIS         0.0453
     71 H6          5.7288   -9.1535   -8.2585 H         1 HIS         0.0453
     72 H7          3.7218  -11.0412   -8.2882 H         1 HIS         0.0729
     73 H8          4.2635  -12.3464  -12.3078 H         1 HIS         0.1199
     74 H9          2.7894  -12.5345  -10.2266 H         1 HIS         0.2361
     75 H10         7.7100   -8.9935  -10.8740 H         1 LEU         0.1885
     76 H11        10.5416   -8.9169  -11.1399 H         1 LEU         0.0800
     77 H12        10.1626   -7.4601  -13.0426 H         1 LEU         0.0315
     78 H13         8.4673   -7.1826  -12.5177 H         1 LEU         0.0315
     79 H14         7.8415   -9.4058  -13.1098 H         1 LEU         0.0298
     80 H15         8.2902   -9.3577  -15.5489 H         1 LEU         0.0232
     81 H16         9.5823   -8.1399  -15.2769 H         1 LEU         0.0232
     82 H17         7.8728   -7.7343  -14.9031 H         1 LEU         0.0232
     83 H18         9.9026  -10.5949  -12.4388 H         1 LEU         0.0232
     84 H19        10.7519   -9.9152  -13.8683 H         1 LEU         0.0232
     85 H20         9.3713  -11.0418  -14.0955 H         1 LEU         0.0232
     86 H21        11.8300   -6.9544  -11.4989 H         1 LYS         0.1883
     87 H22        12.0422   -5.5513   -9.0385 H         1 LYS         0.0800
     88 H23        13.7986   -4.2103  -10.2259 H         1 LYS         0.0312
     89 H24        13.3378   -5.0443  -11.7487 H         1 LYS         0.0312
     90 H25        13.7971   -7.2332  -10.4267 H         1 LYS         0.0269
     91 H26        14.6676   -6.1690   -9.2706 H         1 LYS         0.0269
     92 H27        16.1814   -5.4206  -11.0112 H         1 LYS         0.0317
     93 H28        15.2435   -6.3010  -12.2649 H         1 LYS         0.0317
     94 H29        15.7306   -8.4374  -11.0329 H         1 LYS         0.0813
     95 H30        16.7990   -7.5031   -9.9319 H         1 LYS         0.0813
     96 H31        18.0261   -8.5636  -11.6878 H         1 LYS         0.1994
     97 H32        18.1340   -6.9280  -11.8377 H         1 LYS         0.1994
     98 H33        17.1550   -7.7842  -12.8467 H         1 LYS         0.1994
     99 H34        11.1653   -3.7807   -8.2813 H         1 SER         0.1884
    100 H35        10.3658   -1.5730  -10.0089 H         1 SER         0.0823
    101 H36         8.4063   -3.0643  -10.2158 H         1 SER         0.0606
    102 H37         8.0007   -1.5414   -9.3540 H         1 SER         0.0606
    103 H38         8.2116   -2.7382   -7.3943 H         1 SER         0.2097
    104 H39         9.5776    0.2874   -8.8508 H         1 LYS         0.1883
    105 H40        10.9483    0.6095   -6.2754 H         1 LYS         0.0800
    106 H41        10.2706    2.9996   -6.5309 H         1 LYS         0.0312
    107 H42         9.4064    2.5608   -8.0433 H         1 LYS         0.0312
    108 H43        11.6495    1.6753   -8.8800 H         1 LYS         0.0269
    109 H44        12.3807    2.5294   -7.4791 H         1 LYS         0.0269
    110 H45        11.4847    4.6545   -8.2438 H         1 LYS         0.0317
    111 H46        10.5872    3.8407   -9.5700 H         1 LYS         0.0317
    112 H47        13.6121    3.9875   -9.2181 H         1 LYS         0.0813
    113 H48        12.6232    4.8461  -10.4477 H         1 LYS         0.0813
    114 H49        13.6444    2.8648  -11.3403 H         1 LYS         0.1994
    115 H50        12.0066    2.7002  -11.3405 H         1 LYS         0.1994
    116 H51        12.9128    1.9134  -10.2138 H         1 LYS         0.1994
    117 H52         7.7214    0.2658   -7.5377 H         1 LYS         0.1883
    118 H53         6.7114    0.1286   -4.7557 H         1 LYS         0.0800
    119 H54         4.9929    1.4401   -6.8639 H         1 LYS         0.0312
    120 H55         6.2392    2.4084   -6.0061 H         1 LYS         0.0312
    121 H56         5.0876    1.2853   -3.8662 H         1 LYS         0.0269
    122 H57         3.6896    1.1932   -4.9904 H         1 LYS         0.0269
    123 H58         3.4855    3.4902   -5.1483 H         1 LYS         0.0317
    124 H59         5.2184    3.7803   -4.7744 H         1 LYS         0.0317
    125 H60         3.1936    2.7066   -2.7596 H         1 LYS         0.0813
    126 H61         3.5931    4.4478   -2.9479 H         1 LYS         0.0813
    127 H62         4.8532    3.4223   -1.1895 H         1 LYS         0.1994
    128 H63         5.8653    3.9090   -2.3929 H         1 LYS         0.1994
    129 H64         5.4992    2.3135   -2.2204 H         1 LYS         0.1994
    130 H65         4.2251   -0.6350   -5.0626 H         1 GLY         0.1881
    131 H66         4.4373   -3.1656   -6.6080 H         1 GLY         0.0763
    132 H67         3.0188   -2.1003   -6.8905 H         1 GLY         0.0763
    133 H68         3.1587   -1.1837   -4.0841 H         1 GLN         0.1875
    134 H69         3.1234   -3.0024   -2.0597 H         1 GLN         0.0727
    135 H70         1.4992   -1.5414   -0.9195 H         1 GLN         0.0330
    136 H71         1.1194   -0.7463   -2.4848 H         1 GLN         0.0330
    137 H72         3.3197    0.2088   -2.6111 H         1 GLN         0.0504
    138 H73         3.8673   -0.7348   -1.1841 H         1 GLN         0.0504
    139 H74         3.3123    2.3295    0.5039 H         1 GLN         0.1814
    140 H75         4.4947    1.3219   -0.2620 H         1 GLN         0.1814
@<TRIPOS>BOND
     1    1    2 1  
     2    2    3 1  
     3    2    5 1  
     4    3    4 2  
     5    3   11 am 
     6    5    6 1  
     7    6    7 1  
     8    6    8 2  
     9    7    9 2  
    10    8   10 1  
    11    9   10 1  
    12   11   12 1  
    13   12   13 1  
    14   12   15 1  
    15   13   14 2  
    16   13   19 am 
    17   15   16 1  
    18   16   17 1  
    19   16   18 1  
    20   19   20 1  
    21   20   21 1  
    22   20   23 1  
    23   21   22 2  
    24   21   28 am 
    25   23   24 1  
    26   24   25 1  
    27   25   26 1  
    28   26   27 1  
    29   28   29 1  
    30   29   30 1  
    31   29   32 1  
    32   30   31 2  
    33   30   34 am 
    34   32   33 1  
    35   34   35 1  
    36   35   36 1  
    37   35   38 1  
    38   36   37 2  
    39   36   43 am 
    40   38   39 1  
    41   39   40 1  
    42   40   41 1  
    43   41   42 1  
    44   43   44 1  
    45   44   45 1  
    46   44   47 1  
    47   45   46 2  
    48   45   52 am 
    49   47   48 1  
    50   48   49 1  
    51   49   50 1  
    52   50   51 1  
    53   52   53 1  
    54   53   54 1  
    55   54   55 2  
    56   54   56 am 
    57   56   57 1  
    58   57   58 1  
    59   57   60 1  
    60   58   59 ar 
    61   60   61 1  
    62   61   62 1  
    63   62   63 2  
    64   62   64 am 
    65   58   65 ar 
    66    1   66 1  
    67    1   67 1  
    68    1   68 1  
    69    2   69 1  
    70    5   70 1  
    71    5   71 1  
    72    8   72 1  
    73    9   73 1  
    74   10   74 1  
    75   11   75 1  
    76   12   76 1  
    77   15   77 1  
    78   15   78 1  
    79   16   79 1  
    80   17   80 1  
    81   17   81 1  
    82   17   82 1  
    83   18   83 1  
    84   18   84 1  
    85   18   85 1  
    86   19   86 1  
    87   20   87 1  
    88   23   88 1  
    89   23   89 1  
    90   24   90 1  
    91   24   91 1  
    92   25   92 1  
    93   25   93 1  
    94   26   94 1  
    95   26   95 1  
    96   27   96 1  
    97   27   97 1  
    98   27   98 1  
    99   28   99 1  
   100   29  100 1  
   101   32  101 1  
   102   32  102 1  
   103   33  103 1  
   104   34  104 1  
   105   35  105 1  
   106   38  106 1  
   107   38  107 1  
   108   39  108 1  
   109   39  109 1  
   110   40  110 1  
   111   40  111 1  
   112   41  112 1  
   113   41  113 1  
   114   42  114 1  
   115   42  115 1  
   116   42  116 1  
   117   43  117 1  
   118   44  118 1  
   119   47  119 1  
   120   47  120 1  
   121   48  121 1  
   122   48  122 1  
   123   49  123 1  
   124   49  124 1  
   125   50  125 1  
   126   50  126 1  
   127   51  127 1  
   128   51  128 1  
   129   51  129 1  
   130   52  130 1  
   131   53  131 1  
   132   53  132 1  
   133   56  133 1  
   134   57  134 1  
   135   60  135 1  
   136   60  136 1  
   137   61  137 1  
   138   61  138 1  
   139   64  139 1  
   140   64  140 1  
@<TRIPOS>SUBSTRUCTURE
     1 HIS         1

