3ta0_ligand
  -I-interpret- 

 47 49  0  0  0  0  0  0  0  0999 V2000
  -57.7280  -16.6320  -15.4520 P   0  0  0  0  0
  -58.2010  -16.0980  -14.0800 O   0  0  0  0  0
  -56.1890  -16.5250  -15.4880 O   0  0  0  0  0
  -58.1390  -18.0420  -15.7170 O   0  0  0  0  0
  -58.9860  -14.5780  -17.0300 P   0  0  0  0  0
  -60.3390  -14.8180  -16.3440 O   0  0  0  0  0
  -59.6020  -14.5910  -18.4230 O   0  0  0  0  0
  -58.1100  -15.8580  -16.7680 O   0  0  0  0  0
  -57.2060  -12.8850  -15.7380 P   0  0  0  0  0
  -57.2900  -13.2740  -14.2700 O   0  0  0  0  0
  -56.1310  -13.8010  -16.3900 O   0  0  0  0  0
  -58.5190  -13.1720  -16.4930 O   0  0  0  0  0
  -56.8100  -11.3260  -16.0130 O   0  0  0  0  0
  -57.0340  -10.3010  -15.0610 C   0  0  0  0  0
  -56.3150   -9.0200  -15.5250 C   0  0  0  0  0
  -54.8890   -9.2240  -15.5190 O   0  0  0  0  0
  -56.6550   -8.6000  -16.9420 C   0  0  0  0  0
  -57.8780   -7.9290  -17.0350 O   0  0  0  0  0
  -55.4570   -7.7520  -17.3840 C   0  0  0  0  0
  -55.5460   -6.4160  -16.8460 O   0  0  0  0  0
  -54.3440   -8.5450  -16.7130 C   0  0  0  0  0
  -53.6640   -9.5080  -17.5430 N   0  0  0  0  0
  -53.9830  -10.8250  -17.7140 C   0  0  0  0  0
  -53.1530  -11.4470  -18.5180 N   0  0  0  0  0
  -52.2430  -10.5040  -18.8920 C   0  0  0  0  0
  -51.1000  -10.5500  -19.7370 C   0  0  0  0  0
  -50.7080  -11.7050  -20.3640 N   0  0  0  0  0
  -50.3630   -9.3850  -19.9080 N   0  0  0  0  0
  -50.7730   -8.2340  -19.2780 C   0  0  0  0  0
  -51.8520   -8.0830  -18.4410 N   0  0  0  0  0
  -52.5440   -9.2550  -18.2930 C   0  0  0  0  0
  -57.9058  -15.1909  -13.9719 H   0  0  0  0  0
  -55.9284  -15.6170  -15.3172 H   0  0  0  0  0
  -60.2126  -14.8529  -15.3930 H   0  0  0  0  0
  -56.0495  -13.5838  -17.3215 H   0  0  0  0  0
  -56.6457  -10.6095  -14.0904 H   0  0  0  0  0
  -58.1034  -10.1103  -14.9709 H   0  0  0  0  0
  -56.6459   -8.2494  -14.8288 H   0  0  0  0  0
  -56.8034   -9.4571  -17.5988 H   0  0  0  0  0
  -58.0408   -7.6882  -17.9499 H   0  0  0  0  0
  -55.3476   -7.6074  -18.4588 H   0  0  0  0  0
  -54.7869   -5.9045  -17.1354 H   0  0  0  0  0
  -53.5813   -7.8086  -16.4599 H   0  0  0  0  0
  -54.8348  -11.3073  -17.2345 H   0  0  0  0  0
  -51.2413  -12.5641  -20.2304 H   0  0  0  0  0
  -49.8831  -11.7049  -20.9640 H   0  0  0  0  0
  -50.1753   -7.3415  -19.4632 H   0  0  0  0  0
  1  2  1  0  0  0
  1  3  1  0  0  0
  1  4  2  0  0  0
  8  1  1  0  0  0
  5  6  1  0  0  0
  5  7  2  0  0  0
  5  8  1  0  0  0
 12  5  1  0  0  0
  9 10  2  0  0  0
  9 11  1  0  0  0
  9 12  1  0  0  0
  9 13  1  0  0  0
 13 14  1  0  0  0
 14 15  1  0  0  0
 15 16  1  0  0  0
 15 17  1  0  0  0
 16 21  1  0  0  0
 17 18  1  0  0  0
 17 19  1  0  0  0
 19 20  1  0  0  0
 19 21  1  0  0  0
 21 22  1  0  0  0
 22 23  4  0  0  0
 22 31  4  0  0  0
 23 24  4  0  0  0
 24 25  4  0  0  0
 25 26  4  0  0  0
 25 31  4  0  0  0
 26 27  1  0  0  0
 26 28  4  0  0  0
 28 29  4  0  0  0
 29 30  4  0  0  0
 30 31  4  0  0  0
  2 32  1  0  0  0
  3 33  1  0  0  0
  6 34  1  0  0  0
 11 35  1  0  0  0
 14 36  1  0  0  0
 14 37  1  0  0  0
 15 38  1  0  0  0
 17 39  1  0  0  0
 18 40  1  0  0  0
 19 41  1  0  0  0
 20 42  1  0  0  0
 21 43  1  0  0  0
 23 44  1  0  0  0
 27 45  1  0  0  0
 27 46  1  0  0  0
 29 47  1  0  0  0
M  END
$$$$
