5kab_ligand
  -I-interpret- 

 24 25  0  0  0  0  0  0  0  0999 V2000
   34.7350  -11.1920  -18.3220 N   0  0  0  0  0
   33.7230  -10.7040  -17.4250 C   0  0  0  0  0
   32.6010  -11.6480  -17.0050 C   0  0  0  0  0
   32.4700  -12.8510  -17.7620 C   0  0  0  0  0
   33.3670  -13.1700  -18.8970 C   0  0  0  0  0
   34.3510  -12.1580  -19.3430 C   0  0  0  0  0
   31.5040  -11.5880  -15.8820 S   0  0  0  0  0
   30.7150  -12.9260  -16.0680 C   0  0  0  0  0
   31.2640  -13.6540  -17.1660 C   0  0  0  0  0
   30.7550  -15.0220  -17.7250 C   0  0  0  0  0
   29.9060  -15.6790  -17.0580 O   0  0  0  0  0
   31.1910  -15.4540  -18.8830 O   0  0  0  0  0
   29.5840  -13.4040  -15.3560 N   0  0  0  0  0
   29.0810  -12.9740  -14.1150 C   0  0  0  0  0
   27.8000  -13.6770  -13.6930 C   0  0  0  0  0
   26.7970  -12.9040  -13.3980 O   0  0  0  0  0
   27.7460  -14.9500  -13.6750 O   0  0  0  0  0
   29.6200  -12.0960  -13.3760 O   0  0  0  0  0
   33.7569   -9.6801  -17.0526 H   0  0  0  0  0
   33.3033  -14.1366  -19.3968 H   0  0  0  0  0
   34.7561  -12.1371  -20.3547 H   0  0  0  0  0
   31.8258  -14.8277  -19.2385 H   0  0  0  0  0
   29.0670  -14.1604  -15.8042 H   0  0  0  0  0
   27.0670  -11.9863  -13.4792 H   0  0  0  0  0
  1  2  4  0  0  0
  1  6  4  0  0  0
  2  3  4  0  0  0
  3  4  4  0  0  0
  3  7  4  0  0  0
  4  5  4  0  0  0
  4  9  4  0  0  0
  5  6  4  0  0  0
  7  8  4  0  0  0
  8  9  4  0  0  0
  8 13  1  0  0  0
  9 10  1  0  0  0
 10 11  2  0  0  0
 10 12  1  0  0  0
 13 14  1  0  0  0
 14 15  1  0  0  0
 14 18  2  0  0  0
 15 16  1  0  0  0
 15 17  2  0  0  0
  2 19  1  0  0  0
  5 20  1  0  0  0
  6 21  1  0  0  0
 12 22  1  0  0  0
 13 23  1  0  0  0
 16 24  1  0  0  0
M  END
$$$$
