3b2q_ligand
  -I-interpret- 

 47 49  0  0  0  0  0  0  0  0999 V2000
  -25.3330  -18.1210   18.1580 P   0  0  0  0  0
  -23.9650  -17.8060   17.6030 O   0  0  0  0  0
  -26.4230  -18.2120   17.1170 O   0  0  0  0  0
  -25.3510  -19.2350   19.1780 O   0  0  0  0  0
  -24.6620  -15.6060   19.1770 P   0  0  0  0  0
  -23.6320  -16.0200   20.2010 O   0  0  0  0  0
  -24.2220  -15.1690   17.8010 O   0  0  0  0  0
  -25.7170  -16.8100   19.0100 O   0  0  0  0  0
  -25.1000  -12.8960   19.7040 P   0  0  0  0  0
  -25.7940  -12.2780   18.5140 O   0  0  0  0  0
  -23.5940  -12.8470   19.8070 O   0  0  0  0  0
  -25.5630  -14.4340   19.8140 O   0  0  0  0  0
  -25.7180  -12.2460   21.0410 O   0  0  0  0  0
  -24.8890  -11.5070   21.9370 C   0  0  0  0  0
  -25.0810  -10.0150   21.6920 C   0  0  0  0  0
  -26.1820   -9.5410   22.4740 O   0  0  0  0  0
  -23.8440   -9.2300   22.1060 C   0  0  0  0  0
  -23.3440   -8.5000   20.9800 O   0  0  0  0  0
  -24.2970   -8.2580   23.1800 C   0  0  0  0  0
  -24.0810   -6.9150   22.7300 O   0  0  0  0  0
  -25.7890   -8.4960   23.3680 C   0  0  0  0  0
  -26.0510   -8.9170   24.7680 N   0  0  0  0  0
  -25.4520   -8.4160   25.8650 C   0  0  0  0  0
  -25.9140   -9.0150   26.9920 N   0  0  0  0  0
  -26.8330   -9.9240   26.6190 C   0  0  0  0  0
  -27.7090  -10.9030   27.3060 C   0  0  0  0  0
  -27.6930  -11.0310   28.6550 N   0  0  0  0  0
  -28.5240  -11.6630   26.5410 N   0  0  0  0  0
  -28.5490  -11.5450   25.2010 C   0  0  0  0  0
  -27.7830  -10.6800   24.5120 N   0  0  0  0  0
  -26.9190   -9.8560   25.1520 C   0  0  0  0  0
  -27.2577  -18.4140   17.5461 H   0  0  0  0  0
  -26.2509  -19.3748   19.4816 H   0  0  0  0  0
  -24.0744  -16.2671   21.0164 H   0  0  0  0  0
  -23.3155  -13.2812   20.6166 H   0  0  0  0  0
  -23.8451  -11.7717   21.7686 H   0  0  0  0  0
  -25.1623  -11.7448   22.9650 H   0  0  0  0  0
  -25.2650   -9.8713   20.6273 H   0  0  0  0  0
  -23.0544   -9.8877   22.4694 H   0  0  0  0  0
  -22.5640   -8.0052   21.2416 H   0  0  0  0  0
  -23.7475   -8.4036   24.1100 H   0  0  0  0  0
  -24.3678   -6.3009   23.4099 H   0  0  0  0  0
  -26.3507   -7.5849   23.1618 H   0  0  0  0  0
  -24.6950   -7.6319   25.8499 H   0  0  0  0  0
  -27.0710  -10.4482   29.2152 H   0  0  0  0  0
  -28.3029  -11.7102   29.1101 H   0  0  0  0  0
  -29.2291  -12.1873   24.6414 H   0  0  0  0  0
  1  2  2  0  0  0
  1  3  1  0  0  0
  1  4  1  0  0  0
  8  1  1  0  0  0
  5  6  1  0  0  0
  5  7  2  0  0  0
  5  8  1  0  0  0
 12  5  1  0  0  0
  9 10  2  0  0  0
  9 11  1  0  0  0
  9 12  1  0  0  0
  9 13  1  0  0  0
 13 14  1  0  0  0
 14 15  1  0  0  0
 15 16  1  0  0  0
 15 17  1  0  0  0
 16 21  1  0  0  0
 17 18  1  0  0  0
 17 19  1  0  0  0
 19 20  1  0  0  0
 19 21  1  0  0  0
 21 22  1  0  0  0
 22 23  4  0  0  0
 22 31  4  0  0  0
 23 24  4  0  0  0
 24 25  4  0  0  0
 25 26  4  0  0  0
 25 31  4  0  0  0
 26 27  1  0  0  0
 26 28  4  0  0  0
 28 29  4  0  0  0
 29 30  4  0  0  0
 30 31  4  0  0  0
  3 32  1  0  0  0
  4 33  1  0  0  0
  6 34  1  0  0  0
 11 35  1  0  0  0
 14 36  1  0  0  0
 14 37  1  0  0  0
 15 38  1  0  0  0
 17 39  1  0  0  0
 18 40  1  0  0  0
 19 41  1  0  0  0
 20 42  1  0  0  0
 21 43  1  0  0  0
 23 44  1  0  0  0
 27 45  1  0  0  0
 27 46  1  0  0  0
 29 47  1  0  0  0
M  END
$$$$
