### 
### Created by X-TOOL on Mon Sep 10 21:12:56 2018
### 

@<TRIPOS>MOLECULE
2h1h_ligand
   64    67     1     0     0
SMALL
GAST_HUCK


@<TRIPOS>ATOM
      1 N9         47.7970   11.7740    5.5690 N.pl3     1 AFH        -0.1919
      2 C8         48.7210   10.9760    4.9610 C.2       1 AFH         0.1123
      3 N7         49.7900   10.8550    5.7270 N.2       1 AFH        -0.2958
      4 C5         49.5980   11.5490    6.8300 C.ar      1 AFH         0.1045
      5 C6         50.3420   11.8310    8.0270 C.ar      1 AFH         0.1298
      6 N6         51.5570   11.2960    8.1560 N.pl3     1 AFH        -0.3152
      7 N1         49.8010   12.6540    9.0520 N.ar      1 AFH        -0.2698
      8 C2         48.5450   13.2190    8.9380 C.ar      1 AFH         0.0533
      9 N3         47.8210   12.9570    7.7830 N.ar      1 AFH        -0.2714
     10 C4         48.2890   12.1560    6.7330 C.ar      1 AFH         0.1613
     11 PA         42.5920    9.3730    1.4840 P.3       1 AFH         0.2972
     12 O1A        41.9250    9.5910    0.2590 O.co2     1 AFH        -0.6127
     13 O2A        41.5830    9.3630    2.5450 O.co2     1 AFH        -0.6127
     14 O3A        43.4210    8.1020    1.3090 O.3       1 AFH        -0.1318
     15 PB         43.1770    6.6340    1.2420 P.3       1 AFH         0.2997
     16 O1B        43.7470    6.0410   -0.0110 O.co2     1 AFH        -0.6127
     17 O2B        43.8140    6.0760    2.3990 O.co2     1 AFH        -0.6127
     18 O3B        41.5710    6.5290    1.4250 O.3       1 AFH        -0.2151
     19 C1'        40.9510    5.5080    0.9640 C.3       1 AFH         0.2278
     20 C2'        40.0030    4.8610    1.9840 C.3       1 AFH         0.1845
     21 C3'        39.3080    3.6550    1.2980 C.3       1 AFH         0.1196
     22 C4'        38.5180    4.2210    0.0970 C.3       1 AFH         0.1126
     23 C5'        39.4790    4.9000   -0.9180 C.3       1 AFH         0.1183
     24 C6'        38.7820    5.5320   -2.1710 C.3       1 AFH         0.1069
     25 C7'        39.7250    6.2010   -3.2110 C.3       1 AFH         0.0727
     26 F          40.7400    4.4320    3.1100 F         1 AFH        -0.2370
     27 O3'        38.4240    3.0200    2.2180 O.3       1 AFH        -0.3861
     28 O4'        37.8370    3.1970   -0.6050 O.3       1 AFH        -0.3865
     29 O5'        40.2560    5.9760   -0.2390 O.3       1 AFH        -0.3358
     30 O6'        37.8260    6.4980   -1.7190 O.3       1 AFH        -0.3869
     31 O7'        41.1230    6.1680   -2.9210 O.3       1 AFH        -0.3924
     32 C1D        46.4340   12.1870    5.0590 C.3       1 AFH         0.2010
     33 C2D        46.5130   12.8580    3.6860 C.3       1 AFH         0.1385
     34 O2'        46.9870   14.2050    3.6850 O.3       1 AFH        -0.3836
     35 C3D        45.1210   12.6620    3.1480 C.3       1 AFH         0.1149
     36 C4D        44.7550   11.3490    3.7080 C.3       1 AFH         0.1189
     37 O4D        45.5680   11.0810    4.8670 O.3       1 AFH        -0.3364
     38 O3D        44.1800   13.6530    3.5960 O.3       1 AFH        -0.3864
     39 C5D        44.8910   10.3490    2.5710 C.3       1 AFH         0.1128
     40 O5D        43.7070   10.4480    1.6970 O.3       1 AFH        -0.2476
     41 H1         48.5956   10.5071    3.9862 H         1 AFH         0.1349
     42 H2         52.1136   11.4804    9.0028 H         1 AFH         0.1820
     43 H3         51.9386   10.6985    7.4088 H         1 AFH         0.1820
     44 H4         48.1389   13.8455    9.7239 H         1 AFH         0.0996
     45 H5         41.6902    4.7468    0.6740 H         1 AFH         0.1002
     46 H6         39.2447    5.5913    2.3028 H         1 AFH         0.0734
     47 H7         40.0588    2.9304    0.9498 H         1 AFH         0.0651
     48 H8         37.7904    4.9579    0.4680 H         1 AFH         0.0647
     49 H9         40.1776    4.1291   -1.2752 H         1 AFH         0.0651
     50 H10        38.2473    4.7231   -2.6903 H         1 AFH         0.0643
     51 H11        39.4277    7.2562   -3.3008 H         1 AFH         0.0584
     52 H12        39.5722    5.6937   -4.1750 H         1 AFH         0.0584
     53 H13        37.7899    3.6527    2.5342 H         1 AFH         0.2100
     54 H14        37.2366    2.7558   -0.0155 H         1 AFH         0.2100
     55 H15        38.2813    7.2281   -1.3163 H         1 AFH         0.2100
     56 H16        41.2853    6.6150   -2.0986 H         1 AFH         0.2095
     57 H17        45.9907   12.8819    5.7874 H         1 AFH         0.0996
     58 H18        47.2142   12.2885    3.0584 H         1 AFH         0.0676
     59 H19        46.4095   14.7431    4.2135 H         1 AFH         0.2101
     60 H20        45.1301   12.6434    2.0482 H         1 AFH         0.0648
     61 H21        43.7038   11.3655    4.0315 H         1 AFH         0.0651
     62 H22        44.4167   14.4991    3.2345 H         1 AFH         0.2100
     63 H23        44.9613    9.3311    2.9821 H         1 AFH         0.0648
     64 H24        45.7976   10.5731    1.9898 H         1 AFH         0.0648
@<TRIPOS>BOND
     1    1    2 1  
     2    1   10 1  
     3   32    1 1  
     4    2    3 2  
     5    4    3 1  
     6    4    5 ar 
     7   10    4 ar 
     8    5    6 1  
     9    5    7 ar 
    10    8    7 ar 
    11    9    8 ar 
    12   10    9 ar 
    13   11   12 ar 
    14   11   13 ar 
    15   11   14 1  
    16   40   11 1  
    17   14   15 1  
    18   15   16 ar 
    19   15   17 ar 
    20   15   18 1  
    21   18   19 1  
    22   19   20 1  
    23   19   29 1  
    24   20   21 1  
    25   20   26 1  
    26   21   22 1  
    27   21   27 1  
    28   23   22 1  
    29   22   28 1  
    30   23   24 1  
    31   29   23 1  
    32   24   25 1  
    33   24   30 1  
    34   25   31 1  
    35   32   33 1  
    36   37   32 1  
    37   33   34 1  
    38   35   33 1  
    39   36   35 1  
    40   35   38 1  
    41   36   37 1  
    42   39   36 1  
    43   39   40 1  
    44    2   41 1  
    45    6   42 1  
    46    6   43 1  
    47    8   44 1  
    48   19   45 1  
    49   20   46 1  
    50   21   47 1  
    51   22   48 1  
    52   23   49 1  
    53   24   50 1  
    54   25   51 1  
    55   25   52 1  
    56   27   53 1  
    57   28   54 1  
    58   30   55 1  
    59   31   56 1  
    60   32   57 1  
    61   33   58 1  
    62   34   59 1  
    63   35   60 1  
    64   36   61 1  
    65   38   62 1  
    66   39   63 1  
    67   39   64 1  
@<TRIPOS>SUBSTRUCTURE
     1 AFH         1

