2h1h_ligand
  -I-interpret- 

 66 69  0  0  0  0  0  0  0  0999 V2000
   47.7970   11.7740    5.5690 N   0  0  0  0  0
   48.7210   10.9760    4.9610 C   0  0  0  0  0
   49.7900   10.8550    5.7270 N   0  0  0  0  0
   49.5980   11.5490    6.8300 C   0  0  0  0  0
   50.3420   11.8310    8.0270 C   0  0  0  0  0
   51.5570   11.2960    8.1560 N   0  0  0  0  0
   49.8010   12.6540    9.0520 N   0  0  0  0  0
   48.5450   13.2190    8.9380 C   0  0  0  0  0
   47.8210   12.9570    7.7830 N   0  0  0  0  0
   48.2890   12.1560    6.7330 C   0  0  0  0  0
   42.5920    9.3730    1.4840 P   0  0  0  0  0
   41.9250    9.5910    0.2590 O   0  0  0  0  0
   41.5830    9.3630    2.5450 O   0  0  0  0  0
   43.4210    8.1020    1.3090 O   0  0  0  0  0
   43.1770    6.6340    1.2420 P   0  0  0  0  0
   43.7470    6.0410   -0.0110 O   0  0  0  0  0
   43.8140    6.0760    2.3990 O   0  0  0  0  0
   41.5710    6.5290    1.4250 O   0  0  0  0  0
   40.9510    5.5080    0.9640 C   0  0  0  0  0
   40.0030    4.8610    1.9840 C   0  0  0  0  0
   39.3080    3.6550    1.2980 C   0  0  0  0  0
   38.5180    4.2210    0.0970 C   0  0  0  0  0
   39.4790    4.9000   -0.9180 C   0  0  0  0  0
   38.7820    5.5320   -2.1710 C   0  0  0  0  0
   39.7250    6.2010   -3.2110 C   0  0  0  0  0
   40.7400    4.4320    3.1100 F   0  0  0  0  0
   38.4240    3.0200    2.2180 O   0  0  0  0  0
   37.8370    3.1970   -0.6050 O   0  0  0  0  0
   40.2560    5.9760   -0.2390 O   0  0  0  0  0
   37.8260    6.4980   -1.7190 O   0  0  0  0  0
   41.1230    6.1680   -2.9210 O   0  0  0  0  0
   46.4340   12.1870    5.0590 C   0  0  0  0  0
   46.5130   12.8580    3.6860 C   0  0  0  0  0
   46.9870   14.2050    3.6850 O   0  0  0  0  0
   45.1210   12.6620    3.1480 C   0  0  0  0  0
   44.7550   11.3490    3.7080 C   0  0  0  0  0
   45.5680   11.0810    4.8670 O   0  0  0  0  0
   44.1800   13.6530    3.5960 O   0  0  0  0  0
   44.8910   10.3490    2.5710 C   0  0  0  0  0
   43.7070   10.4480    1.6970 O   0  0  0  0  0
   48.5955   10.5066    3.9853 H   0  0  0  0  0
   51.9349   10.7043    7.4161 H   0  0  0  0  0
   52.1082   11.4786    8.9946 H   0  0  0  0  0
   48.1367   13.8490    9.7282 H   0  0  0  0  0
   42.0117    9.2160    3.3913 H   0  0  0  0  0
   43.3092    6.4259   -0.7738 H   0  0  0  0  0
   41.6512    4.7063    0.7291 H   0  0  0  0  0
   39.2526    5.5769    2.3196 H   0  0  0  0  0
   40.0350    2.9129    0.9681 H   0  0  0  0  0
   37.8054    4.9377    0.5051 H   0  0  0  0  0
   40.1151    4.0925   -1.2806 H   0  0  0  0  0
   38.3252    4.6972   -2.7025 H   0  0  0  0  0
   39.4474    7.2548   -3.2348 H   0  0  0  0  0
   39.5966    5.6413   -4.1375 H   0  0  0  0  0
   37.9974    2.2752    1.7880 H   0  0  0  0  0
   37.3575    3.5808   -1.3428 H   0  0  0  0  0
   37.3903    6.8943   -2.4771 H   0  0  0  0  0
   41.6053    6.6068   -3.6256 H   0  0  0  0  0
   46.0573   12.8643    5.8255 H   0  0  0  0  0
   47.2766   12.4142    3.0472 H   0  0  0  0  0
   47.0009   14.5375    2.7845 H   0  0  0  0  0
   45.0981   12.7363    2.0608 H   0  0  0  0  0
   43.7302   11.2953    4.0755 H   0  0  0  0  0
   43.3176   13.4682    3.2169 H   0  0  0  0  0
   44.9638    9.3400    2.9769 H   0  0  0  0  0
   45.7907   10.5679    1.9958 H   0  0  0  0  0
  1  2  4  0  0  0
  1 10  4  0  0  0
 32  1  1  0  0  0
  2  3  4  0  0  0
  4  3  4  0  0  0
  4  5  4  0  0  0
 10  4  4  0  0  0
  5  6  1  0  0  0
  5  7  4  0  0  0
  8  7  4  0  0  0
  9  8  4  0  0  0
 10  9  4  0  0  0
 11 12  2  0  0  0
 11 13  1  0  0  0
 11 14  1  0  0  0
 40 11  1  0  0  0
 14 15  1  0  0  0
 15 16  1  0  0  0
 15 17  2  0  0  0
 15 18  1  0  0  0
 18 19  1  0  0  0
 19 20  1  0  0  0
 19 29  1  0  0  0
 20 21  1  0  0  0
 20 26  1  0  0  0
 21 22  1  0  0  0
 21 27  1  0  0  0
 23 22  1  0  0  0
 22 28  1  0  0  0
 23 24  1  0  0  0
 29 23  1  0  0  0
 24 25  1  0  0  0
 24 30  1  0  0  0
 25 31  1  0  0  0
 32 33  1  0  0  0
 37 32  1  0  0  0
 33 34  1  0  0  0
 35 33  1  0  0  0
 36 35  1  0  0  0
 35 38  1  0  0  0
 36 37  1  0  0  0
 39 36  1  0  0  0
 39 40  1  0  0  0
  2 41  1  0  0  0
  6 42  1  0  0  0
  6 43  1  0  0  0
  8 44  1  0  0  0
 13 45  1  0  0  0
 16 46  1  0  0  0
 19 47  1  0  0  0
 20 48  1  0  0  0
 21 49  1  0  0  0
 22 50  1  0  0  0
 23 51  1  0  0  0
 24 52  1  0  0  0
 25 53  1  0  0  0
 25 54  1  0  0  0
 27 55  1  0  0  0
 28 56  1  0  0  0
 30 57  1  0  0  0
 31 58  1  0  0  0
 32 59  1  0  0  0
 33 60  1  0  0  0
 34 61  1  0  0  0
 35 62  1  0  0  0
 36 63  1  0  0  0
 38 64  1  0  0  0
 39 65  1  0  0  0
 39 66  1  0  0  0
M  END
$$$$
