5mpk_ligand
  -I-interpret- 

 48 51  0  0  0  0  0  0  0  0999 V2000
   25.1450  -24.8280  -13.6130 C   0  0  0  0  0
   20.1450  -17.9220  -11.6520 C   0  0  0  0  0
   21.9740  -21.1630  -10.9040 C   0  0  0  0  0
   22.7950  -22.0700  -11.5670 C   0  0  0  0  0
   21.4090  -20.3400  -22.8300 C   0  0  0  0  0
   20.5070  -20.5670  -20.5120 C   0  0  0  0  0
   22.0830  -20.1920  -18.2360 C   0  0  0  0  0
   24.1170  -19.3660  -17.2760 C   0  0  0  0  0
   23.8140  -19.3660  -19.6780 C   0  0  0  0  0
   21.9020  -19.7840  -12.8860 C   0  0  0  0  0
   24.4820  -23.7550  -12.7460 C   0  0  0  0  0
   20.6910  -19.1200  -10.8710 C   0  0  0  0  0
   22.3070  -20.1990  -15.8210 C   0  0  0  0  0
   21.5100  -20.0200  -11.5610 C   0  0  0  0  0
   22.8580  -19.9430  -17.1040 C   0  0  0  0  0
   22.5490  -19.9230  -19.5170 C   0  0  0  0  0
   24.5990  -19.0850  -18.5670 C   0  0  0  0  0
   21.7930  -20.1860  -20.5940 C   0  0  0  0  0
   22.7400  -20.6870  -13.5580 C   0  0  0  0  0
   23.1920  -21.8230  -12.8830 C   0  0  0  0  0
   25.8040  -18.5440  -18.7710 C   0  0  0  0  0
   22.2790  -20.0570  -21.8470 N   0  0  0  0  0
   27.6590  -17.6460  -18.4440 N   0  0  0  0  0
   26.6370  -18.1050  -17.8320 N   0  0  0  0  0
   26.3500  -18.3180  -19.9650 N   0  0  0  0  0
   23.1780  -20.5010  -14.8310 N   0  0  0  0  0
   27.4810  -17.7830  -19.7590 N   0  0  0  0  0
   20.4320  -19.2430   -9.6700 O   0  0  0  0  0
   21.0850  -20.0670  -15.6410 O   0  0  0  0  0
   24.0150  -22.6780  -13.5700 O   0  0  0  0  0
   19.9610  -20.7550  -22.1030 S   0  0  0  0  0
   24.4201  -25.2128  -14.3303 H   0  0  0  0  0
   25.9895  -24.3916  -14.1465 H   0  0  0  0  0
   25.4960  -25.6411  -12.9775 H   0  0  0  0  0
   19.0556  -17.9324  -11.6160 H   0  0  0  0  0
   20.5158  -16.9993  -11.2056 H   0  0  0  0  0
   20.4762  -17.9842  -12.6886 H   0  0  0  0  0
   21.6913  -21.3448   -9.8671 H   0  0  0  0  0
   23.1287  -22.9745  -11.0585 H   0  0  0  0  0
   21.6090  -20.3057  -23.9009 H   0  0  0  0  0
   19.9296  -20.7240  -19.6009 H   0  0  0  0  0
   21.0837  -20.6093  -18.1126 H   0  0  0  0  0
   24.7298  -19.1320  -16.4055 H   0  0  0  0  0
   24.1897  -19.1497  -20.6781 H   0  0  0  0  0
   21.5519  -18.8889  -13.4002 H   0  0  0  0  0
   25.2103  -23.3704  -12.0320 H   0  0  0  0  0
   23.6365  -24.1939  -12.2163 H   0  0  0  0  0
   24.1720  -20.5899  -15.0418 H   0  0  0  0  0
 11  1  1  0  0  0
 12  2  1  0  0  0
  4  3  4  0  0  0
  3 14  4  0  0  0
 20  4  4  0  0  0
 22  5  4  0  0  0
  5 31  4  0  0  0
 18  6  4  0  0  0
  6 31  4  0  0  0
 15  7  4  0  0  0
  7 16  4  0  0  0
 15  8  4  0  0  0
  8 17  4  0  0  0
 16  9  4  0  0  0
 17  9  4  0  0  0
 10 14  4  0  0  0
 19 10  4  0  0  0
 30 11  1  0  0  0
 14 12  1  0  0  0
 12 28  2  0  0  0
 13 15  1  0  0  0
 26 13  1  0  0  0
 13 29  2  0  0  0
 16 18  1  0  0  0
 17 21  1  0  0  0
 18 22  4  0  0  0
 20 19  4  0  0  0
 19 26  1  0  0  0
 20 30  1  0  0  0
 21 24  4  0  0  0
 21 25  4  0  0  0
 24 23  4  0  0  0
 23 27  4  0  0  0
 25 27  4  0  0  0
  1 32  1  0  0  0
  1 33  1  0  0  0
  1 34  1  0  0  0
  2 35  1  0  0  0
  2 36  1  0  0  0
  2 37  1  0  0  0
  3 38  1  0  0  0
  4 39  1  0  0  0
  5 40  1  0  0  0
  6 41  1  0  0  0
  7 42  1  0  0  0
  8 43  1  0  0  0
  9 44  1  0  0  0
 10 45  1  0  0  0
 11 46  1  0  0  0
 11 47  1  0  0  0
 26 48  1  0  0  0
M  END
$$$$
