5iuh_ligand
  -I-interpret- 

 78 82  0  0  0  0  0  0  0  0999 V2000
   14.8350  -16.5360  -17.6320 C   0  0  0  0  0
   15.4990  -17.5750  -18.5020 C   0  0  0  0  0
   19.8930  -15.2430  -11.8880 C   0  0  0  0  0
   18.7710  -15.5420  -10.9280 C   0  0  0  0  0
   18.6930  -14.8590   -9.5780 C   0  0  0  0  0
   19.7470  -13.8430   -9.1900 C   0  0  0  0  0
   20.8680  -13.5480  -10.1540 C   0  0  0  0  0
   20.9440  -14.2250  -11.5040 C   0  0  0  0  0
   21.9290  -12.5270   -9.8340 C   0  0  0  0  0
   21.7940  -11.4310   -9.0210 C   0  0  0  0  0
   23.0020  -10.7770   -9.0530 C   0  0  0  0  0
   17.8000  -16.5030  -11.3080 N   0  0  0  0  0
   17.1360  -16.3670  -12.5560 C   0  0  0  0  0
   16.1620  -17.3590  -12.8690 N   0  0  0  0  0
   17.3910  -15.4270  -13.2830 O   0  0  0  0  0
   15.4470  -17.3660  -14.0890 C   0  0  0  0  0
   14.3090  -18.0540  -14.3120 N   0  0  0  0  0
   13.9330  -17.8390  -15.6310 O   0  0  0  0  0
   14.8580  -17.0310  -16.2030 C   0  0  0  0  0
   15.8010  -16.7360  -15.2680 C   0  0  0  0  0
   23.8190  -11.4500   -9.8750 N   0  0  0  0  0
   23.1530  -12.5460  -10.3710 N   0  0  0  0  0
   23.3950   -9.5730   -8.4020 N   0  0  0  0  0
   22.6480   -8.9200   -7.3670 C   0  0  0  0  0
   23.2270   -7.6160   -6.8300 C   0  0  0  0  0
   21.5970   -9.3500   -6.9580 O   0  0  0  0  0
   24.5760   -7.1640   -7.3340 C   0  0  0  0  0
   25.1760   -5.8650   -6.8450 C   0  0  0  0  0
   24.4290   -5.0020   -5.8580 C   0  0  0  0  0
   23.0620   -5.4530   -5.3670 C   0  0  0  0  0
   22.4600   -6.7560   -5.8520 C   0  0  0  0  0
   25.0290   -3.6870   -5.3880 C   0  0  0  0  0
   24.5950   -2.7460   -6.1790 N   0  3  0  0  0
   25.2670   -2.5930   -7.3550 C   0  0  0  0  0
   26.3470   -1.5360   -7.3160 C   0  0  0  0  0
   25.9150   -0.3700   -6.7890 N   0  3  0  0  0
   25.3510   -0.5600   -5.5710 C   0  0  0  0  0
   24.2230   -1.5710   -5.6160 C   0  0  0  0  0
   26.8790    0.4820   -6.7210 C   0  0  0  0  0
   17.5700  -15.1750   -8.6150 C   0  0  0  0  0
   13.4040  -16.3570  -18.0660 C   0  0  0  0  0
   15.3600  -15.5846  -17.7170 H   0  0  0  0  0
   16.5276  -17.7200  -18.1718 H   0  0  0  0  0
   14.9544  -18.5158  -18.4221 H   0  0  0  0  0
   15.4929  -17.2370  -19.5383 H   0  0  0  0  0
   19.9469  -15.7547  -12.8489 H   0  0  0  0  0
   19.6959  -13.3327   -8.2282 H   0  0  0  0  0
   21.7504  -13.9812  -12.1956 H   0  0  0  0  0
   20.9060  -11.1373   -8.4613 H   0  0  0  0  0
   17.5805  -17.2847  -10.6907 H   0  0  0  0  0
   15.9731  -18.0928  -12.1862 H   0  0  0  0  0
   16.6816  -16.1122  -15.4213 H   0  0  0  0  0
   24.2729   -9.1433   -8.6936 H   0  0  0  0  0
   25.1198   -7.7764   -8.0533 H   0  0  0  0  0
   26.1544   -5.5500   -7.2078 H   0  0  0  0  0
   22.5105   -4.8333   -4.6599 H   0  0  0  0  0
   21.4788   -7.0716   -5.4974 H   0  0  0  0  0
   26.1175   -3.7352   -5.4187 H   0  0  0  0  0
   24.7337   -3.4826   -4.3589 H   0  0  0  0  0
   23.7011   -3.1636   -6.4376 H   0  0  0  0  0
   24.5389   -2.2825   -8.1043 H   0  0  0  0  0
   25.7538   -3.5433   -7.5742 H   0  0  0  0  0
   26.6644   -1.3433   -8.3408 H   0  0  0  0  0
   27.1570   -1.9076   -6.6884 H   0  0  0  0  0
   25.1966    0.0070   -7.4071 H   0  0  0  0  0
   24.9408    0.3921   -5.2342 H   0  0  0  0  0
   26.1191   -0.9376   -4.8961 H   0  0  0  0  0
   23.9151   -1.7743   -4.5903 H   0  0  0  0  0
   23.4203   -1.1496   -6.2211 H   0  0  0  0  0
   27.6725    0.0813   -6.0902 H   0  0  0  0  0
   27.2682    0.6690   -7.7218 H   0  0  0  0  0
   26.5090    1.4140   -6.2937 H   0  0  0  0  0
   16.6147  -14.9328   -9.0807 H   0  0  0  0  0
   17.5952  -16.2356   -8.3649 H   0  0  0  0  0
   17.6937  -14.5835   -7.7079 H   0  0  0  0  0
   12.8831  -17.3121  -17.9988 H   0  0  0  0  0
   12.9170  -15.6296  -17.4165 H   0  0  0  0  0
   13.3799  -16.0002  -19.0957 H   0  0  0  0  0
  1  2  1  0  0  0
 19  1  1  0  0  0
  1 41  1  0  0  0
  4  3  4  0  0  0
  3  8  4  0  0  0
  4  5  4  0  0  0
 12  4  1  0  0  0
  5  6  4  0  0  0
  5 40  1  0  0  0
  6  7  4  0  0  0
  8  7  4  0  0  0
  7  9  1  0  0  0
  9 10  4  0  0  0
  9 22  4  0  0  0
 10 11  4  0  0  0
 11 21  4  0  0  0
 11 23  1  0  0  0
 13 12  1  0  0  0
 14 13  1  0  0  0
 13 15  2  0  0  0
 16 14  1  0  0  0
 17 16  4  0  0  0
 16 20  4  0  0  0
 18 17  4  0  0  0
 18 19  4  0  0  0
 19 20  4  0  0  0
 21 22  4  0  0  0
 23 24  1  0  0  0
 24 25  1  0  0  0
 24 26  2  0  0  0
 25 27  4  0  0  0
 25 31  4  0  0  0
 27 28  4  0  0  0
 28 29  4  0  0  0
 29 30  4  0  0  0
 29 32  1  0  0  0
 30 31  4  0  0  0
 32 33  1  0  0  0
 33 34  1  0  0  0
 33 38  1  0  0  0
 34 35  1  0  0  0
 35 36  1  0  0  0
 36 37  1  0  0  0
 36 39  1  0  0  0
 37 38  1  0  0  0
  1 42  1  0  0  0
  2 43  1  0  0  0
  2 44  1  0  0  0
  2 45  1  0  0  0
  3 46  1  0  0  0
  6 47  1  0  0  0
  8 48  1  0  0  0
 10 49  1  0  0  0
 12 50  1  0  0  0
 14 51  1  0  0  0
 20 52  1  0  0  0
 23 53  1  0  0  0
 27 54  1  0  0  0
 28 55  1  0  0  0
 30 56  1  0  0  0
 31 57  1  0  0  0
 32 58  1  0  0  0
 32 59  1  0  0  0
 33 60  1  0  0  0
 34 61  1  0  0  0
 34 62  1  0  0  0
 35 63  1  0  0  0
 35 64  1  0  0  0
 36 65  1  0  0  0
 37 66  1  0  0  0
 37 67  1  0  0  0
 38 68  1  0  0  0
 38 69  1  0  0  0
 39 70  1  0  0  0
 39 71  1  0  0  0
 39 72  1  0  0  0
 40 73  1  0  0  0
 40 74  1  0  0  0
 40 75  1  0  0  0
 41 76  1  0  0  0
 41 77  1  0  0  0
 41 78  1  0  0  0
M  END
$$$$
