2obf_ligand
  -I-interpret- 

 41 43  0  0  0  0  0  0  0  0999 V2000
   29.2550   44.8670   22.6150 O   0  0  0  0  0
   29.6460   45.6380   21.4750 C   0  0  0  0  0
   29.0460   45.0010   20.2210 C   0  0  0  0  0
   29.6530   43.6830   19.9820 N   0  3  0  0  0
   28.8950   42.9490   18.9590 C   0  0  0  0  0
   28.7060   43.7940   17.6930 C   0  0  0  0  0
   28.3080   43.1710   16.5160 C   0  0  0  0  0
   28.0810   43.9240   15.3680 C   0  0  0  0  0
   28.2560   45.3040   15.3970 C   0  0  0  0  0
   28.6580   45.9300   16.5730 C   0  0  0  0  0
   28.8850   45.1770   17.7230 C   0  0  0  0  0
   29.3290   45.8840   19.0030 C   0  0  0  0  0
   27.5650   43.1380   13.8930 S   0  0  0  0  0
   26.1410   42.9690   13.9040 O   0  0  0  0  0
   28.2170   41.7910   13.7900 O   0  0  0  0  0
   28.0200   44.0390   12.6150 N   0  0  0  0  0
   27.0810   44.8330   11.8090 C   0  0  0  0  0
   26.0370   45.5360   12.4050 C   0  0  0  0  0
   25.2080   46.3430   11.6290 C   0  0  0  0  0
   25.4190   46.4510   10.2550 C   0  0  0  0  0
   26.4570   45.7420    9.6600 C   0  0  0  0  0
   27.2860   44.9320   10.4360 C   0  0  0  0  0
   24.4170   47.4760    9.2870 Cl  0  0  0  0  0
   29.6272   45.2593   23.4082 H   0  0  0  0  0
   30.7330   45.6564   21.3963 H   0  0  0  0  0
   29.2846   46.6611   21.5790 H   0  0  0  0  0
   27.9715   44.8955   20.3709 H   0  0  0  0  0
   29.6419   43.1492   20.8511 H   0  0  0  0  0
   30.6112   43.8121   19.6572 H   0  0  0  0  0
   27.9126   42.7048   19.3633 H   0  0  0  0  0
   29.4495   42.0483   18.6957 H   0  0  0  0  0
   28.1733   42.0896   16.4921 H   0  0  0  0  0
   28.0782   45.8948   14.4985 H   0  0  0  0  0
   28.7955   47.0111   16.5945 H   0  0  0  0  0
   30.3993   46.0826   18.9476 H   0  0  0  0  0
   28.7769   46.8184   19.1040 H   0  0  0  0  0
   29.0076   44.0532   12.3605 H   0  0  0  0  0
   25.8685   45.4548   13.4788 H   0  0  0  0  0
   24.3913   46.8921   12.0977 H   0  0  0  0  0
   26.6230   45.8194    8.5855 H   0  0  0  0  0
   28.0965   44.3751    9.9659 H   0  0  0  0  0
  1  2  1  0  0  0
  2  3  1  0  0  0
  3  4  1  0  0  0
  3 12  1  0  0  0
  4  5  1  0  0  0
  5  6  1  0  0  0
  6  7  4  0  0  0
  6 11  4  0  0  0
  7  8  4  0  0  0
  8  9  4  0  0  0
  8 13  1  0  0  0
  9 10  4  0  0  0
 10 11  4  0  0  0
 11 12  1  0  0  0
 13 14  2  0  0  0
 13 15  2  0  0  0
 13 16  1  0  0  0
 16 17  1  0  0  0
 17 18  4  0  0  0
 17 22  4  0  0  0
 18 19  4  0  0  0
 19 20  4  0  0  0
 20 21  4  0  0  0
 20 23  1  0  0  0
 21 22  4  0  0  0
  1 24  1  0  0  0
  2 25  1  0  0  0
  2 26  1  0  0  0
  3 27  1  0  0  0
  4 28  1  0  0  0
  4 29  1  0  0  0
  5 30  1  0  0  0
  5 31  1  0  0  0
  7 32  1  0  0  0
  9 33  1  0  0  0
 10 34  1  0  0  0
 12 35  1  0  0  0
 12 36  1  0  0  0
 16 37  1  0  0  0
 18 38  1  0  0  0
 19 39  1  0  0  0
 21 40  1  0  0  0
 22 41  1  0  0  0
M  END
$$$$
