### 
### Created by X-TOOL on Mon Sep 10 21:13:09 2018
### 

@<TRIPOS>MOLECULE
4abk_ligand
   57    60     1     0     0
SMALL
GAST_HUCK


@<TRIPOS>ATOM
      1 N1         -0.1100   14.7680  -19.0830 N.ar      1 AR6        -0.2698
      2 C2          0.8970   14.0010  -19.4660 C.ar      1 AR6         0.0533
      3 N3          1.7570   14.3680  -20.3980 N.ar      1 AR6        -0.2714
      4 C4          1.5970   15.5850  -20.9510 C.ar      1 AR6         0.1613
      5 C5          0.5570   16.4220  -20.5870 C.ar      1 AR6         0.1045
      6 C6         -0.3300   15.9950  -19.5910 C.ar      1 AR6         0.1298
      7 N6         -1.3570   16.7750  -19.1610 N.pl3     1 AR6        -0.3152
      8 N7          0.6660   17.5520  -21.3260 N.2       1 AR6        -0.2958
      9 C8          1.7400   17.3780  -22.1180 C.2       1 AR6         0.1123
     10 N9          2.2980   16.1760  -21.9190 N.pl3     1 AR6        -0.1919
     11 PA          6.8290   19.2920  -22.1500 P.3       1 AR6         0.2972
     12 PB          9.6930   18.8510  -21.6690 P.3       1 AR6         0.2972
     13 C1'         3.4940   15.5660  -22.5440 C.3       1 AR6         0.2010
     14 O1A         5.7350   19.6180  -21.2010 O.co2     1 AR6        -0.6127
     15 O1B        10.2230   18.0350  -20.5660 O.co2     1 AR6        -0.6127
     16 C1D        13.5520   22.0050  -21.2780 C.3       1 AR6         0.1854
     17 O1D        14.1510   23.1610  -20.7470 O.3       1 AR6        -0.3649
     18 C2'         3.9730   16.1280  -23.8600 C.3       1 AR6         0.1385
     19 O2'         3.1570   15.6150  -24.9100 O.3       1 AR6        -0.3836
     20 O2A         6.9920   20.1930  -23.3730 O.co2     1 AR6        -0.6127
     21 O2B         9.8470   18.3680  -23.0680 O.co2     1 AR6        -0.6127
     22 C2D        12.5650   22.5140  -22.3430 C.3       1 AR6         0.1339
     23 O2D        13.1240   23.6080  -23.1240 O.3       1 AR6        -0.3841
     24 C3'         5.3720   15.5740  -23.9310 C.3       1 AR6         0.1149
     25 O3'         5.3020   14.2430  -24.4400 O.3       1 AR6        -0.3864
     26 O3A         8.1410   19.1700  -21.2950 O.3       1 AR6        -0.1319
     27 C3D        11.3870   22.9410  -21.4940 C.3       1 AR6         0.1144
     28 O3D        11.4140   24.3260  -21.1770 O.3       1 AR6        -0.3864
     29 C4'         5.8370   15.5520  -22.4460 C.3       1 AR6         0.1189
     30 O4'         4.6470   15.8550  -21.6870 O.3       1 AR6        -0.3364
     31 C4D        11.5080   22.0750  -20.2110 C.3       1 AR6         0.1184
     32 O4D        12.6900   21.2990  -20.3170 O.3       1 AR6        -0.3403
     33 C5'         6.8060   16.5930  -21.9780 C.3       1 AR6         0.1128
     34 O5'         6.5740   17.8670  -22.7330 O.3       1 AR6        -0.2476
     35 C5D        10.3680   21.0050  -20.2690 C.3       1 AR6         0.1128
     36 O5D        10.3170   20.2820  -21.5650 O.3       1 AR6        -0.2476
     37 H1          1.0212   13.0322  -18.9958 H         1 AR6         0.0996
     38 H2         -1.4996   17.7098  -19.5692 H         1 AR6         0.1820
     39 H3         -1.9925   16.4312  -18.4270 H         1 AR6         0.1820
     40 H4          2.1076   18.1174  -22.8279 H         1 AR6         0.1349
     41 H5          3.3190   14.4847  -22.6444 H         1 AR6         0.0996
     42 H6         14.3138   21.3292  -21.6939 H         1 AR6         0.0935
     43 H7         13.4747   23.7681  -20.4701 H         1 AR6         0.2126
     44 H8          3.9667   17.2279  -23.8725 H         1 AR6         0.0676
     45 H9          3.2202   14.6672  -24.9244 H         1 AR6         0.2101
     46 H10        12.2760   21.7035  -23.0282 H         1 AR6         0.0671
     47 H11        13.3376   24.3312  -22.5462 H         1 AR6         0.2101
     48 H12         6.0312   16.1961  -24.5542 H         1 AR6         0.0648
     49 H13         6.1778   13.8783  -24.4912 H         1 AR6         0.2100
     50 H14        10.4458   22.7182  -22.0180 H         1 AR6         0.0648
     51 H15        11.3946   24.8338  -21.9796 H         1 AR6         0.2100
     52 H16         6.2365   14.5541  -22.2122 H         1 AR6         0.0651
     53 H17        11.4787   22.6852  -19.2963 H         1 AR6         0.0651
     54 H18         7.8338   16.2436  -22.1556 H         1 AR6         0.0648
     55 H19         6.6604   16.7725  -20.9026 H         1 AR6         0.0648
     56 H20         9.4040   21.5108  -20.1116 H         1 AR6         0.0648
     57 H21        10.5334   20.2725  -19.4652 H         1 AR6         0.0648
@<TRIPOS>BOND
     1    2    1 ar 
     2    6    1 ar 
     3    3    2 ar 
     4    4    3 ar 
     5    4    5 ar 
     6   10    4 1  
     7    5    6 ar 
     8    8    5 1  
     9    6    7 1  
    10    9    8 2  
    11   10    9 1  
    12   13   10 1  
    13   11   14 ar 
    14   11   20 ar 
    15   26   11 1  
    16   11   34 1  
    17   12   15 ar 
    18   12   21 ar 
    19   12   26 1  
    20   36   12 1  
    21   13   18 1  
    22   30   13 1  
    23   16   17 1  
    24   16   22 1  
    25   32   16 1  
    26   18   19 1  
    27   24   18 1  
    28   22   23 1  
    29   27   22 1  
    30   24   25 1  
    31   29   24 1  
    32   27   28 1  
    33   31   27 1  
    34   29   30 1  
    35   33   29 1  
    36   31   32 1  
    37   35   31 1  
    38   34   33 1  
    39   35   36 1  
    40    2   37 1  
    41    7   38 1  
    42    7   39 1  
    43    9   40 1  
    44   13   41 1  
    45   16   42 1  
    46   17   43 1  
    47   18   44 1  
    48   19   45 1  
    49   22   46 1  
    50   23   47 1  
    51   24   48 1  
    52   25   49 1  
    53   27   50 1  
    54   28   51 1  
    55   29   52 1  
    56   31   53 1  
    57   33   54 1  
    58   33   55 1  
    59   35   56 1  
    60   35   57 1  
@<TRIPOS>SUBSTRUCTURE
     1 AR6         1

