4abk_ligand
  -I-interpret- 

 59 62  0  0  0  0  0  0  0  0999 V2000
   -0.1100   14.7680  -19.0830 N   0  0  0  0  0
    0.8970   14.0010  -19.4660 C   0  0  0  0  0
    1.7570   14.3680  -20.3980 N   0  0  0  0  0
    1.5970   15.5850  -20.9510 C   0  0  0  0  0
    0.5570   16.4220  -20.5870 C   0  0  0  0  0
   -0.3300   15.9950  -19.5910 C   0  0  0  0  0
   -1.3570   16.7750  -19.1610 N   0  0  0  0  0
    0.6660   17.5520  -21.3260 N   0  0  0  0  0
    1.7400   17.3780  -22.1180 C   0  0  0  0  0
    2.2980   16.1760  -21.9190 N   0  0  0  0  0
    6.8290   19.2920  -22.1500 P   0  0  0  0  0
    9.6930   18.8510  -21.6690 P   0  0  0  0  0
    3.4940   15.5660  -22.5440 C   0  0  0  0  0
    5.7350   19.6180  -21.2010 O   0  0  0  0  0
   10.2230   18.0350  -20.5660 O   0  0  0  0  0
   13.5520   22.0050  -21.2780 C   0  0  0  0  0
   14.1510   23.1610  -20.7470 O   0  0  0  0  0
    3.9730   16.1280  -23.8600 C   0  0  0  0  0
    3.1570   15.6150  -24.9100 O   0  0  0  0  0
    6.9920   20.1930  -23.3730 O   0  0  0  0  0
    9.8470   18.3680  -23.0680 O   0  0  0  0  0
   12.5650   22.5140  -22.3430 C   0  0  0  0  0
   13.1240   23.6080  -23.1240 O   0  0  0  0  0
    5.3720   15.5740  -23.9310 C   0  0  0  0  0
    5.3020   14.2430  -24.4400 O   0  0  0  0  0
    8.1410   19.1700  -21.2950 O   0  0  0  0  0
   11.3870   22.9410  -21.4940 C   0  0  0  0  0
   11.4140   24.3260  -21.1770 O   0  0  0  0  0
    5.8370   15.5520  -22.4460 C   0  0  0  0  0
    4.6470   15.8550  -21.6870 O   0  0  0  0  0
   11.5080   22.0750  -20.2110 C   0  0  0  0  0
   12.6900   21.2990  -20.3170 O   0  0  0  0  0
    6.8060   16.5930  -21.9780 C   0  0  0  0  0
    6.5740   17.8670  -22.7330 O   0  0  0  0  0
   10.3680   21.0050  -20.2690 C   0  0  0  0  0
   10.3170   20.2820  -21.5650 O   0  0  0  0  0
    1.0219   13.0268  -18.9932 H   0  0  0  0  0
   -1.9863   16.4345  -18.4341 H   0  0  0  0  0
   -1.4982   17.7007  -19.5653 H   0  0  0  0  0
    2.1080   18.1181  -22.8286 H   0  0  0  0  0
    3.1814   14.5315  -22.6860 H   0  0  0  0  0
   14.3461   21.3379  -21.6135 H   0  0  0  0  0
   14.7838   22.9100  -20.0701 H   0  0  0  0  0
    3.9347   17.2138  -23.9471 H   0  0  0  0  0
    3.4577   15.9697  -25.7499 H   0  0  0  0  0
    7.7278   19.8797  -23.9041 H   0  0  0  0  0
    9.4539   19.0041  -23.6700 H   0  0  0  0  0
   12.3044   21.7729  -23.0986 H   0  0  0  0  0
   12.4802   23.8965  -23.7751 H   0  0  0  0  0
    6.0442   16.1475  -24.5692 H   0  0  0  0  0
    6.1869   13.8744  -24.4917 H   0  0  0  0  0
   10.4437   22.7958  -22.0205 H   0  0  0  0  0
   10.6492   24.5451  -20.6398 H   0  0  0  0  0
    6.3350   14.5900  -22.3248 H   0  0  0  0  0
   11.4825   22.7104  -19.3257 H   0  0  0  0  0
    7.8244   16.2467  -22.1540 H   0  0  0  0  0
    6.6617   16.7708  -20.9123 H   0  0  0  0  0
    9.4182   21.5241  -20.1406 H   0  0  0  0  0
   10.5610   20.2711  -19.4865 H   0  0  0  0  0
  2  1  4  0  0  0
  6  1  4  0  0  0
  3  2  4  0  0  0
  4  3  4  0  0  0
  4  5  4  0  0  0
 10  4  4  0  0  0
  5  6  4  0  0  0
  8  5  4  0  0  0
  6  7  1  0  0  0
  9  8  4  0  0  0
 10  9  4  0  0  0
 13 10  1  0  0  0
 11 14  2  0  0  0
 11 20  1  0  0  0
 26 11  1  0  0  0
 11 34  1  0  0  0
 12 15  2  0  0  0
 12 21  1  0  0  0
 12 26  1  0  0  0
 36 12  1  0  0  0
 13 18  1  0  0  0
 30 13  1  0  0  0
 16 17  1  0  0  0
 16 22  1  0  0  0
 32 16  1  0  0  0
 18 19  1  0  0  0
 24 18  1  0  0  0
 22 23  1  0  0  0
 27 22  1  0  0  0
 24 25  1  0  0  0
 29 24  1  0  0  0
 27 28  1  0  0  0
 31 27  1  0  0  0
 29 30  1  0  0  0
 33 29  1  0  0  0
 31 32  1  0  0  0
 35 31  1  0  0  0
 34 33  1  0  0  0
 35 36  1  0  0  0
  2 37  1  0  0  0
  7 38  1  0  0  0
  7 39  1  0  0  0
  9 40  1  0  0  0
 13 41  1  0  0  0
 16 42  1  0  0  0
 17 43  1  0  0  0
 18 44  1  0  0  0
 19 45  1  0  0  0
 20 46  1  0  0  0
 21 47  1  0  0  0
 22 48  1  0  0  0
 23 49  1  0  0  0
 24 50  1  0  0  0
 25 51  1  0  0  0
 27 52  1  0  0  0
 28 53  1  0  0  0
 29 54  1  0  0  0
 31 55  1  0  0  0
 33 56  1  0  0  0
 33 57  1  0  0  0
 35 58  1  0  0  0
 35 59  1  0  0  0
M  END
$$$$
