6ovz_ligand
  -I-interpret- 

 23 23  0  0  0  0  0  0  0  0999 V2000
    1.5250  -11.6780  -32.0060 C   0  0  0  0  0
    1.2690  -11.2540  -30.7020 C   0  0  0  0  0
    2.3180  -11.0420  -29.8110 C   0  0  0  0  0
    3.6230  -11.2720  -30.2340 C   0  0  0  0  0
    3.8830  -11.7030  -31.5390 C   0  0  0  0  0
    2.8350  -11.9070  -32.4300 C   0  0  0  0  0
    5.2010  -11.9240  -31.9370 C   0  0  0  0  0
    7.3780  -11.4410  -31.2560 C   0  0  0  0  0
   10.3650   -9.7000  -31.1290 C   0  0  0  0  0
    8.2670  -10.4450  -31.3900 N   0  0  0  0  0
    6.0590  -11.1350  -31.0940 O   0  0  0  0  0
    7.7480  -12.6170  -31.2530 O   0  0  0  0  0
    9.6820  -10.7820  -31.5730 O   0  0  0  0  0
   11.5990   -9.6740  -31.1610 O   0  0  0  0  0
    0.6970  -11.8314  -32.6981 H   0  0  0  0  0
    0.2415  -11.0876  -30.3784 H   0  0  0  0  0
    2.1190  -10.7003  -28.7953 H   0  0  0  0  0
    4.4505  -11.1149  -29.5422 H   0  0  0  0  0
    3.0343  -12.2419  -33.4479 H   0  0  0  0  0
    5.3320  -11.6376  -32.9805 H   0  0  0  0  0
    5.4501  -12.9810  -31.8434 H   0  0  0  0  0
    9.8185   -8.8415  -30.7386 H   0  0  0  0  0
    7.9639   -9.4714  -31.3650 H   0  0  0  0  0
  1  2  4  0  0  0
  6  1  4  0  0  0
  3  2  4  0  0  0
  4  3  4  0  0  0
  5  4  4  0  0  0
  5  6  4  0  0  0
  7  5  1  0  0  0
 11  7  1  0  0  0
 10  8  1  0  0  0
  8 11  1  0  0  0
  8 12  2  0  0  0
 13  9  1  0  0  0
  9 14  2  0  0  0
 10 13  1  0  0  0
  1 15  1  0  0  0
  2 16  1  0  0  0
  3 17  1  0  0  0
  4 18  1  0  0  0
  6 19  1  0  0  0
  7 20  1  0  0  0
  7 21  1  0  0  0
  9 22  1  0  0  0
 10 23  1  0  0  0
M  END
$$$$
