4bo1_ligand
  -I-interpret- 

 39 41  0  0  0  0  0  0  0  0999 V2000
   -6.6070   -7.0780  -33.6510 C   0  0  0  0  0
   -6.7960   -5.8990  -32.8850 O   0  0  0  0  0
   -8.1100   -5.7080  -32.6900 C   0  0  0  0  0
   -8.9270   -6.7090  -32.2010 C   0  0  0  0  0
  -10.2710   -6.4440  -31.9960 C   0  0  0  0  0
  -11.3050   -7.7370  -31.3760 Cl  0  0  0  0  0
  -10.7590   -5.1660  -32.3100 C   0  0  0  0  0
  -12.0830   -4.9550  -32.0680 O   0  0  0  0  0
  -12.5300   -3.9150  -32.9090 C   0  0  0  0  0
   -9.9230   -4.1750  -32.8120 C   0  0  0  0  0
   -8.5710   -4.4480  -32.9980 C   0  0  0  0  0
   -7.6010   -3.6230  -33.4740 N   0  0  0  0  0
   -7.8570   -2.3640  -33.9180 C   0  0  0  0  0
   -8.9530   -1.7970  -33.8990 O   0  0  0  0  0
   -6.7450   -1.6460  -34.3700 C   0  0  0  0  0
   -5.5000   -2.2260  -34.5360 C   0  0  0  0  0
   -5.3260   -3.5180  -34.2460 N   0  0  0  0  0
   -4.0840   -4.1390  -34.4290 C   0  0  0  0  0
   -2.9990   -3.4100  -34.8520 C   0  0  0  0  0
   -3.1860   -2.0710  -35.1370 C   0  0  0  0  0
   -4.4290   -1.4790  -34.9720 C   0  0  0  0  0
   -4.5820   -0.1250  -35.2470 C   0  0  0  0  0
   -5.8320    0.4540  -35.0820 C   0  0  0  0  0
   -6.9060   -0.3100  -34.6370 C   0  0  0  0  0
   -7.0263   -7.9293  -33.1147 H   0  0  0  0  0
   -7.1091   -6.9695  -34.6124 H   0  0  0  0  0
   -5.5409   -7.2379  -33.8124 H   0  0  0  0  0
   -8.5190   -7.6951  -31.9792 H   0  0  0  0  0
  -11.9628   -3.0087  -32.6968 H   0  0  0  0  0
  -12.3821   -4.2023  -33.9500 H   0  0  0  0  0
  -13.5893   -3.7330  -32.7280 H   0  0  0  0  0
  -10.3235   -3.1915  -33.0581 H   0  0  0  0  0
   -6.6398   -3.9634  -33.4991 H   0  0  0  0  0
   -3.9777   -5.2063  -34.2348 H   0  0  0  0  0
   -2.0189   -3.8746  -34.9597 H   0  0  0  0  0
   -2.3476   -1.4737  -35.4953 H   0  0  0  0  0
   -3.7350    0.4713  -35.5862 H   0  0  0  0  0
   -5.9731    1.5122  -35.3020 H   0  0  0  0  0
   -7.8818    0.1559  -34.4996 H   0  0  0  0  0
  1  2  1  0  0  0
  2  3  1  0  0  0
  3  4  4  0  0  0
  3 11  4  0  0  0
  4  5  4  0  0  0
  5  6  1  0  0  0
  5  7  4  0  0  0
  7  8  1  0  0  0
  7 10  4  0  0  0
  8  9  1  0  0  0
 10 11  4  0  0  0
 11 12  1  0  0  0
 12 13  1  0  0  0
 13 14  2  0  0  0
 13 15  1  0  0  0
 15 16  4  0  0  0
 15 24  4  0  0  0
 16 17  4  0  0  0
 16 21  4  0  0  0
 17 18  4  0  0  0
 18 19  4  0  0  0
 19 20  4  0  0  0
 20 21  4  0  0  0
 21 22  4  0  0  0
 22 23  4  0  0  0
 23 24  4  0  0  0
  1 25  1  0  0  0
  1 26  1  0  0  0
  1 27  1  0  0  0
  4 28  1  0  0  0
  9 29  1  0  0  0
  9 30  1  0  0  0
  9 31  1  0  0  0
 10 32  1  0  0  0
 12 33  1  0  0  0
 18 34  1  0  0  0
 19 35  1  0  0  0
 20 36  1  0  0  0
 22 37  1  0  0  0
 23 38  1  0  0  0
 24 39  1  0  0  0
M  END
$$$$
