2y0j_ligand
  -I-interpret- 

 38 42  0  0  0  0  0  0  0  0999 V2000
  -21.9750  -16.2750   32.3800 C   0  0  0  0  0
  -21.5410  -15.2620   33.4310 C   0  0  0  0  0
  -21.0790  -14.0440   33.1750 N   0  0  0  0  0
  -21.5850  -15.4960   34.7370 N   0  0  0  0  0
  -21.1700  -14.4960   35.3210 N   0  0  0  0  0
  -20.8280  -13.5290   34.3700 C   0  0  0  0  0
  -20.3330  -12.3050   34.8080 C   0  0  0  0  0
  -19.9830  -11.3210   33.8850 C   0  0  0  0  0
  -19.4890  -10.0970   34.3260 C   0  0  0  0  0
  -19.3480   -9.8610   35.6940 C   0  0  0  0  0
  -19.7000  -10.8500   36.6170 C   0  0  0  0  0
  -20.1900  -12.0770   36.1810 C   0  0  0  0  0
  -20.5250  -13.0220   37.0820 N   0  0  0  0  0
  -21.0060  -14.2160   36.6860 C   0  0  0  0  0
  -21.4470  -15.4700   37.8060 S   0  0  0  0  0
  -21.0740  -14.7520   39.4560 C   0  0  0  0  0
  -22.2280  -13.8940   39.9870 C   0  0  0  0  0
  -22.2390  -12.5580   40.0320 N   0  0  0  0  0
  -23.4000  -12.1670   40.5410 C   0  0  0  0  0
  -23.9270  -10.9070   40.8050 C   0  0  0  0  0
  -25.2020  -10.8060   41.3520 C   0  0  0  0  0
  -25.9360  -11.9610   41.6330 C   0  0  0  0  0
  -25.4020  -13.2190   41.3670 C   0  0  0  0  0
  -24.1310  -13.3120   40.8200 C   0  0  0  0  0
  -23.3800  -14.3540   40.4750 N   0  0  0  0  0
  -22.7922  -15.8583   31.7913 H   0  0  0  0  0
  -21.1330  -16.5014   31.7259 H   0  0  0  0  0
  -22.3093  -17.1877   32.8732 H   0  0  0  0  0
  -20.0962  -11.5102   32.8175 H   0  0  0  0  0
  -19.2135   -9.3263   33.6061 H   0  0  0  0  0
  -18.9625   -8.9033   36.0437 H   0  0  0  0  0
  -19.5900  -10.6588   37.6844 H   0  0  0  0  0
  -20.1946  -14.1155   39.3584 H   0  0  0  0  0
  -20.9116  -15.5727   40.1547 H   0  0  0  0  0
  -23.3480  -10.0099   40.5859 H   0  0  0  0  0
  -25.6286   -9.8251   41.5615 H   0  0  0  0  0
  -26.9338  -11.8767   42.0635 H   0  0  0  0  0
  -25.9757  -14.1195   41.5859 H   0  0  0  0  0
  1  2  1  0  0  0
  2  3  4  0  0  0
  2  4  4  0  0  0
  3  6  4  0  0  0
  4  5  4  0  0  0
  5  6  4  0  0  0
  5 14  4  0  0  0
  6  7  4  0  0  0
  7  8  4  0  0  0
  7 12  4  0  0  0
  8  9  4  0  0  0
  9 10  4  0  0  0
 10 11  4  0  0  0
 11 12  4  0  0  0
 12 13  4  0  0  0
 13 14  4  0  0  0
 14 15  1  0  0  0
 15 16  1  0  0  0
 16 17  1  0  0  0
 17 18  4  0  0  0
 17 25  4  0  0  0
 18 19  4  0  0  0
 19 20  4  0  0  0
 19 24  4  0  0  0
 20 21  4  0  0  0
 21 22  4  0  0  0
 22 23  4  0  0  0
 23 24  4  0  0  0
 24 25  4  0  0  0
  1 26  1  0  0  0
  1 27  1  0  0  0
  1 28  1  0  0  0
  8 29  1  0  0  0
  9 30  1  0  0  0
 10 31  1  0  0  0
 11 32  1  0  0  0
 16 33  1  0  0  0
 16 34  1  0  0  0
 20 35  1  0  0  0
 21 36  1  0  0  0
 22 37  1  0  0  0
 23 38  1  0  0  0
M  END
$$$$
