### 
### Created by X-TOOL on Mon Sep 10 21:13:13 2018
### 

@<TRIPOS>MOLECULE
4fr3_ligand
  125   124     1     0     0
SMALL
GAST_HUCK


@<TRIPOS>ATOM
      1 N          -6.9860   -7.1440   15.0900 N.4       1 LYS         0.2379
      2 CA         -8.0370   -6.9480   14.0410 C.3       1 LYS         0.0650
      3 C          -9.4060   -7.5540   14.4790 C.2       1 LYS         0.2267
      4 O          -9.6360   -7.8280   15.6930 O.2       1 LYS        -0.3907
      5 CB         -7.5410   -7.4790   12.6690 C.3       1 LYS         0.0080
      6 CG         -7.7060   -8.9990   12.3920 C.3       1 LYS        -0.0410
      7 CD         -6.7130   -9.9280   13.1730 C.3       1 LYS        -0.0123
      8 CE         -5.3950  -10.2180   12.4100 C.3       1 LYS        -0.0354
      9 NZ         -5.5920  -11.1370   11.2250 N.4       1 LYS         0.2185
     10 N         -10.3260   -7.7040   13.5200 N.am      1 ARG        -0.2610
     11 CA        -11.5960   -8.3480   13.8190 C.3       1 ARG         0.1312
     12 C         -11.4370   -9.8520   13.4840 C.2       1 ARG         0.2039
     13 O         -10.8190  -10.1960   12.4470 O.2       1 ARG        -0.3944
     14 CB        -12.7470   -7.6400   13.0720 C.3       1 ARG        -0.0092
     15 CG        -14.1270   -8.3180   13.1900 C.3       1 ARG        -0.0156
     16 CD        -15.2640   -7.3090   13.0010 C.3       1 ARG         0.0627
     17 NE        -16.5680   -7.9680   12.8920 N.pl3     1 ARG        -0.2723
     18 CZ        -17.3750   -8.2240   13.9460 C.cat     1 ARG         0.2882
     19 NH1       -17.0240   -7.8720   15.1930 N.pl3     1 ARG        -0.2849
     20 NH2       -18.5580   -8.8130   13.7660 N.pl3     1 ARG        -0.2849
     21 N         -11.9500  -10.7360   14.3580 N.am      1 ARG        -0.2637
     22 CA        -11.8900  -12.1920   14.0770 C.3       1 ARG         0.1311
     23 C         -12.6000  -12.5100   12.7440 C.2       1 ARG         0.2039
     24 O         -13.4840  -11.7660   12.3400 O.2       1 ARG        -0.3944
     25 CB        -12.5190  -12.9740   15.2470 C.3       1 ARG        -0.0092
     26 CG        -14.1190  -13.1030   15.2400 C.3       1 ARG        -0.0156
     27 CD        -14.8690  -11.6940   15.3240 C.3       1 ARG         0.0627
     28 NE        -16.3410  -11.8190   15.2780 N.pl3     1 ARG        -0.2723
     29 CZ        -17.0650  -12.0580   14.1610 C.cat     1 ARG         0.2882
     30 NH1       -16.4540  -12.1060   12.9660 N.pl3     1 ARG        -0.2849
     31 NH2       -18.4210  -12.2160   14.2340 N.pl3     1 ARG        -0.2849
     32 N         -12.2430  -13.5960   12.0940 N.am      1 LYS        -0.2637
     33 CA        -12.7550  -13.8960   10.7650 C.3       1 LYS         0.1310
     34 C         -13.9810  -14.8150   10.8600 C.2       1 LYS         0.2040
     35 O         -14.0190  -15.7900   11.6800 O.2       1 LYS        -0.3944
     36 CB        -11.6740  -14.6340    9.9760 C.3       1 LYS        -0.0122
     37 CG        -10.3110  -13.8530    9.9960 C.3       1 LYS        -0.0440
     38 CD        -10.5310  -12.4740    9.2340 C.3       1 LYS        -0.0124
     39 CE         -9.3690  -11.4830    9.4230 C.3       1 LYS        -0.0354
     40 NZ         -8.2640  -11.9910    8.6800 N.4       1 LYS         0.2185
     41 N         -14.9400  -14.5580   10.0020 N.am      1 SEP        -0.2613
     42 CA        -15.9800  -15.5420    9.7650 C.3       1 SEP         0.1586
     43 CB        -17.3280  -15.1320   10.4270 C.3       1 SEP         0.1184
     44 OG        -17.7320  -13.8870    9.8860 O.3       1 SEP        -0.2714
     45 C         -16.1730  -15.6470    8.2410 C.2       1 SEP         0.2060
     46 O         -15.5940  -14.8530    7.4790 O.2       1 SEP        -0.3943
     47 P         -19.2050  -13.3770   10.3420 P.3       1 SEP         0.2010
     48 O1P       -19.3200  -12.0590    9.5190 O.co2     1 SEP        -0.5537
     49 O2P       -20.2250  -14.5200    9.8670 O.co2     1 SEP        -0.5537
     50 O3P       -19.2760  -13.0590   11.8790 O.co2     1 SEP        -0.5537
     51 N         -16.9380  -16.5870    7.7620 N.am      1 VAL        -0.2692
     52 CA        -17.0730  -16.7170    6.2680 C.3       1 VAL         0.0967
     53 C         -18.4130  -17.1640    5.8130 C.2       1 VAL         0.0603
     54 O         -19.0890  -17.7420    6.5800 O.co2     1 VAL        -0.5666
     55 CB        -16.0180  -17.7250    5.7330 C.3       1 VAL        -0.0118
     56 CG1       -16.3890  -19.1820    6.2060 C.3       1 VAL        -0.0590
     57 CG2       -15.9370  -17.6900    4.1700 C.3       1 VAL        -0.0590
     58 OXT       -18.8350  -17.0230    4.6800 O.co2     1 VAL        -0.5666
     59 H1         -6.1173   -6.7416   14.7746 H         1 LYS         0.2015
     60 H2         -6.8583   -8.1297   15.2577 H         1 LYS         0.2015
     61 H3         -7.2750   -6.6926   15.9437 H         1 LYS         0.2015
     62 H4         -8.1906   -5.8645   13.9297 H         1 LYS         0.1098
     63 H5         -6.4694   -7.2433   12.5911 H         1 LYS         0.0346
     64 H6         -8.0932   -6.9385   11.8861 H         1 LYS         0.0346
     65 H7         -7.5556   -9.1677   11.3155 H         1 LYS         0.0270
     66 H8         -8.7310   -9.2867   12.6685 H         1 LYS         0.0270
     67 H9         -7.2169  -10.8856   13.3708 H         1 LYS         0.0317
     68 H10        -6.4614   -9.4421   14.1272 H         1 LYS         0.0317
     69 H11        -4.6833  -10.6883   13.1045 H         1 LYS         0.0813
     70 H12        -4.9806   -9.2648   12.0500 H         1 LYS         0.0813
     71 H13        -4.7067  -11.2906   10.7681 H         1 LYS         0.1994
     72 H14        -6.2364  -10.7142   10.5754 H         1 LYS         0.1994
     73 H15        -5.9640  -12.0187   11.5417 H         1 LYS         0.1994
     74 H16       -10.1406   -7.3726   12.5949 H         1 ARG         0.1884
     75 H17       -11.7972   -8.2578   14.8967 H         1 ARG         0.0800
     76 H18       -12.4817   -7.5935   12.0055 H         1 ARG         0.0313
     77 H19       -12.8348   -6.6194   13.4728 H         1 ARG         0.0313
     78 H20       -14.2168   -8.7757   14.1862 H         1 ARG         0.0301
     79 H21       -14.2094   -9.0983   12.4191 H         1 ARG         0.0301
     80 H22       -15.0790   -6.7330   12.0823 H         1 ARG         0.0689
     81 H23       -15.2814   -6.6273   13.8641 H         1 ARG         0.0689
     82 H24       -16.8893   -8.2535   11.9559 H         1 ARG         0.2642
     83 H25       -17.6535   -8.0763   15.9823 H         1 ARG         0.2615
     84 H26       -16.1252   -7.3976   15.3605 H         1 ARG         0.2615
     85 H27       -18.8547   -9.0944   12.8206 H         1 ARG         0.2615
     86 H28       -19.1749   -8.9865   14.5724 H         1 ARG         0.2615
     87 H29       -12.3746  -10.4102   15.2027 H         1 ARG         0.1883
     88 H30       -10.8349  -12.4897   13.9867 H         1 ARG         0.0800
     89 H31       -12.2278  -12.4710   16.1809 H         1 ARG         0.0313
     90 H32       -12.1011  -13.9914   15.2328 H         1 ARG         0.0313
     91 H33       -14.4236  -13.7123   16.1037 H         1 ARG         0.0301
     92 H34       -14.4244  -13.6058   14.3105 H         1 ARG         0.0301
     93 H35       -14.5435  -11.0727   14.4767 H         1 ARG         0.0689
     94 H36       -14.5884  -11.2033   16.2676 H         1 ARG         0.0689
     95 H37       -16.8549  -11.7162   16.1647 H         1 ARG         0.2642
     96 H38       -17.0031  -12.2879   12.1138 H         1 ARG         0.2615
     97 H39       -15.4363  -11.9610   12.9017 H         1 ARG         0.2615
     98 H40       -18.8952  -12.1802   15.1476 H         1 ARG         0.2615
     99 H41       -18.9684  -12.3709   13.3754 H         1 ARG         0.2615
    100 H42       -11.6028  -14.2325   12.5242 H         1 LYS         0.1883
    101 H43       -13.0272  -12.9613   10.2529 H         1 LYS         0.0800
    102 H44       -12.0063  -14.7460    8.9334 H         1 LYS         0.0312
    103 H45       -11.5226  -15.6283   10.4214 H         1 LYS         0.0312
    104 H46        -9.5343  -14.4423    9.4868 H         1 LYS         0.0269
    105 H47       -10.0042  -13.6619   11.0349 H         1 LYS         0.0269
    106 H48       -11.4524  -12.0083    9.6136 H         1 LYS         0.0317
    107 H49       -10.6411  -12.6823    8.1595 H         1 LYS         0.0317
    108 H50        -9.1056  -11.4082   10.4884 H         1 LYS         0.0813
    109 H51        -9.6539  -10.4900    9.0451 H         1 LYS         0.0813
    110 H52        -7.4781  -11.3675    8.7781 H         1 LYS         0.1994
    111 H53        -8.5174  -12.0617    7.7069 H         1 LYS         0.1994
    112 H54        -8.0149  -12.9031    9.0295 H         1 LYS         0.1994
    113 H55       -14.9542  -13.6861    9.5126 H         1 SEP         0.1884
    114 H56       -15.6626  -16.5140   10.1705 H         1 SEP         0.0827
    115 H57       -17.1942  -15.0383   11.5148 H         1 SEP         0.0662
    116 H58       -18.0924  -15.8942   10.2158 H         1 SEP         0.0662
    117 H59       -17.4255  -17.2094    8.3743 H         1 VAL         0.1875
    118 H60       -16.8770  -15.7284    5.8273 H         1 VAL         0.0729
    119 H61       -15.0338  -17.4546    6.1430 H         1 VAL         0.0336
    120 H62       -15.6405  -19.8927    5.8257 H         1 VAL         0.0234
    121 H63       -17.3818  -19.4521    5.8171 H         1 VAL         0.0234
    122 H64       -16.4035  -19.2181    7.3053 H         1 VAL         0.0234
    123 H65       -15.6781  -16.6734    3.8390 H         1 VAL         0.0234
    124 H66       -16.9105  -17.9769    3.7458 H         1 VAL         0.0234
    125 H67       -15.1654  -18.3949    3.8269 H         1 VAL         0.0234
@<TRIPOS>BOND
     1    1    2 1  
     2    2    3 1  
     3    2    5 1  
     4    3    4 2  
     5    3   10 am 
     6    5    6 1  
     7    6    7 1  
     8    7    8 1  
     9    8    9 1  
    10   10   11 1  
    11   11   12 1  
    12   11   14 1  
    13   12   13 2  
    14   12   21 am 
    15   14   15 1  
    16   15   16 1  
    17   16   17 1  
    18   17   18 ar 
    19   18   19 ar 
    20   18   20 ar 
    21   21   22 1  
    22   22   23 1  
    23   22   25 1  
    24   23   24 2  
    25   23   32 am 
    26   25   26 1  
    27   26   27 1  
    28   27   28 1  
    29   28   29 ar 
    30   29   30 ar 
    31   29   31 ar 
    32   32   33 1  
    33   33   34 1  
    34   33   36 1  
    35   34   35 2  
    36   34   41 am 
    37   36   37 1  
    38   37   38 1  
    39   38   39 1  
    40   39   40 1  
    41   41   42 1  
    42   42   43 1  
    43   42   45 1  
    44   43   44 1  
    45   44   47 1  
    46   45   46 2  
    47   45   51 am 
    48   47   48 ar 
    49   47   49 ar 
    50   47   50 ar 
    51   51   52 1  
    52   52   53 1  
    53   52   55 1  
    54   53   54 ar 
    55   53   58 ar 
    56   55   56 1  
    57   55   57 1  
    58    1   59 1  
    59    1   60 1  
    60    1   61 1  
    61    2   62 1  
    62    5   63 1  
    63    5   64 1  
    64    6   65 1  
    65    6   66 1  
    66    7   67 1  
    67    7   68 1  
    68    8   69 1  
    69    8   70 1  
    70    9   71 1  
    71    9   72 1  
    72    9   73 1  
    73   10   74 1  
    74   11   75 1  
    75   14   76 1  
    76   14   77 1  
    77   15   78 1  
    78   15   79 1  
    79   16   80 1  
    80   16   81 1  
    81   17   82 1  
    82   19   83 1  
    83   19   84 1  
    84   20   85 1  
    85   20   86 1  
    86   21   87 1  
    87   22   88 1  
    88   25   89 1  
    89   25   90 1  
    90   26   91 1  
    91   26   92 1  
    92   27   93 1  
    93   27   94 1  
    94   28   95 1  
    95   30   96 1  
    96   30   97 1  
    97   31   98 1  
    98   31   99 1  
    99   32  100 1  
   100   33  101 1  
   101   36  102 1  
   102   36  103 1  
   103   37  104 1  
   104   37  105 1  
   105   38  106 1  
   106   38  107 1  
   107   39  108 1  
   108   39  109 1  
   109   40  110 1  
   110   40  111 1  
   111   40  112 1  
   112   41  113 1  
   113   42  114 1  
   114   43  115 1  
   115   43  116 1  
   116   51  117 1  
   117   52  118 1  
   118   55  119 1  
   119   56  120 1  
   120   56  121 1  
   121   56  122 1  
   122   57  123 1  
   123   57  124 1  
   124   57  125 1  
@<TRIPOS>SUBSTRUCTURE
     1 LYS         1

