4fr3_ligand
  -I-interpret- 

126125  0  0  0  0  0  0  0  0999 V2000
   -6.9860   -7.1440   15.0900 N   0  3  0  0  0
   -8.0370   -6.9480   14.0410 C   0  0  0  0  0
   -9.4060   -7.5540   14.4790 C   0  0  0  0  0
   -9.6360   -7.8280   15.6930 O   0  0  0  0  0
   -7.5410   -7.4790   12.6690 C   0  0  0  0  0
   -7.7060   -8.9990   12.3920 C   0  0  0  0  0
   -6.7130   -9.9280   13.1730 C   0  0  0  0  0
   -5.3950  -10.2180   12.4100 C   0  0  0  0  0
   -5.5920  -11.1370   11.2250 N   0  3  0  0  0
  -10.3260   -7.7040   13.5200 N   0  0  0  0  0
  -11.5960   -8.3480   13.8190 C   0  0  0  0  0
  -11.4370   -9.8520   13.4840 C   0  0  0  0  0
  -10.8190  -10.1960   12.4470 O   0  0  0  0  0
  -12.7470   -7.6400   13.0720 C   0  0  0  0  0
  -14.1270   -8.3180   13.1900 C   0  0  0  0  0
  -15.2640   -7.3090   13.0010 C   0  0  0  0  0
  -16.5680   -7.9680   12.8920 N   0  0  0  0  0
  -17.3750   -8.2240   13.9460 C   0  0  0  0  0
  -17.0240   -7.8720   15.1930 N   0  0  0  0  0
  -18.5580   -8.8130   13.7660 N   0  0  0  0  0
  -11.9500  -10.7360   14.3580 N   0  0  0  0  0
  -11.8900  -12.1920   14.0770 C   0  0  0  0  0
  -12.6000  -12.5100   12.7440 C   0  0  0  0  0
  -13.4840  -11.7660   12.3400 O   0  0  0  0  0
  -12.5190  -12.9740   15.2470 C   0  0  0  0  0
  -14.1190  -13.1030   15.2400 C   0  0  0  0  0
  -14.8690  -11.6940   15.3240 C   0  0  0  0  0
  -16.3410  -11.8190   15.2780 N   0  0  0  0  0
  -17.0650  -12.0580   14.1610 C   0  0  0  0  0
  -16.4540  -12.1060   12.9660 N   0  0  0  0  0
  -18.4210  -12.2160   14.2340 N   0  0  0  0  0
  -12.2430  -13.5960   12.0940 N   0  0  0  0  0
  -12.7550  -13.8960   10.7650 C   0  0  0  0  0
  -13.9810  -14.8150   10.8600 C   0  0  0  0  0
  -14.0190  -15.7900   11.6800 O   0  0  0  0  0
  -11.6740  -14.6340    9.9760 C   0  0  0  0  0
  -10.3110  -13.8530    9.9960 C   0  0  0  0  0
  -10.5310  -12.4740    9.2340 C   0  0  0  0  0
   -9.3690  -11.4830    9.4230 C   0  0  0  0  0
   -8.2640  -11.9910    8.6800 N   0  3  0  0  0
  -14.9400  -14.5580   10.0020 N   0  0  0  0  0
  -15.9800  -15.5420    9.7650 C   0  0  0  0  0
  -17.3280  -15.1320   10.4270 C   0  0  0  0  0
  -17.7320  -13.8870    9.8860 O   0  0  0  0  0
  -16.1730  -15.6470    8.2410 C   0  0  0  0  0
  -15.5940  -14.8530    7.4790 O   0  0  0  0  0
  -19.2050  -13.3770   10.3420 P   0  0  0  0  0
  -19.3200  -12.0590    9.5190 O   0  0  0  0  0
  -20.2250  -14.5200    9.8670 O   0  0  0  0  0
  -19.2760  -13.0590   11.8790 O   0  0  0  0  0
  -16.9380  -16.5870    7.7620 N   0  0  0  0  0
  -17.0730  -16.7170    6.2680 C   0  0  0  0  0
  -18.4130  -17.1640    5.8130 C   0  0  0  0  0
  -19.0890  -17.7420    6.5800 O   0  0  0  0  0
  -16.0180  -17.7250    5.7330 C   0  0  0  0  0
  -16.3890  -19.1820    6.2060 C   0  0  0  0  0
  -15.9370  -17.6900    4.1700 C   0  0  0  0  0
  -18.8350  -17.0230    4.6800 O   0  0  0  0  0
   -7.3286   -6.7900   15.9832 H   0  0  0  0  0
   -6.7740   -8.1380   15.1756 H   0  0  0  0  0
   -6.1422   -6.6369   14.8231 H   0  0  0  0  0
   -8.2151   -5.8795   13.9201 H   0  0  0  0  0
   -6.4677   -7.2902   12.6498 H   0  0  0  0  0
   -8.1504   -6.9744   11.9193 H   0  0  0  0  0
   -7.5072   -9.1484   11.3307 H   0  0  0  0  0
   -8.7108   -9.2702   12.7161 H   0  0  0  0  0
   -7.2153  -10.8828   13.3281 H   0  0  0  0  0
   -6.4471   -9.4150   14.0973 H   0  0  0  0  0
   -4.7104  -10.7085   13.1019 H   0  0  0  0  0
   -5.0110   -9.2691   12.0356 H   0  0  0  0  0
   -4.6956  -11.2917   10.7635 H   0  0  0  0  0
   -5.9685  -12.0287   11.5467 H   0  0  0  0  0
   -6.2443  -10.7082   10.5684 H   0  0  0  0  0
  -10.1368   -7.3660   12.5764 H   0  0  0  0  0
  -11.8636   -8.2668   14.8725 H   0  0  0  0  0
  -12.4845   -7.6500   12.0141 H   0  0  0  0  0
  -12.8466   -6.6509   13.5191 H   0  0  0  0  0
  -14.2139   -8.7548   14.1848 H   0  0  0  0  0
  -14.2065   -9.0783   12.4130 H   0  0  0  0  0
  -15.0817   -6.7580   12.0783 H   0  0  0  0  0
  -15.2852   -6.6517   13.8703 H   0  0  0  0  0
  -16.8861   -8.2507   11.9650 H   0  0  0  0  0
  -17.6560   -8.0567   15.9720 H   0  0  0  0  0
  -16.1253   -7.4199   15.3614 H   0  0  0  0  0
  -18.8602   -9.0740   12.8274 H   0  0  0  0  0
  -12.3831  -10.4036   15.2196 H   0  0  0  0  0
  -10.8486  -12.4989   13.9799 H   0  0  0  0  0
  -12.2635  -12.4227   16.1519 H   0  0  0  0  0
  -12.1328  -13.9907   15.1742 H   0  0  0  0  0
  -14.4061  -13.6812   16.1182 H   0  0  0  0  0
  -14.4069  -13.5732   14.2997 H   0  0  0  0  0
  -14.5592  -11.1014   14.4632 H   0  0  0  0  0
  -14.6047  -11.2336   16.2760 H   0  0  0  0  0
  -16.8499  -11.7172   16.1561 H   0  0  0  0  0
  -15.4462  -11.9624   12.9024 H   0  0  0  0  0
  -18.9631  -12.3694   13.3837 H   0  0  0  0  0
  -18.8906  -12.1805   15.1388 H   0  0  0  0  0
  -11.5900  -14.2452   12.5328 H   0  0  0  0  0
  -13.0328  -12.9624   10.2758 H   0  0  0  0  0
  -12.0040  -14.7255    8.9412 H   0  0  0  0  0
  -11.5187  -15.6107   10.4342 H   0  0  0  0  0
   -9.5325  -14.4370    9.5052 H   0  0  0  0  0
   -9.9931  -13.6720   11.0228 H   0  0  0  0  0
  -11.4291  -12.0110    9.6429 H   0  0  0  0  0
  -10.6067  -12.6941    8.1691 H   0  0  0  0  0
   -9.1126  -11.3856   10.4779 H   0  0  0  0  0
   -9.6474  -10.4900    9.0702 H   0  0  0  0  0
   -7.4694  -11.3593    8.7800 H   0  0  0  0  0
   -8.0129  -12.9139    9.0345 H   0  0  0  0  0
   -8.5216  -12.0621    7.6956 H   0  0  0  0  0
  -14.9544  -13.6686    9.5028 H   0  0  0  0  0
  -15.6805  -16.4943   10.2026 H   0  0  0  0  0
  -17.2023  -15.0462   11.5063 H   0  0  0  0  0
  -18.0866  -15.8889   10.2276 H   0  0  0  0  0
  -20.1040  -15.3016   10.4111 H   0  0  0  0  0
  -19.2044  -13.8764   12.3774 H   0  0  0  0  0
  -17.4353  -17.2219    8.3865 H   0  0  0  0  0
  -16.9168  -15.7138    5.8714 H   0  0  0  0  0
  -15.0450  -17.4391    6.1324 H   0  0  0  0  0
  -16.4031  -19.2164    7.2954 H   0  0  0  0  0
  -17.3729  -19.4484    5.8200 H   0  0  0  0  0
  -15.6466  -19.8852    5.8286 H   0  0  0  0  0
  -16.9091  -17.9504    3.7512 H   0  0  0  0  0
  -15.6561  -16.6884    3.8444 H   0  0  0  0  0
  -15.1897  -18.4069    3.8300 H   0  0  0  0  0
  -18.1917  -16.5377    4.1582 H   0  0  0  0  0
  1  2  1  0  0  0
  2  3  1  0  0  0
  2  5  1  0  0  0
  3  4  2  0  0  0
  3 10  1  0  0  0
  5  6  1  0  0  0
  6  7  1  0  0  0
  7  8  1  0  0  0
  8  9  1  0  0  0
 10 11  1  0  0  0
 11 12  1  0  0  0
 11 14  1  0  0  0
 12 13  2  0  0  0
 12 21  1  0  0  0
 14 15  1  0  0  0
 15 16  1  0  0  0
 16 17  1  0  0  0
 17 18  1  0  0  0
 18 19  1  0  0  0
 18 20  2  0  0  0
 21 22  1  0  0  0
 22 23  1  0  0  0
 22 25  1  0  0  0
 23 24  2  0  0  0
 23 32  1  0  0  0
 25 26  1  0  0  0
 26 27  1  0  0  0
 27 28  1  0  0  0
 28 29  1  0  0  0
 29 30  2  0  0  0
 29 31  1  0  0  0
 32 33  1  0  0  0
 33 34  1  0  0  0
 33 36  1  0  0  0
 34 35  2  0  0  0
 34 41  1  0  0  0
 36 37  1  0  0  0
 37 38  1  0  0  0
 38 39  1  0  0  0
 39 40  1  0  0  0
 41 42  1  0  0  0
 42 43  1  0  0  0
 42 45  1  0  0  0
 43 44  1  0  0  0
 44 47  1  0  0  0
 45 46  2  0  0  0
 45 51  1  0  0  0
 47 48  2  0  0  0
 47 49  1  0  0  0
 47 50  1  0  0  0
 51 52  1  0  0  0
 52 53  1  0  0  0
 52 55  1  0  0  0
 53 54  2  0  0  0
 53 58  1  0  0  0
 55 56  1  0  0  0
 55 57  1  0  0  0
  1 59  1  0  0  0
  1 60  1  0  0  0
  1 61  1  0  0  0
  2 62  1  0  0  0
  5 63  1  0  0  0
  5 64  1  0  0  0
  6 65  1  0  0  0
  6 66  1  0  0  0
  7 67  1  0  0  0
  7 68  1  0  0  0
  8 69  1  0  0  0
  8 70  1  0  0  0
  9 71  1  0  0  0
  9 72  1  0  0  0
  9 73  1  0  0  0
 10 74  1  0  0  0
 11 75  1  0  0  0
 14 76  1  0  0  0
 14 77  1  0  0  0
 15 78  1  0  0  0
 15 79  1  0  0  0
 16 80  1  0  0  0
 16 81  1  0  0  0
 17 82  1  0  0  0
 19 83  1  0  0  0
 19 84  1  0  0  0
 20 85  1  0  0  0
 21 86  1  0  0  0
 22 87  1  0  0  0
 25 88  1  0  0  0
 25 89  1  0  0  0
 26 90  1  0  0  0
 26 91  1  0  0  0
 27 92  1  0  0  0
 27 93  1  0  0  0
 28 94  1  0  0  0
 30 95  1  0  0  0
 31 96  1  0  0  0
 31 97  1  0  0  0
 32 98  1  0  0  0
 33 99  1  0  0  0
 36100  1  0  0  0
 36101  1  0  0  0
 37102  1  0  0  0
 37103  1  0  0  0
 38104  1  0  0  0
 38105  1  0  0  0
 39106  1  0  0  0
 39107  1  0  0  0
 40108  1  0  0  0
 40109  1  0  0  0
 40110  1  0  0  0
 41111  1  0  0  0
 42112  1  0  0  0
 43113  1  0  0  0
 43114  1  0  0  0
 49115  1  0  0  0
 50116  1  0  0  0
 51117  1  0  0  0
 52118  1  0  0  0
 55119  1  0  0  0
 56120  1  0  0  0
 56121  1  0  0  0
 56122  1  0  0  0
 57123  1  0  0  0
 57124  1  0  0  0
 57125  1  0  0  0
 58126  1  0  0  0
M  END
$$$$
