6ib2_ligand
  -I-interpret- 

 59 63  0  0  0  0  0  0  0  0999 V2000
  -23.0770    6.5600   -3.1000 N   0  0  0  0  0
  -22.9880    7.7810   -2.5330 C   0  0  0  0  0
  -30.1650    4.1750  -13.5830 O   0  0  0  0  0
  -24.1370    8.8720   -4.2660 C   0  0  0  0  0
  -28.9170    5.5010  -12.0940 C   0  0  0  0  0
  -28.5020    4.4260  -11.3270 C   0  0  0  0  0
  -27.6490    4.6380  -10.2510 C   0  0  0  0  0
  -29.8380    5.3050  -13.2590 C   0  0  0  0  0
  -30.3330    6.5220  -13.9820 C   0  0  0  0  0
  -24.9320   11.2450   -4.9340 C   0  0  0  0  0
  -26.4120   11.5500   -4.7470 C   0  0  0  0  0
  -26.6370   13.0540   -4.6780 C   0  0  0  0  0
  -26.0780   13.7490   -5.9140 C   0  0  0  0  0
  -24.4380   11.9350   -6.2000 C   0  0  0  0  0
  -24.2700    7.5690   -4.9410 C   0  0  0  0  0
  -23.6880   14.2320   -5.8540 C   0  0  0  0  0
  -22.5310   14.0740   -6.8120 C   0  0  0  0  0
  -21.5950   15.2530   -6.6730 C   0  0  0  0  0
  -23.6950    6.3720   -4.2880 C   0  0  0  0  0
  -25.0070    7.9200   -6.1680 C   0  0  0  0  0
  -25.3990    6.9360   -7.2140 C   0  0  0  0  0
  -26.3740    7.2230   -8.1510 C   0  0  0  0  0
  -27.1790    5.9000   -9.8900 C   0  0  0  0  0
  -27.6200    6.9530  -10.6900 C   0  0  0  0  0
  -28.4730    6.7720  -11.7710 C   0  0  0  0  0
  -23.4900    8.9070   -3.0760 N   0  0  0  0  0
  -24.7370    9.7800   -5.0620 N   0  0  0  0  0
  -25.2890    9.2340   -6.2450 N   0  0  0  0  0
  -23.7850    5.1450   -4.8570 N   0  0  0  0  0
  -26.3610    6.0920   -8.8530 N   0  0  0  0  0
  -25.4500    5.1190   -8.4180 N   0  0  0  0  0
  -24.8120    5.7220   -7.3160 N   0  0  0  0  0
  -24.6790   13.3540   -5.9780 N   0  0  0  0  0
  -23.6840   15.1200   -5.0170 O   0  0  0  0  0
  -22.4769    7.8616   -1.5736 H   0  0  0  0  0
  -28.8426    3.4185  -11.5659 H   0  0  0  0  0
  -27.3325    3.7775   -9.6615 H   0  0  0  0  0
  -30.0254    6.4727  -15.0265 H   0  0  0  0  0
  -31.4208    6.5603  -13.9237 H   0  0  0  0  0
  -29.9114    7.4144  -13.5194 H   0  0  0  0  0
  -24.3717   11.6080   -4.0724 H   0  0  0  0  0
  -26.7541   11.0960   -3.8170 H   0  0  0  0  0
  -26.9683   11.1454   -5.5926 H   0  0  0  0  0
  -26.1259   13.4434   -3.7975 H   0  0  0  0  0
  -27.7089   13.2445   -4.6252 H   0  0  0  0  0
  -26.1863   14.8316   -5.8485 H   0  0  0  0  0
  -26.6180   13.4593   -6.8154 H   0  0  0  0  0
  -24.9586   11.5718   -7.0861 H   0  0  0  0  0
  -23.3837   11.7296   -6.3855 H   0  0  0  0  0
  -22.9092   14.0295   -7.8333 H   0  0  0  0  0
  -21.9927   13.1544   -6.5822 H   0  0  0  0  0
  -22.1340   16.1722   -6.9026 H   0  0  0  0  0
  -21.2175   15.2971   -5.6514 H   0  0  0  0  0
  -20.7610   15.1368   -7.3652 H   0  0  0  0  0
  -26.9805    8.1197   -8.2786 H   0  0  0  0  0
  -27.2806    7.9623  -10.4570 H   0  0  0  0  0
  -28.7923    7.6290  -12.3640 H   0  0  0  0  0
  -23.3807    4.3344   -4.3880 H   0  0  0  0  0
  -24.2570    5.0323   -5.7542 H   0  0  0  0  0
  1  2  4  0  0  0
 19  1  4  0  0  0
 26  2  4  0  0  0
  8  3  2  0  0  0
 15  4  4  0  0  0
  4 26  4  0  0  0
  4 27  4  0  0  0
  6  5  4  0  0  0
  5  8  1  0  0  0
  5 25  4  0  0  0
  7  6  4  0  0  0
 23  7  4  0  0  0
  8  9  1  0  0  0
 10 11  1  0  0  0
 10 14  1  0  0  0
 27 10  1  0  0  0
 11 12  1  0  0  0
 12 13  1  0  0  0
 33 13  1  0  0  0
 14 33  1  0  0  0
 15 19  4  0  0  0
 20 15  4  0  0  0
 16 17  1  0  0  0
 33 16  1  0  0  0
 16 34  2  0  0  0
 17 18  1  0  0  0
 19 29  1  0  0  0
 21 20  1  0  0  0
 20 28  4  0  0  0
 22 21  4  0  0  0
 21 32  4  0  0  0
 30 22  4  0  0  0
 23 24  4  0  0  0
 23 30  1  0  0  0
 24 25  4  0  0  0
 27 28  4  0  0  0
 30 31  4  0  0  0
 31 32  4  0  0  0
  2 35  1  0  0  0
  6 36  1  0  0  0
  7 37  1  0  0  0
  9 38  1  0  0  0
  9 39  1  0  0  0
  9 40  1  0  0  0
 10 41  1  0  0  0
 11 42  1  0  0  0
 11 43  1  0  0  0
 12 44  1  0  0  0
 12 45  1  0  0  0
 13 46  1  0  0  0
 13 47  1  0  0  0
 14 48  1  0  0  0
 14 49  1  0  0  0
 17 50  1  0  0  0
 17 51  1  0  0  0
 18 52  1  0  0  0
 18 53  1  0  0  0
 18 54  1  0  0  0
 22 55  1  0  0  0
 24 56  1  0  0  0
 25 57  1  0  0  0
 29 58  1  0  0  0
 29 59  1  0  0  0
M  END
$$$$
