2p4i_ligand
  -I-interpret- 

 68 72  0  0  0  0  0  0  0  0999 V2000
   25.9530    5.7030   91.1250 C   0  0  0  0  0
   26.8990    4.5000   91.1830 C   0  0  0  0  0
   26.9740    3.9770   92.5290 O   0  0  0  0  0
   25.6500    3.7690   93.1560 C   0  0  0  0  0
   24.6620    4.9360   92.9980 C   0  0  0  0  0
   24.6170    5.2400   91.5560 N   0  0  0  0  0
   23.6760    6.1310   91.2010 C   0  0  0  0  0
   23.4400    7.2910   91.9540 C   0  0  0  0  0
   22.4690    8.1870   91.5410 C   0  0  0  0  0
   21.7200    7.9420   90.3960 C   0  0  0  0  0
   20.6750    8.9700   89.9520 C   0  0  0  0  0
   21.3370   10.0020   89.4820 F   0  0  0  0  0
   19.9610    9.3860   90.9720 F   0  0  0  0  0
   19.8730    8.5370   88.9830 F   0  0  0  0  0
   21.9590    6.8050   89.6390 C   0  0  0  0  0
   22.9470    5.8980   90.0270 C   0  0  0  0  0
   23.1440    4.7540   89.3430 N   0  0  0  0  0
   22.9340    4.5240   88.0380 C   0  0  0  0  0
   22.5250    5.3640   87.2380 O   0  0  0  0  0
   23.1680    3.0730   87.5770 C   0  0  0  0  0
   22.8430    2.7280   86.2630 C   0  0  0  0  0
   23.6130    2.0750   88.4490 C   0  0  0  0  0
   23.7750    0.7660   87.9970 C   0  0  0  0  0
   23.4720    0.4340   86.6820 C   0  0  0  0  0
   23.6560   -1.0190   86.1930 C   0  0  0  0  0
   23.0190    1.4230   85.8110 C   0  0  0  0  0
   22.7010    1.1280   84.5140 O   0  0  0  0  0
   23.6450    1.1290   83.5410 C   0  0  0  0  0
   24.9540    1.1830   83.8440 N   0  0  0  0  0
   25.9090    1.1820   82.9090 C   0  0  0  0  0
   25.5610    1.1260   81.5590 C   0  0  0  0  0
   24.2100    1.0640   81.2150 C   0  0  0  0  0
   23.2300    1.0750   82.2130 C   0  0  0  0  0
   21.8740    0.9870   81.8520 C   0  0  0  0  0
   21.5510    0.8720   80.5530 N   0  0  0  0  0
   20.8370    0.9670   82.7960 C   0  0  0  0  0
   19.5250    0.8470   82.3540 C   0  0  0  0  0
   19.2880    0.7380   81.0620 N   0  0  0  0  0
   20.2780    0.7480   80.1600 C   0  0  0  0  0
   20.0010    0.6550   78.8620 N   0  0  0  0  0
   21.0880    0.7800   77.8750 C   0  0  0  0  0
   25.9087    6.1042   90.1125 H   0  0  0  0  0
   26.3092    6.4994   91.7784 H   0  0  0  0  0
   27.8940    4.8174   90.8711 H   0  0  0  0  0
   26.5207    3.7206   90.5215 H   0  0  0  0  0
   25.8249    3.6489   94.2252 H   0  0  0  0  0
   25.2004    2.9084   92.6608 H   0  0  0  0  0
   24.9820    5.8042   93.5741 H   0  0  0  0  0
   23.6747    4.6705   93.3759 H   0  0  0  0  0
   24.0172    7.4854   92.8580 H   0  0  0  0  0
   22.2900    9.0934   92.1193 H   0  0  0  0  0
   21.3738    6.6188   88.7384 H   0  0  0  0  0
   23.4966    3.9648   89.8846 H   0  0  0  0  0
   22.4486    3.4862   85.5865 H   0  0  0  0  0
   23.8344    2.3214   89.4874 H   0  0  0  0  0
   24.1414   -0.0013   88.6790 H   0  0  0  0  0
   24.7005   -1.3095   86.3059 H   0  0  0  0  0
   23.0268   -1.6829   86.7858 H   0  0  0  0  0
   23.3701   -1.0867   85.1433 H   0  0  0  0  0
   26.9584    1.2249   83.2007 H   0  0  0  0  0
   26.3305    1.1306   80.7870 H   0  0  0  0  0
   23.9178    1.0069   80.1664 H   0  0  0  0  0
   21.0569    1.0444   83.8608 H   0  0  0  0  0
   18.7012    0.8431   83.0677 H   0  0  0  0  0
   19.0420    0.4981   78.5520 H   0  0  0  0  0
   21.5609    1.7566   77.9790 H   0  0  0  0  0
   21.8263   -0.0029   78.0484 H   0  0  0  0  0
   20.6781    0.6785   76.8701 H   0  0  0  0  0
  1  2  1  0  0  0
  1  6  1  0  0  0
  2  3  1  0  0  0
  3  4  1  0  0  0
  4  5  1  0  0  0
  5  6  1  0  0  0
  6  7  1  0  0  0
  7  8  4  0  0  0
  7 16  4  0  0  0
  8  9  4  0  0  0
  9 10  4  0  0  0
 10 11  1  0  0  0
 10 15  4  0  0  0
 11 12  1  0  0  0
 11 13  1  0  0  0
 11 14  1  0  0  0
 15 16  4  0  0  0
 16 17  1  0  0  0
 17 18  1  0  0  0
 18 19  2  0  0  0
 18 20  1  0  0  0
 20 21  4  0  0  0
 20 22  4  0  0  0
 21 26  4  0  0  0
 22 23  4  0  0  0
 23 24  4  0  0  0
 24 25  1  0  0  0
 24 26  4  0  0  0
 26 27  1  0  0  0
 27 28  1  0  0  0
 28 29  4  0  0  0
 28 33  4  0  0  0
 29 30  4  0  0  0
 30 31  4  0  0  0
 31 32  4  0  0  0
 32 33  4  0  0  0
 33 34  1  0  0  0
 34 35  4  0  0  0
 34 36  4  0  0  0
 35 39  4  0  0  0
 36 37  4  0  0  0
 37 38  4  0  0  0
 38 39  4  0  0  0
 39 40  1  0  0  0
 40 41  1  0  0  0
  1 42  1  0  0  0
  1 43  1  0  0  0
  2 44  1  0  0  0
  2 45  1  0  0  0
  4 46  1  0  0  0
  4 47  1  0  0  0
  5 48  1  0  0  0
  5 49  1  0  0  0
  8 50  1  0  0  0
  9 51  1  0  0  0
 15 52  1  0  0  0
 17 53  1  0  0  0
 21 54  1  0  0  0
 22 55  1  0  0  0
 23 56  1  0  0  0
 25 57  1  0  0  0
 25 58  1  0  0  0
 25 59  1  0  0  0
 30 60  1  0  0  0
 31 61  1  0  0  0
 32 62  1  0  0  0
 36 63  1  0  0  0
 37 64  1  0  0  0
 40 65  1  0  0  0
 41 66  1  0  0  0
 41 67  1  0  0  0
 41 68  1  0  0  0
M  END
$$$$
