5a0a_ligand
  -I-interpret- 

 44 46  0  0  0  0  0  0  0  0999 V2000
  -10.3050   33.3020    1.2540 F   0  0  0  0  0
  -10.0430   34.0210    0.1740 C   0  0  0  0  0
  -10.9160   35.0110    0.0600 F   0  0  0  0  0
  -10.1920   33.2450   -0.8680 F   0  0  0  0  0
   -8.6380   34.6200    0.2220 C   0  0  0  0  0
   -8.0670   34.9830    1.4480 C   0  0  0  0  0
   -6.7960   35.5610    1.5220 C   0  0  0  0  0
   -6.0950   35.7780    0.3340 C   0  0  0  0  0
   -7.9270   34.8100   -0.9550 C   0  0  0  0  0
   -6.6440   35.3960   -0.9060 C   0  0  0  0  0
   -5.9160   35.5810   -2.1270 N   0  0  0  0  0
   -5.9380   36.8230   -2.6530 C   0  0  0  0  0
   -6.5580   37.7010   -2.0830 O   0  0  0  0  0
   -5.1380   34.5920   -2.6650 C   0  0  0  0  0
   -4.8740   33.3570   -1.8230 C   0  0  0  0  0
   -4.6140   34.7260   -3.9140 C   0  0  0  0  0
   -3.7440   33.7240   -4.5870 C   0  0  0  0  0
   -3.2650   32.7740   -3.9790 O   0  0  0  0  0
   -3.4410   33.8970   -6.0610 C   0  0  0  0  0
   -4.9100   35.9670   -4.7020 C   0  0  0  0  0
   -5.2840   37.0740   -3.8050 N   0  0  0  0  0
   -6.0500   35.8270   -5.6640 C   0  0  0  0  0
   -5.9990   36.5270   -6.8720 C   0  0  0  0  0
   -7.0620   36.4810   -7.7930 N   0  0  0  0  0
   -8.1680   35.6890   -7.4810 C   0  0  0  0  0
   -9.1420   35.6400   -8.3300 C   0  0  0  0  0
  -10.0050   35.6040   -9.1010 N   0  0  0  0  0
   -8.2090   34.9650   -6.2830 C   0  0  0  0  0
   -7.1690   35.0350   -5.3720 C   0  0  0  0  0
   -8.6271   34.8108    2.3671 H   0  0  0  0  0
   -6.3628   35.8356    2.4838 H   0  0  0  0  0
   -5.1121   36.2482    0.3664 H   0  0  0  0  0
   -8.3566   34.5087   -1.9104 H   0  0  0  0  0
   -5.2467   32.4761   -2.3456 H   0  0  0  0  0
   -3.8017   33.2553   -1.6558 H   0  0  0  0  0
   -5.3846   33.4559   -0.8651 H   0  0  0  0  0
   -2.3652   34.0044   -6.1993 H   0  0  0  0  0
   -3.7934   33.0226   -6.6081 H   0  0  0  0  0
   -3.9471   34.7880   -6.4325 H   0  0  0  0  0
   -3.9907   36.1577   -5.2557 H   0  0  0  0  0
   -5.0474   38.0338   -4.0563 H   0  0  0  0  0
   -5.1163   37.1220   -7.1063 H   0  0  0  0  0
   -9.0727   34.3370   -6.0646 H   0  0  0  0  0
   -7.2199   34.4791   -4.4358 H   0  0  0  0  0
  1  2  1  0  0  0
  2  3  1  0  0  0
  2  4  1  0  0  0
  2  5  1  0  0  0
  5  6  4  0  0  0
  5  9  4  0  0  0
  6  7  4  0  0  0
  7  8  4  0  0  0
  8 10  4  0  0  0
  9 10  4  0  0  0
 10 11  1  0  0  0
 11 12  1  0  0  0
 11 14  1  0  0  0
 12 13  2  0  0  0
 12 21  1  0  0  0
 14 15  1  0  0  0
 14 16  2  0  0  0
 16 17  1  0  0  0
 16 20  1  0  0  0
 17 18  2  0  0  0
 17 19  1  0  0  0
 20 21  1  0  0  0
 20 22  1  0  0  0
 22 23  4  0  0  0
 22 29  4  0  0  0
 23 24  4  0  0  0
 24 25  4  0  0  0
 25 26  1  0  0  0
 25 28  4  0  0  0
 26 27  3  0  0  0
 28 29  4  0  0  0
  6 30  1  0  0  0
  7 31  1  0  0  0
  8 32  1  0  0  0
  9 33  1  0  0  0
 15 34  1  0  0  0
 15 35  1  0  0  0
 15 36  1  0  0  0
 19 37  1  0  0  0
 19 38  1  0  0  0
 19 39  1  0  0  0
 20 40  1  0  0  0
 21 41  1  0  0  0
 23 42  1  0  0  0
 28 43  1  0  0  0
 29 44  1  0  0  0
M  END
$$$$
