3upy_ligand
  -I-interpret- 

 20 19  0  0  0  0  0  0  0  0999 V2000
    7.9580   -7.2540   15.1870 O   0  0  0  0  0
    8.3210   -6.1040   15.5470 N   0  3  0  0  0
    7.5940   -5.0220   15.4990 C   0  0  0  0  0
    6.4040   -5.0880   15.1980 O   0  0  0  0  0
    9.6420   -5.8950   16.0780 C   0  0  0  0  0
    9.9880   -7.0140   17.0280 C   0  0  0  0  0
   11.4560   -7.2750   16.8070 C   0  0  0  0  0
   11.7260   -8.7080   15.7570 P   0  0  0  0  0
   10.8560   -9.9440   16.1470 O   0  0  0  0  0
   11.3410   -8.0950   14.3770 O   0  0  0  0  0
   13.2490   -8.8560   16.0540 O   0  0  0  0  0
    8.0435   -4.0555   15.7267 H   0  0  0  0  0
    9.6719   -4.9448   16.6112 H   0  0  0  0  0
   10.3626   -5.8781   15.2604 H   0  0  0  0  0
    9.3871   -7.9037   16.8395 H   0  0  0  0  0
    9.7774   -6.7444   18.0629 H   0  0  0  0  0
   11.9202   -7.4660   17.7745 H   0  0  0  0  0
   11.8896   -6.4035   16.3166 H   0  0  0  0  0
   11.1388  -10.2759   17.0023 H   0  0  0  0  0
   13.3680   -9.2416   16.9251 H   0  0  0  0  0
  1  2  2  0  0  0
  2  3  1  0  0  0
  2  5  1  0  0  0
  3  4  2  0  0  0
  5  6  1  0  0  0
  6  7  1  0  0  0
  7  8  1  0  0  0
  8  9  1  0  0  0
  8 10  2  0  0  0
  8 11  1  0  0  0
  3 12  1  0  0  0
  5 13  1  0  0  0
  5 14  1  0  0  0
  6 15  1  0  0  0
  6 16  1  0  0  0
  7 17  1  0  0  0
  7 18  1  0  0  0
  9 19  1  0  0  0
 11 20  1  0  0  0
M  END
$$$$
