### 
### Created by X-TOOL on Mon Sep 10 21:13:09 2018
### 

@<TRIPOS>MOLECULE
3upy_ligand
   18    17     1     0     0
SMALL
GAST_HUCK


@<TRIPOS>ATOM
      1 O2          7.9580   -7.2540   15.1870 O.2       1 FOM         0.1605
      2 N1          8.3210   -6.1040   15.5470 N.2       1 FOM         0.0851
      3 C1          7.5940   -5.0220   15.4990 C.2       1 FOM         0.3885
      4 O1          6.4040   -5.0880   15.1980 O.2       1 FOM        -0.2003
      5 C2          9.6420   -5.8950   16.0780 C.3       1 FOM         0.1527
      6 C3          9.9880   -7.0140   17.0280 C.3       1 FOM         0.0027
      7 C4         11.4560   -7.2750   16.8070 C.3       1 FOM         0.0230
      8 PA1        11.7260   -8.7080   15.7570 P.3       1 FOM         0.0580
      9 OP1        10.8560   -9.9440   16.1470 O.co2     1 FOM        -0.5623
     10 OP2        11.3410   -8.0950   14.3770 O.co2     1 FOM        -0.5623
     11 OP3        13.2490   -8.8560   16.0540 O.co2     1 FOM        -0.5623
     12 H1          8.0431   -4.0563   15.7265 H         1 FOM         0.2097
     13 H2          9.6730   -4.9358   16.6155 H         1 FOM         0.0767
     14 H3         10.3695   -5.8769   15.2532 H         1 FOM         0.0767
     15 H4          9.3969   -7.9127   16.7981 H         1 FOM         0.0315
     16 H5          9.8021   -6.7090   18.0684 H         1 FOM         0.0315
     17 H6         11.9373   -7.4507   17.7804 H         1 FOM         0.0452
     18 H7         11.9068   -6.3929   16.3289 H         1 FOM         0.0452
@<TRIPOS>BOND
     1    1    2 2  
     2    2    3 1  
     3    2    5 1  
     4    3    4 2  
     5    5    6 1  
     6    6    7 1  
     7    7    8 1  
     8    8    9 ar 
     9    8   10 ar 
    10    8   11 ar 
    11    3   12 1  
    12    5   13 1  
    13    5   14 1  
    14    6   15 1  
    15    6   16 1  
    16    7   17 1  
    17    7   18 1  
@<TRIPOS>SUBSTRUCTURE
     1 FOM         1

