4prj_ligand
  -I-interpret- 

 45 49  0  0  0  0  0  0  0  0999 V2000
   48.3550   19.2110   25.9740 C   0  0  0  0  0
   48.6670   19.0550   24.6230 C   0  0  0  0  0
   49.9970   18.8810   24.2380 C   0  0  0  0  0
   51.0130   18.8700   25.1860 C   0  0  0  0  0
   50.7140   19.0090   26.5490 C   0  0  0  0  0
   49.3680   19.1970   26.9350 C   0  0  0  0  0
   51.7960   18.9710   27.4980 C   0  0  0  0  0
   52.6780   18.9370   28.2220 N   0  0  0  0  0
   50.3600   18.6870   22.7880 C   0  0  0  0  0
   50.7840   17.3100   22.5100 N   0  0  0  0  0
   51.0220   16.8250   21.2740 C   0  0  0  0  0
   51.3920   15.5290   21.3950 C   0  0  0  0  0
   51.3710   15.2060   22.7630 C   0  0  0  0  0
   51.0050   16.2620   23.4260 N   0  0  0  0  0
   51.7180   14.6990   20.3050 N   0  0  0  0  0
   52.2740   13.4710   20.3990 C   0  0  0  0  0
   52.5180   12.9500   21.4750 O   0  0  0  0  0
   52.5620   12.7310   19.1590 C   0  0  0  0  0
   52.9430   11.3170   19.0710 C   0  0  0  0  0
   53.1740   10.2870   19.9960 C   0  0  0  0  0
   53.4970    9.0350   19.5490 C   0  0  0  0  0
   53.6430    8.7820   18.1700 C   0  0  0  0  0
   53.4240    9.8020   17.2420 C   0  0  0  0  0
   53.0660   11.0810   17.6790 C   0  0  0  0  0
   52.7680   12.2710   17.0630 N   0  0  0  0  0
   52.4730   13.1740   17.9240 N   0  0  0  0  0
   53.9680    7.4060   17.7060 C   0  0  0  0  0
   53.4860    6.8060   16.5740 C   0  0  0  0  0
   53.9760    5.5550   16.5250 N   0  0  0  0  0
   54.7670    5.3650   17.6630 N   0  0  0  0  0
   54.7630    6.4560   18.3770 C   0  0  0  0  0
   47.3174   19.3442   26.2802 H   0  0  0  0  0
   47.8765   19.0690   23.8727 H   0  0  0  0  0
   52.0490   18.7526   24.8681 H   0  0  0  0  0
   49.1192   19.3317   27.9876 H   0  0  0  0  0
   51.1885   19.3544   22.5507 H   0  0  0  0  0
   49.4791   18.9022   22.1832 H   0  0  0  0  0
   50.9320   17.3803   20.3404 H   0  0  0  0  0
   51.6192   14.2360   23.1938 H   0  0  0  0  0
   51.5184   15.0532   19.3695 H   0  0  0  0  0
   53.0964   10.4836   21.0653 H   0  0  0  0  0
   53.6427    8.2263   20.2652 H   0  0  0  0  0
   53.5322    9.6011   16.1762 H   0  0  0  0  0
   52.8213    7.2626   15.8407 H   0  0  0  0  0
   55.2819    6.6062   19.3237 H   0  0  0  0  0
  1  2  4  0  0  0
  1  6  4  0  0  0
  2  3  4  0  0  0
  3  4  4  0  0  0
  3  9  1  0  0  0
  4  5  4  0  0  0
  5  6  4  0  0  0
  5  7  1  0  0  0
  7  8  3  0  0  0
  9 10  1  0  0  0
 10 11  4  0  0  0
 10 14  4  0  0  0
 11 12  4  0  0  0
 12 13  4  0  0  0
 12 15  1  0  0  0
 13 14  4  0  0  0
 15 16  1  0  0  0
 16 17  2  0  0  0
 16 18  1  0  0  0
 18 19  4  0  0  0
 18 26  4  0  0  0
 19 20  4  0  0  0
 19 24  4  0  0  0
 20 21  4  0  0  0
 21 22  4  0  0  0
 22 23  4  0  0  0
 22 27  1  0  0  0
 23 24  4  0  0  0
 24 25  4  0  0  0
 25 26  4  0  0  0
 27 28  4  0  0  0
 27 31  4  0  0  0
 28 29  4  0  0  0
 29 30  4  0  0  0
 30 31  4  0  0  0
  1 32  1  0  0  0
  2 33  1  0  0  0
  4 34  1  0  0  0
  6 35  1  0  0  0
  9 36  1  0  0  0
  9 37  1  0  0  0
 11 38  1  0  0  0
 13 39  1  0  0  0
 15 40  1  0  0  0
 20 41  1  0  0  0
 21 42  1  0  0  0
 23 43  1  0  0  0
 28 44  1  0  0  0
 31 45  1  0  0  0
M  END
$$$$
