5x9p_ligand
  -I-interpret- 

 41 43  0  0  0  0  0  0  0  0999 V2000
   38.9580   -7.3000  -11.2740 C   0  0  0  0  0
   36.7900   -8.2380   -9.8610 C   0  0  0  0  0
   40.9160   -7.3910  -16.0760 C   0  0  0  0  0
   40.6030   -8.6970  -15.8610 C   0  0  0  0  0
   39.0600   -8.0800  -14.2050 C   0  0  0  0  0
   38.0140   -8.1020  -11.9040 C   0  0  0  0  0
   42.1650   -8.6580  -17.4900 C   0  0  0  0  0
   40.5900   -4.3940  -10.7620 C   0  0  0  0  0
   40.3140   -6.3800  -15.3640 C   0  0  0  0  0
   39.3710   -6.7440  -14.4220 C   0  0  0  0  0
   39.6760   -9.0740  -14.9300 C   0  0  0  0  0
   38.8380   -6.9430   -9.9400 C   0  0  0  0  0
   37.7330   -7.4310   -9.2580 C   0  0  0  0  0
   36.9350   -8.5700  -11.1840 C   0  0  0  0  0
   41.7690   -4.1220  -11.6440 C   0  0  0  0  0
   40.9590   -5.5850   -9.9120 C   0  0  0  0  0
   41.8800   -7.3660  -17.0820 N   0  0  0  0  0
   41.3620   -9.4710  -16.7210 N   0  0  0  0  0
   38.1100   -8.4560  -13.2580 N   0  0  0  0  0
   39.7760   -6.1170   -9.2690 N   0  0  0  0  0
   37.4680   -7.1070   -7.8700 N   0  0  0  0  0
   38.3920   -6.7530   -7.1170 O   0  0  0  0  0
   42.9590   -9.0230  -18.3450 O   0  0  0  0  0
   41.8650   -4.4580  -12.8170 O   0  0  0  0  0
   36.2710   -7.1300   -7.5530 O   0  0  0  0  0
   42.7270   -3.4570  -10.9540 O   0  0  0  0  0
   35.6800   -9.5630  -11.8360 Cl  0  0  0  0  0
   39.8155   -6.9422  -11.8439 H   0  0  0  0  0
   35.9377   -8.6082   -9.2913 H   0  0  0  0  0
   39.6976   -4.5976  -11.3539 H   0  0  0  0  0
   40.3575   -3.5282  -10.1420 H   0  0  0  0  0
   40.5703   -5.3346  -15.5358 H   0  0  0  0  0
   38.8647   -5.9726  -13.8417 H   0  0  0  0  0
   39.4335  -10.1242  -14.7678 H   0  0  0  0  0
   41.6738   -5.2750   -9.1498 H   0  0  0  0  0
   41.4014   -6.3547  -10.5444 H   0  0  0  0  0
   42.3109   -6.5226  -17.4608 H   0  0  0  0  0
   41.3315  -10.4890  -16.7770 H   0  0  0  0  0
   37.3779   -9.0792  -13.5986 H   0  0  0  0  0
   39.6094   -5.8875   -8.2892 H   0  0  0  0  0
   42.4252   -3.3048  -10.0555 H   0  0  0  0  0
  1  6  4  0  0  0
 12  1  4  0  0  0
 13  2  4  0  0  0
  2 14  4  0  0  0
  4  3  4  0  0  0
  9  3  4  0  0  0
  3 17  1  0  0  0
 11  4  4  0  0  0
  4 18  1  0  0  0
  5 10  4  0  0  0
  5 11  4  0  0  0
 19  5  1  0  0  0
  6 14  4  0  0  0
  6 19  1  0  0  0
  7 17  1  0  0  0
 18  7  1  0  0  0
  7 23  2  0  0  0
  8 15  1  0  0  0
 16  8  1  0  0  0
 10  9  4  0  0  0
 12 13  4  0  0  0
 20 12  1  0  0  0
 13 21  1  0  0  0
 14 27  1  0  0  0
 15 24  2  0  0  0
 15 26  1  0  0  0
 16 20  1  0  0  0
 21 22  2  0  0  0
 21 25  2  0  0  0
  1 28  1  0  0  0
  2 29  1  0  0  0
  8 30  1  0  0  0
  8 31  1  0  0  0
  9 32  1  0  0  0
 10 33  1  0  0  0
 11 34  1  0  0  0
 16 35  1  0  0  0
 16 36  1  0  0  0
 17 37  1  0  0  0
 18 38  1  0  0  0
 19 39  1  0  0  0
 20 40  1  0  0  0
 26 41  1  0  0  0
M  END
$$$$
