4zly_ligand
  -I-interpret- 

 22 23  0  0  0  0  0  0  0  0999 V2000
   17.1950    4.9150    2.1170 N   0  0  0  0  0
   19.4020    5.4900    1.2470 C   0  0  0  0  0
   21.7980    6.6420    1.8130 C   0  0  0  0  0
   23.0440    7.2380    2.1150 C   0  0  0  0  0
   23.6730    7.1930   -0.2320 C   0  0  0  0  0
   20.2620    5.7160    0.1480 C   0  0  0  0  0
   18.0770    4.8470    1.0930 C   0  0  0  0  0
   17.8040    4.2140    0.0700 O   0  0  0  0  0
   19.7640    5.8240    2.5000 N   0  0  0  0  0
   20.9060    6.3600    2.7900 N   0  0  0  0  0
   23.9380    7.4970    1.1070 C   0  0  0  0  0
   22.4640    6.6220   -0.5540 C   0  0  0  0  0
   21.5210    6.3250    0.4510 C   0  0  0  0  0
   19.9030    5.3930   -1.1530 N   0  0  0  0  0
   16.2949    4.4403    2.0472 H   0  0  0  0  0
   17.4303    5.4410    2.9587 H   0  0  0  0  0
   23.2936    7.4909    3.1455 H   0  0  0  0  0
   24.4108    7.4046   -1.0059 H   0  0  0  0  0
   24.8928    7.9580    1.3599 H   0  0  0  0  0
   22.2329    6.3971   -1.5952 H   0  0  0  0  0
   18.9910    4.9773   -1.3421 H   0  0  0  0  0
   20.5512    5.5713   -1.9201 H   0  0  0  0  0
  7  1  1  0  0  0
  6  2  4  0  0  0
  2  7  1  0  0  0
  2  9  4  0  0  0
  3  4  4  0  0  0
  3 10  4  0  0  0
 13  3  4  0  0  0
  4 11  4  0  0  0
 11  5  4  0  0  0
  5 12  4  0  0  0
  6 13  4  0  0  0
  6 14  1  0  0  0
  7  8  2  0  0  0
  9 10  4  0  0  0
 12 13  4  0  0  0
  1 15  1  0  0  0
  1 16  1  0  0  0
  4 17  1  0  0  0
  5 18  1  0  0  0
 11 19  1  0  0  0
 12 20  1  0  0  0
 14 21  1  0  0  0
 14 22  1  0  0  0
M  END
$$$$
