6ft4_ligand
  -I-interpret- 

 44 46  0  0  0  0  0  0  0  0999 V2000
   32.2120   29.5680   12.0780 C   0  0  0  0  0
   33.0520   25.2990    6.3280 C   0  0  0  0  0
   36.0020   31.7370    9.3720 C   0  0  0  0  0
   34.9200   28.7650   10.5770 C   0  0  0  0  0
   35.0010   27.8780   11.6790 C   0  0  0  0  0
   35.4070   28.3610    9.3390 C   0  0  0  0  0
   35.9780   27.0900    9.1600 C   0  0  0  0  0
   36.0590   26.2210   10.2560 C   0  0  0  0  0
   35.5680   26.6230   11.4910 C   0  0  0  0  0
   36.4560   26.6560    7.7380 C   0  0  0  0  0
   34.2550   25.5430    7.2830 C   0  0  0  0  0
   32.9190   31.7850   11.1560 N   0  0  0  0  0
   35.3250   26.4700    6.7530 N   0  3  0  0  0
   33.1190   30.4480   11.2890 C   0  0  0  0  0
   33.9560   32.2600   10.4620 O   0  0  0  0  0
   34.7870   31.3250   10.1650 C   0  0  0  0  0
   34.3190   30.1300   10.7050 C   0  0  0  0  0
   35.6110   25.7980   12.5670 O   0  0  0  0  0
   33.4640   25.1140    4.8800 C   0  0  0  0  0
   34.6300   26.0180    4.5060 C   0  0  0  0  0
   35.7970   25.9010    5.4820 C   0  0  0  0  0
   32.4280   25.3620    4.0800 F   0  0  0  0  0
   33.7200   23.8790    4.6870 F   0  0  0  0  0
   32.1903   29.9062   13.1140 H   0  0  0  0  0
   31.2071   29.6143   11.6582 H   0  0  0  0  0
   32.5773   28.5418   12.0371 H   0  0  0  0  0
   32.4082   26.1771    6.3779 H   0  0  0  0  0
   32.5566   24.3828    6.6494 H   0  0  0  0  0
   35.6853   32.1698    8.4230 H   0  0  0  0  0
   36.5704   32.4752    9.9378 H   0  0  0  0  0
   36.6253   30.8627    9.1841 H   0  0  0  0  0
   34.6249   28.1750   12.6580 H   0  0  0  0  0
   35.3446   29.0433    8.4913 H   0  0  0  0  0
   36.5056   25.2335   10.1397 H   0  0  0  0  0
   36.9620   25.6961    7.8411 H   0  0  0  0  0
   37.0993   27.4471    7.3528 H   0  0  0  0  0
   34.7308   24.5747    7.4384 H   0  0  0  0  0
   33.8508   26.0139    8.1791 H   0  0  0  0  0
   34.9403   27.4032    6.6062 H   0  0  0  0  0
   36.0212   24.9672   12.3157 H   0  0  0  0  0
   34.2763   27.0488    4.5269 H   0  0  0  0  0
   34.9850   25.7182    3.5200 H   0  0  0  0  0
   36.1042   24.8625    5.6056 H   0  0  0  0  0
   36.6734   26.4341    5.1134 H   0  0  0  0  0
 14  1  1  0  0  0
 11  2  1  0  0  0
  2 19  1  0  0  0
 16  3  1  0  0  0
  4  5  4  0  0  0
  4  6  4  0  0  0
 17  4  1  0  0  0
  5  9  4  0  0  0
  6  7  4  0  0  0
  7  8  4  0  0  0
  7 10  1  0  0  0
  9  8  4  0  0  0
  9 18  1  0  0  0
 10 13  1  0  0  0
 13 11  1  0  0  0
 12 14  4  0  0  0
 15 12  4  0  0  0
 13 21  1  0  0  0
 14 17  4  0  0  0
 15 16  4  0  0  0
 16 17  4  0  0  0
 19 20  1  0  0  0
 19 22  1  0  0  0
 19 23  1  0  0  0
 20 21  1  0  0  0
  1 24  1  0  0  0
  1 25  1  0  0  0
  1 26  1  0  0  0
  2 27  1  0  0  0
  2 28  1  0  0  0
  3 29  1  0  0  0
  3 30  1  0  0  0
  3 31  1  0  0  0
  5 32  1  0  0  0
  6 33  1  0  0  0
  8 34  1  0  0  0
 10 35  1  0  0  0
 10 36  1  0  0  0
 11 37  1  0  0  0
 11 38  1  0  0  0
 13 39  1  0  0  0
 18 40  1  0  0  0
 20 41  1  0  0  0
 20 42  1  0  0  0
 21 43  1  0  0  0
 21 44  1  0  0  0
M  END
$$$$
