3ime_ligand
  -I-interpret- 

 18 19  0  0  0  0  0  0  0  0999 V2000
   15.3390   12.9190    3.5300 O   0  0  0  0  0
   15.7680   11.0450    2.4290 O   0  0  0  0  0
   13.8440    9.1690    8.7100 C   0  0  0  0  0
   13.9770    7.9680    8.0180 C   0  0  0  0  0
   14.0620   10.3450    8.0220 C   0  0  0  0  0
   14.3200    7.9390    6.6700 C   0  0  0  0  0
   14.6790   11.3020    5.8100 C   0  0  0  0  0
   14.8910    9.4210    4.6550 O   0  0  0  0  0
   15.3550   11.6630    3.4240 C   0  0  0  0  0
   14.9560   10.7940    4.6140 C   0  0  0  0  0
   14.4080   10.3210    6.6680 C   0  0  0  0  0
   14.5400    9.1220    5.9710 C   0  0  0  0  0
   14.9772   13.1622    4.3853 H   0  0  0  0  0
   13.5750    9.1798    9.7662 H   0  0  0  0  0
   13.8085    7.0287    8.5447 H   0  0  0  0  0
   13.9636   11.2999    8.5383 H   0  0  0  0  0
   14.4172    6.9820    6.1573 H   0  0  0  0  0
   14.6743   12.3646    6.0527 H   0  0  0  0  0
  9  1  1  0  0  0
  9  2  2  0  0  0
  4  3  4  0  0  0
  5  3  4  0  0  0
  6  4  4  0  0  0
 11  5  4  0  0  0
 12  6  4  0  0  0
 10  7  4  0  0  0
  7 11  4  0  0  0
 10  8  4  0  0  0
  8 12  4  0  0  0
  9 10  1  0  0  0
 11 12  4  0  0  0
  1 13  1  0  0  0
  3 14  1  0  0  0
  4 15  1  0  0  0
  5 16  1  0  0  0
  6 17  1  0  0  0
  7 18  1  0  0  0
M  END
$$$$
