6dh7_ligand
  -I-interpret- 

 78 81  0  0  0  0  0  0  0  0999 V2000
   65.3440   51.7160   12.5970 N   0  0  0  0  0
   66.2580   52.3610   13.5010 C   0  0  0  0  0
   67.4380   51.6010   14.0740 C   0  0  0  0  0
   68.3720   52.3060   15.0180 C   0  0  0  0  0
   68.0990   53.7500   15.3930 C   0  0  0  0  0
   66.9360   54.5060   14.8300 C   0  0  0  0  0
   66.0070   53.7890   13.8810 C   0  0  0  0  0
   69.1940   54.6330   16.4810 S   0  0  0  0  0
   68.4880   55.7780   17.1050 O   0  0  0  0  0
   69.6690   53.7710   17.5560 O   0  0  0  0  0
   70.4810   55.1920   15.5390 N   0  0  0  0  0
   71.2180   54.1330   14.8870 C   0  0  0  0  0
   72.6770   54.5250   14.6640 C   0  0  0  0  0
   73.4310   54.4840   15.9940 C   0  0  0  0  0
   73.3210   53.5750   13.6520 C   0  0  0  0  0
   70.2040   56.4190   14.8070 C   0  0  0  0  0
   71.1350   57.5280   15.2850 C   0  0  0  0  0
   73.4380   52.1580   14.2090 C   0  0  0  0  0
   71.0320   58.6020   14.3960 O   0  0  0  0  0
   70.7600   57.9480   16.7000 C   0  0  0  0  0
   71.7580   58.8810   17.1340 N   0  0  0  0  0
   72.7420   58.5280   18.1080 C   0  0  0  0  0
   72.7150   57.4680   18.6740 O   0  0  0  0  0
   73.7060   59.5270   18.3020 O   0  0  0  0  0
   74.5940   59.4720   19.5000 C   0  0  0  0  0
   75.7460   59.9560   19.1830 C   0  0  0  0  0
   75.5840   61.5690   19.2930 O   0  0  0  0  0
   74.7120   61.7780   20.2260 C   0  0  0  0  0
   73.5370   62.6450   19.6920 O   0  0  0  0  0
   72.4770   61.8730   19.5910 C   0  0  0  0  0
   72.7300   60.6210   20.5660 C   0  0  0  0  0
   74.0650   60.4260   20.5930 C   0  0  0  0  0
   69.4400   58.7110   16.7280 C   0  0  0  0  0
   68.8620   58.2490   19.2710 C   0  0  0  0  0
   68.6500   58.7780   20.6790 C   0  0  0  0  0
   68.7700   60.2700   20.9590 C   0  0  0  0  0
   69.1150   61.2320   19.8360 C   0  0  0  0  0
   69.3350   60.7030   18.4300 C   0  0  0  0  0
   69.2210   59.2120   18.1490 C   0  0  0  0  0
   65.4873   50.7402   12.3370 H   0  0  0  0  0
   64.5525   52.2344   12.2159 H   0  0  0  0  0
   67.6069   50.5582   13.8054 H   0  0  0  0  0
   69.2366   51.7846   15.4287 H   0  0  0  0  0
   66.7644   55.5483   15.0988 H   0  0  0  0  0
   65.1458   54.3144   13.4682 H   0  0  0  0  0
   70.7597   53.9386   13.9173 H   0  0  0  0  0
   71.1906   53.2491   15.5242 H   0  0  0  0  0
   72.7236   55.5390   14.2668 H   0  0  0  0  0
   72.9712   55.1830   16.6926 H   0  0  0  0  0
   73.3860   53.4754   16.4048 H   0  0  0  0  0
   74.4713   54.7645   15.8292 H   0  0  0  0  0
   74.3226   53.9402   13.4250 H   0  0  0  0  0
   72.6946   53.5445   12.7605 H   0  0  0  0  0
   69.1701   56.7167   14.9814 H   0  0  0  0  0
   70.3650   56.2475   13.7427 H   0  0  0  0  0
   72.1666   57.1768   15.3074 H   0  0  0  0  0
   74.0529   52.1723   15.1089 H   0  0  0  0  0
   72.4445   51.7814   14.4523 H   0  0  0  0  0
   73.8998   51.5123   13.4620 H   0  0  0  0  0
   71.6130   59.3103   14.6830 H   0  0  0  0  0
   70.6816   57.0551   17.3202 H   0  0  0  0  0
   71.7659   59.8207   16.7374 H   0  0  0  0  0
   74.6382   58.4381   19.8422 H   0  0  0  0  0
   76.0447   59.6520   18.1798 H   0  0  0  0  0
   76.5300   59.5872   19.8444 H   0  0  0  0  0
   75.2181   62.2628   21.0608 H   0  0  0  0  0
   72.3308   61.5434   18.5624 H   0  0  0  0  0
   71.5731   62.4121   19.8746 H   0  0  0  0  0
   72.2111   59.7326   20.2061 H   0  0  0  0  0
   72.3421   60.8177   21.5655 H   0  0  0  0  0
   74.2965   60.0159   21.5760 H   0  0  0  0  0
   68.6201   58.0592   16.4263 H   0  0  0  0  0
   69.4732   59.5495   16.0324 H   0  0  0  0  0
   68.7574   57.1837   19.0652 H   0  0  0  0  0
   68.4118   58.0892   21.4895 H   0  0  0  0  0
   68.6078   60.6484   21.9683 H   0  0  0  0  0
   69.2045   62.2992   20.0387 H   0  0  0  0  0
   69.5750   61.3925   17.6206 H   0  0  0  0  0
  2  1  1  0  0  0
  3  2  4  0  0  0
  7  2  4  0  0  0
  4  3  4  0  0  0
  5  4  4  0  0  0
  5  6  4  0  0  0
  8  5  1  0  0  0
  6  7  4  0  0  0
  8  9  2  0  0  0
  8 10  2  0  0  0
 11  8  1  0  0  0
 11 12  1  0  0  0
 16 11  1  0  0  0
 12 13  1  0  0  0
 13 14  1  0  0  0
 13 15  1  0  0  0
 15 18  1  0  0  0
 17 16  1  0  0  0
 17 19  1  0  0  0
 20 17  1  0  0  0
 20 21  1  0  0  0
 33 20  1  0  0  0
 21 22  1  0  0  0
 22 23  2  0  0  0
 22 24  1  0  0  0
 24 25  1  0  0  0
 25 26  1  0  0  0
 25 32  1  0  0  0
 26 27  1  0  0  0
 28 27  1  0  0  0
 28 29  1  0  0  0
 32 28  1  0  0  0
 30 29  1  0  0  0
 31 30  1  0  0  0
 32 31  1  0  0  0
 39 33  1  0  0  0
 34 35  4  0  0  0
 34 39  4  0  0  0
 35 36  4  0  0  0
 36 37  4  0  0  0
 37 38  4  0  0  0
 38 39  4  0  0  0
  1 40  1  0  0  0
  1 41  1  0  0  0
  3 42  1  0  0  0
  4 43  1  0  0  0
  6 44  1  0  0  0
  7 45  1  0  0  0
 12 46  1  0  0  0
 12 47  1  0  0  0
 13 48  1  0  0  0
 14 49  1  0  0  0
 14 50  1  0  0  0
 14 51  1  0  0  0
 15 52  1  0  0  0
 15 53  1  0  0  0
 16 54  1  0  0  0
 16 55  1  0  0  0
 17 56  1  0  0  0
 18 57  1  0  0  0
 18 58  1  0  0  0
 18 59  1  0  0  0
 19 60  1  0  0  0
 20 61  1  0  0  0
 21 62  1  0  0  0
 25 63  1  0  0  0
 26 64  1  0  0  0
 26 65  1  0  0  0
 28 66  1  0  0  0
 30 67  1  0  0  0
 30 68  1  0  0  0
 31 69  1  0  0  0
 31 70  1  0  0  0
 32 71  1  0  0  0
 33 72  1  0  0  0
 33 73  1  0  0  0
 34 74  1  0  0  0
 35 75  1  0  0  0
 36 76  1  0  0  0
 37 77  1  0  0  0
 38 78  1  0  0  0
M  END
$$$$
