4puz_ligand
  -I-interpret- 

 51 56  0  0  0  0  0  0  0  0999 V2000
  -31.6410   18.9300    4.2980 C   0  0  0  0  0
  -30.1510   19.0130    3.9480 C   0  0  0  0  0
  -29.6220   17.6540    3.7330 N   0  0  0  0  0
  -30.3820   16.8140    2.7950 C   0  0  0  0  0
  -31.8720   16.8560    3.1510 C   0  0  0  0  0
  -32.3610   18.1990    3.3000 O   0  0  0  0  0
  -28.2580   17.4240    3.9550 C   0  0  0  0  0
  -27.5070   16.5190    3.1870 C   0  0  0  0  0
  -26.1560   16.2880    3.4260 C   0  0  0  0  0
  -25.4970   16.9560    4.4550 C   0  0  0  0  0
  -24.1350   16.7140    4.6410 N   0  0  0  0  0
  -23.2980   17.3130    5.5550 C   0  0  0  0  0
  -23.8100   18.2190    6.3820 N   0  0  0  0  0
  -22.9770   18.8390    7.3180 C   0  0  0  0  0
  -21.6650   18.5530    7.4790 C   0  0  0  0  0
  -21.1110   17.6090    6.6310 N   0  0  0  0  0
  -19.8460   17.0980    6.5270 C   0  0  0  0  0
  -19.9390   16.1850    5.4940 C   0  0  0  0  0
  -21.2130   16.1100    4.9760 N   0  0  0  0  0
  -21.8890   16.9780    5.6880 C   0  0  0  0  0
  -23.5990   19.8300    8.2100 C   0  0  0  0  0
  -24.8050   20.4470    7.8230 C   0  0  0  0  0
  -25.4380   21.3760    8.6720 C   0  0  0  0  0
  -24.8320   21.6830    9.9010 C   0  0  0  0  0
  -25.1170   22.5310   10.9940 C   0  0  0  0  0
  -24.2050   22.4580   11.9700 N   0  0  0  0  0
  -23.3170   21.5640   11.4980 N   0  0  0  0  0
  -23.6360   21.0620   10.2600 C   0  0  0  0  0
  -22.9920   20.1240    9.4510 C   0  0  0  0  0
  -26.2230   17.8610    5.2300 C   0  0  0  0  0
  -27.5820   18.0940    4.9860 C   0  0  0  0  0
  -32.0451   19.9409    4.3513 H   0  0  0  0  0
  -31.7482   18.4167    5.2536 H   0  0  0  0  0
  -29.6108   19.4885    4.7666 H   0  0  0  0  0
  -30.0228   19.6014    3.0395 H   0  0  0  0  0
  -30.0246   15.7864    2.8605 H   0  0  0  0  0
  -30.2429   17.1892    1.7811 H   0  0  0  0  0
  -32.0066   16.3403    4.1018 H   0  0  0  0  0
  -32.4262   16.3829    2.3404 H   0  0  0  0  0
  -27.9988   15.9800    2.3772 H   0  0  0  0  0
  -25.6096   15.5793    2.8036 H   0  0  0  0  0
  -23.7122   16.0144    4.0309 H   0  0  0  0  0
  -21.0675   19.0460    8.2458 H   0  0  0  0  0
  -18.9683   17.3522    7.1213 H   0  0  0  0  0
  -19.0999   15.5918    5.1305 H   0  0  0  0  0
  -25.2518   20.2036    6.8590 H   0  0  0  0  0
  -26.3775   21.8461    8.3813 H   0  0  0  0  0
  -25.9919   23.1796   11.0378 H   0  0  0  0  0
  -22.0653   19.6417    9.7621 H   0  0  0  0  0
  -25.7242   18.3953    6.0385 H   0  0  0  0  0
  -28.1236   18.8075    5.6071 H   0  0  0  0  0
  1  2  1  0  0  0
  1  6  1  0  0  0
  2  3  1  0  0  0
  3  4  1  0  0  0
  3  7  1  0  0  0
  4  5  1  0  0  0
  5  6  1  0  0  0
  7  8  4  0  0  0
  7 31  4  0  0  0
  8  9  4  0  0  0
  9 10  4  0  0  0
 10 11  1  0  0  0
 10 30  4  0  0  0
 11 12  1  0  0  0
 12 13  4  0  0  0
 12 20  4  0  0  0
 13 14  4  0  0  0
 14 15  4  0  0  0
 14 21  1  0  0  0
 15 16  4  0  0  0
 16 17  4  0  0  0
 16 20  4  0  0  0
 17 18  4  0  0  0
 18 19  4  0  0  0
 19 20  4  0  0  0
 21 22  4  0  0  0
 21 29  4  0  0  0
 22 23  4  0  0  0
 23 24  4  0  0  0
 24 25  4  0  0  0
 24 28  4  0  0  0
 25 26  4  0  0  0
 26 27  4  0  0  0
 27 28  4  0  0  0
 28 29  4  0  0  0
 30 31  4  0  0  0
  1 32  1  0  0  0
  1 33  1  0  0  0
  2 34  1  0  0  0
  2 35  1  0  0  0
  4 36  1  0  0  0
  4 37  1  0  0  0
  5 38  1  0  0  0
  5 39  1  0  0  0
  8 40  1  0  0  0
  9 41  1  0  0  0
 11 42  1  0  0  0
 15 43  1  0  0  0
 17 44  1  0  0  0
 18 45  1  0  0  0
 22 46  1  0  0  0
 23 47  1  0  0  0
 25 48  1  0  0  0
 29 49  1  0  0  0
 30 50  1  0  0  0
 31 51  1  0  0  0
M  END
$$$$
