### 
### Created by X-TOOL on Mon Sep 10 21:13:04 2018
### 

@<TRIPOS>MOLECULE
3o96_ligand
   71    78     1     0     0
SMALL
GAST_HUCK


@<TRIPOS>ATOM
      1 C4         11.1380  -13.3890   15.8190 C.ar      1 IQO         0.0944
      2 C6         11.9850  -15.6470   15.8020 C.ar      1 IQO        -0.0533
      3 C7         13.2940  -15.1870   16.1700 C.ar      1 IQO        -0.0902
      4 C8         13.5130  -13.7950   16.3620 C.ar      1 IQO        -0.0902
      5 C13         9.8110  -11.2380   15.7140 C.3       1 IQO         0.0624
      6 C15         8.6110   -9.3000   16.7700 C.3       1 IQO        -0.1076
      7 C17         8.2400   -6.2780   14.4700 C.ar      1 IQO        -0.0593
      8 C20         7.5700   -4.7750   12.2140 C.ar      1 IQO         0.0009
      9 C21         8.7970   -4.5780   12.8750 C.ar      1 IQO        -0.0548
     10 C22         9.1170   -5.3210   13.9850 C.ar      1 IQO        -0.0577
     11 C24         7.1680   -2.4950   11.1050 C.ar      1 IQO         0.0823
     12 C28         6.5400   -4.5740    7.5480 C.ar      1 IQO        -0.0299
     13 C1          8.9770  -13.6480   15.2640 C.2       1 IQO         0.3099
     14 N2          9.5830  -14.9000   15.2860 N.am      1 IQO        -0.2199
     15 C3         10.9270  -14.6950   15.6370 C.ar      1 IQO         0.0915
     16 N5          9.9490  -12.6980   15.5980 N.am      1 IQO        -0.2032
     17 C9         12.4270  -12.8850   16.1870 C.ar      1 IQO        -0.0531
     18 O10         7.7930  -13.4170   14.9990 O.2       1 IQO        -0.3952
     19 C11         9.7930   -8.9450   14.5800 C.3       1 IQO        -0.1076
     20 C12         9.8690  -10.4850   14.3770 C.3       1 IQO        -0.0431
     21 C14         8.6200  -10.8110   16.5530 C.3       1 IQO        -0.0431
     22 C16         8.6050   -7.0770   15.7110 C.3       1 IQO        -0.0742
     23 C18         7.0000   -6.4960   13.8180 C.ar      1 IQO        -0.0577
     24 C19         6.6700   -5.7420   12.6900 C.ar      1 IQO        -0.0548
     25 N23         6.8810   -1.8030    9.9760 N.ar      1 IQO        -0.2772
     26 C25         7.2500   -3.9930   11.0540 C.ar      1 IQO         0.0793
     27 N26         7.0380   -4.6360    9.8830 N.ar      1 IQO        -0.2789
     28 C27         6.7560   -3.9060    8.7750 C.ar      1 IQO         0.0555
     29 C29         6.2560   -3.8230    6.3990 C.ar      1 IQO         0.0464
     30 C30         6.1790   -2.4760    6.4370 C.ar      1 IQO         0.0947
     31 C31         6.3870   -1.7720    7.6460 C.ar      1 IQO        -0.0106
     32 C32         6.6780   -2.4870    8.8210 C.ar      1 IQO         0.0565
     33 C33         5.8010   -3.0280    4.4380 C.2       1 IQO         0.1088
     34 N34         6.0080   -4.1850    5.0890 N.2       1 IQO        -0.2978
     35 N35         5.8890   -1.9260    5.1950 N.pl3     1 IQO        -0.2439
     36 C36         7.4060   -1.7270   12.3670 C.ar      1 IQO         0.0072
     37 C37         8.3420   -0.6140   12.3660 C.ar      1 IQO        -0.0487
     38 C38         8.5750    0.1240   13.5570 C.ar      1 IQO        -0.0581
     39 C39         7.8920   -0.2230   14.7590 C.ar      1 IQO        -0.0590
     40 C40         6.9580   -1.3280   14.7720 C.ar      1 IQO        -0.0581
     41 C41         6.7160   -2.0740   13.5840 C.ar      1 IQO        -0.0487
     42 N42         8.6610   -8.5360   15.4810 N.4       1 IQO         0.4085
     43 H          11.7978  -16.7099   15.6496 H         1 IQO         0.0460
     44 H          14.1110  -15.8966   16.3008 H         1 IQO         0.0453
     45 H          14.5004  -13.4265   16.6401 H         1 IQO         0.0453
     46 H          10.7058  -10.9354   16.2579 H         1 IQO         0.0620
     47 H           9.4950   -9.0380   17.3514 H         1 IQO         0.0021
     48 H           7.6842   -9.0386   17.2807 H         1 IQO         0.0021
     49 H           9.4981   -3.8306   12.5034 H         1 IQO         0.0635
     50 H          10.0694   -5.1564   14.4889 H         1 IQO         0.0568
     51 H           6.5937   -5.6614    7.4959 H         1 IQO         0.0599
     52 H           9.1367  -15.7950   15.0856 H         1 IQO         0.2250
     53 H          12.5777  -11.8153   16.3323 H         1 IQO         0.0460
     54 H           9.6286   -8.4858   13.6052 H         1 IQO         0.0021
     55 H          10.7248   -8.6214   15.0439 H         1 IQO         0.0021
     56 H           9.0168  -10.7940   13.7717 H         1 IQO         0.0273
     57 H          10.8157  -10.7209   13.8909 H         1 IQO         0.0273
     58 H           8.6848  -11.3016   17.5242 H         1 IQO         0.0273
     59 H           7.7065  -11.0927   16.0293 H         1 IQO         0.0273
     60 H           7.8315   -6.8934   16.4568 H         1 IQO         0.0192
     61 H           9.5988   -6.7575   16.0245 H         1 IQO         0.0192
     62 H           6.3077   -7.2485   14.1954 H         1 IQO         0.0568
     63 H           5.7192   -5.9031   12.1819 H         1 IQO         0.0635
     64 H           6.3222   -0.6841    7.6665 H         1 IQO         0.0575
     65 H           5.5778   -2.9888    3.3718 H         1 IQO         0.1402
     66 H           5.7741   -0.9476    4.9306 H         1 IQO         0.2350
     67 H           8.8661   -0.3454   11.4488 H         1 IQO         0.0650
     68 H           9.2775    0.9574   13.5518 H         1 IQO         0.0625
     69 H           8.0738    0.3457   15.6709 H         1 IQO         0.0640
     70 H           6.4384   -1.5899   15.6937 H         1 IQO         0.0625
     71 H           6.0110   -2.9052   13.5946 H         1 IQO         0.0650
@<TRIPOS>BOND
     1    1   15 ar 
     2   16    1 1  
     3    1   17 ar 
     4    2    3 ar 
     5   15    2 ar 
     6    4    3 ar 
     7   17    4 ar 
     8    5   16 1  
     9   20    5 1  
    10   21    5 1  
    11    6   21 1  
    12   42    6 1  
    13   10    7 ar 
    14    7   22 1  
    15   23    7 ar 
    16    8    9 ar 
    17    8   24 ar 
    18   26    8 1  
    19    9   10 ar 
    20   11   25 ar 
    21   26   11 ar 
    22   11   36 1  
    23   28   12 ar 
    24   12   29 ar 
    25   13   14 am 
    26   16   13 am 
    27   13   18 2  
    28   14   15 1  
    29   19   20 1  
    30   42   19 1  
    31   22   42 1  
    32   24   23 ar 
    33   25   32 ar 
    34   27   26 ar 
    35   27   28 ar 
    36   28   32 ar 
    37   29   30 ar 
    38   29   34 1  
    39   30   31 ar 
    40   30   35 1  
    41   31   32 ar 
    42   34   33 2  
    43   33   35 1  
    44   36   37 ar 
    45   36   41 ar 
    46   37   38 ar 
    47   38   39 ar 
    48   39   40 ar 
    49   40   41 ar 
    50    2   43 1  
    51    3   44 1  
    52    4   45 1  
    53    5   46 1  
    54    6   47 1  
    55    6   48 1  
    56    9   49 1  
    57   10   50 1  
    58   12   51 1  
    59   14   52 1  
    60   17   53 1  
    61   19   54 1  
    62   19   55 1  
    63   20   56 1  
    64   20   57 1  
    65   21   58 1  
    66   21   59 1  
    67   22   60 1  
    68   22   61 1  
    69   23   62 1  
    70   24   63 1  
    71   31   64 1  
    72   33   65 1  
    73   35   66 1  
    74   37   67 1  
    75   38   68 1  
    76   39   69 1  
    77   40   70 1  
    78   41   71 1  
@<TRIPOS>SUBSTRUCTURE
     1 IQO         1

