1e1y_ligand
  -I-interpret- 

 49 52  0  0  0  0  0  0  0  0999 V2000
   43.5000   39.9190   27.6330 C   0  0  0  0  0
   42.4820   39.5270   28.6180 N   0  3  0  0  0
   41.0990   39.6420   28.1280 C   0  0  0  0  0
   39.9930   39.2520   29.1770 C   0  0  0  0  0
   40.3490   37.8830   29.8290 C   0  0  0  0  0
   41.8300   37.8440   30.3560 C   0  0  0  0  0
   42.7910   38.1840   29.1840 C   0  0  0  0  0
   39.1980   37.5070   30.8610 C   0  0  0  0  0
   38.3190   36.4010   30.5370 C   0  0  0  0  0
   38.4850   35.7040   29.3290 O   0  0  0  0  0
   37.7050   34.6330   28.9300 C   0  0  0  0  0
   36.6890   34.1770   29.7070 C   0  0  0  0  0
   36.3940   34.8160   31.0020 C   0  0  0  0  0
   35.4830   34.3940   31.6860 O   0  0  0  0  0
   37.2780   36.0050   31.4560 C   0  0  0  0  0
   37.0970   36.6930   32.7000 C   0  0  0  0  0
   36.0770   36.3310   33.5940 O   0  0  0  0  0
   37.9470   37.7820   33.0200 C   0  0  0  0  0
   38.9830   38.1950   32.1250 C   0  0  0  0  0
   39.7960   39.2810   32.5160 O   0  0  0  0  0
   37.9930   33.9370   27.5750 C   0  0  0  0  0
   38.3630   34.6620   26.3900 C   0  0  0  0  0
   38.5130   36.3980   26.3540 Cl  0  0  0  0  0
   38.6270   33.9870   25.1780 C   0  0  0  0  0
   38.5250   32.5670   25.0970 C   0  0  0  0  0
   38.1580   31.8200   26.2640 C   0  0  0  0  0
   37.8930   32.4990   27.4850 C   0  0  0  0  0
   42.1540   38.8030   31.3640 O   0  0  0  0  0
   44.4765   39.9545   28.1161 H   0  0  0  0  0
   43.5201   39.1896   26.8233 H   0  0  0  0  0
   43.2557   40.9026   27.2318 H   0  0  0  0  0
   42.5304   40.2057   29.3779 H   0  0  0  0  0
   41.0007   38.9494   27.2921 H   0  0  0  0  0
   40.9392   40.6899   27.8743 H   0  0  0  0  0
   39.0291   39.1734   28.6741 H   0  0  0  0  0
   39.9416   40.0185   29.9503 H   0  0  0  0  0
   40.3622   37.0788   29.0933 H   0  0  0  0  0
   41.9353   36.8436   30.7759 H   0  0  0  0  0
   43.8145   38.1880   29.5589 H   0  0  0  0  0
   42.6680   37.4360   28.4007 H   0  0  0  0  0
   36.0874   33.3325   29.3707 H   0  0  0  0  0
   36.1127   36.9005   34.3660 H   0  0  0  0  0
   37.8086   38.3122   33.9623 H   0  0  0  0  0
   39.5063   39.6041   33.3723 H   0  0  0  0  0
   38.9120   34.5580   24.2943 H   0  0  0  0  0
   38.7243   32.0542   24.1561 H   0  0  0  0  0
   38.0822   30.7337   26.2156 H   0  0  0  0  0
   37.6098   31.9249   28.3672 H   0  0  0  0  0
   41.5965   38.6589   32.1322 H   0  0  0  0  0
  1  2  1  0  0  0
  2  3  1  0  0  0
  2  7  1  0  0  0
  3  4  1  0  0  0
  4  5  1  0  0  0
  5  6  1  0  0  0
  5  8  1  0  0  0
  6  7  1  0  0  0
  6 28  1  0  0  0
  8  9  4  0  0  0
  8 19  4  0  0  0
  9 10  1  0  0  0
  9 15  4  0  0  0
 10 11  1  0  0  0
 11 12  2  0  0  0
 11 21  1  0  0  0
 12 13  1  0  0  0
 13 14  2  0  0  0
 13 15  1  0  0  0
 15 16  4  0  0  0
 16 17  1  0  0  0
 16 18  4  0  0  0
 18 19  4  0  0  0
 19 20  1  0  0  0
 21 22  4  0  0  0
 21 27  4  0  0  0
 22 23  1  0  0  0
 22 24  4  0  0  0
 24 25  4  0  0  0
 25 26  4  0  0  0
 26 27  4  0  0  0
  1 29  1  0  0  0
  1 30  1  0  0  0
  1 31  1  0  0  0
  2 32  1  0  0  0
  3 33  1  0  0  0
  3 34  1  0  0  0
  4 35  1  0  0  0
  4 36  1  0  0  0
  5 37  1  0  0  0
  6 38  1  0  0  0
  7 39  1  0  0  0
  7 40  1  0  0  0
 12 41  1  0  0  0
 17 42  1  0  0  0
 18 43  1  0  0  0
 20 44  1  0  0  0
 24 45  1  0  0  0
 25 46  1  0  0  0
 26 47  1  0  0  0
 27 48  1  0  0  0
 28 49  1  0  0  0
M  END
$$$$
