4rqz_ligand
  -I-interpret- 

 62 63  0  0  0  0  0  0  0  0999 V2000
   19.7510  -10.8500   11.1310 N   0  3  0  0  0
   20.2530  -11.1050   12.4740 C   0  0  0  0  0
   19.0770  -11.3610   13.4250 C   0  0  0  0  0
   19.1470  -12.2510   14.2760 O   0  0  0  0  0
   21.1160   -9.9350   12.9570 C   0  0  0  0  0
   22.0900  -10.3040   14.0530 C   0  0  0  0  0
   23.2160  -11.0790   13.7800 C   0  0  0  0  0
   21.8880   -9.8760   15.3590 C   0  0  0  0  0
   24.1100  -11.4170   14.7840 C   0  0  0  0  0
   22.7730  -10.2080   16.3660 C   0  0  0  0  0
   23.8800  -10.9780   16.0760 C   0  0  0  0  0
   24.7510  -11.2990   17.0900 O   0  0  0  0  0
   17.9950  -10.5940   13.2740 N   0  0  0  0  0
   16.7500  -10.8770   13.9990 C   0  0  0  0  0
   15.5190  -10.1890   13.3790 C   0  0  0  0  0
   15.1500   -9.0730   13.7510 O   0  0  0  0  0
   16.8940  -10.4950   15.4820 C   0  0  0  0  0
   17.2430   -9.0480   15.8120 C   0  0  0  0  0
   17.1290   -8.7860   17.3020 C   0  0  0  0  0
   16.9130   -9.7100   18.0860 O   0  0  0  0  0
   17.2650   -7.5280   17.7010 N   0  0  0  0  0
   14.8890  -10.8820   12.4310 N   0  0  0  0  0
   13.6610  -10.4120   11.7880 C   0  0  0  0  0
   12.4920  -11.3930   11.9380 C   0  0  0  0  0
   11.3260  -11.0590   11.7080 O   0  0  0  0  0
   13.9140  -10.1520   10.3040 C   0  0  0  0  0
   14.4240  -11.3500    9.5490 C   0  0  0  0  0
   15.7430  -11.7630    9.6570 C   0  0  0  0  0
   13.5810  -12.0460    8.7090 C   0  0  0  0  0
   16.1950  -12.8600    8.9480 C   0  0  0  0  0
   14.0270  -13.1350    8.0030 C   0  0  0  0  0
   15.3330  -13.5440    8.1220 C   0  0  0  0  0
   12.6770  -12.5510   12.2970 O   0  0  0  0  0
   19.1798  -11.6386   10.8274 H   0  0  0  0  0
   19.1855  -10.0011   11.1362 H   0  0  0  0  0
   20.5373  -10.7323   10.4921 H   0  0  0  0  0
   20.8840  -11.9937   12.4590 H   0  0  0  0  0
   20.4419   -9.1807   13.3627 H   0  0  0  0  0
   21.7020   -9.5909   12.1048 H   0  0  0  0  0
   23.3962  -11.4244   12.7620 H   0  0  0  0  0
   21.0150   -9.2669   15.5934 H   0  0  0  0  0
   24.9869  -12.0236   14.5577 H   0  0  0  0  0
   22.5975   -9.8632   17.3850 H   0  0  0  0  0
   24.4386  -10.9145   17.9123 H   0  0  0  0  0
   18.0339   -9.7946   12.6417 H   0  0  0  0  0
   16.5778  -11.9502   13.9169 H   0  0  0  0  0
   17.7285  -11.0883   15.8557 H   0  0  0  0  0
   15.9120  -10.6655   15.9232 H   0  0  0  0  0
   16.5472   -8.3927   15.2880 H   0  0  0  0  0
   18.2702   -8.8570   15.5014 H   0  0  0  0  0
   17.1912   -7.2963   18.6916 H   0  0  0  0  0
   17.4434   -6.7925   17.0172 H   0  0  0  0  0
   15.2794  -11.7786   12.1410 H   0  0  0  0  0
   13.3783   -9.4893   12.2948 H   0  0  0  0  0
   11.3056  -10.1383   11.4370 H   0  0  0  0  0
   14.6796   -9.3790   10.2378 H   0  0  0  0  0
   12.9596   -9.8719    9.8582 H   0  0  0  0  0
   16.4288  -11.2184   10.3060 H   0  0  0  0  0
   12.5442  -11.7264    8.6040 H   0  0  0  0  0
   17.2319  -13.1825    9.0430 H   0  0  0  0  0
   13.3445  -13.6758    7.3474 H   0  0  0  0  0
   15.6863  -14.4100    7.5623 H   0  0  0  0  0
  1  2  1  0  0  0
  2  3  1  0  0  0
  2  5  1  0  0  0
  3  4  2  0  0  0
  3 13  1  0  0  0
  5  6  1  0  0  0
  6  7  4  0  0  0
  6  8  4  0  0  0
  7  9  4  0  0  0
  8 10  4  0  0  0
  9 11  4  0  0  0
 10 11  4  0  0  0
 11 12  1  0  0  0
 13 14  1  0  0  0
 14 15  1  0  0  0
 14 17  1  0  0  0
 15 16  2  0  0  0
 15 22  1  0  0  0
 17 18  1  0  0  0
 18 19  1  0  0  0
 19 20  2  0  0  0
 19 21  1  0  0  0
 22 23  1  0  0  0
 23 24  1  0  0  0
 23 26  1  0  0  0
 24 25  1  0  0  0
 24 33  2  0  0  0
 26 27  1  0  0  0
 27 28  4  0  0  0
 27 29  4  0  0  0
 28 30  4  0  0  0
 29 31  4  0  0  0
 30 32  4  0  0  0
 31 32  4  0  0  0
  1 34  1  0  0  0
  1 35  1  0  0  0
  1 36  1  0  0  0
  2 37  1  0  0  0
  5 38  1  0  0  0
  5 39  1  0  0  0
  7 40  1  0  0  0
  8 41  1  0  0  0
  9 42  1  0  0  0
 10 43  1  0  0  0
 12 44  1  0  0  0
 13 45  1  0  0  0
 14 46  1  0  0  0
 17 47  1  0  0  0
 17 48  1  0  0  0
 18 49  1  0  0  0
 18 50  1  0  0  0
 21 51  1  0  0  0
 21 52  1  0  0  0
 22 53  1  0  0  0
 23 54  1  0  0  0
 25 55  1  0  0  0
 26 56  1  0  0  0
 26 57  1  0  0  0
 28 58  1  0  0  0
 29 59  1  0  0  0
 30 60  1  0  0  0
 31 61  1  0  0  0
 32 62  1  0  0  0
M  END
$$$$
