1bdr_ligand
  -I-interpret- 

 80 82  0  0  0  0  0  0  0  0999 V2000
   -9.8070   15.3220   33.3160 C   0  0  0  0  0
   -9.6100   13.8200   33.4420 C   0  0  0  0  0
   -8.4700   16.0600   33.3520 C   0  0  0  0  0
  -10.6140   15.7290   34.5360 C   0  0  0  0  0
  -10.5930   15.6350   32.2000 O   0  0  0  0  0
  -10.2920   15.3650   30.8580 C   0  0  0  0  0
   -9.2790   14.7630   30.5140 O   0  0  0  0  0
  -11.1550   15.7980   29.9440 N   0  0  0  0  0
  -10.9860   15.6030   28.5060 C   0  0  0  0  0
  -12.3440   15.2230   27.9240 C   0  0  0  0  0
  -12.8150   13.9680   28.6100 C   0  0  0  0  0
  -12.3310   12.7330   28.1900 C   0  0  0  0  0
  -12.6990   11.5860   28.8860 C   0  0  0  0  0
  -13.5380   11.6830   29.9920 C   0  0  0  0  0
  -14.0300   12.9210   30.4110 C   0  0  0  0  0
  -13.6690   14.0720   29.7150 C   0  0  0  0  0
  -10.3880   16.8070   27.7260 C   0  0  0  0  0
  -11.0810   18.0460   28.0080 O   0  0  0  0  0
   -8.9680   17.0680   28.0790 C   0  0  0  0  0
   -8.2310   17.6990   26.9490 C   0  0  0  0  0
   -6.9480   18.2370   27.6060 C   0  0  0  0  0
   -5.6410   18.2050   26.8190 C   0  0  0  0  0
   -5.3740   19.1550   25.8290 C   0  0  0  0  0
   -4.1700   19.0980   25.1430 C   0  0  0  0  0
   -3.2380   18.1100   25.4370 C   0  0  0  0  0
   -3.5000   17.1680   26.4200 C   0  0  0  0  0
   -4.7040   17.2110   27.1140 C   0  0  0  0  0
   -7.9950   16.7030   25.8020 C   0  0  0  0  0
   -7.8430   15.4890   25.9730 O   0  0  0  0  0
   -7.9590   17.2590   24.6020 N   0  0  0  0  0
   -7.7210   16.5210   23.3690 C   0  0  0  0  0
   -9.0260   16.2300   22.5970 C   0  0  0  0  0
   -8.7650   15.9230   21.1390 C   0  0  0  0  0
   -9.6260   14.9380   23.1210 C   0  0  0  0  0
   -6.8260   17.4830   22.5930 C   0  0  0  0  0
   -6.8490   18.8050   22.6390 N   0  0  0  0  0
   -5.7660   19.1670   21.8710 C   0  0  0  0  0
   -5.1420   18.0180   21.3920 C   0  0  0  0  0
   -5.8650   16.9570   21.8810 N   0  0  0  0  0
  -10.5803   13.3355   33.5510 H   0  0  0  0  0
   -9.1129   13.4438   32.5479 H   0  0  0  0  0
   -8.9960   13.6075   34.3172 H   0  0  0  0  0
   -7.8912   15.8041   32.4646 H   0  0  0  0  0
   -8.6502   17.1348   33.3723 H   0  0  0  0  0
   -7.9180   15.7659   34.2447 H   0  0  0  0  0
  -10.8226   16.7980   34.4920 H   0  0  0  0  0
  -11.5524   15.1747   34.5508 H   0  0  0  0  0
  -10.0443   15.5055   35.4380 H   0  0  0  0  0
  -11.9848   16.2962   30.2660 H   0  0  0  0  0
  -10.2430   14.8146   28.3853 H   0  0  0  0  0
  -12.2577   15.0537   26.8507 H   0  0  0  0  0
  -13.0596   16.0293   28.0849 H   0  0  0  0  0
  -11.6709   12.6649   27.3253 H   0  0  0  0  0
  -12.3303   10.6117   28.5651 H   0  0  0  0  0
  -13.8147   10.7812   30.5382 H   0  0  0  0  0
  -14.6909   12.9859   31.2754 H   0  0  0  0  0
  -14.0478   15.0451   30.0275 H   0  0  0  0  0
  -10.4908   16.5192   26.6797 H   0  0  0  0  0
  -10.6781   18.7581   27.5059 H   0  0  0  0  0
   -8.4905   16.1168   28.3140 H   0  0  0  0  0
   -8.9435   17.7488   28.9299 H   0  0  0  0  0
   -8.7798   18.5033   26.4592 H   0  0  0  0  0
   -6.7760   17.5829   28.4608 H   0  0  0  0  0
   -7.1447   19.2951   27.7788 H   0  0  0  0  0
   -6.1035   19.9315   25.5989 H   0  0  0  0  0
   -3.9533   19.8332   24.3680 H   0  0  0  0  0
   -2.2950   18.0754   24.8913 H   0  0  0  0  0
   -2.7646   16.3964   26.6479 H   0  0  0  0  0
   -4.9165   16.4715   27.8860 H   0  0  0  0  0
   -8.1070   18.2661   24.5363 H   0  0  0  0  0
   -7.2831   15.5371   23.5371 H   0  0  0  0  0
   -9.6585   17.1095   22.7175 H   0  0  0  0  0
   -8.2751   16.7770   20.6712 H   0  0  0  0  0
   -8.1211   15.0468   21.0631 H   0  0  0  0  0
   -9.7113   15.7248   20.6357 H   0  0  0  0  0
   -8.9178   14.1230   22.9713 H   0  0  0  0  0
   -9.8407   15.0437   24.1844 H   0  0  0  0  0
  -10.5488   14.7227   22.5823 H   0  0  0  0  0
   -5.4475   20.1898   21.6698 H   0  0  0  0  0
   -4.2576   17.9700   20.7567 H   0  0  0  0  0
  1  2  1  0  0  0
  1  3  1  0  0  0
  1  4  1  0  0  0
  1  5  1  0  0  0
  5  6  1  0  0  0
  6  7  2  0  0  0
  6  8  1  0  0  0
  8  9  1  0  0  0
  9 10  1  0  0  0
  9 17  1  0  0  0
 10 11  1  0  0  0
 11 12  4  0  0  0
 11 16  4  0  0  0
 12 13  4  0  0  0
 13 14  4  0  0  0
 14 15  4  0  0  0
 15 16  4  0  0  0
 17 18  1  0  0  0
 17 19  1  0  0  0
 19 20  1  0  0  0
 20 21  1  0  0  0
 20 28  1  0  0  0
 21 22  1  0  0  0
 22 23  4  0  0  0
 22 27  4  0  0  0
 23 24  4  0  0  0
 24 25  4  0  0  0
 25 26  4  0  0  0
 26 27  4  0  0  0
 28 29  2  0  0  0
 28 30  1  0  0  0
 30 31  1  0  0  0
 31 32  1  0  0  0
 31 35  1  0  0  0
 32 33  1  0  0  0
 32 34  1  0  0  0
 35 36  4  0  0  0
 35 39  4  0  0  0
 36 37  4  0  0  0
 37 38  4  0  0  0
 38 39  4  0  0  0
  2 40  1  0  0  0
  2 41  1  0  0  0
  2 42  1  0  0  0
  3 43  1  0  0  0
  3 44  1  0  0  0
  3 45  1  0  0  0
  4 46  1  0  0  0
  4 47  1  0  0  0
  4 48  1  0  0  0
  8 49  1  0  0  0
  9 50  1  0  0  0
 10 51  1  0  0  0
 10 52  1  0  0  0
 12 53  1  0  0  0
 13 54  1  0  0  0
 14 55  1  0  0  0
 15 56  1  0  0  0
 16 57  1  0  0  0
 17 58  1  0  0  0
 18 59  1  0  0  0
 19 60  1  0  0  0
 19 61  1  0  0  0
 20 62  1  0  0  0
 21 63  1  0  0  0
 21 64  1  0  0  0
 23 65  1  0  0  0
 24 66  1  0  0  0
 25 67  1  0  0  0
 26 68  1  0  0  0
 27 69  1  0  0  0
 30 70  1  0  0  0
 31 71  1  0  0  0
 32 72  1  0  0  0
 33 73  1  0  0  0
 33 74  1  0  0  0
 33 75  1  0  0  0
 34 76  1  0  0  0
 34 77  1  0  0  0
 34 78  1  0  0  0
 37 79  1  0  0  0
 38 80  1  0  0  0
M  END
$$$$
