6g5u_ligand
  -I-interpret- 

 33 33  0  0  0  0  0  0  0  0999 V2000
   20.4710    1.2680  -16.3980 C   0  0  0  0  0
   19.9420    0.1410  -17.0210 C   0  0  0  0  0
   20.7460    2.3980  -17.0810 C   0  0  0  0  0
   20.0770    1.3250  -19.1160 C   0  0  0  0  0
   18.8750   -0.8170  -15.1550 O   0  0  0  0  0
   19.5990   -1.0080  -16.1570 C   0  0  0  0  0
   19.9980   -2.2220  -16.4840 N   0  0  0  0  0
   19.6650   -3.3480  -15.5900 C   0  0  0  0  0
   20.0630   -4.6580  -16.2200 C   0  0  0  0  0
   18.8770   -5.2150  -16.9920 C   0  0  0  0  0
   17.8590   -5.8520  -16.0500 C   0  0  0  0  0
   19.7850    0.1760  -18.3870 C   0  0  0  0  0
   19.1520   -1.1880  -19.3180 Cl  0  0  0  0  0
   20.5730    2.4340  -18.4760 C   0  0  0  0  0
   20.9190    3.8790  -19.3740 Cl  0  0  0  0  0
   21.3730    3.8070  -16.1180 S   0  0  0  0  0
   22.5820    4.2750  -16.8260 O   0  0  0  0  0
   20.3250    4.8330  -16.0780 O   0  0  0  0  0
   21.7980    3.5200  -14.5430 N   0  0  0  0  0
   20.6688    1.2362  -15.3266 H   0  0  0  0  0
   19.9122    1.3445  -20.1933 H   0  0  0  0  0
   20.5282   -2.3800  -17.3410 H   0  0  0  0  0
   18.5896   -3.3529  -15.4123 H   0  0  0  0  0
   20.2066   -3.2273  -14.6518 H   0  0  0  0  0
   20.3617   -5.3636  -15.4447 H   0  0  0  0  0
   20.9022   -4.5007  -16.8976 H   0  0  0  0  0
   19.2373   -5.9769  -17.6832 H   0  0  0  0  0
   18.3937   -4.3974  -17.5268 H   0  0  0  0  0
   18.3329   -6.6664  -15.5020 H   0  0  0  0  0
   17.4971   -5.1016  -15.3471 H   0  0  0  0  0
   17.0226   -6.2412  -16.6305 H   0  0  0  0  0
   22.7584    3.6768  -14.2372 H   0  0  0  0  0
   21.0993    3.1864  -13.8789 H   0  0  0  0  0
  1  2  4  0  0  0
  1  3  4  0  0  0
  2  6  1  0  0  0
  2 12  4  0  0  0
  3 14  4  0  0  0
  3 16  1  0  0  0
 12  4  4  0  0  0
  4 14  4  0  0  0
  6  5  2  0  0  0
  6  7  1  0  0  0
  7  8  1  0  0  0
  8  9  1  0  0  0
  9 10  1  0  0  0
 10 11  1  0  0  0
 12 13  1  0  0  0
 14 15  1  0  0  0
 16 17  2  0  0  0
 16 18  2  0  0  0
 16 19  1  0  0  0
  1 20  1  0  0  0
  4 21  1  0  0  0
  7 22  1  0  0  0
  8 23  1  0  0  0
  8 24  1  0  0  0
  9 25  1  0  0  0
  9 26  1  0  0  0
 10 27  1  0  0  0
 10 28  1  0  0  0
 11 29  1  0  0  0
 11 30  1  0  0  0
 11 31  1  0  0  0
 19 32  1  0  0  0
 19 33  1  0  0  0
M  END
$$$$
