5c7a_ligand
  -I-interpret- 

 42 44  0  0  0  0  0  0  0  0999 V2000
  -15.3760  -21.4430   -0.3470 C   0  0  0  0  0
  -15.9110  -20.1020   -0.8360 C   0  0  0  0  0
  -15.8980  -19.9890   -2.3600 C   0  0  0  0  0
  -16.3330  -18.6640   -2.8210 N   0  3  0  0  0
  -16.4980  -18.5770   -4.2800 C   0  0  0  0  0
  -15.2600  -18.8670   -5.1130 C   0  0  0  0  0
  -16.4790  -19.0630   -8.6090 C   0  0  0  0  0
  -15.0020  -19.3330   -8.6890 C   0  0  0  0  0
  -14.2140  -19.6230   -9.7910 C   0  0  0  0  0
  -12.8530  -19.8400   -9.6330 C   0  0  0  0  0
  -12.2790  -19.7670   -8.3790 C   0  0  0  0  0
  -13.0590  -19.4770   -7.2720 C   0  0  0  0  0
  -14.4170  -19.2610   -7.4320 C   0  0  0  0  0
  -14.1680  -19.0160   -4.5810 O   0  0  0  0  0
  -15.4170  -18.9540   -6.4770 N   0  0  0  0  0
  -16.7170  -18.7000   -7.1540 C   0  0  0  0  0
  -15.4800  -17.6070   -2.2630 C   0  0  0  0  0
  -15.5050  -17.6500   -0.7450 C   0  0  0  0  0
  -15.0780  -18.9910   -0.2650 N   0  3  0  0  0
  -14.3420  -21.5603   -0.6714 H   0  0  0  0  0
  -15.4227  -21.4762    0.7415 H   0  0  0  0  0
  -15.9821  -22.2479   -0.7627 H   0  0  0  0  0
  -16.9455  -20.0275   -0.5009 H   0  0  0  0  0
  -16.5879  -20.7314   -2.7613 H   0  0  0  0  0
  -14.8761  -20.1493   -2.7036 H   0  0  0  0  0
  -17.2729  -18.5127   -2.4547 H   0  0  0  0  0
  -16.7745  -17.5447   -4.4943 H   0  0  0  0  0
  -17.2315  -19.3369   -4.5495 H   0  0  0  0  0
  -17.0706  -19.9246   -8.9186 H   0  0  0  0  0
  -16.7873  -18.2663   -9.2860 H   0  0  0  0  0
  -14.6635  -19.6807  -10.7823 H   0  0  0  0  0
  -12.2348  -20.0688  -10.5011 H   0  0  0  0  0
  -11.2091  -19.9381   -8.2602 H   0  0  0  0  0
  -12.6069  -19.4192   -6.2819 H   0  0  0  0  0
  -17.5225  -19.2900   -6.7167 H   0  0  0  0  0
  -17.0349  -17.6633   -7.0428 H   0  0  0  0  0
  -15.8524  -16.6383   -2.5962 H   0  0  0  0  0
  -14.4564  -17.7602   -2.6050 H   0  0  0  0  0
  -16.5192  -17.4520   -0.3981 H   0  0  0  0  0
  -14.8218  -16.8959   -0.3544 H   0  0  0  0  0
  -14.1134  -19.1378   -0.5622 H   0  0  0  0  0
  -15.1838  -19.0093    0.7493 H   0  0  0  0  0
  2  1  1  0  0  0
  3  2  1  0  0  0
  2 19  1  0  0  0
  4  3  1  0  0  0
  5  4  1  0  0  0
  4 17  1  0  0  0
  6  5  1  0  0  0
  6 14  2  0  0  0
 15  6  1  0  0  0
  8  7  1  0  0  0
  7 16  1  0  0  0
  8  9  4  0  0  0
 13  8  4  0  0  0
  9 10  4  0  0  0
 11 10  4  0  0  0
 12 11  4  0  0  0
 13 12  4  0  0  0
 13 15  1  0  0  0
 15 16  1  0  0  0
 17 18  1  0  0  0
 18 19  1  0  0  0
  1 20  1  0  0  0
  1 21  1  0  0  0
  1 22  1  0  0  0
  2 23  1  0  0  0
  3 24  1  0  0  0
  3 25  1  0  0  0
  4 26  1  0  0  0
  5 27  1  0  0  0
  5 28  1  0  0  0
  7 29  1  0  0  0
  7 30  1  0  0  0
  9 31  1  0  0  0
 10 32  1  0  0  0
 11 33  1  0  0  0
 12 34  1  0  0  0
 16 35  1  0  0  0
 16 36  1  0  0  0
 17 37  1  0  0  0
 17 38  1  0  0  0
 18 39  1  0  0  0
 18 40  1  0  0  0
 19 41  1  0  0  0
 19 42  1  0  0  0
M  END
$$$$
