6bgz_ligand
  -I-interpret- 

 47 50  0  0  0  0  0  0  0  0999 V2000
  -25.4990   24.2290    2.2720 C   0  0  0  0  0
  -28.3480   21.9550   -0.2850 C   0  0  0  0  0
  -25.8800   21.5190   -0.3990 C   0  0  0  0  0
  -24.7180   20.2040    3.3330 C   0  0  0  0  0
  -24.1320   19.1160    4.0320 C   0  0  0  0  0
  -24.0460   19.5110    5.3470 C   0  0  0  0  0
  -23.3940   19.0470    7.7520 C   0  0  0  0  0
  -23.1890   17.0600    4.5170 C   0  0  0  0  0
  -27.5860   22.9910    5.4620 C   0  0  0  0  0
  -28.9450   22.9590    5.7410 C   0  0  0  0  0
  -29.8190   22.4480    4.8040 C   0  0  0  0  0
  -29.3420   21.9750    3.6010 C   0  0  0  0  0
  -27.9860   22.0080    3.3290 C   0  0  0  0  0
  -27.0770   22.5230    4.2560 C   0  0  0  0  0
  -25.5770   22.5680    3.9630 C   0  0  0  0  0
  -24.9520   21.2060    4.2570 C   0  0  0  0  0
  -23.5080   18.6440    6.2860 C   0  0  0  0  0
  -23.0840   17.4180    5.8540 C   0  0  0  0  0
  -24.5530   20.7770    5.4390 N   0  0  0  0  0
  -23.7100   17.8940    3.6000 N   0  0  0  0  0
  -25.3950   22.8670    2.5770 O   0  0  0  0  0
  -22.6800   18.3700    8.5360 O   0  0  0  0  0
  -24.0140   20.0570    8.1750 O   0  0  0  0  0
  -26.4860   23.6550    6.6970 Cl  0  0  0  0  0
  -25.8460   24.3620    0.7930 C   0  0  0  0  0
  -27.0620   23.5850    0.4320 C   0  0  0  0  0
  -29.1090   23.0100    0.1350 C   0  0  0  0  0
  -28.3190   24.0200    0.5810 N   0  0  0  0  0
  -27.0530   22.3190   -0.0970 N   0  0  0  0  0
  -24.5554   24.7327    2.4819 H   0  0  0  0  0
  -26.2755   24.6909    2.8817 H   0  0  0  0  0
  -28.7087   21.0096   -0.6902 H   0  0  0  0  0
  -25.9127   20.5958    0.1795 H   0  0  0  0  0
  -25.8672   21.2824   -1.4629 H   0  0  0  0  0
  -24.9824   22.0803   -0.1395 H   0  0  0  0  0
  -24.9417   20.2424    2.2669 H   0  0  0  0  0
  -22.8398   16.0766    4.2021 H   0  0  0  0  0
  -29.3190   23.3348    6.6933 H   0  0  0  0  0
  -30.8879   22.4184    5.0155 H   0  0  0  0  0
  -30.0350   21.5737    2.8616 H   0  0  0  0  0
  -27.6210   21.6258    2.3757 H   0  0  0  0  0
  -25.1036   23.3265    4.5865 H   0  0  0  0  0
  -22.6583   16.7132    6.5682 H   0  0  0  0  0
  -24.5063   20.4544    7.4530 H   0  0  0  0  0
  -25.0096   23.9746    0.2112 H   0  0  0  0  0
  -26.0394   25.4138    0.5822 H   0  0  0  0  0
  -30.1985   23.0366    0.1147 H   0  0  0  0  0
  1 21  1  0  0  0
 25  1  1  0  0  0
  2 27  4  0  0  0
 29  2  4  0  0  0
 29  3  1  0  0  0
  4  5  4  0  0  0
 16  4  4  0  0  0
  6  5  4  0  0  0
  5 20  4  0  0  0
  6 17  4  0  0  0
 19  6  4  0  0  0
 17  7  1  0  0  0
  7 22  2  0  0  0
  7 23  1  0  0  0
 18  8  4  0  0  0
 20  8  4  0  0  0
  9 10  4  0  0  0
 14  9  4  0  0  0
  9 24  1  0  0  0
 10 11  4  0  0  0
 12 11  4  0  0  0
 13 12  4  0  0  0
 14 13  4  0  0  0
 15 14  1  0  0  0
 15 16  1  0  0  0
 21 15  1  0  0  0
 16 19  4  0  0  0
 17 18  4  0  0  0
 26 25  1  0  0  0
 26 28  4  0  0  0
 26 29  4  0  0  0
 27 28  4  0  0  0
  1 30  1  0  0  0
  1 31  1  0  0  0
  2 32  1  0  0  0
  3 33  1  0  0  0
  3 34  1  0  0  0
  3 35  1  0  0  0
  4 36  1  0  0  0
  8 37  1  0  0  0
 10 38  1  0  0  0
 11 39  1  0  0  0
 12 40  1  0  0  0
 13 41  1  0  0  0
 15 42  1  0  0  0
 18 43  1  0  0  0
 23 44  1  0  0  0
 25 45  1  0  0  0
 25 46  1  0  0  0
 27 47  1  0  0  0
M  END
$$$$
