3igv_ligand
  -I-interpret- 

 58 61  0  0  0  0  0  0  0  0999 V2000
   96.0130    7.0700   62.9810 O   0  0  0  0  0
   96.6500    8.3690   63.3160 S   0  0  0  0  0
   96.1820    8.7890   64.6570 O   0  0  0  0  0
   98.3040    8.2080   63.3880 C   0  0  0  0  0
   96.3100    9.4620   62.2940 N   0  0  0  0  0
   96.1380    9.3040   60.9440 C   0  0  0  0  0
   95.4330   10.2980   60.2670 C   0  0  0  0  0
   95.2190   10.2060   58.8940 C   0  0  0  0  0
   96.6370    8.2100   60.2170 C   0  0  0  0  0
   96.4270    8.1090   58.8350 C   0  0  0  0  0
   95.7170    9.1200   58.1770 C   0  0  0  0  0
   95.4850    9.0690   56.8440 N   0  0  0  0  0
   96.9860    6.8610   57.9900 S   0  0  0  0  0
   98.3880    6.5720   58.3470 O   0  0  0  0  0
   96.1700    5.6670   58.2640 O   0  0  0  0  0
   96.9130    7.2270   56.4320 N   0  0  0  0  0
   96.1430    8.2500   55.9790 C   0  0  0  0  0
   95.9980    8.4860   54.4920 C   0  0  0  0  0
   96.2560    7.5040   53.6150 C   0  0  0  0  0
   96.7620    6.3430   54.0180 O   0  0  0  0  0
   95.9680    7.6900   52.1410 C   0  0  0  0  0
   96.2070    9.1300   51.6760 C   0  0  0  0  0
   97.7070    9.4370   51.6380 C   0  0  0  0  0
   98.2960    9.1300   50.2770 C   0  0  0  0  0
   95.5630    9.8020   53.9870 C   0  0  0  0  0
   95.1960   10.6760   54.7590 O   0  0  0  0  0
   95.5640   10.0190   52.6620 N   0  0  0  0  0
   94.9070   11.1520   52.0220 C   0  0  0  0  0
   93.5300   10.7390   51.5570 C   0  0  0  0  0
   93.2180   10.8130   50.1990 C   0  0  0  0  0
   91.9590   10.4300   49.7530 C   0  0  0  0  0
   92.5860   10.2830   52.4750 C   0  0  0  0  0
   91.3270    9.8980   52.0300 C   0  0  0  0  0
   91.0160    9.9730   50.6730 C   0  0  0  0  0
   89.7970    9.6060   50.2460 F   0  0  0  0  0
   98.5637    7.4783   64.1549 H   0  0  0  0  0
   98.6772    7.8696   62.4214 H   0  0  0  0  0
   98.7511    9.1710   63.6347 H   0  0  0  0  0
   96.2002   10.4081   62.6591 H   0  0  0  0  0
   95.0456   11.1553   60.8175 H   0  0  0  0  0
   94.6597   10.9866   58.3782 H   0  0  0  0  0
   97.1948    7.4296   60.7347 H   0  0  0  0  0
   94.7684    9.6864   56.4622 H   0  0  0  0  0
   96.8797    5.7661   53.2598 H   0  0  0  0  0
   94.9186    7.4502   51.9697 H   0  0  0  0  0
   96.6399    7.0392   51.5815 H   0  0  0  0  0
   95.7979    9.2745   50.6761 H   0  0  0  0  0
   98.2076    8.8163   52.3812 H   0  0  0  0  0
   97.8500   10.4971   51.8473 H   0  0  0  0  0
   98.1513    8.0738   50.0497 H   0  0  0  0  0
   97.7975    9.7372   49.5214 H   0  0  0  0  0
   99.3617    9.3588   50.2837 H   0  0  0  0  0
   95.4972   11.4778   51.1655 H   0  0  0  0  0
   94.8190   11.9714   52.7354 H   0  0  0  0  0
   93.9622   11.1714   49.4878 H   0  0  0  0  0
   91.7106   10.4863   48.6932 H   0  0  0  0  0
   92.8334   10.2286   53.5351 H   0  0  0  0  0
   90.5835    9.5378   52.7411 H   0  0  0  0  0
  1  2  2  0  0  0
  2  3  2  0  0  0
  2  4  1  0  0  0
  2  5  1  0  0  0
  5  6  1  0  0  0
  6  7  4  0  0  0
  6  9  4  0  0  0
  7  8  4  0  0  0
  8 11  4  0  0  0
  9 10  4  0  0  0
 10 11  4  0  0  0
 10 13  1  0  0  0
 11 12  1  0  0  0
 12 17  1  0  0  0
 13 14  2  0  0  0
 13 15  2  0  0  0
 13 16  1  0  0  0
 16 17  2  0  0  0
 17 18  1  0  0  0
 18 19  2  0  0  0
 18 25  1  0  0  0
 19 20  1  0  0  0
 19 21  1  0  0  0
 21 22  1  0  0  0
 22 23  1  0  0  0
 22 27  1  0  0  0
 23 24  1  0  0  0
 25 26  2  0  0  0
 25 27  1  0  0  0
 27 28  1  0  0  0
 28 29  1  0  0  0
 29 30  4  0  0  0
 29 32  4  0  0  0
 30 31  4  0  0  0
 31 34  4  0  0  0
 32 33  4  0  0  0
 33 34  4  0  0  0
 34 35  1  0  0  0
  4 36  1  0  0  0
  4 37  1  0  0  0
  4 38  1  0  0  0
  5 39  1  0  0  0
  7 40  1  0  0  0
  8 41  1  0  0  0
  9 42  1  0  0  0
 12 43  1  0  0  0
 20 44  1  0  0  0
 21 45  1  0  0  0
 21 46  1  0  0  0
 22 47  1  0  0  0
 23 48  1  0  0  0
 23 49  1  0  0  0
 24 50  1  0  0  0
 24 51  1  0  0  0
 24 52  1  0  0  0
 28 53  1  0  0  0
 28 54  1  0  0  0
 30 55  1  0  0  0
 31 56  1  0  0  0
 32 57  1  0  0  0
 33 58  1  0  0  0
M  END
$$$$
