3krj_ligand
  -I-interpret- 

 53 56  0  0  0  0  0  0  0  0999 V2000
    7.7680   24.7790    4.4760 N   0  0  0  0  0
    8.1750   25.1810    5.4830 C   0  0  0  0  0
    8.6640   25.6850    6.7230 C   0  0  0  0  0
    9.6850   25.1970    7.5110 C   0  0  0  0  0
    9.7520   26.0480    8.6010 N   0  0  0  0  0
    8.8160   26.9840    8.4530 C   0  0  0  0  0
    8.1150   26.8190    7.3340 N   0  0  0  0  0
    8.6330   28.0060    9.5170 C   0  0  0  0  0
    9.2090   27.8790   10.6010 O   0  0  0  0  0
    7.8330   29.0140    9.1550 N   0  0  0  0  0
    7.3740   30.0960    9.9440 C   0  0  0  0  0
    7.5780   30.0390   11.3340 C   0  0  0  0  0
    7.1030   31.0480   12.1630 C   0  0  0  0  0
    6.4090   32.1570   11.6490 C   0  0  0  0  0
    6.1930   32.2330   10.2430 C   0  0  0  0  0
    6.6610   31.1950    9.3810 C   0  0  0  0  0
    6.4460   31.2990    7.9140 C   0  0  0  0  0
    5.7060   30.3750    7.2560 C   0  0  0  0  0
    5.5000   30.3350    5.7470 C   0  0  0  0  0
    6.6530   31.0070    4.9870 C   0  0  0  0  0
    6.9740   32.3660    5.6180 C   0  0  0  0  0
    7.3450   32.2360    7.1110 C   0  0  0  0  0
    5.9640   33.1700   12.7240 C   0  0  0  0  0
    4.4620   33.0150   13.1030 C   0  0  0  0  0
    3.7380   34.3240   13.4510 C   0  0  0  0  0
    4.6730   35.1550   14.1950 N   0  3  0  0  0
    5.5460   35.7390   13.1880 C   0  0  0  0  0
    6.4540   34.6400   12.5900 C   0  0  0  0  0
   10.3085   24.3243    7.3165 H   0  0  0  0  0
    7.5124   29.0019    8.1868 H   0  0  0  0  0
    8.1145   29.1942   11.7660 H   0  0  0  0  0
    7.2726   30.9778   13.2374 H   0  0  0  0  0
    5.6667   33.0897    9.8220 H   0  0  0  0  0
    5.2210   29.6013    7.8512 H   0  0  0  0  0
    4.5812   30.8738    5.5154 H   0  0  0  0  0
    5.4531   29.2907    5.4384 H   0  0  0  0  0
    6.3600   31.1542    3.9475 H   0  0  0  0  0
    7.5360   30.3700    5.0382 H   0  0  0  0  0
    6.0880   32.9962    5.5402 H   0  0  0  0  0
    7.8264   32.7943    5.0906 H   0  0  0  0  0
    8.3521   31.8211    7.1522 H   0  0  0  0  0
    7.2416   33.2280    7.5506 H   0  0  0  0  0
    6.5463   32.8655   13.5936 H   0  0  0  0  0
    4.4270   32.3907   13.9958 H   0  0  0  0  0
    3.9593   32.6018   12.2286 H   0  0  0  0  0
    2.8489   34.1213   14.0480 H   0  0  0  0  0
    3.4131   34.8333   12.5437 H   0  0  0  0  0
    5.1982   34.6112   14.8797 H   0  0  0  0  0
    4.1911   35.8718   14.7376 H   0  0  0  0  0
    6.1645   36.5100   13.6475 H   0  0  0  0  0
    4.9412   36.1804   12.3958 H   0  0  0  0  0
    6.5008   34.8420   11.5199 H   0  0  0  0  0
    7.3909   34.6934   13.1446 H   0  0  0  0  0
  1  2  3  0  0  0
  2  3  1  0  0  0
  3  4  4  0  0  0
  3  7  4  0  0  0
  4  5  4  0  0  0
  5  6  4  0  0  0
  6  7  4  0  0  0
  6  8  1  0  0  0
  8  9  2  0  0  0
  8 10  1  0  0  0
 10 11  1  0  0  0
 11 12  4  0  0  0
 11 16  4  0  0  0
 12 13  4  0  0  0
 13 14  4  0  0  0
 14 15  4  0  0  0
 14 23  1  0  0  0
 15 16  4  0  0  0
 16 17  1  0  0  0
 17 18  2  0  0  0
 17 22  1  0  0  0
 18 19  1  0  0  0
 19 20  1  0  0  0
 20 21  1  0  0  0
 21 22  1  0  0  0
 23 24  1  0  0  0
 23 28  1  0  0  0
 24 25  1  0  0  0
 25 26  1  0  0  0
 26 27  1  0  0  0
 27 28  1  0  0  0
  4 29  1  0  0  0
 10 30  1  0  0  0
 12 31  1  0  0  0
 13 32  1  0  0  0
 15 33  1  0  0  0
 18 34  1  0  0  0
 19 35  1  0  0  0
 19 36  1  0  0  0
 20 37  1  0  0  0
 20 38  1  0  0  0
 21 39  1  0  0  0
 21 40  1  0  0  0
 22 41  1  0  0  0
 22 42  1  0  0  0
 23 43  1  0  0  0
 24 44  1  0  0  0
 24 45  1  0  0  0
 25 46  1  0  0  0
 25 47  1  0  0  0
 26 48  1  0  0  0
 26 49  1  0  0  0
 27 50  1  0  0  0
 27 51  1  0  0  0
 28 52  1  0  0  0
 28 53  1  0  0  0
M  END
$$$$
