5wip_ligand
  -I-interpret- 

 21 22  0  0  0  0  0  0  0  0999 V2000
  -37.9590   -8.9950   11.1190 C   0  0  0  0  0
  -39.8410   -9.2050   10.0010 C   0  0  0  0  0
  -39.0280   -8.5040    9.1950 C   0  0  0  0  0
  -37.7270   -8.3000    9.8430 C   0  0  0  0  0
  -36.9590   -9.1470   12.2630 C   0  0  0  0  0
  -36.6170   -9.3170   14.6340 C   0  0  0  0  0
  -35.1230   -9.4340   14.3460 C   0  0  0  0  0
  -34.7000   -9.4020   13.1350 C   0  0  0  0  0
  -35.6700   -9.2520   12.0090 C   0  0  0  0  0
  -33.2050   -9.5200   12.8460 C   0  0  0  0  0
  -37.4490   -9.1860   13.6660 N   0  0  0  0  0
  -39.2300   -9.4830   11.0960 O   0  0  0  0  0
  -32.6360  -10.6400   12.9250 O   0  0  0  0  0
  -32.5450   -8.4960   12.5270 O   0  0  0  0  0
  -40.8644   -9.4944    9.7624 H   0  0  0  0  0
  -39.2953   -8.1392    8.2032 H   0  0  0  0  0
  -36.8397   -7.7805    9.4812 H   0  0  0  0  0
  -36.9775   -9.3447   15.6623 H   0  0  0  0  0
  -34.4159   -9.5446   15.1681 H   0  0  0  0  0
  -35.3126   -9.2294   10.9795 H   0  0  0  0  0
  -33.1271   -7.7327   12.5138 H   0  0  0  0  0
  1  4  4  0  0  0
  5  1  1  0  0  0
  1 12  4  0  0  0
  2  3  4  0  0  0
 12  2  4  0  0  0
  4  3  4  0  0  0
  5  9  4  0  0  0
 11  5  4  0  0  0
  6  7  4  0  0  0
  6 11  4  0  0  0
  7  8  4  0  0  0
  8  9  4  0  0  0
  8 10  1  0  0  0
 10 13  2  0  0  0
 10 14  1  0  0  0
  2 15  1  0  0  0
  3 16  1  0  0  0
  4 17  1  0  0  0
  6 18  1  0  0  0
  7 19  1  0  0  0
  9 20  1  0  0  0
 14 21  1  0  0  0
M  END
$$$$
