4j9a_ligand
  -I-interpret- 

 62 66  0  0  0  0  0  0  0  0999 V2000
   -4.8120    3.6040   12.3870 O   0  0  0  0  0
   -5.2660    2.4810   12.3410 C   0  0  0  0  0
   -4.6420    1.2110   12.7380 C   0  0  0  0  0
   -6.6060    2.2090   11.9050 O   0  0  0  0  0
   -6.8860    0.8260   12.1890 C   0  0  0  0  0
   -5.5630    0.2400   12.6490 C   0  0  0  0  0
   -5.2890   -1.2040   12.9830 C   0  0  0  0  0
   -6.1970   -1.6430   14.1220 C   0  0  0  0  0
   -5.4480   -2.2660   11.8990 C   0  0  0  0  0
   -5.4650   -1.7570   10.4690 C   0  0  0  0  0
   -4.3230   -3.2820   12.0520 C   0  0  0  0  0
   -3.1160   -2.6960   11.5400 O   0  0  0  0  0
   -6.7370   -2.9330   12.2540 C   0  0  0  0  0
   -6.7720   -2.9900   13.7410 C   0  0  0  0  0
   -7.7250   -1.9760   11.9810 O   0  0  0  0  0
   -7.0120   -4.2530   11.5080 C   0  0  0  0  0
   -8.3250   -4.8960   11.9430 C   0  0  0  0  0
   -5.8960   -5.2670   11.6430 C   0  0  0  0  0
   -4.5580   -4.6150   11.3210 C   0  0  0  0  0
   -6.1740   -6.5320   10.8180 C   0  0  0  0  0
   -6.3090   -6.3180    9.3280 C   0  0  0  0  0
   -7.4470   -7.1790   11.3320 C   0  0  0  0  0
   -8.6220   -6.2340   11.2640 C   0  0  0  0  0
   -7.3470   -7.6550   12.7730 C   0  0  0  0  0
   -6.1230   -8.5450   13.0120 C   0  0  0  0  0
   -6.4060   -9.8760   12.5050 O   0  0  0  0  0
   -4.8460   -7.9660   12.3730 C   0  0  0  0  0
   -5.0680   -7.5510   10.9230 C   0  0  0  0  0
   -3.6063    1.0803   13.0516 H   0  0  0  0  0
   -7.2742    0.3057   11.3134 H   0  0  0  0  0
   -7.6596    0.7197   12.9494 H   0  0  0  0  0
   -4.2222   -1.1719   13.2045 H   0  0  0  0  0
   -6.9937   -0.9161   14.2802 H   0  0  0  0  0
   -5.6367   -1.7143   15.0543 H   0  0  0  0  0
   -6.2972   -1.0648   10.3410 H   0  0  0  0  0
   -4.5274   -1.2434   10.2564 H   0  0  0  0  0
   -5.5826   -2.5987    9.7865 H   0  0  0  0  0
   -4.2652   -3.5195   13.1142 H   0  0  0  0  0
   -2.3946   -3.3232   11.6283 H   0  0  0  0  0
   -7.7706   -3.1620   14.1427 H   0  0  0  0  0
   -6.2132   -3.8299   14.1538 H   0  0  0  0  0
   -8.5884   -2.3409   12.1884 H   0  0  0  0  0
   -7.0790   -3.9661   10.4586 H   0  0  0  0  0
   -9.1262   -4.2102   11.6673 H   0  0  0  0  0
   -8.2505   -5.0877   13.0134 H   0  0  0  0  0
   -5.8471   -5.6057   12.6779 H   0  0  0  0  0
   -3.7761   -5.3033   11.6420 H   0  0  0  0  0
   -4.5487   -4.4046   10.2515 H   0  0  0  0  0
   -7.1357   -5.6347    9.1338 H   0  0  0  0  0
   -5.3845   -5.8919    8.9382 H   0  0  0  0  0
   -6.5038   -7.2736    8.8412 H   0  0  0  0  0
   -7.5935   -8.0379   10.6771 H   0  0  0  0  0
   -8.8423   -6.0408   10.2141 H   0  0  0  0  0
   -9.4618   -6.6983   11.7809 H   0  0  0  0  0
   -8.2384   -8.2411   12.9966 H   0  0  0  0  0
   -7.2548   -6.7768   13.4121 H   0  0  0  0  0
   -5.9307   -8.5917   14.0839 H   0  0  0  0  0
   -5.6439  -10.4414   12.6505 H   0  0  0  0  0
   -4.0764   -8.7376   12.3918 H   0  0  0  0  0
   -4.5535   -7.0815   12.9389 H   0  0  0  0  0
   -4.1477   -7.1100   10.5399 H   0  0  0  0  0
   -5.3473   -8.4321   10.3452 H   0  0  0  0  0
  1  2  2  0  0  0
  2  3  1  0  0  0
  2  4  1  0  0  0
  3  6  2  0  0  0
  4  5  1  0  0  0
  5  6  1  0  0  0
  6  7  1  0  0  0
  7  8  1  0  0  0
  7  9  1  0  0  0
  8 14  1  0  0  0
  9 10  1  0  0  0
  9 11  1  0  0  0
  9 13  1  0  0  0
 11 12  1  0  0  0
 11 19  1  0  0  0
 13 14  1  0  0  0
 13 15  1  0  0  0
 13 16  1  0  0  0
 16 17  1  0  0  0
 16 18  1  0  0  0
 17 23  1  0  0  0
 18 19  1  0  0  0
 18 20  1  0  0  0
 20 21  1  0  0  0
 20 22  1  0  0  0
 20 28  1  0  0  0
 22 23  1  0  0  0
 22 24  1  0  0  0
 24 25  1  0  0  0
 25 26  1  0  0  0
 25 27  1  0  0  0
 27 28  1  0  0  0
  3 29  1  0  0  0
  5 30  1  0  0  0
  5 31  1  0  0  0
  7 32  1  0  0  0
  8 33  1  0  0  0
  8 34  1  0  0  0
 10 35  1  0  0  0
 10 36  1  0  0  0
 10 37  1  0  0  0
 11 38  1  0  0  0
 12 39  1  0  0  0
 14 40  1  0  0  0
 14 41  1  0  0  0
 15 42  1  0  0  0
 16 43  1  0  0  0
 17 44  1  0  0  0
 17 45  1  0  0  0
 18 46  1  0  0  0
 19 47  1  0  0  0
 19 48  1  0  0  0
 21 49  1  0  0  0
 21 50  1  0  0  0
 21 51  1  0  0  0
 22 52  1  0  0  0
 23 53  1  0  0  0
 23 54  1  0  0  0
 24 55  1  0  0  0
 24 56  1  0  0  0
 25 57  1  0  0  0
 26 58  1  0  0  0
 27 59  1  0  0  0
 27 60  1  0  0  0
 28 61  1  0  0  0
 28 62  1  0  0  0
M  END
$$$$
