3e7b_ligand
  -I-interpret- 

123124  0  0  0  0  0  0  0  0999 V2000
   13.9280   23.1380  -11.2580 C   0  0  0  0  0
   13.7010   24.3980  -12.0840 C   0  0  0  0  0
   12.7870   25.1810  -11.8340 O   0  0  0  0  0
   14.6370   24.6850  -13.2570 C   0  0  0  0  0
   13.7810   24.9750  -14.5120 C   0  0  0  0  0
   15.5370   25.8560  -12.8640 C   0  0  0  0  0
   16.4830   25.4430  -11.7240 C   0  0  0  0  0
   17.3680   26.6320  -11.3220 C   0  0  0  0  0
   18.0570   27.0380  -12.5660 O   0  0  0  0  0
   18.4180   26.3790  -10.2190 C   0  0  0  0  0
   17.8110   25.8350   -8.9130 C   0  0  0  0  0
   19.2500   27.6560   -9.9860 C   0  0  0  0  0
   19.8650   28.1310  -11.3240 C   0  0  0  0  0
   18.8050   28.2640  -12.4230 C   0  0  0  0  0
   17.9860   29.3210  -12.0000 O   0  0  0  0  0
   19.4770   28.6040  -13.7710 C   0  0  0  0  0
   18.4710   29.0720  -14.8230 C   0  0  0  0  0
   17.5170   30.1410  -14.2760 C   0  0  0  0  0
   18.1280   31.5560  -14.2870 C   0  0  0  0  0
   16.9460   29.7210  -12.8910 C   0  0  0  0  0
   16.1720   30.8320  -12.1420 C   0  0  0  0  0
   15.7550   30.3540  -10.7300 C   0  0  0  0  0
   14.9440   31.2790  -12.9670 C   0  0  0  0  0
   14.0690   32.3050  -12.2490 C   0  0  0  0  0
   13.1600   33.0340  -13.2380 C   0  0  0  0  0
   13.9460   33.9670  -13.9960 O   0  0  0  0  0
   12.0750   33.7880  -12.4720 C   0  0  0  0  0
   11.0430   32.8090  -11.8300 C   0  0  0  0  0
   11.3640   34.7570  -13.4200 C   0  0  0  0  0
   10.8260   34.3740  -14.4720 O   0  0  0  0  0
   11.3880   36.2210  -13.0040 C   0  0  0  0  0
   10.6890   37.1660  -13.9680 C   0  0  0  0  0
   10.4790   38.4020  -13.2540 O   0  0  0  0  0
   11.4540   37.4310  -15.3030 C   0  0  0  0  0
   12.8660   37.8820  -15.0720 O   0  0  0  0  0
   12.9560   39.2520  -14.5730 C   0  0  0  0  0
   10.5650   38.4130  -16.1600 C   0  0  0  0  0
   10.6570   38.5320  -17.6980 C   0  0  0  0  0
   11.6630   37.5860  -18.3420 C   0  0  0  0  0
   10.7980   39.9760  -18.1430 C   0  0  0  0  0
    9.2300   37.8680  -16.2400 O   0  0  0  0  0
    8.1510   38.6330  -15.9900 C   0  0  0  0  0
    8.2160   39.8120  -15.6970 O   0  0  0  0  0
    6.7830   37.9230  -16.0600 C   0  0  0  0  0
    5.9040   38.1940  -14.8310 C   0  0  0  0  0
    4.6900   37.4410  -14.9840 O   0  0  0  0  0
    6.5880   37.6930  -13.5630 C   0  0  0  0  0
    6.8280   36.1770  -13.4250 C   0  0  0  0  0
    7.7500   35.7390  -12.7010 O   0  0  0  0  0
    6.0880   35.4340  -14.0890 O   0  0  0  0  0
    6.9410   38.5910  -12.5600 C   0  0  0  0  0
    6.7040   40.0950  -12.6590 C   0  0  0  0  0
    7.6040   38.0760  -11.3170 C   0  0  0  0  0
    6.8790   37.5990  -10.4120 O   0  0  0  0  0
    8.8480   38.1600  -11.2820 O   0  0  0  0  0
   14.1177   23.4143  -10.2208 H   0  0  0  0  0
   13.0415   22.5060  -11.3106 H   0  0  0  0  0
   14.7866   22.5955  -11.6537 H   0  0  0  0  0
   15.2774   23.8353  -13.4938 H   0  0  0  0  0
   13.1405   25.8364  -14.3223 H   0  0  0  0  0
   14.4368   25.1872  -15.3564 H   0  0  0  0  0
   13.1645   24.1051  -14.7387 H   0  0  0  0  0
   14.9151   26.6855  -12.5274 H   0  0  0  0  0
   16.1303   26.1544  -13.7283 H   0  0  0  0  0
   17.1156   24.6221  -12.0616 H   0  0  0  0  0
   15.8927   25.1273  -10.8637 H   0  0  0  0  0
   16.7190   27.3878  -10.8796 H   0  0  0  0  0
   19.0801   25.5882  -10.5718 H   0  0  0  0  0
   17.0901   26.5531   -8.5221 H   0  0  0  0  0
   17.3101   24.8879   -9.1135 H   0  0  0  0  0
   18.6045   25.6802   -8.1819 H   0  0  0  0  0
   20.0499   27.4411   -9.2774 H   0  0  0  0  0
   18.6050   28.4390   -9.5873 H   0  0  0  0  0
   20.5996   27.3923  -11.6445 H   0  0  0  0  0
   20.3175   29.1097  -11.1645 H   0  0  0  0  0
   19.9594   27.7007  -14.1444 H   0  0  0  0  0
   20.1862   29.4137  -13.5992 H   0  0  0  0  0
   17.8764   28.2117  -15.1304 H   0  0  0  0  0
   19.0264   29.5061  -15.6543 H   0  0  0  0  0
   16.6706   30.2046  -14.9599 H   0  0  0  0  0
   19.0270   31.5670  -13.6707 H   0  0  0  0  0
   18.3839   31.8319  -15.3100 H   0  0  0  0  0
   17.4037   32.2662  -13.8881 H   0  0  0  0  0
   16.2627   28.9095  -13.1414 H   0  0  0  0  0
   16.8297   31.6924  -12.0187 H   0  0  0  0  0
   15.1140   29.4770  -10.8193 H   0  0  0  0  0
   16.6459   30.0976  -10.1568 H   0  0  0  0  0
   15.2125   31.1521  -10.2231 H   0  0  0  0  0
   14.3317   30.3956  -13.1484 H   0  0  0  0  0
   15.3145   31.7456  -13.8798 H   0  0  0  0  0
   14.7141   33.0359  -11.7615 H   0  0  0  0  0
   13.4478   31.7862  -11.5189 H   0  0  0  0  0
   12.6932   32.3134  -13.9095 H   0  0  0  0  0
   13.3800   34.4282  -14.6193 H   0  0  0  0  0
   12.5485   34.3444  -11.6631 H   0  0  0  0  0
   10.5668   32.2199  -12.6137 H   0  0  0  0  0
   11.5576   32.1444  -11.1360 H   0  0  0  0  0
   10.2863   33.3814  -11.2934 H   0  0  0  0  0
   12.4346   36.5232  -12.9659 H   0  0  0  0  0
   10.8598   36.2896  -12.0530 H   0  0  0  0  0
    9.7575   36.6972  -14.2853 H   0  0  0  0  0
   10.0374   39.0313  -13.8289 H   0  0  0  0  0
   11.5910   36.5113  -15.8717 H   0  0  0  0  0
   12.5061   39.9313  -15.2970 H   0  0  0  0  0
   12.4254   39.3272  -13.6239 H   0  0  0  0  0
   14.0034   39.5161  -14.4271 H   0  0  0  0  0
   10.8649   39.3313  -15.6551 H   0  0  0  0  0
    9.6995   38.1818  -18.0836 H   0  0  0  0  0
   12.6576   37.7909  -17.9460 H   0  0  0  0  0
   11.3863   36.5559  -18.1176 H   0  0  0  0  0
   11.6622   37.7368  -19.4215 H   0  0  0  0  0
    9.9316   40.5450  -17.8059 H   0  0  0  0  0
   11.7039   40.4012  -17.7110 H   0  0  0  0  0
   10.8594   40.0154  -19.2306 H   0  0  0  0  0
    6.9675   36.8497  -16.1065 H   0  0  0  0  0
    6.2561   38.3022  -16.9356 H   0  0  0  0  0
    5.7207   39.2656  -14.7521 H   0  0  0  0  0
    4.1219   37.5944  -14.2255 H   0  0  0  0  0
    8.1988   36.4740  -12.2767 H   0  0  0  0  0
    7.2410   40.4902  -13.5213 H   0  0  0  0  0
    5.6372   40.2866  -12.7746 H   0  0  0  0  0
    7.0651   40.5789  -11.7515 H   0  0  0  0  0
    5.9588   37.6493  -10.6809 H   0  0  0  0  0
  1  2  1  0  0  0
  2  3  2  0  0  0
  2  4  1  0  0  0
  4  5  1  0  0  0
  4  6  1  0  0  0
  6  7  1  0  0  0
  7  8  1  0  0  0
  8  9  1  0  0  0
  8 10  1  0  0  0
  9 14  1  0  0  0
 10 11  1  0  0  0
 10 12  1  0  0  0
 12 13  1  0  0  0
 13 14  1  0  0  0
 14 15  1  0  0  0
 14 16  1  0  0  0
 15 20  1  0  0  0
 16 17  1  0  0  0
 17 18  1  0  0  0
 18 19  1  0  0  0
 18 20  1  0  0  0
 20 21  1  0  0  0
 21 22  1  0  0  0
 21 23  1  0  0  0
 23 24  1  0  0  0
 24 25  1  0  0  0
 25 26  1  0  0  0
 25 27  1  0  0  0
 27 28  1  0  0  0
 27 29  1  0  0  0
 29 30  2  0  0  0
 29 31  1  0  0  0
 31 32  1  0  0  0
 32 33  1  0  0  0
 32 34  1  0  0  0
 34 35  1  0  0  0
 34 37  1  0  0  0
 35 36  1  0  0  0
 37 38  1  0  0  0
 37 41  1  0  0  0
 38 39  1  0  0  0
 38 40  1  0  0  0
 41 42  1  0  0  0
 42 43  2  0  0  0
 42 44  1  0  0  0
 44 45  1  0  0  0
 45 46  1  0  0  0
 45 47  1  0  0  0
 47 48  1  0  0  0
 47 51  2  0  0  0
 48 49  1  0  0  0
 48 50  2  0  0  0
 51 52  1  0  0  0
 51 53  1  0  0  0
 53 54  1  0  0  0
 53 55  2  0  0  0
  1 56  1  0  0  0
  1 57  1  0  0  0
  1 58  1  0  0  0
  4 59  1  0  0  0
  5 60  1  0  0  0
  5 61  1  0  0  0
  5 62  1  0  0  0
  6 63  1  0  0  0
  6 64  1  0  0  0
  7 65  1  0  0  0
  7 66  1  0  0  0
  8 67  1  0  0  0
 10 68  1  0  0  0
 11 69  1  0  0  0
 11 70  1  0  0  0
 11 71  1  0  0  0
 12 72  1  0  0  0
 12 73  1  0  0  0
 13 74  1  0  0  0
 13 75  1  0  0  0
 16 76  1  0  0  0
 16 77  1  0  0  0
 17 78  1  0  0  0
 17 79  1  0  0  0
 18 80  1  0  0  0
 19 81  1  0  0  0
 19 82  1  0  0  0
 19 83  1  0  0  0
 20 84  1  0  0  0
 21 85  1  0  0  0
 22 86  1  0  0  0
 22 87  1  0  0  0
 22 88  1  0  0  0
 23 89  1  0  0  0
 23 90  1  0  0  0
 24 91  1  0  0  0
 24 92  1  0  0  0
 25 93  1  0  0  0
 26 94  1  0  0  0
 27 95  1  0  0  0
 28 96  1  0  0  0
 28 97  1  0  0  0
 28 98  1  0  0  0
 31 99  1  0  0  0
 31100  1  0  0  0
 32101  1  0  0  0
 33102  1  0  0  0
 34103  1  0  0  0
 36104  1  0  0  0
 36105  1  0  0  0
 36106  1  0  0  0
 37107  1  0  0  0
 38108  1  0  0  0
 39109  1  0  0  0
 39110  1  0  0  0
 39111  1  0  0  0
 40112  1  0  0  0
 40113  1  0  0  0
 40114  1  0  0  0
 44115  1  0  0  0
 44116  1  0  0  0
 45117  1  0  0  0
 46118  1  0  0  0
 49119  1  0  0  0
 52120  1  0  0  0
 52121  1  0  0  0
 52122  1  0  0  0
 54123  1  0  0  0
M  END
$$$$
