### 
### Created by X-TOOL on Mon Sep 10 21:12:57 2018
### 

@<TRIPOS>MOLECULE
3e7b_ligand
  121   122     1     0     0
SMALL
GAST_HUCK


@<TRIPOS>ATOM
      1 C1         13.9280   23.1380  -11.2580 C.3       1 E7B         0.0097
      2 C2         13.7010   24.3980  -12.0840 C.2       1 E7B         0.1047
      3 O3         12.7870   25.1810  -11.8340 O.2       1 E7B        -0.3916
      4 C3         14.6370   24.6850  -13.2570 C.3       1 E7B         0.0295
      5 C30        13.7810   24.9750  -14.5120 C.3       1 E7B        -0.0464
      6 C4         15.5370   25.8560  -12.8640 C.3       1 E7B        -0.0322
      7 C5         16.4830   25.4430  -11.7240 C.3       1 E7B        -0.0239
      8 C6         17.3680   26.6320  -11.3220 C.3       1 E7B         0.0647
      9 O2         18.0570   27.0380  -12.5660 O.3       1 E7B        -0.3451
     10 C7         18.4180   26.3790  -10.2190 C.3       1 E7B        -0.0173
     11 C25        17.8110   25.8350   -8.9130 C.3       1 E7B        -0.0601
     12 C8         19.2500   27.6560   -9.9860 C.3       1 E7B        -0.0432
     13 C9         19.8650   28.1310  -11.3240 C.3       1 E7B         0.0018
     14 C10        18.8050   28.2640  -12.4230 C.3       1 E7B         0.1707
     15 O1         17.9860   29.3210  -12.0000 O.3       1 E7B        -0.3449
     16 C11        19.4770   28.6040  -13.7710 C.3       1 E7B         0.0018
     17 C12        18.4710   29.0720  -14.8230 C.3       1 E7B        -0.0432
     18 C13        17.5170   30.1410  -14.2760 C.3       1 E7B        -0.0170
     19 C28        18.1280   31.5560  -14.2870 C.3       1 E7B        -0.0601
     20 C14        16.9460   29.7210  -12.8910 C.3       1 E7B         0.0671
     21 C15        16.1720   30.8320  -12.1420 C.3       1 E7B        -0.0171
     22 C26        15.7550   30.3540  -10.7300 C.3       1 E7B        -0.0601
     23 C16        14.9440   31.2790  -12.9670 C.3       1 E7B        -0.0456
     24 C17        14.0690   32.3050  -12.2490 C.3       1 E7B        -0.0241
     25 C18        13.1600   33.0340  -13.2380 C.3       1 E7B         0.0733
     26 O4         13.9460   33.9670  -13.9960 O.3       1 E7B        -0.3891
     27 C19        12.0750   33.7880  -12.4720 C.3       1 E7B         0.0557
     28 C27        11.0430   32.8090  -11.8300 C.3       1 E7B        -0.0440
     29 C20        11.3640   34.7570  -13.4200 C.2       1 E7B         0.1127
     30 O13        10.8260   34.3740  -14.4720 O.2       1 E7B        -0.3911
     31 C21        11.3880   36.2210  -13.0040 C.3       1 E7B         0.0500
     32 C22        10.6890   37.1660  -13.9680 C.3       1 E7B         0.0996
     33 O5         10.4790   38.4020  -13.2540 O.3       1 E7B        -0.3867
     34 C23        11.4540   37.4310  -15.3030 C.3       1 E7B         0.1169
     35 O6         12.8660   37.8820  -15.0720 O.3       1 E7B        -0.3741
     36 C29        12.9560   39.2520  -14.5730 C.3       1 E7B         0.0370
     37 C24        10.5650   38.4130  -16.1600 C.3       1 E7B         0.1184
     38 C31        10.6570   38.5320  -17.6980 C.3       1 E7B        -0.0134
     39 C33        11.6630   37.5860  -18.3420 C.3       1 E7B        -0.0599
     40 C32        10.7980   39.9760  -18.1430 C.3       1 E7B        -0.0599
     41 O7          9.2300   37.8680  -16.2400 O.3       1 E7B        -0.2704
     42 C1'         8.1510   38.6330  -15.9900 C.2       1 E7B         0.2385
     43 O12         8.2160   39.8120  -15.6970 O.2       1 E7B        -0.3701
     44 C2'         6.7830   37.9230  -16.0600 C.3       1 E7B         0.0833
     45 C3'         5.9040   38.1940  -14.8310 C.3       1 E7B         0.1069
     46 O11         4.6900   37.4410  -14.9840 O.3       1 E7B        -0.3782
     47 C4'         6.5880   37.6930  -13.5630 C.2       1 E7B         0.0239
     48 C7'         6.8280   36.1770  -13.4250 C.2       1 E7B         0.0581
     49 O14         7.7500   35.7390  -12.7010 O.co2     1 E7B        -0.5634
     50 O9          6.0880   35.4340  -14.0890 O.co2     1 E7B        -0.5634
     51 C5'         6.9410   38.5910  -12.5600 C.2       1 E7B        -0.0069
     52 C41         6.7040   40.0950  -12.6590 C.3       1 E7B        -0.0313
     53 C6'         7.6040   38.0760  -11.3170 C.2       1 E7B         0.0554
     54 O10         6.8790   37.5990  -10.4120 O.co2     1 E7B        -0.5635
     55 O8          8.8480   38.1600  -11.2820 O.co2     1 E7B        -0.5635
     56 H1         14.7943   22.5896  -11.6564 H         1 E7B         0.0459
     57 H2         13.0340   22.4992  -11.3103 H         1 E7B         0.0459
     58 H3         14.1197   23.4155  -10.2110 H         1 E7B         0.0459
     59 H4         15.2658   23.8044  -13.4546 H         1 E7B         0.0527
     60 H5         14.4418   25.1838  -15.3663 H         1 E7B         0.0257
     61 H6         13.1382   25.8476  -14.3238 H         1 E7B         0.0257
     62 H7         13.1543   24.0999  -14.7386 H         1 E7B         0.0257
     63 H8         14.9124   26.6977  -12.5302 H         1 E7B         0.0294
     64 H9         16.1325   26.1645  -13.7359 H         1 E7B         0.0294
     65 H10        17.1199   24.6121  -12.0616 H         1 E7B         0.0292
     66 H11        15.8891   25.1206  -10.8560 H         1 E7B         0.0292
     67 H12        16.7144   27.4459  -10.9750 H         1 E7B         0.0600
     68 H13        19.1031   25.6050  -10.5952 H         1 E7B         0.0323
     69 H14        18.6109   25.6783   -8.1743 H         1 E7B         0.0233
     70 H15        17.3052   24.8791   -9.1140 H         1 E7B         0.0233
     71 H16        17.0833   26.5589   -8.5175 H         1 E7B         0.0233
     72 H17        20.0563   27.4411   -9.2693 H         1 E7B         0.0270
     73 H18        18.6007   28.4464   -9.5814 H         1 E7B         0.0270
     74 H19        20.6224   27.4014  -11.6465 H         1 E7B         0.0317
     75 H20        20.3417   29.1101  -11.1689 H         1 E7B         0.0317
     76 H21        19.9888   27.7058  -14.1469 H         1 E7B         0.0317
     77 H22        20.2137   29.4041  -13.6064 H         1 E7B         0.0317
     78 H23        17.8796   28.2069  -15.1574 H         1 E7B         0.0270
     79 H24        19.0215   29.4922  -15.6776 H         1 E7B         0.0270
     80 H25        16.6608   30.1764  -14.9656 H         1 E7B         0.0323
     81 H26        17.3980   32.2737  -13.8846 H         1 E7B         0.0233
     82 H27        18.3867   31.8357  -15.3189 H         1 E7B         0.0233
     83 H28        19.0353   31.5685  -13.6653 H         1 E7B         0.0233
     84 H29        16.2658   28.8731  -13.0593 H         1 E7B         0.0602
     85 H30        16.8399   31.6982  -12.0252 H         1 E7B         0.0323
     86 H31        15.2074   31.1586  -10.2174 H         1 E7B         0.0233
     87 H32        16.6533   30.0949  -10.1504 H         1 E7B         0.0233
     88 H33        15.1079   29.4689  -10.8187 H         1 E7B         0.0233
     89 H34        14.3313   30.3925  -13.1879 H         1 E7B         0.0269
     90 H35        15.2997   31.7228  -13.9086 H         1 E7B         0.0269
     91 H36        14.7147   33.0391  -11.7449 H         1 E7B         0.0292
     92 H37        13.4479   31.7889  -11.5021 H         1 E7B         0.0292
     93 H38        12.6929   32.3057  -13.9173 H         1 E7B         0.0622
     94 H39        14.3467   34.5946  -13.4060 H         1 E7B         0.2100
     95 H40        12.5525   34.3658  -11.6669 H         1 E7B         0.0552
     96 H41        10.2788   33.3855  -11.2881 H         1 E7B         0.0258
     97 H42        11.5611   32.1377  -11.1293 H         1 E7B         0.0258
     98 H43        10.5616   32.2138  -12.6200 H         1 E7B         0.0258
     99 H44        12.4385   36.5355  -12.9170 H         1 E7B         0.0520
    100 H45        10.8971   36.3068  -12.0234 H         1 E7B         0.0520
    101 H46         9.7131   36.7304  -14.2283 H         1 E7B         0.0646
    102 H47         9.9396   38.2371  -12.4896 H         1 E7B         0.2101
    103 H48        11.5177   36.4803  -15.8527 H         1 E7B         0.0653
    104 H49        14.0127   39.5197  -14.4253 H         1 E7B         0.0524
    105 H50        12.4209   39.3292  -13.6151 H         1 E7B         0.0524
    106 H51        12.5024   39.9386  -15.3029 H         1 E7B         0.0524
    107 H52        10.6177   39.4064  -15.6906 H         1 E7B         0.0679
    108 H53         9.6772   38.2036  -18.0749 H         1 E7B         0.0325
    109 H54        11.6631   37.7373  -19.4315 H         1 E7B         0.0233
    110 H55        11.3849   36.5460  -18.1163 H         1 E7B         0.0233
    111 H56        12.6673   37.7918  -17.9432 H         1 E7B         0.0233
    112 H57        10.0403   40.5915  -17.6361 H         1 E7B         0.0233
    113 H58        10.6539   40.0400  -19.2316 H         1 E7B         0.0233
    114 H59        11.8019   40.3432  -17.8838 H         1 E7B         0.0233
    115 H60         6.9539   36.8391  -16.1367 H         1 E7B         0.0566
    116 H61         6.2508   38.2746  -16.9562 H         1 E7B         0.0566
    117 H62         5.6892   39.2697  -14.7486 H         1 E7B         0.0769
    118 H63         4.8978   36.5159  -15.0435 H         1 E7B         0.2131
    119 H64         6.2142   40.3267  -13.6163 H         1 E7B         0.0377
    120 H65         7.6676   40.6225  -12.6031 H         1 E7B         0.0377
    121 H66         6.0593   40.4200  -11.8291 H         1 E7B         0.0377
@<TRIPOS>BOND
     1    1    2 1  
     2    2    3 2  
     3    2    4 1  
     4    4    5 1  
     5    4    6 1  
     6    6    7 1  
     7    7    8 1  
     8    8    9 1  
     9    8   10 1  
    10    9   14 1  
    11   10   11 1  
    12   10   12 1  
    13   12   13 1  
    14   13   14 1  
    15   14   15 1  
    16   14   16 1  
    17   15   20 1  
    18   16   17 1  
    19   17   18 1  
    20   18   19 1  
    21   18   20 1  
    22   20   21 1  
    23   21   22 1  
    24   21   23 1  
    25   23   24 1  
    26   24   25 1  
    27   25   26 1  
    28   25   27 1  
    29   27   28 1  
    30   27   29 1  
    31   29   30 2  
    32   29   31 1  
    33   31   32 1  
    34   32   33 1  
    35   32   34 1  
    36   34   35 1  
    37   34   37 1  
    38   35   36 1  
    39   37   38 1  
    40   37   41 1  
    41   38   39 1  
    42   38   40 1  
    43   41   42 1  
    44   42   43 2  
    45   42   44 1  
    46   44   45 1  
    47   45   46 1  
    48   45   47 1  
    49   47   48 1  
    50   47   51 2  
    51   48   49 ar 
    52   48   50 ar 
    53   51   52 1  
    54   51   53 1  
    55   53   54 ar 
    56   53   55 ar 
    57    1   56 1  
    58    1   57 1  
    59    1   58 1  
    60    4   59 1  
    61    5   60 1  
    62    5   61 1  
    63    5   62 1  
    64    6   63 1  
    65    6   64 1  
    66    7   65 1  
    67    7   66 1  
    68    8   67 1  
    69   10   68 1  
    70   11   69 1  
    71   11   70 1  
    72   11   71 1  
    73   12   72 1  
    74   12   73 1  
    75   13   74 1  
    76   13   75 1  
    77   16   76 1  
    78   16   77 1  
    79   17   78 1  
    80   17   79 1  
    81   18   80 1  
    82   19   81 1  
    83   19   82 1  
    84   19   83 1  
    85   20   84 1  
    86   21   85 1  
    87   22   86 1  
    88   22   87 1  
    89   22   88 1  
    90   23   89 1  
    91   23   90 1  
    92   24   91 1  
    93   24   92 1  
    94   25   93 1  
    95   26   94 1  
    96   27   95 1  
    97   28   96 1  
    98   28   97 1  
    99   28   98 1  
   100   31   99 1  
   101   31  100 1  
   102   32  101 1  
   103   33  102 1  
   104   34  103 1  
   105   36  104 1  
   106   36  105 1  
   107   36  106 1  
   108   37  107 1  
   109   38  108 1  
   110   39  109 1  
   111   39  110 1  
   112   39  111 1  
   113   40  112 1  
   114   40  113 1  
   115   40  114 1  
   116   44  115 1  
   117   44  116 1  
   118   45  117 1  
   119   46  118 1  
   120   52  119 1  
   121   52  120 1  
   122   52  121 1  
@<TRIPOS>SUBSTRUCTURE
     1 E7B         1

