### 
### Created by X-TOOL on Mon Sep 10 21:12:58 2018
### 

@<TRIPOS>MOLECULE
2pj0_ligand
   59    60     1     0     0
SMALL
GAST_HUCK


@<TRIPOS>ATOM
      1 C37        38.6870   14.5670   67.3650 C.ar      1 922        -0.0578
      2 C38        39.9380   14.1510   67.9020 C.ar      1 922        -0.0685
      3 C39        40.8610   13.4390   67.0930 C.ar      1 922        -0.0687
      4 C40        40.5370   13.1390   65.7450 C.ar      1 922        -0.0685
      5 C41        39.2900   13.5520   65.2080 C.ar      1 922        -0.0578
      6 C36        38.3600   14.2720   66.0150 C.ar      1 922        -0.0130
      7 C33        37.1500   14.7290   65.4560 C.3       1 922         0.1113
      8 O32        37.1350   15.0010   64.0360 O.3       1 922        -0.2506
      9 C30        35.9480   14.8540   63.3630 C.2       1 922         0.3231
     10 O31        34.8630   14.7340   63.9620 O.2       1 922        -0.3774
     11 N29        36.0470   14.9570   62.0370 N.am      1 922        -0.2412
     12 C25        34.9080   14.8150   61.1230 C.3       1 922         0.1353
     13 C26        34.8860   15.9870   60.1150 C.3       1 922        -0.0051
     14 C28        34.5090   17.2870   60.8440 C.3       1 922        -0.0590
     15 C27        36.2170   16.1610   59.3750 C.3       1 922        -0.0590
     16 P24        34.9480   13.1490   60.3520 P.3       1 922         0.1520
     17 O34        33.8970   13.0710   59.3160 O.co2     1 922        -0.6186
     18 O35        34.8880   12.1920   61.4770 O.co2     1 922        -0.6186
     19 O23        36.3790   13.0070   59.6460 O.3       1 922        -0.2435
     20 C1         36.7480   11.7020   59.1790 C.3       1 922         0.2349
     21 C2         37.3180   10.8640   60.3320 C.2       1 922         0.3908
     22 O14        36.9740    9.6620   60.3670 O.co2     1 922        -0.2562
     23 O13        38.0490   11.4480   61.1630 O.co2     1 922        -0.2562
     24 C3         37.7330   11.7600   57.9850 C.ar      1 922         0.0004
     25 C8         38.3780   10.5760   57.5780 C.ar      1 922        -0.0331
     26 C4         37.9610   12.9650   57.2590 C.ar      1 922        -0.0664
     27 C5         38.8320   12.9580   56.1380 C.ar      1 922        -0.0769
     28 C6         39.4780   11.7550   55.7410 C.ar      1 922        -0.0455
     29 C7         39.2510   10.5580   56.4650 C.ar      1 922         0.0445
     30 N9         39.8550    9.4010   56.0920 N.pl3     1 922        -0.3025
     31 C10        40.5250    8.5940   56.9590 C.cat     1 922         0.1283
     32 N12        40.9510    9.0460   58.1490 N.pl3     1 922        -0.3577
     33 N11        40.7940    7.3350   56.6140 N.pl3     1 922        -0.3577
     34 H1         37.9838   15.1091   67.9868 H         1 922         0.0557
     35 H2         40.1863   14.3789   68.9323 H         1 922         0.0599
     36 H3         41.8131   13.1245   67.5048 H         1 922         0.0559
     37 H4         41.2410   12.5949   65.1258 H         1 922         0.0599
     38 H5         39.0428   13.3190   64.1786 H         1 922         0.0557
     39 H6         36.8784   15.6609   65.9735 H         1 922         0.0776
     40 H7         36.3851   13.9635   65.6536 H         1 922         0.0776
     41 H8         36.9478   15.1413   61.6437 H         1 922         0.1887
     42 H9         33.9832   14.8790   61.7151 H         1 922         0.0788
     43 H10        34.1108   15.7724   59.3646 H         1 922         0.0334
     44 H11        34.4940   18.1194   60.1250 H         1 922         0.0234
     45 H12        35.2500   17.4948   61.6300 H         1 922         0.0234
     46 H13        33.5133   17.1771   61.2985 H         1 922         0.0234
     47 H14        36.4744   15.2246   58.8584 H         1 922         0.0234
     48 H15        37.0082   16.4108   60.0972 H         1 922         0.0234
     49 H16        36.1236   16.9724   58.6382 H         1 922         0.0234
     50 H17        35.8324   11.2058   58.8248 H         1 922         0.1046
     51 H18        38.2018    9.6593   58.1291 H         1 922         0.0482
     52 H19        37.4712   13.8834   57.5616 H         1 922         0.0471
     53 H20        39.0052   13.8728   55.5828 H         1 922         0.0573
     54 H21        40.1435   11.7535   54.8853 H         1 922         0.0487
     55 H22        39.8036    9.1196   55.1025 H         1 922         0.1952
     56 H23        41.4561    8.4160   58.7884 H         1 922         0.1636
     57 H24        40.7727   10.0228   58.4227 H         1 922         0.1636
     58 H25        40.4751    6.9708   55.7048 H         1 922         0.1636
     59 H26        41.3208    6.7263   57.2565 H         1 922         0.1636
@<TRIPOS>BOND
     1    1    2 ar 
     2    1    6 ar 
     3    2    3 ar 
     4    3    4 ar 
     5    4    5 ar 
     6    5    6 ar 
     7    6    7 1  
     8    7    8 1  
     9    8    9 1  
    10    9   10 2  
    11    9   11 am 
    12   11   12 1  
    13   12   13 1  
    14   12   16 1  
    15   13   14 1  
    16   13   15 1  
    17   16   17 ar 
    18   16   18 ar 
    19   16   19 1  
    20   19   20 1  
    21   20   21 1  
    22   20   24 1  
    23   21   22 ar 
    24   21   23 ar 
    25   24   25 ar 
    26   24   26 ar 
    27   25   29 ar 
    28   26   27 ar 
    29   27   28 ar 
    30   28   29 ar 
    31   29   30 1  
    32   30   31 ar 
    33   31   32 ar 
    34   31   33 ar 
    35    1   34 1  
    36    2   35 1  
    37    3   36 1  
    38    4   37 1  
    39    5   38 1  
    40    7   39 1  
    41    7   40 1  
    42   11   41 1  
    43   12   42 1  
    44   13   43 1  
    45   14   44 1  
    46   14   45 1  
    47   14   46 1  
    48   15   47 1  
    49   15   48 1  
    50   15   49 1  
    51   20   50 1  
    52   25   51 1  
    53   26   52 1  
    54   27   53 1  
    55   28   54 1  
    56   30   55 1  
    57   32   56 1  
    58   32   57 1  
    59   33   58 1  
    60   33   59 1  
@<TRIPOS>SUBSTRUCTURE
     1 922         1

