2pj0_ligand
  -I-interpret- 

 60 61  0  0  0  0  0  0  0  0999 V2000
   38.6870   14.5670   67.3650 C   0  0  0  0  0
   39.9380   14.1510   67.9020 C   0  0  0  0  0
   40.8610   13.4390   67.0930 C   0  0  0  0  0
   40.5370   13.1390   65.7450 C   0  0  0  0  0
   39.2900   13.5520   65.2080 C   0  0  0  0  0
   38.3600   14.2720   66.0150 C   0  0  0  0  0
   37.1500   14.7290   65.4560 C   0  0  0  0  0
   37.1350   15.0010   64.0360 O   0  0  0  0  0
   35.9480   14.8540   63.3630 C   0  0  0  0  0
   34.8630   14.7340   63.9620 O   0  0  0  0  0
   36.0470   14.9570   62.0370 N   0  0  0  0  0
   34.9080   14.8150   61.1230 C   0  0  0  0  0
   34.8860   15.9870   60.1150 C   0  0  0  0  0
   34.5090   17.2870   60.8440 C   0  0  0  0  0
   36.2170   16.1610   59.3750 C   0  0  0  0  0
   34.9480   13.1490   60.3520 P   0  0  0  0  0
   33.8970   13.0710   59.3160 O   0  0  0  0  0
   34.8880   12.1920   61.4770 O   0  0  0  0  0
   36.3790   13.0070   59.6460 O   0  0  0  0  0
   36.7480   11.7020   59.1790 C   0  0  0  0  0
   37.3180   10.8640   60.3320 C   0  0  0  0  0
   36.9740    9.6620   60.3670 O   0  0  0  0  0
   38.0490   11.4480   61.1630 O   0  0  0  0  0
   37.7330   11.7600   57.9850 C   0  0  0  0  0
   38.3780   10.5760   57.5780 C   0  0  0  0  0
   37.9610   12.9650   57.2590 C   0  0  0  0  0
   38.8320   12.9580   56.1380 C   0  0  0  0  0
   39.4780   11.7550   55.7410 C   0  0  0  0  0
   39.2510   10.5580   56.4650 C   0  0  0  0  0
   39.8550    9.4010   56.0920 N   0  0  0  0  0
   40.5250    8.5940   56.9590 C   0  0  0  0  0
   40.9510    9.0460   58.1490 N   0  0  0  0  0
   40.7940    7.3350   56.6140 N   0  0  0  0  0
   37.9799   15.1121   67.9903 H   0  0  0  0  0
   40.1877   14.3802   68.9380 H   0  0  0  0  0
   41.8184   13.1228   67.5071 H   0  0  0  0  0
   41.2449   12.5919   65.1224 H   0  0  0  0  0
   39.0415   13.3177   64.1729 H   0  0  0  0  0
   36.9433   15.6831   65.9409 H   0  0  0  0  0
   36.4319   13.9234   65.6092 H   0  0  0  0  0
   36.9658   15.1450   61.6359 H   0  0  0  0  0
   33.9638   14.8782   61.6639 H   0  0  0  0  0
   34.1371   15.7508   59.3590 H   0  0  0  0  0
   33.5223   17.1767   61.2939 H   0  0  0  0  0
   35.2439   17.4917   61.6225 H   0  0  0  0  0
   34.4944   18.1110   60.1306 H   0  0  0  0  0
   37.0096   16.3575   60.0969 H   0  0  0  0  0
   36.4454   15.2501   58.8217 H   0  0  0  0  0
   36.1391   16.9987   58.6820 H   0  0  0  0  0
   35.6244   12.3523   62.0716 H   0  0  0  0  0
   35.8437   11.2180   58.8102 H   0  0  0  0  0
   38.1568   12.3659   60.9033 H   0  0  0  0  0
   38.2008    9.6543   58.1322 H   0  0  0  0  0
   37.4685   13.8885   57.5633 H   0  0  0  0  0
   39.0062   13.8778   55.5797 H   0  0  0  0  0
   40.1472   11.7535   54.8806 H   0  0  0  0  0
   39.8041    9.1223   55.1121 H   0  0  0  0  0
   41.4714    8.4288   58.7724 H   0  0  0  0  0
   40.7543   10.0067   58.4298 H   0  0  0  0  0
   40.4980    6.9811   55.7043 H   0  0  0  0  0
  1  2  4  0  0  0
  1  6  4  0  0  0
  2  3  4  0  0  0
  3  4  4  0  0  0
  4  5  4  0  0  0
  5  6  4  0  0  0
  6  7  1  0  0  0
  7  8  1  0  0  0
  8  9  1  0  0  0
  9 10  2  0  0  0
  9 11  1  0  0  0
 11 12  1  0  0  0
 12 13  1  0  0  0
 12 16  1  0  0  0
 13 14  1  0  0  0
 13 15  1  0  0  0
 16 17  2  0  0  0
 16 18  1  0  0  0
 16 19  1  0  0  0
 19 20  1  0  0  0
 20 21  1  0  0  0
 20 24  1  0  0  0
 21 22  2  0  0  0
 21 23  1  0  0  0
 24 25  4  0  0  0
 24 26  4  0  0  0
 25 29  4  0  0  0
 26 27  4  0  0  0
 27 28  4  0  0  0
 28 29  4  0  0  0
 29 30  1  0  0  0
 30 31  1  0  0  0
 31 32  1  0  0  0
 31 33  2  0  0  0
  1 34  1  0  0  0
  2 35  1  0  0  0
  3 36  1  0  0  0
  4 37  1  0  0  0
  5 38  1  0  0  0
  7 39  1  0  0  0
  7 40  1  0  0  0
 11 41  1  0  0  0
 12 42  1  0  0  0
 13 43  1  0  0  0
 14 44  1  0  0  0
 14 45  1  0  0  0
 14 46  1  0  0  0
 15 47  1  0  0  0
 15 48  1  0  0  0
 15 49  1  0  0  0
 18 50  1  0  0  0
 20 51  1  0  0  0
 23 52  1  0  0  0
 25 53  1  0  0  0
 26 54  1  0  0  0
 27 55  1  0  0  0
 28 56  1  0  0  0
 30 57  1  0  0  0
 32 58  1  0  0  0
 32 59  1  0  0  0
 33 60  1  0  0  0
M  END
$$$$
