3sbi_ligand
  -I-interpret- 

 31 32  0  0  0  0  0  0  0  0999 V2000
   -1.4790    7.6830   14.3790 N   0  0  0  0  0
   -1.4180    7.8330   13.0180 C   0  0  0  0  0
   -1.1600    8.9920   12.3710 N   0  0  0  0  0
   -0.9880   10.1100   13.1510 C   0  0  0  0  0
   -0.9810   10.0090   14.5590 C   0  0  0  0  0
   -1.3000    8.7590   15.1460 C   0  0  0  0  0
   -1.5940    6.5000   11.9640 S   0  0  0  0  0
   -2.1290    5.1910   13.1300 C   0  0  0  0  0
   -3.6070    5.3290   13.5370 C   0  0  0  0  0
   -4.3230    6.2820   13.1760 O   0  0  0  0  0
   -4.2050    4.2530   14.3930 C   0  0  0  0  0
   -3.4050    3.1720   14.8040 C   0  0  0  0  0
   -3.9480    2.1640   15.5630 C   0  0  0  0  0
   -5.3020    2.2080   15.8730 C   0  0  0  0  0
   -6.1250    3.2320   15.4790 C   0  0  0  0  0
   -5.5450    4.2850   14.7680 C   0  0  0  0  0
   -5.9470    0.8670   16.8390 S   0  0  0  0  0
   -5.3920    1.0640   18.1650 O   0  0  0  0  0
   -7.4020    0.9580   16.7000 O   0  0  0  0  0
   -5.3270   -0.5120   16.2250 N   0  0  0  0  0
   -0.8558   11.0833   12.6785 H   0  0  0  0  0
   -0.7363   10.8711   15.1795 H   0  0  0  0  0
   -1.3994    8.6769   16.2284 H   0  0  0  0  0
   -1.5232    5.2772   14.0320 H   0  0  0  0  0
   -2.0063    4.2286   12.6332 H   0  0  0  0  0
   -2.3533    3.1339   14.5201 H   0  0  0  0  0
   -3.3261    1.3418   15.9169 H   0  0  0  0  0
   -7.1899    3.2243   15.7116 H   0  0  0  0  0
   -6.1538    5.1490   14.5015 H   0  0  0  0  0
   -4.6667   -1.0629   16.7736 H   0  0  0  0  0
   -5.5998   -0.8230   15.2927 H   0  0  0  0  0
  1  2  4  0  0  0
  1  6  4  0  0  0
  2  3  4  0  0  0
  2  7  1  0  0  0
  3  4  4  0  0  0
  4  5  4  0  0  0
  5  6  4  0  0  0
  7  8  1  0  0  0
  8  9  1  0  0  0
  9 10  2  0  0  0
  9 11  1  0  0  0
 11 12  4  0  0  0
 11 16  4  0  0  0
 12 13  4  0  0  0
 13 14  4  0  0  0
 14 15  4  0  0  0
 14 17  1  0  0  0
 15 16  4  0  0  0
 17 18  2  0  0  0
 17 19  2  0  0  0
 17 20  1  0  0  0
  4 21  1  0  0  0
  5 22  1  0  0  0
  6 23  1  0  0  0
  8 24  1  0  0  0
  8 25  1  0  0  0
 12 26  1  0  0  0
 13 27  1  0  0  0
 15 28  1  0  0  0
 16 29  1  0  0  0
 20 30  1  0  0  0
 20 31  1  0  0  0
M  END
$$$$
