5wef_ligand
  -I-interpret- 

 56 59  0  0  0  0  0  0  0  0999 V2000
   -8.4800   79.7100   14.9230 C   0  0  0  0  0
   -9.8420   79.9840   16.8090 C   0  0  0  0  0
  -10.2500   78.6780   16.7520 C   0  0  0  0  0
   -9.6980   77.8350   15.7630 C   0  0  0  0  0
  -10.2980   80.9250   17.9000 C   0  0  0  0  0
   -9.9170   83.0670   18.9970 C   0  0  0  0  0
   -9.2110   84.3900   18.8140 C   0  0  0  0  0
   -5.7470   81.2500   15.2480 C   0  0  0  0  0
   -6.0300   80.0460   14.3630 C   0  0  0  0  0
   -7.4850   80.2850   13.9270 C   0  0  0  0  0
   -6.3570   82.3950   14.4480 C   0  0  0  0  0
   -8.5570   82.4100   13.2130 C   0  0  0  0  0
   -8.3020   86.6670   12.5990 C   0  0  0  0  0
   -9.1520   86.1850   13.5660 C   0  0  0  0  0
   -9.2500   84.8210   13.7820 C   0  0  0  0  0
   -8.4880   83.9060   13.0420 C   0  0  0  0  0
   -7.6390   84.4400   12.0710 C   0  0  0  0  0
   -7.5460   85.8030   11.8460 C   0  0  0  0  0
   -5.1260   83.8220   17.6310 C   0  0  0  0  0
   -5.8760   84.8280   17.0620 C   0  0  0  0  0
   -7.1940   85.0280   17.4480 C   0  0  0  0  0
   -7.7700   84.2100   18.4100 C   0  0  0  0  0
   -7.0020   83.1960   18.9670 C   0  0  0  0  0
   -5.6830   83.0080   18.5870 C   0  0  0  0  0
   -8.9610   80.4880   15.9150 N   0  0  0  0  0
   -8.8170   78.3980   14.8660 N   0  0  0  0  0
   -9.7550   82.1510   17.8660 N   0  0  0  0  0
   -7.5290   81.7720   13.8050 N   0  0  0  0  0
  -11.0970   78.0910   17.6220 O   0  0  0  0  0
  -10.0100   76.6510   15.6150 O   0  0  0  0  0
  -11.0070   80.5280   18.8290 O   0  0  0  0  0
   -9.5670   81.7990   12.8470 O   0  0  0  0  0
  -10.3490   84.2960   15.0250 Cl  0  0  0  0  0
   -6.6590   83.3910   11.0910 Cl  0  0  0  0  0
  -10.9820   83.2772   19.0959 H   0  0  0  0  0
   -9.4820   82.5841   19.8720 H   0  0  0  0  0
   -9.2345   84.9232   19.7644 H   0  0  0  0  0
   -9.7202   84.9416   18.0237 H   0  0  0  0  0
   -4.6858   81.3897   15.4540 H   0  0  0  0  0
   -6.1691   81.1544   16.2484 H   0  0  0  0  0
   -5.8902   79.0959   14.8786 H   0  0  0  0  0
   -5.3412   79.9638   13.5222 H   0  0  0  0  0
   -7.7687   79.7849   13.0010 H   0  0  0  0  0
   -5.6598   82.8216   13.7269 H   0  0  0  0  0
   -6.6243   83.2477   15.0722 H   0  0  0  0  0
   -8.2278   87.7411   12.4291 H   0  0  0  0  0
   -9.7482   86.8760   14.1620 H   0  0  0  0  0
   -6.8770   86.1875   11.0761 H   0  0  0  0  0
   -4.0913   83.6722   17.3227 H   0  0  0  0  0
   -5.4309   85.4715   16.3031 H   0  0  0  0  0
   -7.7779   85.8291   16.9948 H   0  0  0  0  0
   -7.4438   82.5376   19.7149 H   0  0  0  0  0
   -5.0893   82.2169   19.0451 H   0  0  0  0  0
   -8.4070   77.8117   14.1390 H   0  0  0  0  0
   -9.2253   82.4475   17.0463 H   0  0  0  0  0
  -11.2271   77.1736   17.3707 H   0  0  0  0  0
  1 10  1  0  0  0
 25  1  2  0  0  0
  1 26  1  0  0  0
  2  3  2  0  0  0
  5  2  1  0  0  0
  2 25  1  0  0  0
  3  4  1  0  0  0
  3 29  1  0  0  0
  4 26  1  0  0  0
  4 30  2  0  0  0
 27  5  1  0  0  0
  5 31  2  0  0  0
  7  6  1  0  0  0
  6 27  1  0  0  0
 22  7  1  0  0  0
  9  8  1  0  0  0
 11  8  1  0  0  0
 10  9  1  0  0  0
 10 28  1  0  0  0
 28 11  1  0  0  0
 12 16  1  0  0  0
 28 12  1  0  0  0
 12 32  2  0  0  0
 14 13  4  0  0  0
 18 13  4  0  0  0
 15 14  4  0  0  0
 16 15  4  0  0  0
 15 33  1  0  0  0
 16 17  4  0  0  0
 17 18  4  0  0  0
 17 34  1  0  0  0
 20 19  4  0  0  0
 19 24  4  0  0  0
 21 20  4  0  0  0
 21 22  4  0  0  0
 22 23  4  0  0  0
 23 24  4  0  0  0
  6 35  1  0  0  0
  6 36  1  0  0  0
  7 37  1  0  0  0
  7 38  1  0  0  0
  8 39  1  0  0  0
  8 40  1  0  0  0
  9 41  1  0  0  0
  9 42  1  0  0  0
 10 43  1  0  0  0
 11 44  1  0  0  0
 11 45  1  0  0  0
 13 46  1  0  0  0
 14 47  1  0  0  0
 18 48  1  0  0  0
 19 49  1  0  0  0
 20 50  1  0  0  0
 21 51  1  0  0  0
 23 52  1  0  0  0
 24 53  1  0  0  0
 26 54  1  0  0  0
 27 55  1  0  0  0
 29 56  1  0  0  0
M  END
$$$$
