5ap1_ligand
  -I-interpret- 

 57 60  0  0  0  0  0  0  0  0999 V2000
    0.2040  -20.2980  -53.0150 N   0  0  0  0  0
   -0.9240  -20.3070  -52.8030 C   0  0  0  0  0
   -2.3520  -20.3150  -52.5400 C   0  0  0  0  0
   -2.5940  -19.0980  -51.8330 O   0  0  0  0  0
   -2.0900  -18.9440  -50.5360 C   0  0  0  0  0
   -2.1480  -17.6760  -49.9790 C   0  0  0  0  0
   -2.6880  -16.5540  -50.6860 C   0  0  0  0  0
   -3.4830  -16.5460  -51.8240 C   0  0  0  0  0
   -2.5110  -15.1890  -50.3280 C   0  0  0  0  0
   -3.1600  -14.3830  -51.1950 N   0  0  0  0  0
   -3.7420  -15.2170  -52.0910 N   0  0  0  0  0
   -4.5450  -14.7130  -53.2010 C   0  0  0  0  0
   -1.5650  -20.0280  -49.8190 C   0  0  0  0  0
   -1.0940  -19.8370  -48.5350 C   0  0  0  0  0
   -1.1520  -18.5620  -47.9610 C   0  0  0  0  0
   -1.6700  -17.5080  -48.6790 C   0  0  0  0  0
   -0.5240  -20.8770  -47.7820 N   0  0  0  0  0
    0.2760  -20.8310  -46.6580 C   0  0  0  0  0
    0.6210  -19.6370  -46.1320 N   0  0  0  0  0
    1.4590  -19.6670  -45.0540 C   0  0  0  0  0
    1.9570  -20.8740  -44.5130 C   0  0  0  0  0
    2.8600  -20.8790  -43.4410 C   0  0  0  0  0
    3.6010  -20.8750  -42.5660 N   0  0  0  0  0
    1.5570  -22.0750  -45.0770 C   0  0  0  0  0
    0.7110  -22.0780  -46.1490 C   0  0  0  0  0
    1.7950  -18.4750  -44.4910 N   0  0  0  0  0
    1.3020  -17.1980  -44.9970 C   0  0  0  0  0
    2.3630  -16.1130  -44.7800 C   0  0  0  0  0
    1.8580  -14.7340  -45.1730 C   0  0  0  0  0
    0.5970  -14.3900  -44.3980 C   0  0  0  0  0
   -0.4800  -15.4270  -44.6730 C   0  0  0  0  0
    0.0090  -16.8110  -44.2690 C   0  0  0  0  0
   -2.6557  -21.1889  -51.9636 H   0  0  0  0  0
   -2.9356  -20.3760  -53.4586 H   0  0  0  0  0
   -3.8307  -17.4105  -52.3896 H   0  0  0  0  0
   -1.9318  -14.8418  -49.4724 H   0  0  0  0  0
   -4.0991  -15.0301  -54.1437 H   0  0  0  0  0
   -5.5574  -15.1096  -53.1248 H   0  0  0  0  0
   -4.5760  -13.6242  -53.1604 H   0  0  0  0  0
   -1.5286  -21.0181  -50.2733 H   0  0  0  0  0
   -0.7873  -18.4037  -46.9461 H   0  0  0  0  0
   -1.7076  -16.5194  -48.2214 H   0  0  0  0  0
   -0.7350  -21.8161  -48.1197 H   0  0  0  0  0
    1.9177  -23.0174  -44.6649 H   0  0  0  0  0
    0.3803  -23.0137  -46.5997 H   0  0  0  0  0
    2.4167  -18.4737  -43.6824 H   0  0  0  0  0
    1.0953  -17.2922  -46.0631 H   0  0  0  0  0
    3.2249  -16.3503  -45.4036 H   0  0  0  0  0
    2.6176  -16.0930  -43.7203 H   0  0  0  0  0
    1.6313  -14.7298  -46.2392 H   0  0  0  0  0
    2.6271  -13.9962  -44.9445 H   0  0  0  0  0
    0.2394  -13.4092  -44.7113 H   0  0  0  0  0
    0.8223  -14.3805  -43.3316 H   0  0  0  0  0
   -0.7123  -15.4270  -45.7380 H   0  0  0  0  0
   -1.3701  -15.1797  -44.0945 H   0  0  0  0  0
    0.2103  -16.8023  -43.1978 H   0  0  0  0  0
   -0.7612  -17.5355  -44.5335 H   0  0  0  0  0
  1  2  3  0  0  0
  2  3  1  0  0  0
  3  4  1  0  0  0
  4  5  1  0  0  0
  5  6  4  0  0  0
  5 13  4  0  0  0
  6  7  1  0  0  0
  6 16  4  0  0  0
  7  8  4  0  0  0
  7  9  4  0  0  0
  8 11  4  0  0  0
  9 10  4  0  0  0
 10 11  4  0  0  0
 11 12  1  0  0  0
 13 14  4  0  0  0
 14 15  4  0  0  0
 14 17  1  0  0  0
 15 16  4  0  0  0
 17 18  1  0  0  0
 18 19  4  0  0  0
 18 25  4  0  0  0
 19 20  4  0  0  0
 20 21  4  0  0  0
 20 26  1  0  0  0
 21 22  1  0  0  0
 21 24  4  0  0  0
 22 23  3  0  0  0
 24 25  4  0  0  0
 26 27  1  0  0  0
 27 28  1  0  0  0
 27 32  1  0  0  0
 28 29  1  0  0  0
 29 30  1  0  0  0
 30 31  1  0  0  0
 31 32  1  0  0  0
  3 33  1  0  0  0
  3 34  1  0  0  0
  8 35  1  0  0  0
  9 36  1  0  0  0
 12 37  1  0  0  0
 12 38  1  0  0  0
 12 39  1  0  0  0
 13 40  1  0  0  0
 15 41  1  0  0  0
 16 42  1  0  0  0
 17 43  1  0  0  0
 24 44  1  0  0  0
 25 45  1  0  0  0
 26 46  1  0  0  0
 27 47  1  0  0  0
 28 48  1  0  0  0
 28 49  1  0  0  0
 29 50  1  0  0  0
 29 51  1  0  0  0
 30 52  1  0  0  0
 30 53  1  0  0  0
 31 54  1  0  0  0
 31 55  1  0  0  0
 32 56  1  0  0  0
 32 57  1  0  0  0
M  END
$$$$
