6chh_ligand
  -I-interpret- 

 72 75  0  0  0  0  0  0  0  0999 V2000
    2.8480    1.8640   -9.5840 C   0  0  0  0  0
   -7.3590   -3.6600   -7.9480 C   0  0  0  0  0
    3.2980    1.3190  -10.7800 C   0  0  0  0  0
    4.6250    0.9420  -10.8920 C   0  0  0  0  0
   -8.7940   -2.2510   -6.5120 C   0  0  0  0  0
   -6.8460   -0.2610   -6.2900 C   0  0  0  0  0
    1.1730    1.7730  -10.9620 C   0  0  0  0  0
   -8.0800   -0.1180   -5.6530 C   0  0  0  0  0
   -9.0580   -1.1070   -5.7630 C   0  0  0  0  0
   -7.5660   -2.3980   -7.1460 C   0  0  0  0  0
   -6.5790   -1.4080   -7.0520 C   0  0  0  0  0
    5.4500    1.1160   -9.8380 N   0  0  0  0  0
   -5.8590    0.8780   -6.1160 C   0  0  0  0  0
    3.7120    2.0250   -8.5610 N   0  0  0  0  0
   -1.6530    2.4520   -1.6420 N   0  3  0  0  0
   -2.8660    3.2340   -1.9910 C   0  0  0  0  0
   -4.1310    2.5450   -1.4800 C   0  0  0  0  0
   -4.0150    1.5760   -0.6980 O   0  0  0  0  0
   -2.8220    3.4850   -3.5120 C   0  0  0  0  0
   -3.0440    1.9860   -5.5570 C   0  0  0  0  0
   -3.6820    1.9360   -6.9000 N   0  3  0  0  0
   -4.7030    0.8740   -7.1160 C   0  0  0  0  0
   -5.2760    2.9590   -1.7770 O   0  0  0  0  0
   -3.7750    2.7580   -4.4580 C   0  0  0  0  0
    0.6660    2.7260   -8.6900 C   0  0  0  0  0
    4.9950    1.6520   -8.6910 C   0  0  0  0  0
   -0.2520    3.8170   -9.2010 C   0  0  0  0  0
   -1.3440    3.8270   -8.1430 C   0  0  0  0  0
   -1.3550    2.3980   -7.5980 C   0  0  0  0  0
   -2.6350    1.6350   -7.8950 C   0  0  0  0  0
   -6.0770   -4.2530   -8.0640 N   0  0  0  0  0
    5.0900    0.3990  -12.0410 N   0  0  0  0  0
    2.2460    1.2640  -11.6200 N   0  0  0  0  0
    1.5480    2.1430   -9.7250 N   0  0  0  0  0
   -8.3240   -4.1560   -8.4950 O   0  0  0  0  0
    0.4700    5.0220   -9.1720 O   0  0  0  0  0
   -0.9560    4.6620   -7.0570 O   0  0  0  0  0
   -0.2460    1.7390   -8.2030 O   0  0  0  0  0
   -9.5503   -3.0309   -6.6010 H   0  0  0  0  0
    0.1672    1.8668  -11.3716 H   0  0  0  0  0
   -8.2817    0.7762   -5.0632 H   0  0  0  0  0
  -10.0208   -0.9852   -5.2667 H   0  0  0  0  0
   -5.6225   -1.5268   -7.5610 H   0  0  0  0  0
   -5.4220    0.7723   -5.1231 H   0  0  0  0  0
   -6.4113    1.8049   -6.2708 H   0  0  0  0  0
   -0.8261    2.9341   -1.9945 H   0  0  0  0  0
   -1.5887    2.3610   -0.6281 H   0  0  0  0  0
   -1.7139    1.5256   -2.0645 H   0  0  0  0  0
   -2.8872    4.2042   -1.4946 H   0  0  0  0  0
   -1.8346    3.1319   -3.8093 H   0  0  0  0  0
   -3.0980    4.5345   -3.6144 H   0  0  0  0  0
   -2.0967    2.5057   -5.7008 H   0  0  0  0  0
   -3.0028    0.9527   -5.2126 H   0  0  0  0  0
   -4.1455    2.8406   -6.9853 H   0  0  0  0  0
   -5.1372    1.0498   -8.1002 H   0  0  0  0  0
   -4.1919   -0.0821   -7.0030 H   0  0  0  0  0
   -5.2000    3.7010   -2.3814 H   0  0  0  0  0
   -4.4046    3.5070   -4.9383 H   0  0  0  0  0
   -4.3467    2.0404   -3.8696 H   0  0  0  0  0
    1.3595    3.1158   -7.9449 H   0  0  0  0  0
    5.6795    1.7856   -7.8533 H   0  0  0  0  0
   -0.6372    3.6790  -10.2113 H   0  0  0  0  0
   -2.2945    4.1695   -8.5521 H   0  0  0  0  0
   -1.2916    2.4318   -6.5104 H   0  0  0  0  0
   -2.9960    1.9330   -8.8794 H   0  0  0  0  0
   -2.4187    0.5673   -7.8588 H   0  0  0  0  0
   -5.9570   -5.1054   -8.6112 H   0  0  0  0  0
   -5.2744   -3.8274   -7.6003 H   0  0  0  0  0
    4.4611    0.2649  -12.8328 H   0  0  0  0  0
    6.0694    0.1239  -12.1153 H   0  0  0  0  0
   -0.0873    5.7354   -9.4915 H   0  0  0  0  0
   -1.6492    4.6641   -6.3929 H   0  0  0  0  0
  1  3  4  0  0  0
  1 14  4  0  0  0
 34  1  4  0  0  0
 10  2  1  0  0  0
  2 31  1  0  0  0
  2 35  2  0  0  0
  3  4  4  0  0  0
 33  3  4  0  0  0
  4 12  4  0  0  0
  4 32  1  0  0  0
  9  5  4  0  0  0
 10  5  4  0  0  0
  6  8  4  0  0  0
  6 11  4  0  0  0
 13  6  1  0  0  0
  7 33  4  0  0  0
 34  7  4  0  0  0
  8  9  4  0  0  0
 11 10  4  0  0  0
 26 12  4  0  0  0
 22 13  1  0  0  0
 14 26  4  0  0  0
 16 15  1  0  0  0
 16 17  1  0  0  0
 19 16  1  0  0  0
 17 18  2  0  0  0
 17 23  1  0  0  0
 24 19  1  0  0  0
 21 20  1  0  0  0
 20 24  1  0  0  0
 21 22  1  0  0  0
 30 21  1  0  0  0
 27 25  1  0  0  0
 25 34  1  0  0  0
 25 38  1  0  0  0
 28 27  1  0  0  0
 27 36  1  0  0  0
 29 28  1  0  0  0
 28 37  1  0  0  0
 29 30  1  0  0  0
 29 38  1  0  0  0
  5 39  1  0  0  0
  7 40  1  0  0  0
  8 41  1  0  0  0
  9 42  1  0  0  0
 11 43  1  0  0  0
 13 44  1  0  0  0
 13 45  1  0  0  0
 15 46  1  0  0  0
 15 47  1  0  0  0
 15 48  1  0  0  0
 16 49  1  0  0  0
 19 50  1  0  0  0
 19 51  1  0  0  0
 20 52  1  0  0  0
 20 53  1  0  0  0
 21 54  1  0  0  0
 22 55  1  0  0  0
 22 56  1  0  0  0
 23 57  1  0  0  0
 24 58  1  0  0  0
 24 59  1  0  0  0
 25 60  1  0  0  0
 26 61  1  0  0  0
 27 62  1  0  0  0
 28 63  1  0  0  0
 29 64  1  0  0  0
 30 65  1  0  0  0
 30 66  1  0  0  0
 31 67  1  0  0  0
 31 68  1  0  0  0
 32 69  1  0  0  0
 32 70  1  0  0  0
 36 71  1  0  0  0
 37 72  1  0  0  0
M  END
$$$$
