4loy_ligand
  -I-interpret- 

 68 71  0  0  0  0  0  0  0  0999 V2000
   17.0380  -11.6380   12.3840 C   0  0  0  0  0
   17.2800  -10.5790   11.5070 C   0  0  0  0  0
   16.6140   -9.4810   11.8610 C   0  0  0  0  0
   16.5920   -7.9440   10.9980 Cl  0  0  0  0  0
   15.7000   -9.6780   13.2890 S   0  0  0  0  0
   16.1850  -11.3120   13.3550 C   0  0  0  0  0
   15.7160  -12.1200   14.4710 C   0  0  0  0  0
   15.0370  -11.5480   15.3220 O   0  0  0  0  0
   15.9570  -13.4370   14.5040 N   0  0  0  0  0
   15.4240  -14.3780   15.5080 C   0  0  0  0  0
   13.9610  -14.7670   15.0720 C   0  0  0  0  0
   13.0180  -13.6080   14.7530 C   0  0  0  0  0
   12.9480  -13.2110   13.5830 O   0  0  0  0  0
   12.2750  -13.0240   15.7090 N   0  0  0  0  0
   12.2810  -13.4150   17.1340 C   0  0  0  0  0
   10.8300  -13.7450   17.4850 C   0  0  0  0  0
   10.0010  -12.5470   17.2640 N   0  3  0  0  0
    8.6300  -12.7950   17.7370 C   0  0  0  0  0
    9.9850  -12.1990   15.8300 C   0  0  0  0  0
   11.4110  -11.8710   15.3700 C   0  0  0  0  0
   13.9860  -15.6300   13.8850 N   0  0  0  0  0
   13.0400  -16.8630   13.7490 S   0  0  0  0  0
   13.3910  -17.5530   12.4850 O   0  0  0  0  0
   13.3910  -17.7510   14.8850 O   0  0  0  0  0
   11.4400  -16.5030   13.7830 C   0  0  0  0  0
   10.6900  -16.0030   12.6830 C   0  0  0  0  0
   11.4330  -15.7200   11.0820 Cl  0  0  0  0  0
   10.7360  -16.6790   14.9930 C   0  0  0  0  0
    9.3660  -16.3740   15.0930 C   0  0  0  0  0
    8.7150  -16.5010   16.2670 F   0  0  0  0  0
    8.6520  -15.8920   13.9820 C   0  0  0  0  0
    9.3170  -15.7010   12.7670 C   0  0  0  0  0
    8.6280  -15.1990   11.6770 N   0  0  0  0  0
    8.5320  -13.7250   11.6150 C   0  0  0  0  0
    7.6990  -13.2220   10.4220 C   0  0  0  0  0
    7.8290  -14.1120    9.1870 C   0  0  0  0  0
    7.3930  -15.5390    9.5340 C   0  0  0  0  0
    8.1260  -16.0760   10.7600 C   0  0  0  0  0
    8.2390  -17.2940   10.8530 O   0  0  0  0  0
   17.4958  -12.6223   12.2856 H   0  0  0  0  0
   17.9347  -10.6429   10.6378 H   0  0  0  0  0
   16.5584  -13.8212   13.7752 H   0  0  0  0  0
   15.4149  -13.9146   16.4945 H   0  0  0  0  0
   16.0517  -15.2673   15.5647 H   0  0  0  0  0
   13.5682  -15.2663   15.9577 H   0  0  0  0  0
   12.6671  -12.6125   17.7625 H   0  0  0  0  0
   12.9338  -14.2707   17.3064 H   0  0  0  0  0
   10.7640  -14.0512   18.5290 H   0  0  0  0  0
   10.4748  -14.5602   16.8547 H   0  0  0  0  0
   10.3985  -11.7669   17.7873 H   0  0  0  0  0
    8.2040  -13.6349   17.1882 H   0  0  0  0  0
    8.6509  -13.0281   18.8016 H   0  0  0  0  0
    8.0230  -11.9051   17.5704 H   0  0  0  0  0
    9.3432  -11.3322   15.6727 H   0  0  0  0  0
    9.6017  -13.0419   15.2550 H   0  0  0  0  0
   11.4285  -11.6892   14.2954 H   0  0  0  0  0
   11.7706  -10.9706   15.8681 H   0  0  0  0  0
   14.6383  -15.4182   13.1300 H   0  0  0  0  0
   11.2639  -17.0588   15.8677 H   0  0  0  0  0
    7.5885  -15.6690   14.0671 H   0  0  0  0  0
    9.5425  -13.3324   11.5016 H   0  0  0  0  0
    8.0405  -13.3870   12.5273 H   0  0  0  0  0
    8.0639  -12.2298   10.1566 H   0  0  0  0  0
    6.6516  -13.2232   10.7238 H   0  0  0  0  0
    8.8671  -14.1211    8.8547 H   0  0  0  0  0
    7.1939  -13.7225    8.3913 H   0  0  0  0  0
    7.6270  -16.1834    8.6866 H   0  0  0  0  0
    6.3252  -15.5264    9.7526 H   0  0  0  0  0
  1  2  4  0  0  0
  1  6  4  0  0  0
  2  3  4  0  0  0
  3  4  1  0  0  0
  3  5  4  0  0  0
  5  6  4  0  0  0
  6  7  1  0  0  0
  7  8  2  0  0  0
  7  9  1  0  0  0
  9 10  1  0  0  0
 10 11  1  0  0  0
 11 12  1  0  0  0
 11 21  1  0  0  0
 12 13  2  0  0  0
 12 14  1  0  0  0
 14 15  1  0  0  0
 14 20  1  0  0  0
 15 16  1  0  0  0
 16 17  1  0  0  0
 17 18  1  0  0  0
 17 19  1  0  0  0
 19 20  1  0  0  0
 21 22  1  0  0  0
 22 23  2  0  0  0
 22 24  2  0  0  0
 22 25  1  0  0  0
 25 26  4  0  0  0
 25 28  4  0  0  0
 26 27  1  0  0  0
 26 32  4  0  0  0
 28 29  4  0  0  0
 29 30  1  0  0  0
 29 31  4  0  0  0
 31 32  4  0  0  0
 32 33  1  0  0  0
 33 34  1  0  0  0
 33 38  1  0  0  0
 34 35  1  0  0  0
 35 36  1  0  0  0
 36 37  1  0  0  0
 37 38  1  0  0  0
 38 39  2  0  0  0
  1 40  1  0  0  0
  2 41  1  0  0  0
  9 42  1  0  0  0
 10 43  1  0  0  0
 10 44  1  0  0  0
 11 45  1  0  0  0
 15 46  1  0  0  0
 15 47  1  0  0  0
 16 48  1  0  0  0
 16 49  1  0  0  0
 17 50  1  0  0  0
 18 51  1  0  0  0
 18 52  1  0  0  0
 18 53  1  0  0  0
 19 54  1  0  0  0
 19 55  1  0  0  0
 20 56  1  0  0  0
 20 57  1  0  0  0
 21 58  1  0  0  0
 28 59  1  0  0  0
 31 60  1  0  0  0
 34 61  1  0  0  0
 34 62  1  0  0  0
 35 63  1  0  0  0
 35 64  1  0  0  0
 36 65  1  0  0  0
 36 66  1  0  0  0
 37 67  1  0  0  0
 37 68  1  0  0  0
M  END
$$$$
