### 
### Created by X-TOOL on Wed Jan  1 15:39:38 2020
### 

@<TRIPOS>MOLECULE
6e86_ligand
  142   141     1     0     0
SMALL
GAST_HUCK


@<TRIPOS>ATOM
      1 N           0.5080    5.3760    4.3740 N.4       1 ALA         0.2377
      2 CA          0.2930    4.2840    3.4210 C.3       1 ALA         0.0621
      3 C          -0.3510    4.7990    2.1440 C.2       1 ALA         0.2264
      4 O          -1.4730    5.3090    2.1720 O.2       1 ALA        -0.3907
      5 CB         -0.5310    3.1430    4.0190 C.3       1 ALA        -0.0040
      6 N           0.3480    4.6010    1.0220 N.am      1 ARG        -0.2610
      7 CA         -0.1280    4.8410   -0.3550 C.3       1 ARG         0.1312
      8 C          -1.3260    3.9660   -0.7750 C.2       1 ARG         0.2040
      9 O          -1.1630    2.8740   -1.3150 O.2       1 ARG        -0.3944
     10 CB          1.0720    4.7750   -1.3400 C.3       1 ARG        -0.0092
     11 CG          1.6690    3.3970   -1.7170 C.3       1 ARG        -0.0156
     12 CD          1.8120    2.3930   -0.5540 C.3       1 ARG         0.0627
     13 NE          2.2520    1.0590   -0.9990 N.pl3     1 ARG        -0.2723
     14 CZ          1.5050    0.1130   -1.5430 C.cat     1 ARG         0.2882
     15 NH1         0.2500    0.2960   -1.8590 N.pl3     1 ARG        -0.2849
     16 NH2         2.0330   -1.0540   -1.7660 N.pl3     1 ARG        -0.2849
     17 N          -2.5390    4.4330   -0.5030 N.am      1 THR        -0.2613
     18 CA         -3.7960    3.8590   -1.0340 C.3       1 THR         0.1565
     19 C          -4.0900    4.3960   -2.4490 C.2       1 THR         0.2065
     20 O          -4.9270    3.8460   -3.1640 O.2       1 THR        -0.3943
     21 CB         -4.9650    4.1630   -0.0840 C.3       1 THR         0.0924
     22 OG1        -5.0210    5.5460    0.1830 O.3       1 THR        -0.3874
     23 CG2        -4.8010    3.4660    1.2640 C.3       1 THR        -0.0346
     24 OH         -0.5810    9.4530   -8.2200 O.2       1 ALY        -0.3974
     25 CH         -1.7680    9.4070   -8.5360 C.2       1 ALY         0.1729
     26 CH3        -2.1570    8.9850   -9.9300 C.3       1 ALY         0.0256
     27 NZ         -2.7710    9.7230   -7.7180 N.am      1 ALY        -0.2872
     28 CE         -2.6200   10.1980   -6.3440 C.3       1 ALY         0.0309
     29 CD         -2.9220    9.0860   -5.3280 C.3       1 ALY        -0.0325
     30 CG         -1.9140    7.9270   -5.3940 C.3       1 ALY        -0.0470
     31 CB         -2.0400    6.9610   -4.2050 C.3       1 ALY        -0.0123
     32 CA         -3.3330    6.1140   -4.1770 C.3       1 ALY         0.1310
     33 N          -3.3690    5.4470   -2.8670 N.am      1 ALY        -0.2637
     34 C          -3.4130    5.1370   -5.3720 C.2       1 ALY         0.2039
     35 O          -2.4470    4.4430   -5.6950 O.2       1 ALY        -0.3944
     36 N          -4.5800    5.0760   -6.0220 N.am      1 GLN        -0.2636
     37 CA         -4.8130    4.2550   -7.2200 C.3       1 GLN         0.1330
     38 C          -4.1790    4.8780   -8.4830 C.2       1 GLN         0.2041
     39 O          -3.9820    6.0920   -8.5610 O.2       1 GLN        -0.3944
     40 CB         -6.3250    4.0290   -7.4160 C.3       1 GLN         0.0045
     41 CG         -7.0120    3.3080   -6.2400 C.3       1 GLN         0.0412
     42 CD         -6.4490    1.9110   -5.9910 C.2       1 GLN         0.1737
     43 OE1        -6.6410    0.9840   -6.7670 O.2       1 GLN        -0.3973
     44 NE2        -5.7330    1.6970   -4.9070 N.am      1 GLN        -0.3009
     45 N          -3.8730    4.0440   -9.4840 N.am      1 THR        -0.2613
     46 CA         -3.3130    4.4460  -10.7900 C.3       1 THR         0.1565
     47 C          -3.6450    3.4130  -11.8860 C.2       1 THR         0.2065
     48 O          -4.0100    2.2720  -11.5810 O.2       1 THR        -0.3943
     49 CB         -1.7970    4.7050  -10.6730 C.3       1 THR         0.0924
     50 OG1        -1.2960    5.3080  -11.8490 O.3       1 THR        -0.3874
     51 CG2        -0.9730    3.4360  -10.4370 C.3       1 THR        -0.0346
     52 N          -3.5510    3.8050  -13.1610 N.am      1 ALA        -0.2639
     53 CA         -3.8480    2.9470  -14.3130 C.3       1 ALA         0.1282
     54 C          -2.8450    1.7800  -14.4830 C.2       1 ALA         0.2031
     55 O          -1.6690    1.8900  -14.1140 O.2       1 ALA        -0.3944
     56 CB         -3.9010    3.8220  -15.5710 C.3       1 ALA        -0.0244
     57 N          -3.3150    0.6690  -15.0730 N.am      1 ARG        -0.2695
     58 CA         -2.5140   -0.5280  -15.4040 C.3       1 ARG         0.0945
     59 C          -1.4840   -0.2530  -16.5180 C.2       1 ARG         0.0601
     60 O          -1.8660    0.2780  -17.5880 O.co2     1 ARG        -0.5666
     61 CB         -3.4620   -1.6900  -15.7560 C.3       1 ARG        -0.0148
     62 CG         -2.7220   -3.0240  -15.9430 C.3       1 ARG        -0.0162
     63 CD         -3.7100   -4.1670  -16.2080 C.3       1 ARG         0.0627
     64 NE         -3.0140   -5.4570  -16.3770 N.pl3     1 ARG        -0.2723
     65 CZ         -3.5790   -6.6320  -16.5790 C.cat     1 ARG         0.2882
     66 NH1        -4.8710   -6.7810  -16.6560 N.pl3     1 ARG        -0.2849
     67 NH2        -2.8440   -7.7000  -16.7090 N.pl3     1 ARG        -0.2849
     68 OXT        -0.2920   -0.5840  -16.3230 O.co2     1 ARG        -0.5666
     69 H1          0.9350    5.0119    5.2114 H         1 ALA         0.2015
     70 H2         -0.3770    5.7995    4.6050 H         1 ALA         0.2015
     71 H3          1.1140    6.0677    3.9613 H         1 ALA         0.2015
     72 H4          1.2803    3.8762    3.1585 H         1 ALA         0.1095
     73 H5         -0.6630    2.3522    3.2658 H         1 ALA         0.0310
     74 H6         -1.5158    3.5241    4.3269 H         1 ALA         0.0310
     75 H7         -0.0069    2.7318    4.8943 H         1 ALA         0.0310
     76 H8          1.2816    4.2579    1.1249 H         1 ARG         0.1884
     77 H9         -0.4960    5.8773   -0.3800 H         1 ARG         0.0800
     78 H10         1.8857    5.3659   -0.8943 H         1 ARG         0.0313
     79 H11         0.7446    5.2498   -2.2767 H         1 ARG         0.0313
     80 H12         2.6689    3.5662   -2.1431 H         1 ARG         0.0301
     81 H13         1.0180    2.9427   -2.4784 H         1 ARG         0.0301
     82 H14         0.8368    2.2926   -0.0551 H         1 ARG         0.0689
     83 H15         2.5506    2.7860    0.1602 H         1 ARG         0.0689
     84 H16         3.2503    0.8393   -0.8726 H         1 ARG         0.2642
     85 H17        -0.2920   -0.4715   -2.2811 H         1 ARG         0.2615
     86 H18        -0.1970    1.2077   -1.6860 H         1 ARG         0.2615
     87 H19         3.0198   -1.2269   -1.5270 H         1 ARG         0.2615
     88 H20         1.4644   -1.8056   -2.1817 H         1 ARG         0.2615
     89 H21        -2.6080    5.2265    0.1017 H         1 THR         0.1884
     90 H22        -3.6772    2.7673   -1.0981 H         1 THR         0.0826
     91 H23        -5.9022    3.8339   -0.5565 H         1 THR         0.0639
     92 H24        -4.2075    5.8223    0.5886 H         1 THR         0.2101
     93 H25        -5.6572    3.7107    1.9098 H         1 THR         0.0257
     94 H26        -3.8713    3.8074    1.7426 H         1 THR         0.0257
     95 H27        -4.7564    2.3776    1.1110 H         1 THR         0.0257
     96 H28        -3.2526    9.0041  -10.0265 H         1 ALY         0.0467
     97 H29        -1.7899    7.9657  -10.1205 H         1 ALY         0.0467
     98 H30        -1.7125    9.6773  -10.6602 H         1 ALY         0.0467
     99 H31        -3.7013    9.6276   -8.0723 H         1 ALY         0.1850
    100 H32        -3.3151   11.0339   -6.1762 H         1 ALY         0.0520
    101 H33        -1.5866   10.5453   -6.1973 H         1 ALY         0.0520
    102 H34        -3.9276    8.6888   -5.5306 H         1 ALY         0.0285
    103 H35        -2.8951    9.5176   -4.3166 H         1 ALY         0.0285
    104 H36        -0.8968    8.3456   -5.4007 H         1 ALY         0.0268
    105 H37        -2.0852    7.3645   -6.3237 H         1 ALY         0.0268
    106 H38        -2.0021    7.5542   -3.2795 H         1 ALY         0.0312
    107 H39        -1.1829    6.2721   -4.2343 H         1 ALY         0.0312
    108 H40        -4.1988    6.7889   -4.2470 H         1 ALY         0.0800
    109 H41        -2.7591    5.8392   -2.1784 H         1 ALY         0.1883
    110 H42        -5.3411    5.6221   -5.6721 H         1 GLN         0.1883
    111 H43        -4.3392    3.2759   -7.0563 H         1 GLN         0.0801
    112 H44        -6.4689    3.4240   -8.3234 H         1 GLN         0.0337
    113 H45        -6.8063    5.0092   -7.5486 H         1 GLN         0.0337
    114 H46        -8.0859    3.2196   -6.4612 H         1 GLN         0.0504
    115 H47        -6.8735    3.9099   -5.3298 H         1 GLN         0.0504
    116 H48        -5.3564    0.7881   -4.7279 H         1 GLN         0.1814
    117 H49        -5.5658    2.4434   -4.2628 H         1 GLN         0.1814
    118 H50        -4.0370    3.0688   -9.3354 H         1 THR         0.1884
    119 H51        -3.7889    5.3947  -11.0791 H         1 THR         0.0826
    120 H52        -1.6384    5.3867   -9.8244 H         1 THR         0.0639
    121 H53        -0.3627    5.4576  -11.7539 H         1 THR         0.2101
    122 H54         0.0926    3.6990  -10.3647 H         1 THR         0.0257
    123 H55        -1.1228    2.7402  -11.2757 H         1 THR         0.0257
    124 H56        -1.2968    2.9573   -9.5011 H         1 THR         0.0257
    125 H57        -3.2592    4.7444  -13.3408 H         1 ALA         0.1883
    126 H58        -4.8431    2.5047  -14.1575 H         1 ALA         0.0797
    127 H59        -4.1231    3.1933  -16.4458 H         1 ALA         0.0277
    128 H60        -2.9299    4.3186  -15.7135 H         1 ALA         0.0277
    129 H61        -4.6881    4.5818  -15.4563 H         1 ALA         0.0277
    130 H62        -4.2869    0.6501  -15.3077 H         1 ARG         0.1875
    131 H63        -1.9504   -0.8150  -14.5040 H         1 ARG         0.0726
    132 H64        -3.9870   -1.4449  -16.6910 H         1 ARG         0.0307
    133 H65        -4.1945   -1.8050  -14.9435 H         1 ARG         0.0307
    134 H66        -2.1484   -3.2482  -15.0316 H         1 ARG         0.0301
    135 H67        -2.0343   -2.9375  -16.7971 H         1 ARG         0.0301
    136 H68        -4.2766   -3.9442  -17.1242 H         1 ARG         0.0689
    137 H69        -4.4035   -4.2441  -15.3576 H         1 ARG         0.0689
    138 H70        -1.9851   -5.4383  -16.3329 H         1 ARG         0.2642
    139 H71        -5.2730   -7.7159  -16.8147 H         1 ARG         0.2615
    140 H72        -5.4904   -5.9639  -16.5581 H         1 ARG         0.2615
    141 H73        -1.8179   -7.6287  -16.6549 H         1 ARG         0.2615
    142 H74        -3.2891   -8.6155  -16.8658 H         1 ARG         0.2615
@<TRIPOS>BOND
     1    2    1 1  
     2    3    2 1  
     3    2    5 1  
     4    3    4 2  
     5    6    3 am 
     6    7    6 1  
     7    8    7 1  
     8    7   10 1  
     9    8    9 2  
    10   17    8 am 
    11   10   11 1  
    12   11   12 1  
    13   12   13 1  
    14   13   14 ar 
    15   14   15 ar 
    16   14   16 ar 
    17   18   17 1  
    18   19   18 1  
    19   18   21 1  
    20   19   20 2  
    21   33   19 am 
    22   21   22 1  
    23   21   23 1  
    24   25   24 2  
    25   25   26 1  
    26   27   25 am 
    27   28   27 1  
    28   29   28 1  
    29   30   29 1  
    30   31   30 1  
    31   32   31 1  
    32   32   33 1  
    33   32   34 1  
    34   34   35 2  
    35   34   36 am 
    36   36   37 1  
    37   37   38 1  
    38   37   40 1  
    39   38   39 2  
    40   38   45 am 
    41   40   41 1  
    42   41   42 1  
    43   42   43 2  
    44   42   44 am 
    45   45   46 1  
    46   46   47 1  
    47   46   49 1  
    48   47   48 2  
    49   47   52 am 
    50   49   50 1  
    51   49   51 1  
    52   52   53 1  
    53   53   54 1  
    54   53   56 1  
    55   54   55 2  
    56   54   57 am 
    57   57   58 1  
    58   58   59 1  
    59   58   61 1  
    60   59   60 ar 
    61   59   68 ar 
    62   61   62 1  
    63   62   63 1  
    64   63   64 1  
    65   64   65 ar 
    66   65   66 ar 
    67   65   67 ar 
    68    1   69 1  
    69    1   70 1  
    70    1   71 1  
    71    2   72 1  
    72    5   73 1  
    73    5   74 1  
    74    5   75 1  
    75    6   76 1  
    76    7   77 1  
    77   10   78 1  
    78   10   79 1  
    79   11   80 1  
    80   11   81 1  
    81   12   82 1  
    82   12   83 1  
    83   13   84 1  
    84   15   85 1  
    85   15   86 1  
    86   16   87 1  
    87   16   88 1  
    88   17   89 1  
    89   18   90 1  
    90   21   91 1  
    91   22   92 1  
    92   23   93 1  
    93   23   94 1  
    94   23   95 1  
    95   26   96 1  
    96   26   97 1  
    97   26   98 1  
    98   27   99 1  
    99   28  100 1  
   100   28  101 1  
   101   29  102 1  
   102   29  103 1  
   103   30  104 1  
   104   30  105 1  
   105   31  106 1  
   106   31  107 1  
   107   32  108 1  
   108   33  109 1  
   109   36  110 1  
   110   37  111 1  
   111   40  112 1  
   112   40  113 1  
   113   41  114 1  
   114   41  115 1  
   115   44  116 1  
   116   44  117 1  
   117   45  118 1  
   118   46  119 1  
   119   49  120 1  
   120   50  121 1  
   121   51  122 1  
   122   51  123 1  
   123   51  124 1  
   124   52  125 1  
   125   53  126 1  
   126   56  127 1  
   127   56  128 1  
   128   56  129 1  
   129   57  130 1  
   130   58  131 1  
   131   61  132 1  
   132   61  133 1  
   133   62  134 1  
   134   62  135 1  
   135   63  136 1  
   136   63  137 1  
   137   64  138 1  
   138   66  139 1  
   139   66  140 1  
   140   67  141 1  
   141   67  142 1  
@<TRIPOS>SUBSTRUCTURE
     1 ALA         1

