6e86_ligand
  -I-interpret- 

141140  0  0  0  0  0  0  0  0999 V2000
    0.5080    5.3760    4.3740 N   0  3  0  0  0
    0.2930    4.2840    3.4210 C   0  0  0  0  0
   -0.3510    4.7990    2.1440 C   0  0  0  0  0
   -1.4730    5.3090    2.1720 O   0  0  0  0  0
   -0.5310    3.1430    4.0190 C   0  0  0  0  0
    0.3480    4.6010    1.0220 N   0  0  0  0  0
   -0.1280    4.8410   -0.3550 C   0  0  0  0  0
   -1.3260    3.9660   -0.7750 C   0  0  0  0  0
   -1.1630    2.8740   -1.3150 O   0  0  0  0  0
    1.0720    4.7750   -1.3400 C   0  0  0  0  0
    1.6690    3.3970   -1.7170 C   0  0  0  0  0
    1.8120    2.3930   -0.5540 C   0  0  0  0  0
    2.2520    1.0590   -0.9990 N   0  0  0  0  0
    1.5050    0.1130   -1.5430 C   0  0  0  0  0
    0.2500    0.2960   -1.8590 N   0  0  0  0  0
    2.0330   -1.0540   -1.7660 N   0  0  0  0  0
   -2.5390    4.4330   -0.5030 N   0  0  0  0  0
   -3.7960    3.8590   -1.0340 C   0  0  0  0  0
   -4.0900    4.3960   -2.4490 C   0  0  0  0  0
   -4.9270    3.8460   -3.1640 O   0  0  0  0  0
   -4.9650    4.1630   -0.0840 C   0  0  0  0  0
   -5.0210    5.5460    0.1830 O   0  0  0  0  0
   -4.8010    3.4660    1.2640 C   0  0  0  0  0
   -0.5810    9.4530   -8.2200 O   0  0  0  0  0
   -1.7680    9.4070   -8.5360 C   0  0  0  0  0
   -2.1570    8.9850   -9.9300 C   0  0  0  0  0
   -2.7710    9.7230   -7.7180 N   0  0  0  0  0
   -2.6200   10.1980   -6.3440 C   0  0  0  0  0
   -2.9220    9.0860   -5.3280 C   0  0  0  0  0
   -1.9140    7.9270   -5.3940 C   0  0  0  0  0
   -2.0400    6.9610   -4.2050 C   0  0  0  0  0
   -3.3330    6.1140   -4.1770 C   0  0  0  0  0
   -3.3690    5.4470   -2.8670 N   0  0  0  0  0
   -3.4130    5.1370   -5.3720 C   0  0  0  0  0
   -2.4470    4.4430   -5.6950 O   0  0  0  0  0
   -4.5800    5.0760   -6.0220 N   0  0  0  0  0
   -4.8130    4.2550   -7.2200 C   0  0  0  0  0
   -4.1790    4.8780   -8.4830 C   0  0  0  0  0
   -3.9820    6.0920   -8.5610 O   0  0  0  0  0
   -6.3250    4.0290   -7.4160 C   0  0  0  0  0
   -7.0120    3.3080   -6.2400 C   0  0  0  0  0
   -6.4490    1.9110   -5.9910 C   0  0  0  0  0
   -6.6410    0.9840   -6.7670 O   0  0  0  0  0
   -5.7330    1.6970   -4.9070 N   0  0  0  0  0
   -3.8730    4.0440   -9.4840 N   0  0  0  0  0
   -3.3130    4.4460  -10.7900 C   0  0  0  0  0
   -3.6450    3.4130  -11.8860 C   0  0  0  0  0
   -4.0100    2.2720  -11.5810 O   0  0  0  0  0
   -1.7970    4.7050  -10.6730 C   0  0  0  0  0
   -1.2960    5.3080  -11.8490 O   0  0  0  0  0
   -0.9730    3.4360  -10.4370 C   0  0  0  0  0
   -3.5510    3.8050  -13.1610 N   0  0  0  0  0
   -3.8480    2.9470  -14.3130 C   0  0  0  0  0
   -2.8450    1.7800  -14.4830 C   0  0  0  0  0
   -1.6690    1.8900  -14.1140 O   0  0  0  0  0
   -3.9010    3.8220  -15.5710 C   0  0  0  0  0
   -3.3150    0.6690  -15.0730 N   0  0  0  0  0
   -2.5140   -0.5280  -15.4040 C   0  0  0  0  0
   -1.4840   -0.2530  -16.5180 C   0  0  0  0  0
   -1.8660    0.2780  -17.5880 O   0  0  0  0  0
   -3.4620   -1.6900  -15.7560 C   0  0  0  0  0
   -2.7220   -3.0240  -15.9430 C   0  0  0  0  0
   -3.7100   -4.1670  -16.2080 C   0  0  0  0  0
   -3.0140   -5.4570  -16.3770 N   0  0  0  0  0
   -3.5790   -6.6320  -16.5790 C   0  0  0  0  0
   -4.8710   -6.7810  -16.6560 N   0  0  0  0  0
   -2.8440   -7.7000  -16.7090 N   0  0  0  0  0
   -0.2920   -0.5840  -16.3230 O   0  0  0  0  0
    1.0602    6.1096    3.9298 H   0  0  0  0  0
   -0.3935    5.7555    4.6634 H   0  0  0  0  0
    1.0064    5.0205    5.1899 H   0  0  0  0  0
    1.2748    3.8773    3.1786 H   0  0  0  0  0
   -1.5338    3.5027    4.2494 H   0  0  0  0  0
   -0.5930    2.3258    3.3003 H   0  0  0  0  0
   -0.0515    2.7900    4.9320 H   0  0  0  0  0
    1.3003    4.2510    1.1270 H   0  0  0  0  0
   -0.5423    5.8486   -0.3893 H   0  0  0  0  0
    1.8804    5.2977   -0.8288 H   0  0  0  0  0
    0.6851    5.1760   -2.2768 H   0  0  0  0  0
    2.6761    3.5866   -2.0884 H   0  0  0  0  0
    0.9812    2.9465   -2.4326 H   0  0  0  0  0
    0.8331    2.2823   -0.0875 H   0  0  0  0  0
    2.5664    2.7813    0.1302 H   0  0  0  0  0
    3.2406    0.8415   -0.8738 H   0  0  0  0  0
   -0.2890   -0.4665   -2.2694 H   0  0  0  0  0
   -0.1904    1.2013   -1.6952 H   0  0  0  0  0
    3.0081   -1.2277   -1.5221 H   0  0  0  0  0
   -2.6094    5.2423    0.1138 H   0  0  0  0  0
   -3.6775    2.7776   -1.1025 H   0  0  0  0  0
   -5.8683    3.8069   -0.5794 H   0  0  0  0  0
   -5.7535    5.7267    0.7767 H   0  0  0  0  0
   -4.7569    2.3877    1.1110 H   0  0  0  0  0
   -3.8795    3.8051    1.7372 H   0  0  0  0  0
   -5.6499    3.7092    1.9030 H   0  0  0  0  0
   -1.7159    9.6717  -10.6525 H   0  0  0  0  0
   -1.7926    7.9750  -10.1175 H   0  0  0  0  0
   -3.2427    9.0043  -10.0244 H   0  0  0  0  0
   -3.7199    9.6257   -8.0794 H   0  0  0  0  0
   -3.3234   11.0147   -6.1816 H   0  0  0  0  0
   -1.5897   10.5246   -6.2027 H   0  0  0  0  0
   -3.9084    8.6833   -5.5579 H   0  0  0  0  0
   -2.8645    9.5214   -4.3304 H   0  0  0  0  0
   -0.9115    8.3544   -5.3726 H   0  0  0  0  0
   -2.1125    7.3629   -6.3053 H   0  0  0  0  0
   -2.0487    7.5742   -3.3039 H   0  0  0  0  0
   -1.2090    6.2599   -4.2827 H   0  0  0  0  0
   -4.2177    6.7400   -4.2929 H   0  0  0  0  0
   -2.7469    5.8471   -2.1646 H   0  0  0  0  0
   -5.3563    5.6331   -5.6651 H   0  0  0  0  0
   -4.3261    3.2921   -7.0658 H   0  0  0  0  0
   -6.4449    3.3968   -8.2958 H   0  0  0  0  0
   -6.7885    5.0114   -7.5066 H   0  0  0  0  0
   -8.0689    3.2028   -6.4850 H   0  0  0  0  0
   -6.8430    3.9007   -5.3410 H   0  0  0  0  0
   -5.3482    0.7701   -4.7247 H   0  0  0  0  0
   -5.5631    2.4581   -4.2495 H   0  0  0  0  0
   -4.0403    3.0493   -9.3324 H   0  0  0  0  0
   -3.7827    5.3822  -11.0918 H   0  0  0  0  0
   -1.6933    5.3594   -9.8075 H   0  0  0  0  0
   -0.3529    5.4592  -11.7529 H   0  0  0  0  0
   -1.2949    2.9626   -9.5094 H   0  0  0  0  0
   -1.1223    2.7475  -11.2687 H   0  0  0  0  0
    0.0827    3.6979  -10.3655 H   0  0  0  0  0
   -3.2533    4.7632  -13.3444 H   0  0  0  0  0
   -4.8136    2.4714  -14.1415 H   0  0  0  0  0
   -4.6812    4.5745  -15.4560 H   0  0  0  0  0
   -2.9382    4.3135  -15.7110 H   0  0  0  0  0
   -4.1212    3.1979  -16.4371 H   0  0  0  0  0
   -4.3063    0.6497  -15.3124 H   0  0  0  0  0
   -1.9259   -0.8092  -14.5304 H   0  0  0  0  0
   -2.8085    0.4536  -17.5381 H   0  0  0  0  0
   -3.9550   -1.4462  -16.6971 H   0  0  0  0  0
   -4.1646   -1.8100  -14.9314 H   0  0  0  0  0
   -2.1656   -3.2463  -15.0325 H   0  0  0  0  0
   -2.0515   -2.9356  -16.7978 H   0  0  0  0  0
   -4.2545   -3.9462  -17.1261 H   0  0  0  0  0
   -4.3818   -4.2471  -15.3534 H   0  0  0  0  0
   -1.9951   -5.4385  -16.3333 H   0  0  0  0  0
   -5.4844   -5.9718  -16.5591 H   0  0  0  0  0
   -3.2848   -8.6066  -16.8643 H   0  0  0  0  0
   -1.8279   -7.6294  -16.6555 H   0  0  0  0  0
  2  1  1  0  0  0
  3  2  1  0  0  0
  2  5  1  0  0  0
  3  4  2  0  0  0
  6  3  1  0  0  0
  7  6  1  0  0  0
  8  7  1  0  0  0
  7 10  1  0  0  0
  8  9  2  0  0  0
 17  8  1  0  0  0
 10 11  1  0  0  0
 11 12  1  0  0  0
 12 13  1  0  0  0
 13 14  1  0  0  0
 14 15  1  0  0  0
 14 16  2  0  0  0
 18 17  1  0  0  0
 19 18  1  0  0  0
 18 21  1  0  0  0
 19 20  2  0  0  0
 33 19  1  0  0  0
 21 22  1  0  0  0
 21 23  1  0  0  0
 25 24  2  0  0  0
 25 26  1  0  0  0
 27 25  1  0  0  0
 28 27  1  0  0  0
 29 28  1  0  0  0
 30 29  1  0  0  0
 31 30  1  0  0  0
 32 31  1  0  0  0
 32 33  1  0  0  0
 32 34  1  0  0  0
 34 35  2  0  0  0
 34 36  1  0  0  0
 36 37  1  0  0  0
 37 38  1  0  0  0
 37 40  1  0  0  0
 38 39  2  0  0  0
 38 45  1  0  0  0
 40 41  1  0  0  0
 41 42  1  0  0  0
 42 43  2  0  0  0
 42 44  1  0  0  0
 45 46  1  0  0  0
 46 47  1  0  0  0
 46 49  1  0  0  0
 47 48  2  0  0  0
 47 52  1  0  0  0
 49 50  1  0  0  0
 49 51  1  0  0  0
 52 53  1  0  0  0
 53 54  1  0  0  0
 53 56  1  0  0  0
 54 55  2  0  0  0
 54 57  1  0  0  0
 57 58  1  0  0  0
 58 59  1  0  0  0
 58 61  1  0  0  0
 59 60  1  0  0  0
 59 68  2  0  0  0
 61 62  1  0  0  0
 62 63  1  0  0  0
 63 64  1  0  0  0
 64 65  1  0  0  0
 65 66  2  0  0  0
 65 67  1  0  0  0
  1 69  1  0  0  0
  1 70  1  0  0  0
  1 71  1  0  0  0
  2 72  1  0  0  0
  5 73  1  0  0  0
  5 74  1  0  0  0
  5 75  1  0  0  0
  6 76  1  0  0  0
  7 77  1  0  0  0
 10 78  1  0  0  0
 10 79  1  0  0  0
 11 80  1  0  0  0
 11 81  1  0  0  0
 12 82  1  0  0  0
 12 83  1  0  0  0
 13 84  1  0  0  0
 15 85  1  0  0  0
 15 86  1  0  0  0
 16 87  1  0  0  0
 17 88  1  0  0  0
 18 89  1  0  0  0
 21 90  1  0  0  0
 22 91  1  0  0  0
 23 92  1  0  0  0
 23 93  1  0  0  0
 23 94  1  0  0  0
 26 95  1  0  0  0
 26 96  1  0  0  0
 26 97  1  0  0  0
 27 98  1  0  0  0
 28 99  1  0  0  0
 28100  1  0  0  0
 29101  1  0  0  0
 29102  1  0  0  0
 30103  1  0  0  0
 30104  1  0  0  0
 31105  1  0  0  0
 31106  1  0  0  0
 32107  1  0  0  0
 33108  1  0  0  0
 36109  1  0  0  0
 37110  1  0  0  0
 40111  1  0  0  0
 40112  1  0  0  0
 41113  1  0  0  0
 41114  1  0  0  0
 44115  1  0  0  0
 44116  1  0  0  0
 45117  1  0  0  0
 46118  1  0  0  0
 49119  1  0  0  0
 50120  1  0  0  0
 51121  1  0  0  0
 51122  1  0  0  0
 51123  1  0  0  0
 52124  1  0  0  0
 53125  1  0  0  0
 56126  1  0  0  0
 56127  1  0  0  0
 56128  1  0  0  0
 57129  1  0  0  0
 58130  1  0  0  0
 60131  1  0  0  0
 61132  1  0  0  0
 61133  1  0  0  0
 62134  1  0  0  0
 62135  1  0  0  0
 63136  1  0  0  0
 63137  1  0  0  0
 64138  1  0  0  0
 66139  1  0  0  0
 67140  1  0  0  0
 67141  1  0  0  0
M  END
$$$$
