2ym3_ligand
  -I-interpret- 

 41 43  0  0  0  0  0  0  0  0999 V2000
   22.2250    0.5420    7.6120 C   0  0  0  0  0
   21.4860   -0.4410    8.4780 C   0  0  0  0  0
   19.2330   -0.8340    9.1380 C   0  0  0  0  0
   17.8490   -0.2430    9.3050 C   0  0  0  0  0
   17.5540    0.9580    8.6710 C   0  0  0  0  0
   16.3360    1.5180    8.7870 N   0  0  0  0  0
   15.3450    0.9100    9.5380 C   0  0  0  0  0
   14.0500    1.3100    9.7840 N   0  0  0  0  0
   13.4570    0.3710   10.5890 N   0  0  0  0  0
   14.3570   -0.6000   10.8510 C   0  0  0  0  0
   15.5780   -0.2830   10.1910 C   0  0  0  0  0
   16.8440   -0.8850   10.0840 C   0  0  0  0  0
   17.1060   -2.1610   10.7740 N   0  0  0  0  0
   17.7960   -2.2210   11.9980 C   0  0  0  0  0
   16.0950   -3.1360   10.6730 C   0  0  0  0  0
   16.5880   -4.5080   10.9810 C   0  0  0  0  0
   17.2620   -4.5720   12.2070 O   0  0  0  0  0
   18.2610   -3.5950   12.3590 C   0  0  0  0  0
   19.5010   -3.9670   11.5570 C   0  0  0  0  0
   20.1940   -5.1490   11.9390 N   0  3  0  0  0
   20.3480   -0.0030    9.1070 O   0  0  0  0  0
   19.3760   -2.0390    9.0040 O   0  0  0  0  0
   21.5682    0.8857    6.8129 H   0  0  0  0  0
   22.5393    1.3926    8.2169 H   0  0  0  0  0
   23.1011    0.0576    7.1809 H   0  0  0  0  0
   22.1786   -0.7058    9.2769 H   0  0  0  0  0
   21.1619   -1.2365    7.8070 H   0  0  0  0  0
   18.3189    1.4525    8.0723 H   0  0  0  0  0
   14.1785   -1.4817   11.4665 H   0  0  0  0  0
   17.1068   -1.8950   12.7770 H   0  0  0  0  0
   18.6809   -1.5915   11.9044 H   0  0  0  0  0
   15.7290   -3.1341    9.6463 H   0  0  0  0  0
   15.3178   -2.8890   11.3962 H   0  0  0  0  0
   17.2872   -4.7984   10.1969 H   0  0  0  0  0
   15.7249   -5.1714   11.0363 H   0  0  0  0  0
   18.5122   -3.5706   13.4194 H   0  0  0  0  0
   20.2062   -3.1496   11.7075 H   0  0  0  0  0
   19.1523   -4.1449   10.5397 H   0  0  0  0  0
   20.9988   -5.2828   11.3267 H   0  0  0  0  0
   20.5109   -5.0589   12.9043 H   0  0  0  0  0
   19.5675   -5.9499   11.8589 H   0  0  0  0  0
  2  1  1  0  0  0
 21  2  1  0  0  0
  3  4  1  0  0  0
  3 21  1  0  0  0
  3 22  2  0  0  0
  4  5  4  0  0  0
  4 12  4  0  0  0
  5  6  4  0  0  0
  6  7  4  0  0  0
  7  8  4  0  0  0
  7 11  4  0  0  0
  8  9  4  0  0  0
  9 10  4  0  0  0
 10 11  4  0  0  0
 11 12  4  0  0  0
 12 13  1  0  0  0
 13 14  1  0  0  0
 13 15  1  0  0  0
 14 18  1  0  0  0
 15 16  1  0  0  0
 16 17  1  0  0  0
 17 18  1  0  0  0
 18 19  1  0  0  0
 19 20  1  0  0  0
  1 23  1  0  0  0
  1 24  1  0  0  0
  1 25  1  0  0  0
  2 26  1  0  0  0
  2 27  1  0  0  0
  5 28  1  0  0  0
 10 29  1  0  0  0
 14 30  1  0  0  0
 14 31  1  0  0  0
 15 32  1  0  0  0
 15 33  1  0  0  0
 16 34  1  0  0  0
 16 35  1  0  0  0
 18 36  1  0  0  0
 19 37  1  0  0  0
 19 38  1  0  0  0
 20 39  1  0  0  0
 20 40  1  0  0  0
 20 41  1  0  0  0
M  END
$$$$
