6ewe_ligand
  -I-interpret- 

 23 24  0  0  0  0  0  0  0  0999 V2000
   59.9860   10.0030   25.9420 C   0  0  0  0  0
   58.5140   10.2930   27.9150 C   0  0  0  0  0
   57.5330   10.5140   28.8760 C   0  0  0  0  0
   57.7310   10.0490   30.1630 C   0  0  0  0  0
   58.8950    9.3850   30.4930 C   0  0  0  0  0
   59.8870    9.1870   29.5420 C   0  0  0  0  0
   59.7220    9.6360   28.2330 C   0  0  0  0  0
   63.7300    7.2610   26.4830 C   0  0  0  0  0
   64.4740    7.7970   27.4520 O   0  0  0  0  0
   62.4090    7.8750   26.2580 C   0  0  0  0  0
   61.8600    8.7960   27.1020 C   0  0  0  0  0
   60.5720    9.4830   27.0660 C   0  0  0  0  0
   64.0710    6.2980   25.8480 O   0  0  0  0  0
   61.4900    7.2980   24.8590 S   0  0  0  0  0
   58.4270   10.6830   26.2250 S   0  0  0  0  0
   60.4608    9.9882   24.9610 H   0  0  0  0  0
   56.6185   11.0477   28.6174 H   0  0  0  0  0
   56.9638   10.2077   30.9209 H   0  0  0  0  0
   59.0366    9.0132   31.5078 H   0  0  0  0  0
   60.8067    8.6738   29.8228 H   0  0  0  0  0
   64.0152    8.5534   27.8249 H   0  0  0  0  0
   62.4915    9.0652   27.9487 H   0  0  0  0  0
   62.2193    6.4124   24.1861 H   0  0  0  0  0
 12  1  4  0  0  0
  1 15  4  0  0  0
  2  3  4  0  0  0
  7  2  4  0  0  0
  2 15  4  0  0  0
  3  4  4  0  0  0
  5  4  4  0  0  0
  6  5  4  0  0  0
  7  6  4  0  0  0
 12  7  4  0  0  0
  8  9  1  0  0  0
 10  8  1  0  0  0
  8 13  2  0  0  0
 11 10  2  0  0  0
 10 14  1  0  0  0
 11 12  1  0  0  0
  1 16  1  0  0  0
  3 17  1  0  0  0
  4 18  1  0  0  0
  5 19  1  0  0  0
  6 20  1  0  0  0
  9 21  1  0  0  0
 11 22  1  0  0  0
 14 23  1  0  0  0
M  END
$$$$
