### 
### Created by X-TOOL on Mon Sep 10 21:13:34 2018
### 

@<TRIPOS>MOLECULE
5lm4_ligand
   54    58     1     0     0
SMALL
GAST_HUCK


@<TRIPOS>ATOM
      1 N1       -471.8770  298.1650   12.7680 N.1       1 6Z6        -0.2990
      2 C2       -474.3000  301.2960    8.8890 C.ar      1 6Z6        -0.0396
      3 O2       -475.9670  299.6970   14.5570 O.3       1 6Z6        -0.2054
      4 C4       -474.6400  300.9440   11.2580 C.ar      1 6Z6        -0.0422
      5 C5       -475.8920  300.4120   10.9720 C.ar      1 6Z6        -0.0676
      6 C6       -476.3450  300.2970    9.6690 C.ar      1 6Z6        -0.0396
      7 O1       -473.9690  303.7640   13.3140 O.2       1 6Z6        -0.4093
      8 C9       -474.9780  303.1670   13.6770 C.2       1 6Z6         0.0986
      9 C8       -475.0660  301.6960   13.6040 C.2       1 6Z6         0.0376
     10 C13      -475.9830  301.0620   14.3530 C.2       1 6Z6         0.1333
     11 C14      -474.9470  298.9610   14.0080 C.2       1 6Z6         0.2097
     12 N        -474.9760  297.7160   14.4920 N.2       1 6Z6        -0.3662
     13 C15      -473.9970  299.5310   13.2270 C.3       1 6Z6         0.1917
     14 C16      -472.8130  298.7960   12.9560 C.1       1 6Z6         0.1241
     15 C7       -474.1100  300.9490   12.6910 C.3       1 6Z6         0.0552
     16 C3       -473.8590  301.3990   10.2010 C.ar      1 6Z6        -0.0676
     17 C1       -475.5450  300.7290    8.6200 C.ar      1 6Z6         0.0835
     18 O        -476.2040  300.4680    7.4410 O.3       1 6Z6        -0.3258
     19 C        -475.5790  300.8280    6.2140 C.3       1 6Z6         0.0579
     20 C10      -476.1650  303.9310   14.2100 C.3       1 6Z6         0.0284
     21 C11      -476.8880  303.1820   15.3310 C.3       1 6Z6         0.0241
     22 C12      -477.1490  301.7130   15.0140 C.3       1 6Z6         0.0356
     23 C17      -478.0400  303.9060   16.0110 C.ar      1 6Z6        -0.0247
     24 C18      -477.9370  304.2500   17.3360 C.ar      1 6Z6        -0.0601
     25 C19      -478.9740  304.8610   18.0220 C.ar      1 6Z6        -0.0707
     26 C20      -480.1470  305.1500   17.3930 C.ar      1 6Z6        -0.0631
     27 C21      -480.3320  304.8260   16.0250 C.ar      1 6Z6        -0.0243
     28 C26      -479.2650  304.1900   15.3120 C.ar      1 6Z6        -0.0116
     29 C22      -481.5610  305.0760   15.3530 C.ar      1 6Z6        -0.0569
     30 C23      -481.7340  304.7070   14.0450 C.ar      1 6Z6        -0.0629
     31 C24      -480.7100  304.0840   13.3470 C.ar      1 6Z6        -0.0625
     32 C25      -479.5020  303.8330   13.9500 C.ar      1 6Z6        -0.0548
     33 H1       -473.6787  301.6551    8.0765 H         1 6Z6         0.0525
     34 H2       -476.5265  300.0804   11.7859 H         1 6Z6         0.0530
     35 H3       -477.3214  299.8709    9.4684 H         1 6Z6         0.0525
     36 H4       -474.2906  297.0416   14.1896 H         1 6Z6         0.0702
     37 H5       -474.4847  299.1368   12.3233 H         1 6Z6         0.0944
     38 H6       -473.1223  301.4329   12.7083 H         1 6Z6         0.0559
     39 H7       -472.8905  301.8411   10.4051 H         1 6Z6         0.0530
     40 H8       -476.2340  300.5526    5.3743 H         1 6Z6         0.0575
     41 H9       -474.6205  300.2964    6.1209 H         1 6Z6         0.0575
     42 H10      -475.3995  301.9131    6.1984 H         1 6Z6         0.0575
     43 H11      -476.8734  304.1021   13.3860 H         1 6Z6         0.0500
     44 H12      -475.8157  304.8983   14.6002 H         1 6Z6         0.0500
     45 H13      -476.1290  303.1378   16.1259 H         1 6Z6         0.0526
     46 H14      -477.3659  301.1817   15.9524 H         1 6Z6         0.0529
     47 H15      -478.0190  301.6447   14.3444 H         1 6Z6         0.0529
     48 H16      -477.0140  304.0365   17.8628 H         1 6Z6         0.0530
     49 H17      -478.8507  305.1115   19.0694 H         1 6Z6         0.0595
     50 H18      -480.9467  305.6323   17.9434 H         1 6Z6         0.0542
     51 H19      -482.3707  305.5647   15.8827 H         1 6Z6         0.0609
     52 H20      -482.6789  304.9035   13.5515 H         1 6Z6         0.0616
     53 H21      -480.8649  303.7922   12.3146 H         1 6Z6         0.0601
     54 H22      -478.7131  303.3546   13.3809 H         1 6Z6         0.0628
@<TRIPOS>BOND
     1   14    1 3  
     2   16    2 ar 
     3    2   17 ar 
     4    3   10 1  
     5   11    3 1  
     6    4    5 ar 
     7   15    4 1  
     8    4   16 ar 
     9    5    6 ar 
    10    6   17 ar 
    11    8    7 2  
    12    9    8 1  
    13    8   20 1  
    14   10    9 2  
    15    9   15 1  
    16   10   22 1  
    17   11   12 2  
    18   13   11 1  
    19   13   14 1  
    20   13   15 1  
    21   17   18 1  
    22   18   19 1  
    23   20   21 1  
    24   21   22 1  
    25   21   23 1  
    26   23   24 ar 
    27   23   28 ar 
    28   24   25 ar 
    29   25   26 ar 
    30   26   27 ar 
    31   27   28 ar 
    32   27   29 ar 
    33   28   32 ar 
    34   29   30 ar 
    35   30   31 ar 
    36   31   32 ar 
    37    2   33 1  
    38    5   34 1  
    39    6   35 1  
    40   12   36 1  
    41   13   37 1  
    42   15   38 1  
    43   16   39 1  
    44   19   40 1  
    45   19   41 1  
    46   19   42 1  
    47   20   43 1  
    48   20   44 1  
    49   21   45 1  
    50   22   46 1  
    51   22   47 1  
    52   24   48 1  
    53   25   49 1  
    54   26   50 1  
    55   29   51 1  
    56   30   52 1  
    57   31   53 1  
    58   32   54 1  
@<TRIPOS>SUBSTRUCTURE
     1 6Z6         1

