5lm4_ligand
  -I-interpret- 

 54 58  0  0  0  0  0  0  0  0999 V2000
 -471.8770  298.1650   12.7680 N   0  0  0  0  0
 -474.3000  301.2960    8.8890 C   0  0  0  0  0
 -475.9670  299.6970   14.5570 O   0  0  0  0  0
 -474.6400  300.9440   11.2580 C   0  0  0  0  0
 -475.8920  300.4120   10.9720 C   0  0  0  0  0
 -476.3450  300.2970    9.6690 C   0  0  0  0  0
 -473.9690  303.7640   13.3140 O   0  0  0  0  0
 -474.9780  303.1670   13.6770 C   0  0  0  0  0
 -475.0660  301.6960   13.6040 C   0  0  0  0  0
 -475.9830  301.0620   14.3530 C   0  0  0  0  0
 -474.9470  298.9610   14.0080 C   0  0  0  0  0
 -474.9760  297.7160   14.4920 N   0  0  0  0  0
 -473.9970  299.5310   13.2270 C   0  0  0  0  0
 -472.8130  298.7960   12.9560 C   0  0  0  0  0
 -474.1100  300.9490   12.6910 C   0  0  0  0  0
 -473.8590  301.3990   10.2010 C   0  0  0  0  0
 -475.5450  300.7290    8.6200 C   0  0  0  0  0
 -476.2040  300.4680    7.4410 O   0  0  0  0  0
 -475.5790  300.8280    6.2140 C   0  0  0  0  0
 -476.1650  303.9310   14.2100 C   0  0  0  0  0
 -476.8880  303.1820   15.3310 C   0  0  0  0  0
 -477.1490  301.7130   15.0140 C   0  0  0  0  0
 -478.0400  303.9060   16.0110 C   0  0  0  0  0
 -477.9370  304.2500   17.3360 C   0  0  0  0  0
 -478.9740  304.8610   18.0220 C   0  0  0  0  0
 -480.1470  305.1500   17.3930 C   0  0  0  0  0
 -480.3320  304.8260   16.0250 C   0  0  0  0  0
 -479.2650  304.1900   15.3120 C   0  0  0  0  0
 -481.5610  305.0760   15.3530 C   0  0  0  0  0
 -481.7340  304.7070   14.0450 C   0  0  0  0  0
 -480.7100  304.0840   13.3470 C   0  0  0  0  0
 -479.5020  303.8330   13.9500 C   0  0  0  0  0
 -473.6753  301.6570    8.0720 H   0  0  0  0  0
 -476.5300  300.0786   11.7904 H   0  0  0  0  0
 -477.3268  299.8686    9.4673 H   0  0  0  0  0
 -474.2163  297.0689   14.2809 H   0  0  0  0  0
 -474.9466  299.6184   12.6991 H   0  0  0  0  0
 -473.1322  301.4304   12.6737 H   0  0  0  0  0
 -472.8851  301.8435   10.4062 H   0  0  0  0  0
 -475.4017  301.9034    6.1999 H   0  0  0  0  0
 -474.6294  300.3007    6.1230 H   0  0  0  0  0
 -476.2290  300.5547    5.3828 H   0  0  0  0  0
 -476.8698  304.0721   13.3906 H   0  0  0  0  0
 -475.8025  304.8755   14.6157 H   0  0  0  0  0
 -476.1484  303.1780   16.1317 H   0  0  0  0  0
 -477.3397  301.1929   15.9528 H   0  0  0  0  0
 -477.9978  301.6595   14.3322 H   0  0  0  0  0
 -477.0089  304.0354   17.8657 H   0  0  0  0  0
 -478.8500  305.1129   19.0752 H   0  0  0  0  0
 -480.9511  305.6349   17.9465 H   0  0  0  0  0
 -482.3752  305.5674   15.8856 H   0  0  0  0  0
 -482.6842  304.9046   13.5488 H   0  0  0  0  0
 -480.8658  303.7905   12.3089 H   0  0  0  0  0
 -478.7088  303.3519   13.3778 H   0  0  0  0  0
 14  1  3  0  0  0
 16  2  4  0  0  0
  2 17  4  0  0  0
  3 10  1  0  0  0
 11  3  1  0  0  0
  4  5  4  0  0  0
 15  4  1  0  0  0
  4 16  4  0  0  0
  5  6  4  0  0  0
  6 17  4  0  0  0
  8  7  2  0  0  0
  9  8  1  0  0  0
  8 20  1  0  0  0
 10  9  2  0  0  0
  9 15  1  0  0  0
 10 22  1  0  0  0
 11 12  2  0  0  0
 13 11  1  0  0  0
 13 14  1  0  0  0
 13 15  1  0  0  0
 17 18  1  0  0  0
 18 19  1  0  0  0
 20 21  1  0  0  0
 21 22  1  0  0  0
 21 23  1  0  0  0
 23 24  4  0  0  0
 23 28  4  0  0  0
 24 25  4  0  0  0
 25 26  4  0  0  0
 26 27  4  0  0  0
 27 28  4  0  0  0
 27 29  4  0  0  0
 28 32  4  0  0  0
 29 30  4  0  0  0
 30 31  4  0  0  0
 31 32  4  0  0  0
  2 33  1  0  0  0
  5 34  1  0  0  0
  6 35  1  0  0  0
 12 36  1  0  0  0
 13 37  1  0  0  0
 15 38  1  0  0  0
 16 39  1  0  0  0
 19 40  1  0  0  0
 19 41  1  0  0  0
 19 42  1  0  0  0
 20 43  1  0  0  0
 20 44  1  0  0  0
 21 45  1  0  0  0
 22 46  1  0  0  0
 22 47  1  0  0  0
 24 48  1  0  0  0
 25 49  1  0  0  0
 26 50  1  0  0  0
 29 51  1  0  0  0
 30 52  1  0  0  0
 31 53  1  0  0  0
 32 54  1  0  0  0
M  END
$$$$
