5ovf_ligand
  -I-interpret- 

 51 54  0  0  0  0  0  0  0  0999 V2000
   20.2670  -30.3640   45.4030 C   0  0  0  0  0
   21.3240  -27.3230   48.8520 C   0  0  0  0  0
   21.6210  -30.7240   45.2520 C   0  0  0  0  0
   22.1100  -31.5430   44.2090 C   0  0  0  0  0
   22.1220  -29.4480   47.2580 C   0  0  0  0  0
   24.2960  -31.3370   45.0950 C   0  0  0  0  0
   22.5440  -30.2470   46.1970 C   0  0  0  0  0
   20.7760  -29.0910   47.3970 C   0  0  0  0  0
   17.5050  -29.7370   45.8240 C   0  0  0  0  0
   20.3600  -28.3080   48.4440 O   0  0  0  0  0
   19.8380  -29.5540   46.4690 C   0  0  0  0  0
   18.5270  -29.1770   46.6560 O   0  0  0  0  0
   23.8480  -30.5640   46.0940 N   0  0  0  0  0
   25.7880  -31.6680   45.0140 C   0  0  0  0  0
   23.4380  -31.8140   44.1700 N   0  0  0  0  0
   21.3080  -32.0310   43.2420 N   0  0  0  0  0
   21.6650  -33.0970   42.2810 C   0  0  0  0  0
   21.1700  -32.7040   40.8680 C   0  0  0  0  0
   21.0440  -34.3990   42.7970 C   0  0  0  0  0
   21.8560  -35.2970   43.4900 C   0  0  0  0  0
   19.6840  -34.6800   42.6250 C   0  0  0  0  0
   19.1480  -35.8610   43.1210 C   0  0  0  0  0
   19.9590  -36.7660   43.8030 C   0  0  0  0  0
   21.3220  -36.4930   43.9910 C   0  0  0  0  0
   22.1430  -37.3880   44.6900 C   0  0  0  0  0
   21.7710  -38.2480   45.6360 C   0  0  0  0  0
   23.4620  -37.5280   44.5710 C   0  0  0  0  0
   23.8510  -38.4650   45.4310 N   0  0  0  0  0
   22.8670  -38.8820   46.0460 N   0  0  0  0  0
   19.5363  -30.7214   44.6774 H   0  0  0  0  0
   22.2411  -27.8219   49.1653 H   0  0  0  0  0
   21.5383  -26.6579   48.0155 H   0  0  0  0  0
   20.9211  -26.7448   49.6836 H   0  0  0  0  0
   22.8499  -29.0965   47.9892 H   0  0  0  0  0
   17.7096  -29.4889   44.7825 H   0  0  0  0  0
   17.4926  -30.8202   45.9451 H   0  0  0  0  0
   16.5375  -29.3267   46.1132 H   0  0  0  0  0
   26.3591  -30.7445   44.9186 H   0  0  0  0  0
   26.0921  -32.1929   45.9196 H   0  0  0  0  0
   25.9717  -32.3016   44.1463 H   0  0  0  0  0
   20.3731  -31.6301   43.1663 H   0  0  0  0  0
   22.7429  -33.2362   42.1987 H   0  0  0  0  0
   20.0875  -32.5773   40.8858 H   0  0  0  0  0
   21.6416  -31.7688   40.5663 H   0  0  0  0  0
   21.4335  -33.4901   40.1604 H   0  0  0  0  0
   22.9106  -35.0679   43.6428 H   0  0  0  0  0
   19.0441  -33.9704   42.1006 H   0  0  0  0  0
   18.0902  -36.0807   42.9765 H   0  0  0  0  0
   19.5322  -37.6904   44.1922 H   0  0  0  0  0
   20.7575  -38.4038   46.0058 H   0  0  0  0  0
   24.1077  -36.9735   43.8901 H   0  0  0  0  0
  1  3  4  0  0  0
 11  1  4  0  0  0
 10  2  1  0  0  0
  3  4  4  0  0  0
  3  7  4  0  0  0
  4 15  4  0  0  0
  4 16  1  0  0  0
  5  7  4  0  0  0
  8  5  4  0  0  0
 13  6  4  0  0  0
  6 14  1  0  0  0
 15  6  4  0  0  0
  7 13  4  0  0  0
  8 10  1  0  0  0
 11  8  4  0  0  0
 12  9  1  0  0  0
 11 12  1  0  0  0
 16 17  1  0  0  0
 17 18  1  0  0  0
 17 19  1  0  0  0
 19 20  4  0  0  0
 19 21  4  0  0  0
 20 24  4  0  0  0
 21 22  4  0  0  0
 22 23  4  0  0  0
 23 24  4  0  0  0
 24 25  1  0  0  0
 25 26  4  0  0  0
 25 27  4  0  0  0
 26 29  4  0  0  0
 27 28  4  0  0  0
 28 29  4  0  0  0
  1 30  1  0  0  0
  2 31  1  0  0  0
  2 32  1  0  0  0
  2 33  1  0  0  0
  5 34  1  0  0  0
  9 35  1  0  0  0
  9 36  1  0  0  0
  9 37  1  0  0  0
 14 38  1  0  0  0
 14 39  1  0  0  0
 14 40  1  0  0  0
 16 41  1  0  0  0
 17 42  1  0  0  0
 18 43  1  0  0  0
 18 44  1  0  0  0
 18 45  1  0  0  0
 20 46  1  0  0  0
 21 47  1  0  0  0
 22 48  1  0  0  0
 23 49  1  0  0  0
 26 50  1  0  0  0
 27 51  1  0  0  0
M  END
$$$$
