4zsj_ligand
  -I-interpret- 

 38 39  0  0  0  0  0  0  0  0999 V2000
   -2.8240  -35.3630  -10.2470 C   0  0  0  0  0
   -3.0630  -35.8830   -8.9910 C   0  0  0  0  0
   -3.8980  -35.2170   -8.0690 C   0  0  0  0  0
   -4.7700  -35.5120   -5.7140 C   0  0  0  0  0
   -5.9830  -34.6780   -4.2090 C   0  0  0  0  0
   -3.9940  -37.5310   -4.4790 C   0  0  0  0  0
   -3.4610  -39.4460   -3.0210 C   0  0  0  0  0
   -2.0760  -39.1570   -2.4880 C   0  0  0  0  0
   -4.2710  -40.3120   -2.0770 C   0  0  0  0  0
   -3.3130  -37.9550   -5.4030 O   0  0  0  0  0
   -4.1590  -38.1820   -3.2770 N   0  0  0  0  0
   -4.7160  -36.3170   -4.6260 N   0  0  0  0  0
   -5.5250  -35.7840   -3.6340 N   0  0  0  0  0
   -6.7520  -33.8010   -3.5860 N   0  0  0  0  0
   -5.5390  -34.4330   -5.4870 N   0  0  0  0  0
   -4.0670  -35.8790   -6.8500 N   0  0  0  0  0
   -4.5020  -33.9940   -8.4230 C   0  0  0  0  0
   -4.3020  -33.4950   -9.7160 C   0  0  0  0  0
   -3.4670  -34.1820  -10.5840 C   0  0  0  0  0
   -3.1430  -33.4870  -12.1210 Cl  0  0  0  0  0
   -1.9200  -36.0890  -11.1930 C   0  0  0  0  0
   -2.5976  -36.8265   -8.7058 H   0  0  0  0  0
   -3.3515  -40.0050   -3.9503 H   0  0  0  0  0
   -2.1566  -38.6346   -1.5347 H   0  0  0  0  0
   -1.5399  -40.0953   -2.3454 H   0  0  0  0  0
   -1.5365  -38.5335   -3.2009 H   0  0  0  0  0
   -3.7598  -41.2634   -1.9298 H   0  0  0  0  0
   -4.3765  -39.8027   -1.1191 H   0  0  0  0  0
   -5.2572  -40.4905   -2.5056 H   0  0  0  0  0
   -4.7685  -37.7839   -2.5626 H   0  0  0  0  0
   -7.0215  -33.9582   -2.6149 H   0  0  0  0  0
   -7.0757  -32.9674   -4.0766 H   0  0  0  0  0
   -3.5950  -36.7810   -6.7861 H   0  0  0  0  0
   -5.1128  -33.4473   -7.7046 H   0  0  0  0  0
   -4.7966  -32.5779  -10.0362 H   0  0  0  0  0
   -0.9285  -36.1790  -10.7492 H   0  0  0  0  0
   -2.3234  -37.0825  -11.3887 H   0  0  0  0  0
   -1.8519  -35.5325  -12.1278 H   0  0  0  0  0
  2  1  4  0  0  0
  1 19  4  0  0  0
  1 21  1  0  0  0
  3  2  4  0  0  0
 16  3  1  0  0  0
  3 17  4  0  0  0
 12  4  4  0  0  0
  4 15  4  0  0  0
  4 16  1  0  0  0
  5 13  4  0  0  0
  5 14  1  0  0  0
 15  5  4  0  0  0
  6 10  2  0  0  0
 11  6  1  0  0  0
  6 12  1  0  0  0
  7  8  1  0  0  0
  7  9  1  0  0  0
  7 11  1  0  0  0
 12 13  4  0  0  0
 17 18  4  0  0  0
 18 19  4  0  0  0
 19 20  1  0  0  0
  2 22  1  0  0  0
  7 23  1  0  0  0
  8 24  1  0  0  0
  8 25  1  0  0  0
  8 26  1  0  0  0
  9 27  1  0  0  0
  9 28  1  0  0  0
  9 29  1  0  0  0
 11 30  1  0  0  0
 14 31  1  0  0  0
 14 32  1  0  0  0
 16 33  1  0  0  0
 17 34  1  0  0  0
 18 35  1  0  0  0
 21 36  1  0  0  0
 21 37  1  0  0  0
 21 38  1  0  0  0
M  END
$$$$
