4li8_ligand
  -I-interpret- 

 67 71  0  0  0  0  0  0  0  0999 V2000
  -25.9700  -13.1140    7.9420 O   0  0  0  0  0
  -26.7240  -12.6230    6.8380 C   0  0  0  0  0
  -27.0870  -11.1610    7.1360 C   0  0  0  0  0
  -24.6800  -12.5130    8.0880 C   0  0  0  0  0
  -24.7020  -11.0060    7.8750 C   0  0  0  0  0
  -25.8260  -10.3820    7.4360 C   0  0  0  0  0
  -25.8590   -9.0040    7.2310 N   0  0  0  0  0
  -24.7820   -8.3360    7.4830 C   0  0  0  0  0
  -23.5990   -8.9100    7.9370 N   0  0  0  0  0
  -23.4860  -10.2260    8.1490 C   0  0  0  0  0
  -24.6680   -6.8450    7.2950 C   0  0  0  0  0
  -25.6350   -5.9840    7.9860 N   0  0  0  0  0
  -22.4270  -10.6910    8.5480 O   0  0  0  0  0
  -25.7360   -6.0000    9.3410 C   0  0  0  0  0
  -25.0600   -6.7660   10.0420 O   0  0  0  0  0
  -26.7040   -5.0440   10.0540 C   0  0  0  0  0
  -25.9000   -4.2460   11.0240 N   0  3  0  0  0
  -26.6280   -3.1120   11.5970 C   0  0  0  0  0
  -25.8030   -2.5710   12.7750 C   0  0  0  0  0
  -24.3870   -2.1170   12.3520 C   0  0  0  0  0
  -23.7010   -3.2240   11.5170 C   0  0  0  0  0
  -24.6310   -3.7940   10.4370 C   0  0  0  0  0
  -23.5060   -1.7430   13.5600 C   0  0  0  0  0
  -23.5020   -2.4920   14.5360 O   0  0  0  0  0
  -22.6670   -0.5020   13.4840 C   0  0  0  0  0
  -21.7160   -0.2320   14.5040 C   0  0  0  0  0
  -21.0480    1.8310   13.3710 C   0  0  0  0  0
  -21.9820    1.5680   12.3570 C   0  0  0  0  0
  -20.9120    0.9310   14.4540 C   0  0  0  0  0
  -22.7840    0.4160   12.4180 C   0  0  0  0  0
  -20.2870    2.9500   13.2880 F   0  0  0  0  0
  -26.3580   -5.1150    7.0400 C   0  0  0  0  0
  -25.6560   -3.8720    6.6000 C   0  0  0  0  0
  -26.1120   -2.5750    6.6260 C   0  0  0  0  0
  -25.1680   -1.6440    6.0960 C   0  0  0  0  0
  -24.0160   -2.2490    5.6670 C   0  0  0  0  0
  -24.0570   -3.9740    5.9040 S   0  0  0  0  0
  -27.6268  -13.2180    6.6999 H   0  0  0  0  0
  -26.1406  -12.6900    5.9197 H   0  0  0  0  0
  -27.7541  -11.1197    7.9970 H   0  0  0  0  0
  -27.5865  -10.7261    6.2703 H   0  0  0  0  0
  -24.0231  -12.9465    7.3339 H   0  0  0  0  0
  -24.3382  -12.7007    9.1059 H   0  0  0  0  0
  -22.7936   -8.3095    8.1135 H   0  0  0  0  0
  -24.8393   -6.6750    6.2321 H   0  0  0  0  0
  -23.6961   -6.5762    7.7088 H   0  0  0  0  0
  -27.4849   -5.6025   10.5701 H   0  0  0  0  0
  -27.1977   -4.3904    9.3349 H   0  0  0  0  0
  -25.6983   -4.8848   11.7932 H   0  0  0  0  0
  -27.6133   -3.4287   11.9390 H   0  0  0  0  0
  -26.7698   -2.3349   10.8459 H   0  0  0  0  0
  -25.6935   -3.3739   13.5040 H   0  0  0  0  0
  -26.3256   -1.7044   13.1799 H   0  0  0  0  0
  -24.5032   -1.2188   11.7455 H   0  0  0  0  0
  -23.4250   -4.0355   12.1903 H   0  0  0  0  0
  -22.8333   -2.7877   11.0222 H   0  0  0  0  0
  -24.8410   -3.0125    9.7068 H   0  0  0  0  0
  -24.1401   -4.6450    9.9649 H   0  0  0  0  0
  -21.6044   -0.9288   15.3347 H   0  0  0  0  0
  -22.0854    2.2590   11.5203 H   0  0  0  0  0
  -20.1911    1.1327   15.2463 H   0  0  0  0  0
  -23.5102    0.2276   11.6273 H   0  0  0  0  0
  -27.2556   -4.7840    7.5623 H   0  0  0  0  0
  -26.5072   -5.7104    6.1393 H   0  0  0  0  0
  -27.0907   -2.2879    7.0106 H   0  0  0  0  0
  -25.3445   -0.5699    6.0390 H   0  0  0  0  0
  -23.1734   -1.7139    5.2291 H   0  0  0  0  0
  2  1  1  0  0  0
  4  1  1  0  0  0
  3  2  1  0  0  0
  6  3  1  0  0  0
  5  4  1  0  0  0
  6  5  2  0  0  0
 10  5  1  0  0  0
  7  6  1  0  0  0
  8  7  2  0  0  0
  8  9  1  0  0  0
 11  8  1  0  0  0
  9 10  1  0  0  0
 10 13  2  0  0  0
 12 11  1  0  0  0
 14 12  1  0  0  0
 12 32  1  0  0  0
 14 15  2  0  0  0
 16 14  1  0  0  0
 17 16  1  0  0  0
 18 17  1  0  0  0
 22 17  1  0  0  0
 19 18  1  0  0  0
 20 19  1  0  0  0
 20 21  1  0  0  0
 23 20  1  0  0  0
 21 22  1  0  0  0
 23 24  2  0  0  0
 25 23  1  0  0  0
 26 25  4  0  0  0
 25 30  4  0  0  0
 29 26  4  0  0  0
 27 28  4  0  0  0
 27 29  4  0  0  0
 27 31  1  0  0  0
 28 30  4  0  0  0
 32 33  1  0  0  0
 33 34  4  0  0  0
 33 37  4  0  0  0
 34 35  4  0  0  0
 35 36  4  0  0  0
 36 37  4  0  0  0
  2 38  1  0  0  0
  2 39  1  0  0  0
  3 40  1  0  0  0
  3 41  1  0  0  0
  4 42  1  0  0  0
  4 43  1  0  0  0
  9 44  1  0  0  0
 11 45  1  0  0  0
 11 46  1  0  0  0
 16 47  1  0  0  0
 16 48  1  0  0  0
 17 49  1  0  0  0
 18 50  1  0  0  0
 18 51  1  0  0  0
 19 52  1  0  0  0
 19 53  1  0  0  0
 20 54  1  0  0  0
 21 55  1  0  0  0
 21 56  1  0  0  0
 22 57  1  0  0  0
 22 58  1  0  0  0
 26 59  1  0  0  0
 28 60  1  0  0  0
 29 61  1  0  0  0
 30 62  1  0  0  0
 32 63  1  0  0  0
 32 64  1  0  0  0
 34 65  1  0  0  0
 35 66  1  0  0  0
 36 67  1  0  0  0
M  END
$$$$
