6bh1_ligand
  -I-interpret- 

 53 56  0  0  0  0  0  0  0  0999 V2000
  -29.1370   22.0430    3.6580 C   0  0  0  0  0
  -27.3900   23.0450    5.5440 C   0  0  0  0  0
  -25.1390   24.9050    1.2210 C   0  0  0  0  0
  -21.4960   23.9890    0.7180 C   0  0  0  0  0
  -21.1170   25.3760    0.3030 C   0  0  0  0  0
  -22.0750   25.8930   -0.7260 C   0  0  0  0  0
  -24.5830   20.2200    3.2500 C   0  0  0  0  0
  -23.1890   19.0720    7.7300 C   0  0  0  0  0
  -23.3220   18.7000    6.2840 C   0  0  0  0  0
  -23.8730   19.5590    5.3600 C   0  0  0  0  0
  -24.8450   21.2800    4.2740 C   0  0  0  0  0
  -25.4640   24.4380    2.6160 C   0  0  0  0  0
  -23.0150   23.8220    0.7880 C   0  0  0  0  0
  -23.5100   25.9510   -0.2010 C   0  0  0  0  0
  -23.9700   19.1600    4.0520 C   0  0  0  0  0
  -23.0290   17.1070    4.5040 C   0  0  0  0  0
  -22.8880   17.4400    5.8570 C   0  0  0  0  0
  -24.3850   20.8440    5.4950 N   0  0  0  0  0
  -23.6940   25.1060    0.9920 N   0  3  0  0  0
  -23.5600   17.9500    3.6140 N   0  0  0  0  0
  -23.8410   20.0530    8.1870 O   0  0  0  0  0
  -25.1630   23.0300    2.7380 O   0  0  0  0  0
  -22.4430   18.4280    8.4940 O   0  0  0  0  0
  -25.3650   22.4870    4.0530 C   0  0  0  0  0
  -26.8550   22.5020    4.3610 C   0  0  0  0  0
  -27.7720   22.0190    3.4280 C   0  0  0  0  0
  -29.6320   22.5810    4.8300 C   0  0  0  0  0
  -28.7530   23.0830    5.7800 C   0  0  0  0  0
  -26.3630   23.6820    6.7780 Cl  0  0  0  0  0
  -29.8218   21.6369    2.9135 H   0  0  0  0  0
  -25.6321   25.8657    1.0727 H   0  0  0  0  0
  -25.4773   24.1338    0.5290 H   0  0  0  0  0
  -21.0811   23.7986    1.7078 H   0  0  0  0  0
  -21.1046   23.2882   -0.0194 H   0  0  0  0  0
  -20.1139   25.3576   -0.1232 H   0  0  0  0  0
  -21.1469   26.0284    1.1756 H   0  0  0  0  0
  -22.0533   25.2162   -1.5802 H   0  0  0  0  0
  -21.7709   26.9046   -0.9948 H   0  0  0  0  0
  -24.7946   20.2339    2.1808 H   0  0  0  0  0
  -26.5233   24.6006    2.8149 H   0  0  0  0  0
  -24.8669   24.9997    3.3344 H   0  0  0  0  0
  -23.2502   23.1718    1.6306 H   0  0  0  0  0
  -23.3575   23.3990   -0.1564 H   0  0  0  0  0
  -24.1750   25.5861   -0.9838 H   0  0  0  0  0
  -23.7318   26.9823    0.0735 H   0  0  0  0  0
  -22.6940   16.1265    4.1656 H   0  0  0  0  0
  -22.4499   16.7334    6.5619 H   0  0  0  0  0
  -23.2903   25.5586    1.8121 H   0  0  0  0  0
  -24.3649   20.4432    7.4835 H   0  0  0  0  0
  -24.8073   23.1310    4.7330 H   0  0  0  0  0
  -27.4024   21.6096    2.4879 H   0  0  0  0  0
  -30.7070   22.6112    5.0079 H   0  0  0  0  0
  -29.1353   23.5058    6.7091 H   0  0  0  0  0
 26  1  4  0  0  0
  1 27  4  0  0  0
 25  2  4  0  0  0
  2 28  4  0  0  0
  2 29  1  0  0  0
 12  3  1  0  0  0
  3 19  1  0  0  0
  4  5  1  0  0  0
 13  4  1  0  0  0
  6  5  1  0  0  0
 14  6  1  0  0  0
 11  7  4  0  0  0
  7 15  4  0  0  0
  9  8  1  0  0  0
  8 21  1  0  0  0
  8 23  2  0  0  0
 10  9  4  0  0  0
  9 17  4  0  0  0
 10 15  4  0  0  0
 18 10  4  0  0  0
 11 18  4  0  0  0
 24 11  1  0  0  0
 22 12  1  0  0  0
 19 13  1  0  0  0
 19 14  1  0  0  0
 15 20  4  0  0  0
 17 16  4  0  0  0
 20 16  4  0  0  0
 24 22  1  0  0  0
 25 24  1  0  0  0
 25 26  4  0  0  0
 27 28  4  0  0  0
  1 30  1  0  0  0
  3 31  1  0  0  0
  3 32  1  0  0  0
  4 33  1  0  0  0
  4 34  1  0  0  0
  5 35  1  0  0  0
  5 36  1  0  0  0
  6 37  1  0  0  0
  6 38  1  0  0  0
  7 39  1  0  0  0
 12 40  1  0  0  0
 12 41  1  0  0  0
 13 42  1  0  0  0
 13 43  1  0  0  0
 14 44  1  0  0  0
 14 45  1  0  0  0
 16 46  1  0  0  0
 17 47  1  0  0  0
 19 48  1  0  0  0
 21 49  1  0  0  0
 24 50  1  0  0  0
 26 51  1  0  0  0
 27 52  1  0  0  0
 28 53  1  0  0  0
M  END
$$$$
