4edu_ligand
  -I-interpret- 

139139  0  0  0  0  0  0  0  0999 V2000
   41.9510  -17.0900   40.9550 N   0  3  0  0  0
   42.1080  -15.8410   41.7590 C   0  0  0  0  0
   40.9910  -15.7110   42.8120 C   0  0  0  0  0
   41.1650  -16.1210   43.9690 O   0  0  0  0  0
   42.1020  -14.5820   40.8510 C   0  0  0  0  0
   39.8470  -15.1640   42.3790 N   0  0  0  0  0
   38.7260  -14.7490   43.2620 C   0  0  0  0  0
   38.2040  -15.7530   44.2740 C   0  0  0  0  0
   38.3480  -16.9670   44.1240 O   0  0  0  0  0
   37.5210  -14.3300   42.4100 C   0  0  0  0  0
   37.4580  -12.8690   42.0990 C   0  0  0  0  0
   36.9180  -12.4020   40.9630 N   0  0  0  0  0
   37.8750  -11.7520   42.8290 C   0  0  0  0  0
   36.9880  -11.0560   40.9520 C   0  0  0  0  0
   37.5730  -10.6590   42.0960 N   0  0  0  0  0
   37.5820  -15.2020   45.3190 N   0  0  0  0  0
   36.6150  -15.8990   46.1830 C   0  0  0  0  0
   35.3890  -14.9730   46.2980 C   0  0  0  0  0
   35.4900  -13.7690   46.1030 O   0  0  0  0  0
   37.1990  -16.2190   47.5810 C   0  0  0  0  0
   37.8030  -17.6270   47.7260 C   0  0  0  0  0
   38.0060  -18.0470   49.1870 C   0  0  0  0  0
   36.7380  -18.2410   49.9060 N   0  0  0  0  0
   36.1410  -19.4230   50.0810 C   0  0  0  0  0
   36.6890  -20.5310   49.5900 N   0  0  0  0  0
   34.9920  -19.4970   50.7480 N   0  0  0  0  0
   34.2270  -15.5390   46.5840 N   0  0  0  0  0
   33.0240  -14.7040   46.6750 C   0  0  0  0  0
   33.1140  -13.7960   47.9040 C   0  0  0  0  0
   33.5270  -14.2360   48.9840 O   0  0  0  0  0
   31.7470  -15.5600   46.7420 C   0  0  0  0  0
   31.2390  -16.2480   45.4500 C   0  0  0  0  0
   30.2310  -17.3440   45.7690 C   0  0  0  0  0
   30.6520  -15.2310   44.4730 C   0  0  0  0  0
   32.7210  -12.5370   47.7330 N   0  0  0  0  0
   32.8200  -11.5240   48.7910 C   0  0  0  0  0
   31.8350  -11.7590   49.9300 C   0  0  0  0  0
   30.6750  -12.0880   49.6710 O   0  0  0  0  0
   32.5650  -10.1260   48.2000 C   0  0  0  0  0
   33.6730   -9.5930   47.3000 C   0  0  0  0  0
   33.2760   -8.2550   46.6820 C   0  0  0  0  0
   34.9820   -9.4930   48.0940 C   0  0  0  0  0
   32.2940  -11.5790   51.1850 N   0  0  0  0  0
   31.3860  -11.5580   52.3590 C   0  0  0  0  0
   30.8520  -10.1110   52.5240 C   0  0  0  0  0
   31.1690   -9.2730   51.7130 O   0  0  0  0  0
   32.0790  -12.1080   53.6420 C   0  0  0  0  0
   33.3280  -11.3460   54.1420 C   0  0  0  0  0
   33.8190  -11.8000   55.5330 C   0  0  0  0  0
   30.0290   -9.8430   53.5450 N   0  0  0  0  0
   29.6060   -8.4430   53.9080 C   0  0  0  0  0
   28.0860   -8.4080   54.1010 C   0  0  0  0  0
   27.3760   -8.7220   52.7860 C   0  0  0  0  0
   25.9490   -8.1790   52.6770 C   0  0  0  0  0
   25.8640   -7.1440   51.5670 C   0  0  0  0  0
   24.6010   -7.1630   50.8830 N   0  3  0  0  0
   24.0640   -5.9620   50.3120 C   0  0  0  0  0
   30.2440   -7.9350   55.2020 C   0  0  0  0  0
   30.0680   -8.5390   56.2640 O   0  0  0  0  0
   30.9540   -6.8000   55.1290 N   0  0  0  0  0
   31.7820   -6.3000   56.2670 C   0  0  0  0  0
   31.0320   -5.8520   57.5210 C   0  0  0  0  0
   31.5990   -5.1770   58.4070 O   0  0  0  0  0
   29.9843   -6.1259   57.6448 O   0  0  0  0  0
   41.9588  -17.8974   41.5783 H   0  0  0  0  0
   41.0660  -17.0582   40.4489 H   0  0  0  0  0
   42.7214  -17.1644   40.2907 H   0  0  0  0  0
   43.0703  -15.9094   42.2663 H   0  0  0  0  0
   41.1361  -14.4997   40.3526 H   0  0  0  0  0
   42.2744  -13.6951   41.4607 H   0  0  0  0  0
   42.8912  -14.6703   40.1044 H   0  0  0  0  0
   39.7381  -15.0228   41.3747 H   0  0  0  0  0
   39.1776  -13.9452   43.8435 H   0  0  0  0  0
   36.6260  -14.5726   42.9829 H   0  0  0  0  0
   37.6058  -14.8549   41.4585 H   0  0  0  0  0
   38.3547  -11.7617   43.8077 H   0  0  0  0  0
   36.6325  -10.4031   40.1549 H   0  0  0  0  0
   37.7920  -14.2274   45.5344 H   0  0  0  0  0
   36.3503  -16.8632   45.7490 H   0  0  0  0  0
   36.3729  -16.1562   48.2893 H   0  0  0  0  0
   38.0084  -15.5098   47.7541 H   0  0  0  0  0
   38.7810  -17.6191   47.2447 H   0  0  0  0  0
   37.1086  -18.3337   47.2716 H   0  0  0  0  0
   38.5562  -17.2515   49.6895 H   0  0  0  0  0
   38.5400  -18.9972   49.1899 H   0  0  0  0  0
   36.2832  -17.4164   50.2980 H   0  0  0  0  0
   37.5692  -20.4806   49.0771 H   0  0  0  0  0
   34.5364  -20.3999   50.8804 H   0  0  0  0  0
   34.5668  -18.6508   51.1269 H   0  0  0  0  0
   34.1686  -16.5454   46.7395 H   0  0  0  0  0
   32.9679  -14.0929   45.7742 H   0  0  0  0  0
   30.9556  -14.8643   47.0207 H   0  0  0  0  0
   31.9913  -16.3781   47.4196 H   0  0  0  0  0
   32.0978  -16.7144   44.9673 H   0  0  0  0  0
   30.7021  -18.0961   46.4018 H   0  0  0  0  0
   29.3780  -16.9106   46.2911 H   0  0  0  0  0
   29.8940  -17.8070   44.8416 H   0  0  0  0  0
   29.8146  -14.7171   44.9450 H   0  0  0  0  0
   31.4188  -14.5054   44.2015 H   0  0  0  0  0
   30.3053  -15.7473   43.5778 H   0  0  0  0  0
   32.3348  -12.2639   46.8293 H   0  0  0  0  0
   33.8275  -11.5975   49.2004 H   0  0  0  0  0
   32.4869   -9.4386   49.0423 H   0  0  0  0  0
   31.6699  -10.2046   47.5829 H   0  0  0  0  0
   33.8303  -10.2876   46.4748 H   0  0  0  0  0
   32.3722   -8.3851   46.0868 H   0  0  0  0  0
   33.0892   -7.5311   47.4752 H   0  0  0  0  0
   34.0841   -7.8967   46.0443 H   0  0  0  0  0
   34.8434   -8.8158   48.9368 H   0  0  0  0  0
   35.2587  -10.4810   48.4619 H   0  0  0  0  0
   35.7706   -9.1114   47.4455 H   0  0  0  0  0
   33.2955  -11.4535   51.3321 H   0  0  0  0  0
   30.5423  -12.2283   52.1947 H   0  0  0  0  0
   32.4221  -13.1114   53.3897 H   0  0  0  0  0
   31.3401  -12.0265   54.4392 H   0  0  0  0  0
   33.0567  -10.2932   54.2206 H   0  0  0  0  0
   34.1330  -11.5410   53.4335 H   0  0  0  0  0
   33.0277  -11.6417   56.2657 H   0  0  0  0  0
   34.0772  -12.8584   55.4981 H   0  0  0  0  0
   34.6976  -11.2194   55.8141 H   0  0  0  0  0
   29.6727  -10.6201   54.1014 H   0  0  0  0  0
   29.9347   -7.8011   53.0907 H   0  0  0  0  0
   27.7929   -7.4124   54.4342 H   0  0  0  0  0
   27.8048   -9.1546   54.8437 H   0  0  0  0  0
   27.3062   -9.8076   52.7170 H   0  0  0  0  0
   27.9552   -8.2472   51.9940 H   0  0  0  0  0
   25.6720   -7.7119   53.6221 H   0  0  0  0  0
   25.2708   -9.0016   52.4502 H   0  0  0  0  0
   26.6416   -7.3720   50.8380 H   0  0  0  0  0
   25.9838   -6.1594   52.0190 H   0  0  0  0  0
   23.9282   -7.4203   51.6052 H   0  0  0  0  0
   24.7589   -7.7734   50.0812 H   0  0  0  0  0
   23.9221   -5.2197   51.0974 H   0  0  0  0  0
   24.7572   -5.5747   49.5653 H   0  0  0  0  0
   23.1060   -6.1820   49.8408 H   0  0  0  0  0
   30.9277   -6.2584   54.2650 H   0  0  0  0  0
   32.2982   -5.4150   55.8951 H   0  0  0  0  0
   32.4050   -7.1397   56.5751 H   0  0  0  0  0
   32.5112   -5.0194   58.1529 H   0  0  0  0  0
  1  2  1  0  0  0
  2  3  1  0  0  0
  2  5  1  0  0  0
  3  4  2  0  0  0
  3  6  1  0  0  0
  6  7  1  0  0  0
  7  8  1  0  0  0
  7 10  1  0  0  0
  8  9  2  0  0  0
  8 16  1  0  0  0
 10 11  1  0  0  0
 11 12  4  0  0  0
 11 13  4  0  0  0
 12 14  4  0  0  0
 13 15  4  0  0  0
 14 15  4  0  0  0
 16 17  1  0  0  0
 17 18  1  0  0  0
 17 20  1  0  0  0
 18 19  2  0  0  0
 18 27  1  0  0  0
 20 21  1  0  0  0
 21 22  1  0  0  0
 22 23  1  0  0  0
 23 24  1  0  0  0
 24 25  2  0  0  0
 24 26  1  0  0  0
 27 28  1  0  0  0
 28 29  1  0  0  0
 28 31  1  0  0  0
 29 30  2  0  0  0
 29 35  1  0  0  0
 31 32  1  0  0  0
 32 33  1  0  0  0
 32 34  1  0  0  0
 35 36  1  0  0  0
 36 37  1  0  0  0
 36 39  1  0  0  0
 37 38  2  0  0  0
 37 43  1  0  0  0
 39 40  1  0  0  0
 40 41  1  0  0  0
 40 42  1  0  0  0
 43 44  1  0  0  0
 44 45  1  0  0  0
 44 47  1  0  0  0
 45 46  2  0  0  0
 45 50  1  0  0  0
 47 48  1  0  0  0
 48 49  1  0  0  0
 50 51  1  0  0  0
 51 52  1  0  0  0
 51 58  1  0  0  0
 52 53  1  0  0  0
 53 54  1  0  0  0
 54 55  1  0  0  0
 55 56  1  0  0  0
 56 57  1  0  0  0
 58 59  2  0  0  0
 58 60  1  0  0  0
 60 61  1  0  0  0
 61 62  1  0  0  0
 62 63  1  0  0  0
 62 64  2  0  0  0
  1 65  1  0  0  0
  1 66  1  0  0  0
  1 67  1  0  0  0
  2 68  1  0  0  0
  5 69  1  0  0  0
  5 70  1  0  0  0
  5 71  1  0  0  0
  6 72  1  0  0  0
  7 73  1  0  0  0
 10 74  1  0  0  0
 10 75  1  0  0  0
 13 76  1  0  0  0
 14 77  1  0  0  0
 16 78  1  0  0  0
 17 79  1  0  0  0
 20 80  1  0  0  0
 20 81  1  0  0  0
 21 82  1  0  0  0
 21 83  1  0  0  0
 22 84  1  0  0  0
 22 85  1  0  0  0
 23 86  1  0  0  0
 25 87  1  0  0  0
 26 88  1  0  0  0
 26 89  1  0  0  0
 27 90  1  0  0  0
 28 91  1  0  0  0
 31 92  1  0  0  0
 31 93  1  0  0  0
 32 94  1  0  0  0
 33 95  1  0  0  0
 33 96  1  0  0  0
 33 97  1  0  0  0
 34 98  1  0  0  0
 34 99  1  0  0  0
 34100  1  0  0  0
 35101  1  0  0  0
 36102  1  0  0  0
 39103  1  0  0  0
 39104  1  0  0  0
 40105  1  0  0  0
 41106  1  0  0  0
 41107  1  0  0  0
 41108  1  0  0  0
 42109  1  0  0  0
 42110  1  0  0  0
 42111  1  0  0  0
 43112  1  0  0  0
 44113  1  0  0  0
 47114  1  0  0  0
 47115  1  0  0  0
 48116  1  0  0  0
 48117  1  0  0  0
 49118  1  0  0  0
 49119  1  0  0  0
 49120  1  0  0  0
 50121  1  0  0  0
 51122  1  0  0  0
 52123  1  0  0  0
 52124  1  0  0  0
 53125  1  0  0  0
 53126  1  0  0  0
 54127  1  0  0  0
 54128  1  0  0  0
 55129  1  0  0  0
 55130  1  0  0  0
 56131  1  0  0  0
 56132  1  0  0  0
 57133  1  0  0  0
 57134  1  0  0  0
 57135  1  0  0  0
 60136  1  0  0  0
 61137  1  0  0  0
 61138  1  0  0  0
 63139  1  0  0  0
M  END
$$$$
