### 
### Created by X-TOOL on Mon Sep 10 21:13:10 2018
### 

@<TRIPOS>MOLECULE
4edu_ligand
  140   140     1     0     0
SMALL
GAST_HUCK


@<TRIPOS>ATOM
      1 N          41.9510  -17.0900   40.9550 N.4       1 VAL         0.2377
      2 CA         42.1080  -15.8410   41.7590 C.3       1 VAL         0.0621
      3 C          40.9910  -15.7110   42.8120 C.2       1 VAL         0.2265
      4 O          41.1650  -16.1210   43.9690 O.2       1 VAL        -0.3907
      5 CB         42.1020  -14.5820   40.8510 C.3       1 VAL        -0.0040
      6 N          39.8470  -15.1640   42.3790 N.am      1 HIS        -0.2598
      7 CA         38.7260  -14.7490   43.2620 C.3       1 HIS         0.1370
      8 C          38.2040  -15.7530   44.2740 C.2       1 HIS         0.2054
      9 O          38.3480  -16.9670   44.1240 O.2       1 HIS        -0.3942
     10 CB         37.5210  -14.3300   42.4100 C.3       1 HIS         0.0145
     11 CG         37.4580  -12.8690   42.0990 C.2       1 HIS        -0.0027
     12 ND1        36.9180  -12.4020   40.9630 N.2       1 HIS        -0.3252
     13 CD2        37.8750  -11.7520   42.8290 C.2       1 HIS         0.0291
     14 CE1        36.9880  -11.0560   40.9520 C.2       1 HIS         0.0907
     15 NE2        37.5730  -10.6590   42.0960 N.pl3     1 HIS        -0.2752
     16 N          37.5820  -15.2020   45.3190 N.am      1 ARG        -0.2636
     17 CA         36.6150  -15.8990   46.1830 C.3       1 ARG         0.1311
     18 C          35.3890  -14.9730   46.2980 C.2       1 ARG         0.2039
     19 O          35.4900  -13.7690   46.1030 O.2       1 ARG        -0.3944
     20 CB         37.1990  -16.2190   47.5810 C.3       1 ARG        -0.0092
     21 CG         37.8030  -17.6270   47.7260 C.3       1 ARG        -0.0156
     22 CD         38.0060  -18.0470   49.1870 C.3       1 ARG         0.0627
     23 NE         36.7380  -18.2410   49.9060 N.pl3     1 ARG        -0.2723
     24 CZ         36.1410  -19.4230   50.0810 C.cat     1 ARG         0.2882
     25 NH1        36.6890  -20.5310   49.5900 N.pl3     1 ARG        -0.2849
     26 NH2        34.9920  -19.4970   50.7480 N.pl3     1 ARG        -0.2849
     27 N          34.2270  -15.5390   46.5840 N.am      1 LEU        -0.2637
     28 CA         33.0240  -14.7040   46.6750 C.3       1 LEU         0.1312
     29 C          33.1140  -13.7960   47.9040 C.2       1 LEU         0.2039
     30 O          33.5270  -14.2360   48.9840 O.2       1 LEU        -0.3944
     31 CB         31.7470  -15.5600   46.7420 C.3       1 LEU        -0.0101
     32 CG         31.2390  -16.2480   45.4500 C.3       1 LEU        -0.0425
     33 CD1        30.2310  -17.3440   45.7690 C.3       1 LEU        -0.0625
     34 CD2        30.6520  -15.2310   44.4730 C.3       1 LEU        -0.0625
     35 N          32.7210  -12.5370   47.7330 N.am      1 LEU        -0.2637
     36 CA         32.8200  -11.5240   48.7910 C.3       1 LEU         0.1312
     37 C          31.8350  -11.7590   49.9300 C.2       1 LEU         0.2039
     38 O          30.6750  -12.0880   49.6710 O.2       1 LEU        -0.3944
     39 CB         32.5650  -10.1260   48.2000 C.3       1 LEU        -0.0101
     40 CG         33.6730   -9.5930   47.3000 C.3       1 LEU        -0.0425
     41 CD1        33.2760   -8.2550   46.6820 C.3       1 LEU        -0.0625
     42 CD2        34.9820   -9.4930   48.0940 C.3       1 LEU        -0.0625
     43 N          32.2940  -11.5790   51.1850 N.am      1 ARG        -0.2637
     44 CA         31.3860  -11.5580   52.3590 C.3       1 ARG         0.1310
     45 C          30.8520  -10.1110   52.5240 C.2       1 ARG         0.2039
     46 O          31.1690   -9.2730   51.7130 O.2       1 ARG        -0.3944
     47 CB         32.0790  -12.1080   53.6420 C.3       1 ARG        -0.0126
     48 CG         33.3280  -11.3460   54.1420 C.3       1 ARG        -0.0517
     49 CD         33.8190  -11.8000   55.5330 C.3       1 ARG        -0.0651
     50 N          30.0290   -9.8430   53.5450 N.am      1 MLZ        -0.2637
     51 CA         29.6060   -8.4430   53.9080 C.3       1 MLZ         0.1309
     52 CB         28.0860   -8.4080   54.1010 C.3       1 MLZ        -0.0122
     53 CG         27.3760   -8.7220   52.7860 C.3       1 MLZ        -0.0440
     54 CD         25.9490   -8.1790   52.6770 C.3       1 MLZ        -0.0124
     55 CE         25.8640   -7.1440   51.5670 C.3       1 MLZ        -0.0339
     56 NZ         24.6010   -7.1630   50.8830 N.4       1 MLZ         0.2248
     57 CM         24.0640   -5.9620   50.3120 C.3       1 MLZ        -0.0449
     58 C          30.2440   -7.9350   55.2020 C.2       1 MLZ         0.2031
     59 O          30.0680   -8.5390   56.2640 O.2       1 MLZ        -0.3944
     60 N          30.9540   -6.8000   55.1290 N.am      1 GLY        -0.2722
     61 CA         31.7820   -6.3000   56.2670 C.3       1 GLY         0.0833
     62 C          31.0320   -5.8520   57.5210 C.2       1 GLY         0.0570
     63 O          31.5990   -5.1770   58.4070 O.co2     1 GLY        -0.5669
     64 H          41.9588  -17.8974   41.5783 H         1 VAL         0.2015
     65 H          41.0660  -17.0582   40.4489 H         1 VAL         0.2015
     66 H          42.7214  -17.1644   40.2907 H         1 VAL         0.2015
     67 H          43.0703  -15.9094   42.2663 H         1 VAL         0.1095
     68 H          41.1361  -14.4997   40.3526 H         1 VAL         0.0310
     69 H          42.2744  -13.6951   41.4607 H         1 VAL         0.0310
     70 H          42.8912  -14.6703   40.1044 H         1 VAL         0.0310
     71 H          39.7381  -15.0228   41.3747 H         1 HIS         0.1886
     72 H          39.1776  -13.9452   43.8435 H         1 HIS         0.0817
     73 H          36.6260  -14.5726   42.9829 H         1 HIS         0.0420
     74 H          37.6058  -14.8549   41.4585 H         1 HIS         0.0420
     75 H          38.3547  -11.7617   43.8077 H         1 HIS         0.0729
     76 H          36.6325  -10.4031   40.1549 H         1 HIS         0.1199
     77 H          37.7579   -9.6927   42.3652 H         1 HIS         0.2361
     78 H          37.7920  -14.2274   45.5344 H         1 ARG         0.1883
     79 H          36.3503  -16.8632   45.7490 H         1 ARG         0.0800
     80 H          36.3729  -16.1562   48.2893 H         1 ARG         0.0313
     81 H          38.0084  -15.5098   47.7541 H         1 ARG         0.0313
     82 H          38.7810  -17.6191   47.2447 H         1 ARG         0.0301
     83 H          37.1086  -18.3337   47.2716 H         1 ARG         0.0301
     84 H          38.5562  -17.2515   49.6895 H         1 ARG         0.0689
     85 H          38.5400  -18.9972   49.1899 H         1 ARG         0.0689
     86 H          36.2832  -17.4164   50.2980 H         1 ARG         0.2642
     87 H          37.5692  -20.4806   49.0771 H         1 ARG         0.2615
     88 H          36.2291  -21.4311   49.7264 H         1 ARG         0.2615
     89 H          34.5664  -18.6507   51.1261 H         1 ARG         0.2615
     90 H          34.5368  -20.4000   50.8811 H         1 ARG         0.2615
     91 H          34.1686  -16.5454   46.7395 H         1 LEU         0.1883
     92 H          32.9679  -14.0929   45.7742 H         1 LEU         0.0800
     93 H          30.9556  -14.8643   47.0207 H         1 LEU         0.0315
     94 H          31.9913  -16.3781   47.4196 H         1 LEU         0.0315
     95 H          32.0978  -16.7144   44.9673 H         1 LEU         0.0298
     96 H          30.7021  -18.0961   46.4018 H         1 LEU         0.0232
     97 H          29.3780  -16.9106   46.2911 H         1 LEU         0.0232
     98 H          29.8940  -17.8070   44.8416 H         1 LEU         0.0232
     99 H          29.8146  -14.7171   44.9450 H         1 LEU         0.0232
    100 H          31.4188  -14.5054   44.2015 H         1 LEU         0.0232
    101 H          30.3053  -15.7473   43.5778 H         1 LEU         0.0232
    102 H          32.3348  -12.2639   46.8293 H         1 LEU         0.1883
    103 H          33.8275  -11.5975   49.2004 H         1 LEU         0.0800
    104 H          32.4869   -9.4386   49.0423 H         1 LEU         0.0315
    105 H          31.6699  -10.2046   47.5829 H         1 LEU         0.0315
    106 H          33.8303  -10.2876   46.4748 H         1 LEU         0.0298
    107 H          32.3722   -8.3851   46.0868 H         1 LEU         0.0232
    108 H          33.0892   -7.5311   47.4752 H         1 LEU         0.0232
    109 H          34.0841   -7.8967   46.0443 H         1 LEU         0.0232
    110 H          34.8434   -8.8158   48.9368 H         1 LEU         0.0232
    111 H          35.2587  -10.4810   48.4619 H         1 LEU         0.0232
    112 H          35.7706   -9.1114   47.4455 H         1 LEU         0.0232
    113 H          33.2955  -11.4535   51.3321 H         1 ARG         0.1883
    114 H          30.5423  -12.2283   52.1947 H         1 ARG         0.0800
    115 H          32.4221  -13.1114   53.3897 H         1 ARG         0.0312
    116 H          31.3401  -12.0265   54.4392 H         1 ARG         0.0312
    117 H          33.0567  -10.2932   54.2206 H         1 ARG         0.0265
    118 H          34.1330  -11.5410   53.4335 H         1 ARG         0.0265
    119 H          33.0277  -11.6417   56.2657 H         1 ARG         0.0230
    120 H          34.0772  -12.8584   55.4981 H         1 ARG         0.0230
    121 H          34.6976  -11.2194   55.8141 H         1 ARG         0.0230
    122 H          29.6727  -10.6201   54.1014 H         1 MLZ         0.1883
    123 H          29.9347   -7.8011   53.0907 H         1 MLZ         0.0800
    124 H          27.7929   -7.4124   54.4342 H         1 MLZ         0.0312
    125 H          27.8048   -9.1546   54.8437 H         1 MLZ         0.0312
    126 H          27.3062   -9.8076   52.7170 H         1 MLZ         0.0269
    127 H          27.9552   -8.2472   51.9940 H         1 MLZ         0.0269
    128 H          25.6720   -7.7119   53.6221 H         1 MLZ         0.0317
    129 H          25.2708   -9.0016   52.4502 H         1 MLZ         0.0317
    130 H          26.6416   -7.3720   50.8380 H         1 MLZ         0.0814
    131 H          25.9838   -6.1594   52.0190 H         1 MLZ         0.0814
    132 H          23.9282   -7.4203   51.6052 H         1 MLZ         0.2011
    133 H          24.7589   -7.7734   50.0812 H         1 MLZ         0.2011
    134 H          23.9221   -5.2197   51.0974 H         1 MLZ         0.0777
    135 H          24.7572   -5.5747   49.5653 H         1 MLZ         0.0777
    136 H          23.1060   -6.1820   49.8408 H         1 MLZ         0.0777
    137 H          30.9277   -6.2584   54.2650 H         1 GLY         0.1873
    138 H          32.2982   -5.4150   55.8951 H         1 GLY         0.0689
    139 H          32.4050   -7.1397   56.5751 H         1 GLY         0.0689
    140 H          29.9843   -6.1259   57.6448 O.co2     1 GLY        -0.5669
@<TRIPOS>BOND
     1    1    2 1  
     2    2    3 1  
     3    2    5 1  
     4    3    4 2  
     5    3    6 am 
     6    6    7 1  
     7    7    8 1  
     8    7   10 1  
     9    8    9 2  
    10    8   16 am 
    11   10   11 1  
    12   11   12 1  
    13   11   13 2  
    14   12   14 2  
    15   13   15 1  
    16   14   15 1  
    17   16   17 1  
    18   17   18 1  
    19   17   20 1  
    20   18   19 2  
    21   18   27 am 
    22   20   21 1  
    23   21   22 1  
    24   22   23 1  
    25   23   24 ar 
    26   24   25 ar 
    27   24   26 ar 
    28   27   28 1  
    29   28   29 1  
    30   28   31 1  
    31   29   30 2  
    32   29   35 am 
    33   31   32 1  
    34   32   33 1  
    35   32   34 1  
    36   35   36 1  
    37   36   37 1  
    38   36   39 1  
    39   37   38 2  
    40   37   43 am 
    41   39   40 1  
    42   40   41 1  
    43   40   42 1  
    44   43   44 1  
    45   44   45 1  
    46   44   47 1  
    47   45   46 2  
    48   45   50 am 
    49   47   48 1  
    50   48   49 1  
    51   50   51 1  
    52   51   52 1  
    53   51   58 1  
    54   52   53 1  
    55   53   54 1  
    56   54   55 1  
    57   55   56 1  
    58   56   57 1  
    59   58   59 2  
    60   58   60 am 
    61   60   61 1  
    62   61   62 1  
    63   62   63 ar 
    64    1   64 1  
    65    1   65 1  
    66    1   66 1  
    67    2   67 1  
    68    5   68 1  
    69    5   69 1  
    70    5   70 1  
    71    6   71 1  
    72    7   72 1  
    73   10   73 1  
    74   10   74 1  
    75   13   75 1  
    76   14   76 1  
    77   15   77 1  
    78   16   78 1  
    79   17   79 1  
    80   20   80 1  
    81   20   81 1  
    82   21   82 1  
    83   21   83 1  
    84   22   84 1  
    85   22   85 1  
    86   23   86 1  
    87   25   87 1  
    88   25   88 1  
    89   26   89 1  
    90   26   90 1  
    91   27   91 1  
    92   28   92 1  
    93   31   93 1  
    94   31   94 1  
    95   32   95 1  
    96   33   96 1  
    97   33   97 1  
    98   33   98 1  
    99   34   99 1  
   100   34  100 1  
   101   34  101 1  
   102   35  102 1  
   103   36  103 1  
   104   39  104 1  
   105   39  105 1  
   106   40  106 1  
   107   41  107 1  
   108   41  108 1  
   109   41  109 1  
   110   42  110 1  
   111   42  111 1  
   112   42  112 1  
   113   43  113 1  
   114   44  114 1  
   115   47  115 1  
   116   47  116 1  
   117   48  117 1  
   118   48  118 1  
   119   49  119 1  
   120   49  120 1  
   121   49  121 1  
   122   50  122 1  
   123   51  123 1  
   124   52  124 1  
   125   52  125 1  
   126   53  126 1  
   127   53  127 1  
   128   54  128 1  
   129   54  129 1  
   130   55  130 1  
   131   55  131 1  
   132   56  132 1  
   133   56  133 1  
   134   57  134 1  
   135   57  135 1  
   136   57  136 1  
   137   60  137 1  
   138   61  138 1  
   139   61  139 1  
   140   62  140 ar 
@<TRIPOS>SUBSTRUCTURE
     1 VAL         1

