4ab9_ligand
  -I-interpret- 

 21 22  0  0  0  0  0  0  0  0999 V2000
    3.0210  -15.5680   19.0340 N   0  3  0  0  0
    0.6420  -14.3630   13.6210 C   0  0  0  0  0
    1.7020  -15.8220   18.3710 C   0  0  0  0  0
    1.8140  -12.1730   14.1640 O   0  0  0  0  0
    1.6410  -14.8380   17.2540 C   0  0  0  0  0
    0.8170  -12.8230   13.3500 C   0  0  0  0  0
    1.7720  -13.0400   15.2490 C   0  0  0  0  0
    1.1960  -15.1660   16.0180 C   0  0  0  0  0
    2.2100  -13.6180   17.4810 C   0  0  0  0  0
    1.2070  -14.2430   14.9990 C   0  0  0  0  0
    2.2950  -12.6940   16.4760 C   0  0  0  0  0
    3.1358  -16.2110   19.8174 H   0  0  0  0  0
    3.7726  -15.7137   18.3600 H   0  0  0  0  0
    3.0496  -14.6069   19.3745 H   0  0  0  0  0
    0.2574  -15.1953   13.0316 H   0  0  0  0  0
    0.8696  -15.7007   19.0642 H   0  0  0  0  0
    1.6192  -16.8480   18.0126 H   0  0  0  0  0
    0.2293  -12.2883   12.6038 H   0  0  0  0  0
    0.8248  -16.1732   15.8287 H   0  0  0  0  0
    2.5995  -13.3784   18.4705 H   0  0  0  0  0
    2.7587  -11.7212   16.6395 H   0  0  0  0  0
  3  1  1  0  0  0
  2  6  4  0  0  0
 10  2  4  0  0  0
  5  3  1  0  0  0
  4  6  4  0  0  0
  7  4  4  0  0  0
  8  5  4  0  0  0
  5  9  4  0  0  0
 10  7  4  0  0  0
  7 11  4  0  0  0
  8 10  4  0  0  0
  9 11  4  0  0  0
  1 12  1  0  0  0
  1 13  1  0  0  0
  1 14  1  0  0  0
  2 15  1  0  0  0
  3 16  1  0  0  0
  3 17  1  0  0  0
  6 18  1  0  0  0
  8 19  1  0  0  0
  9 20  1  0  0  0
 11 21  1  0  0  0
M  END
$$$$
