4lj5_ligand
  -I-interpret- 

 42 44  0  0  0  0  0  0  0  0999 V2000
   54.1090   18.7210   46.1100 P   0  0  0  0  0
   55.1640   18.6820   45.0340 O   0  0  0  0  0
   54.4480   17.9270   47.3470 O   0  0  0  0  0
   52.7000   18.5320   45.6140 O   0  0  0  0  0
   53.0980   20.7840   47.7260 P   0  0  0  0  0
   51.7280   20.8790   47.0900 O   0  0  0  0  0
   53.2910   20.0100   49.0040 O   0  0  0  0  0
   54.1270   20.2460   46.6130 O   0  0  0  0  0
   53.6800   22.2500   48.0460 O   0  0  0  0  0
   53.4640   23.3550   47.1760 C   0  0  0  0  0
   52.9070   24.5350   47.9620 C   0  0  0  0  0
   52.3910   25.4990   47.0410 O   0  0  0  0  0
   51.7710   24.1570   48.9060 C   0  0  0  0  0
   52.1550   24.3130   50.2750 O   0  0  0  0  0
   50.6250   25.0830   48.5560 C   0  0  0  0  0
   50.4790   26.1220   49.5290 O   0  0  0  0  0
   50.9840   25.6780   47.2050 C   0  0  0  0  0
   50.2430   25.0090   46.1010 N   0  0  0  0  0
   50.7810   24.3670   45.0450 C   0  0  0  0  0
   49.8170   23.8810   44.2250 N   0  0  0  0  0
   48.6320   24.2150   44.7530 C   0  0  0  0  0
   47.2080   24.0210   44.3970 C   0  0  0  0  0
   46.8590   23.3490   43.2820 N   0  0  0  0  0
   46.2710   24.5350   45.2270 N   0  0  0  0  0
   46.6060   25.2070   46.3480 C   0  0  0  0  0
   47.8800   25.4180   46.7250 N   0  0  0  0  0
   48.9170   24.9570   45.9870 C   0  0  0  0  0
   56.0289   18.8095   45.4306 H   0  0  0  0  0
   55.3581   18.1010   47.5982 H   0  0  0  0  0
   51.7842   21.4047   46.2887 H   0  0  0  0  0
   52.7500   23.0693   46.4035 H   0  0  0  0  0
   54.4111   23.6428   46.7196 H   0  0  0  0  0
   53.7297   24.9220   48.5632 H   0  0  0  0  0
   51.4932   23.1093   48.7905 H   0  0  0  0  0
   51.4203   24.0678   50.8422 H   0  0  0  0  0
   49.6775   24.5447   48.5328 H   0  0  0  0  0
   49.7469   26.6910   49.2805 H   0  0  0  0  0
   50.7098   26.7324   47.1693 H   0  0  0  0  0
   51.8513   24.2534   44.8728 H   0  0  0  0  0
   47.5801   22.9662   42.6705 H   0  0  0  0  0
   45.8738   23.2233   43.0497 H   0  0  0  0  0
   45.8066   25.5973   46.9779 H   0  0  0  0  0
  1  2  1  0  0  0
  1  3  1  0  0  0
  1  4  2  0  0  0
  8  1  1  0  0  0
  5  6  1  0  0  0
  5  7  2  0  0  0
  5  8  1  0  0  0
  5  9  1  0  0  0
  9 10  1  0  0  0
 10 11  1  0  0  0
 11 12  1  0  0  0
 11 13  1  0  0  0
 12 17  1  0  0  0
 13 14  1  0  0  0
 13 15  1  0  0  0
 15 16  1  0  0  0
 15 17  1  0  0  0
 17 18  1  0  0  0
 18 19  4  0  0  0
 18 27  4  0  0  0
 19 20  4  0  0  0
 20 21  4  0  0  0
 21 22  4  0  0  0
 21 27  4  0  0  0
 22 23  1  0  0  0
 22 24  4  0  0  0
 24 25  4  0  0  0
 25 26  4  0  0  0
 26 27  4  0  0  0
  2 28  1  0  0  0
  3 29  1  0  0  0
  6 30  1  0  0  0
 10 31  1  0  0  0
 10 32  1  0  0  0
 11 33  1  0  0  0
 13 34  1  0  0  0
 14 35  1  0  0  0
 15 36  1  0  0  0
 16 37  1  0  0  0
 17 38  1  0  0  0
 19 39  1  0  0  0
 23 40  1  0  0  0
 23 41  1  0  0  0
 25 42  1  0  0  0
M  END
$$$$
