2ihj_ligand
  -I-interpret- 

 72 74  0  0  0  0  0  0  0  0999 V2000
   10.7400    4.2170    1.3480 C   0  0  0  0  0
   11.5540    3.5610    2.4760 C   0  0  0  0  0
   10.1960    1.5070    2.3380 C   0  0  0  0  0
    9.5050    2.1150    1.2340 O   0  0  0  0  0
   10.2320    3.0770    0.4460 C   0  0  0  0  0
   10.6380    2.6260    3.2800 C   0  0  0  0  0
   12.2400    4.4780    3.3420 O   0  0  0  0  0
   11.6580    5.0140    0.5380 N   0  0  0  0  0
    9.3440    3.4930   -0.7350 C   0  0  0  0  0
    8.8510    2.2690   -1.5300 C   0  0  0  0  0
    7.8930    2.6110   -2.6750 C   0  0  0  0  0
    8.5920    3.3230   -3.7050 O   0  0  0  0  0
    9.9650    1.5410   -2.0680 O   0  0  0  0  0
    8.2280    4.2380   -0.2390 O   0  0  0  0  0
    9.2320    0.5710    3.0500 C   0  0  0  0  0
    9.5930   -0.0380    4.0720 O   0  0  0  0  0
    8.0730    0.4270    2.6050 O   0  0  0  0  0
   11.4190    0.8330    1.9460 O   0  0  0  0  0
   12.8220    0.4600   -0.1220 O   0  0  0  0  0
   11.7120   -5.4310    1.2650 N   0  0  0  0  0
   11.7390   -6.7970    0.8930 C   0  0  0  0  0
   11.5090   -7.1500   -0.4000 N   0  0  0  0  0
   11.2430   -6.2150   -1.3520 C   0  0  0  0  0
   11.2170   -4.8640   -1.0010 C   0  0  0  0  0
   11.4470   -4.5020    0.3230 C   0  0  0  0  0
   11.6790   -0.1430    0.6630 P   0  0  0  0  0
   11.0220   -6.5810   -2.6410 N   0  0  0  0  0
   11.9760   -7.6670    1.7700 O   0  0  0  0  0
   10.3510   -0.4210    0.0390 O   0  0  0  0  0
   11.3780    6.2280    0.0410 C   0  0  0  0  0
   10.3130    6.8050    0.2190 O   0  0  0  0  0
   12.4740    6.8520   -0.7750 C   0  0  0  0  0
    9.5330    3.2840    3.7900 F   0  0  0  0  0
   13.7930   -3.5750    2.8440 C   0  0  0  0  0
   13.4320   -5.0350    3.0230 C   0  0  0  0  0
   11.9500   -5.0590    2.6820 C   0  0  0  0  0
   11.4630   -3.7410    2.9930 O   0  0  0  0  0
   12.5460   -2.8870    3.3790 C   0  0  0  0  0
   12.2660   -1.4490    1.4100 O   0  0  0  0  0
   12.3600   -1.4680    2.8400 C   0  0  0  0  0
   14.9810   -3.2050    3.5510 O   0  0  0  0  0
   13.5800   -5.4130    4.3970 O   0  0  0  0  0
    9.9286    4.8259    1.7467 H   0  0  0  0  0
   12.3522    2.9985    1.9916 H   0  0  0  0  0
   11.1401    2.6629    0.0079 H   0  0  0  0  0
   11.1848    2.2345    4.1378 H   0  0  0  0  0
   12.8048    5.0502    2.8174 H   0  0  0  0  0
   12.5767    4.6195    0.3361 H   0  0  0  0  0
    9.9340    4.1091   -1.4136 H   0  0  0  0  0
    8.2946    1.6652   -0.8131 H   0  0  0  0  0
    7.0860    3.2358   -2.2922 H   0  0  0  0  0
    7.4869    1.6884   -3.0898 H   0  0  0  0  0
    7.9833    3.5324   -4.4172 H   0  0  0  0  0
    9.6425    0.7823   -2.5600 H   0  0  0  0  0
    8.5457    4.9978    0.2544 H   0  0  0  0  0
    7.9645    0.9655    1.8177 H   0  0  0  0  0
   13.5850    0.5605    0.4519 H   0  0  0  0  0
   11.0190   -4.1020   -1.7548 H   0  0  0  0  0
   11.4125   -3.4494    0.6040 H   0  0  0  0  0
   11.0545   -7.5659   -2.9042 H   0  0  0  0  0
   10.8235   -5.8710   -3.3459 H   0  0  0  0  0
   12.1131    7.0335   -1.7874 H   0  0  0  0  0
   12.7718    7.7963   -0.3193 H   0  0  0  0  0
   13.3295    6.1774   -0.8083 H   0  0  0  0  0
   14.0360   -3.3050    1.8163 H   0  0  0  0  0
   14.0492   -5.7025    2.4216 H   0  0  0  0  0
   11.4194   -5.8187    3.2559 H   0  0  0  0  0
   12.6105   -2.7532    4.4588 H   0  0  0  0  0
   13.2253   -0.8740    3.1341 H   0  0  0  0  0
   11.4336   -1.0651    3.2493 H   0  0  0  0  0
   15.1628   -2.2740    3.4037 H   0  0  0  0  0
   13.3490   -6.3391    4.4996 H   0  0  0  0  0
  2  1  1  0  0  0
  5  1  1  0  0  0
  1  8  1  0  0  0
  6  2  1  0  0  0
  2  7  1  0  0  0
  3  4  1  0  0  0
  3  6  1  0  0  0
  3 15  1  0  0  0
 18  3  1  0  0  0
  4  5  1  0  0  0
  5  9  1  0  0  0
  6 33  1  0  0  0
  8 30  1  0  0  0
  9 10  1  0  0  0
  9 14  1  0  0  0
 10 11  1  0  0  0
 10 13  1  0  0  0
 11 12  1  0  0  0
 15 16  2  0  0  0
 15 17  1  0  0  0
 26 18  1  0  0  0
 26 19  1  0  0  0
 20 21  1  0  0  0
 20 25  1  0  0  0
 36 20  1  0  0  0
 21 22  1  0  0  0
 21 28  2  0  0  0
 22 23  2  0  0  0
 24 23  1  0  0  0
 23 27  1  0  0  0
 25 24  2  0  0  0
 26 29  2  0  0  0
 39 26  1  0  0  0
 30 31  2  0  0  0
 30 32  1  0  0  0
 34 35  1  0  0  0
 38 34  1  0  0  0
 34 41  1  0  0  0
 36 35  1  0  0  0
 35 42  1  0  0  0
 37 36  1  0  0  0
 38 37  1  0  0  0
 40 38  1  0  0  0
 39 40  1  0  0  0
  1 43  1  0  0  0
  2 44  1  0  0  0
  5 45  1  0  0  0
  6 46  1  0  0  0
  7 47  1  0  0  0
  8 48  1  0  0  0
  9 49  1  0  0  0
 10 50  1  0  0  0
 11 51  1  0  0  0
 11 52  1  0  0  0
 12 53  1  0  0  0
 13 54  1  0  0  0
 14 55  1  0  0  0
 17 56  1  0  0  0
 19 57  1  0  0  0
 24 58  1  0  0  0
 25 59  1  0  0  0
 27 60  1  0  0  0
 27 61  1  0  0  0
 32 62  1  0  0  0
 32 63  1  0  0  0
 32 64  1  0  0  0
 34 65  1  0  0  0
 35 66  1  0  0  0
 36 67  1  0  0  0
 38 68  1  0  0  0
 40 69  1  0  0  0
 40 70  1  0  0  0
 41 71  1  0  0  0
 42 72  1  0  0  0
M  END
$$$$
