6fam_ligand
  -I-interpret- 

 48 49  0  0  0  0  0  0  0  0999 V2000
    3.0450   21.6990    6.7090 C   0  0  0  0  0
    2.0780   21.6850    7.8740 C   0  0  0  0  0
    2.6130   22.4270    9.0920 C   0  0  0  0  0
    4.0200   21.9410    9.4410 C   0  0  0  0  0
    4.8950   22.1160    8.2220 C   0  0  0  0  0
    6.2960   21.5740    8.4850 C   0  0  0  0  0
    1.8760   20.3150    8.2250 O   0  0  0  0  0
    1.7170   22.2400   10.2020 O   0  0  0  0  0
    4.5240   22.7700   10.5000 O   0  0  0  0  0
    4.3550   21.3210    7.1420 O   0  0  0  0  0
    7.1420   21.7530    7.3470 O   0  0  0  0  0
    3.0070   23.0270    6.1720 O   0  0  0  0  0
    3.4140   23.0600    4.7860 C   0  0  0  0  0
    4.9060   23.3500    4.8030 C   0  0  0  0  0
    5.1540   24.6470    5.5030 N   0  3  0  0  0
    2.6410   24.1690    4.0800 C   0  0  0  0  0
    1.2520   23.7880    4.0850 O   0  0  0  0  0
    3.1130   24.3880    2.6440 C   0  0  0  0  0
    2.5300   25.6420    1.9840 C   0  0  0  0  0
    2.8420   26.8230    2.7640 O   0  0  0  0  0
    4.5870   24.5700    2.7200 N   0  3  0  0  0
    5.3630   23.4930    3.3900 C   0  0  0  0  0
    2.7685   20.9782    5.9395 H   0  0  0  0  0
    1.1578   22.1867    7.5748 H   0  0  0  0  0
    2.6742   23.4912    8.8642 H   0  0  0  0  0
    4.0098   20.8955    9.7490 H   0  0  0  0  0
    4.9304   23.1783    7.9803 H   0  0  0  0  0
    6.2219   20.5078    8.6989 H   0  0  0  0  0
    6.7263   22.1163    9.3269 H   0  0  0  0  0
    1.5385   19.8372    7.4638 H   0  0  0  0  0
    0.8414   22.5513    9.9610 H   0  0  0  0  0
    3.9722   22.6636   11.2783 H   0  0  0  0  0
    8.0150   21.4037    7.5406 H   0  0  0  0  0
    3.2130   22.1280    4.2576 H   0  0  0  0  0
    5.4361   22.5456    5.3129 H   0  0  0  0  0
    6.1555   24.8402    5.5136 H   0  0  0  0  0
    4.6672   25.3961    5.0108 H   0  0  0  0  0
    4.8080   24.5867    6.4606 H   0  0  0  0  0
    2.8057   25.1097    4.6054 H   0  0  0  0  0
    0.7336   24.4666    3.6465 H   0  0  0  0  0
    2.7907   23.5362    2.0451 H   0  0  0  0  0
    1.4469   25.5365    1.9219 H   0  0  0  0  0
    2.9637   25.7513    0.9900 H   0  0  0  0  0
    2.4688   27.5964    2.3348 H   0  0  0  0  0
    4.7366   25.4108    3.2777 H   0  0  0  0  0
    4.9161   24.5928    1.7548 H   0  0  0  0  0
    5.2062   22.5523    2.8622 H   0  0  0  0  0
    6.4225   23.7487    3.3766 H   0  0  0  0  0
  1  2  1  0  0  0
  1 10  1  0  0  0
  1 12  1  0  0  0
  2  3  1  0  0  0
  2  7  1  0  0  0
  3  4  1  0  0  0
  3  8  1  0  0  0
  4  5  1  0  0  0
  4  9  1  0  0  0
  5  6  1  0  0  0
  5 10  1  0  0  0
  6 11  1  0  0  0
 12 13  1  0  0  0
 13 14  1  0  0  0
 13 16  1  0  0  0
 14 15  1  0  0  0
 14 22  1  0  0  0
 16 17  1  0  0  0
 16 18  1  0  0  0
 18 19  1  0  0  0
 18 21  1  0  0  0
 19 20  1  0  0  0
 21 22  1  0  0  0
  1 23  1  0  0  0
  2 24  1  0  0  0
  3 25  1  0  0  0
  4 26  1  0  0  0
  5 27  1  0  0  0
  6 28  1  0  0  0
  6 29  1  0  0  0
  7 30  1  0  0  0
  8 31  1  0  0  0
  9 32  1  0  0  0
 11 33  1  0  0  0
 13 34  1  0  0  0
 14 35  1  0  0  0
 15 36  1  0  0  0
 15 37  1  0  0  0
 15 38  1  0  0  0
 16 39  1  0  0  0
 17 40  1  0  0  0
 18 41  1  0  0  0
 19 42  1  0  0  0
 19 43  1  0  0  0
 20 44  1  0  0  0
 21 45  1  0  0  0
 21 46  1  0  0  0
 22 47  1  0  0  0
 22 48  1  0  0  0
M  END
$$$$
