3lkh_ligand
  -I-interpret- 

 59 60  0  0  0  0  0  0  0  0999 V2000
   16.4070   40.8590   43.0120 C   0  0  0  0  0
   16.1850   39.4260   47.3720 F   0  0  0  0  0
   17.7750   42.0500   46.4370 N   0  0  0  0  0
   23.1770   38.3140   47.2880 O   0  0  0  0  0
   17.2000   42.1590   43.1670 C   0  0  0  0  0
   22.0610   40.2610   45.5830 N   0  0  0  0  0
   23.3410   39.3760   43.8620 O   0  0  0  0  0
   16.7700   43.0050   44.3770 C   0  0  0  0  0
   19.8850   39.7930   44.5250 O   0  0  0  0  0
   16.5440   42.1410   45.6280 C   0  0  0  0  0
   19.5480   40.7860   47.2210 O   0  0  0  0  0
   18.2250   43.2860   47.0900 C   0  0  0  0  0
   26.0430   43.0970   49.9230 C   0  0  0  0  0
   26.4630   42.7300   48.6460 C   0  0  0  0  0
   25.5150   42.4160   47.6780 C   0  0  0  0  0
   24.1380   42.4550   47.9700 C   0  0  0  0  0
   23.7300   42.8260   49.2550 C   0  0  0  0  0
   24.6750   43.1530   50.2240 C   0  0  0  0  0
   23.1130   42.1100   46.8930 C   0  0  0  0  0
   23.1750   40.6180   46.4620 C   0  0  0  0  0
   23.1420   39.6930   47.6870 C   0  0  0  0  0
   22.2430   39.6410   44.3500 C   0  0  0  0  0
   20.9070   39.3160   43.6690 C   0  0  0  0  0
   18.8050   39.0230   44.8880 C   0  0  0  0  0
   18.3920   37.7960   44.3130 C   0  0  0  0  0
   17.2500   37.1240   44.8030 C   0  0  0  0  0
   16.4990   37.6840   45.8430 C   0  0  0  0  0
   16.9070   38.9050   46.3920 C   0  0  0  0  0
   18.0500   39.5660   45.9310 C   0  0  0  0  0
   18.4890   40.8450   46.5690 C   0  0  0  0  0
   16.5412   40.2447   43.9024 H   0  0  0  0  0
   15.3498   41.0926   42.8861 H   0  0  0  0  0
   16.7673   40.3172   42.1375 H   0  0  0  0  0
   23.1555   37.7556   48.0686 H   0  0  0  0  0
   17.0242   42.7566   42.2725 H   0  0  0  0  0
   18.2453   41.8875   43.3142 H   0  0  0  0  0
   21.1111   40.4755   45.8865 H   0  0  0  0  0
   15.8319   43.5023   44.1307 H   0  0  0  0  0
   17.5636   43.7200   44.5939 H   0  0  0  0  0
   15.7611   42.5989   46.2326 H   0  0  0  0  0
   16.2574   41.1376   45.3130 H   0  0  0  0  0
   18.4219   44.0447   46.3325 H   0  0  0  0  0
   17.4487   43.6406   47.7680 H   0  0  0  0  0
   19.1372   43.0869   47.6524 H   0  0  0  0  0
   26.7792   43.3409   50.6889 H   0  0  0  0  0
   27.5259   42.6893   48.4077 H   0  0  0  0  0
   25.8432   42.1352   46.6772 H   0  0  0  0  0
   22.6682   42.8593   49.4991 H   0  0  0  0  0
   24.3499   43.4536   51.2200 H   0  0  0  0  0
   23.3298   42.7208   46.0167 H   0  0  0  0  0
   22.1207   42.2991   47.3025 H   0  0  0  0  0
   24.1126   40.4886   45.9213 H   0  0  0  0  0
   24.0139   39.9010   48.3072 H   0  0  0  0  0
   22.2201   39.8751   48.2393 H   0  0  0  0  0
   20.8455   39.7908   42.6898 H   0  0  0  0  0
   20.8062   38.2431   43.5054 H   0  0  0  0  0
   18.9592   37.3674   43.4868 H   0  0  0  0  0
   16.9534   36.1684   44.3707 H   0  0  0  0  0
   15.6104   37.1771   46.2194 H   0  0  0  0  0
  5  1  1  0  0  0
 28  2  1  0  0  0
  3 10  1  0  0  0
  3 12  1  0  0  0
 30  3  1  0  0  0
 21  4  1  0  0  0
  8  5  1  0  0  0
  6 20  1  0  0  0
 22  6  1  0  0  0
 22  7  2  0  0  0
 10  8  1  0  0  0
  9 23  1  0  0  0
 24  9  1  0  0  0
 30 11  2  0  0  0
 14 13  4  0  0  0
 18 13  4  0  0  0
 15 14  4  0  0  0
 16 15  4  0  0  0
 16 17  4  0  0  0
 19 16  1  0  0  0
 17 18  4  0  0  0
 20 19  1  0  0  0
 20 21  1  0  0  0
 23 22  1  0  0  0
 24 25  4  0  0  0
 29 24  4  0  0  0
 25 26  4  0  0  0
 27 26  4  0  0  0
 28 27  4  0  0  0
 29 28  4  0  0  0
 29 30  1  0  0  0
  1 31  1  0  0  0
  1 32  1  0  0  0
  1 33  1  0  0  0
  4 34  1  0  0  0
  5 35  1  0  0  0
  5 36  1  0  0  0
  6 37  1  0  0  0
  8 38  1  0  0  0
  8 39  1  0  0  0
 10 40  1  0  0  0
 10 41  1  0  0  0
 12 42  1  0  0  0
 12 43  1  0  0  0
 12 44  1  0  0  0
 13 45  1  0  0  0
 14 46  1  0  0  0
 15 47  1  0  0  0
 17 48  1  0  0  0
 18 49  1  0  0  0
 19 50  1  0  0  0
 19 51  1  0  0  0
 20 52  1  0  0  0
 21 53  1  0  0  0
 21 54  1  0  0  0
 23 55  1  0  0  0
 23 56  1  0  0  0
 25 57  1  0  0  0
 26 58  1  0  0  0
 27 59  1  0  0  0
M  END
$$$$
