6r8l_ligand
  -I-interpret- 

 67 71  0  0  0  0  0  0  0  0999 V2000
   -1.5040   -0.6180  -25.1900 C   0  0  0  0  0
   -3.4260    0.7670  -25.7790 C   0  0  0  0  0
   -3.7170    0.0360  -26.6920 O   0  0  0  0  0
   -0.8610   -3.4700  -25.5060 C   0  0  0  0  0
   -2.3210   -4.0620  -23.7050 C   0  0  0  0  0
   -1.5250   -5.3010  -24.1520 C   0  0  0  0  0
   -1.1920   -4.9480  -25.6090 C   0  0  0  0  0
    0.5870   -3.3040  -25.1290 C   0  0  0  0  0
    1.5890   -3.4560  -26.0730 C   0  0  0  0  0
    2.9270   -3.3040  -25.7330 C   0  0  0  0  0
    3.2660   -3.0030  -24.4440 C   0  0  0  0  0
    0.3230   -2.3700  -28.3170 C   0  0  0  0  0
   -6.3820    2.6080  -25.0380 C   0  0  0  0  0
   -6.9030    1.6070  -24.2540 C   0  0  0  0  0
   -8.2430    3.2010  -23.0900 C   0  0  0  0  0
   -8.1810    5.6390  -23.6440 C   0  0  0  0  0
  -10.8320    5.2640  -22.5130 C   0  0  0  0  0
   -5.3610    2.2650  -26.1040 C   0  0  0  0  0
  -10.5380    5.1840  -23.9970 C   0  0  0  0  0
   -2.3460    0.5420  -25.0260 N   0  0  0  0  0
   -4.1340    1.8540  -25.4590 N   0  0  0  0  0
   -2.1170   -1.6760  -24.3050 C   0  0  0  0  0
   -1.7850   -2.9530  -24.4900 N   0  0  0  0  0
   -2.8990   -1.3890  -23.4410 O   0  0  0  0  0
    2.2730   -2.8530  -23.5110 C   0  0  0  0  0
    0.9500   -3.0180  -23.8500 C   0  0  0  0  0
    1.1630   -3.8360  -27.7170 S   0  0  0  0  0
   -7.8200    1.9050  -23.2830 C   0  0  0  0  0
   -7.7380    4.2070  -23.8790 C   0  0  0  0  0
   -6.8010    3.8970  -24.8400 C   0  0  0  0  0
   -9.1960    3.4720  -22.1090 N   0  0  0  0  0
   -9.5860    4.8330  -21.7550 C   0  0  0  0  0
   -8.4470    5.7870  -22.1430 C   0  0  0  0  0
   -9.3920    5.9630  -24.3380 O   0  0  0  0  0
  -11.9320    4.4200  -22.2220 O   0  0  0  0  0
   -0.4709   -0.4090  -24.9125 H   0  0  0  0  0
   -1.4583   -0.9394  -26.2305 H   0  0  0  0  0
   -0.9830   -2.9237  -26.4413 H   0  0  0  0  0
   -2.2155   -3.8829  -22.6350 H   0  0  0  0  0
   -3.3903   -4.1912  -23.8726 H   0  0  0  0  0
   -2.0782   -6.2342  -24.0465 H   0  0  0  0  0
   -0.6444   -5.4958  -23.5399 H   0  0  0  0  0
   -0.3798   -5.5451  -26.0237 H   0  0  0  0  0
   -2.0055   -5.1616  -26.3024 H   0  0  0  0  0
    3.7021   -3.4241  -26.4899 H   0  0  0  0  0
    4.3120   -2.8838  -24.1614 H   0  0  0  0  0
   -0.5573   -2.1802  -27.7029 H   0  0  0  0  0
    0.9986   -1.5165  -28.2594 H   0  0  0  0  0
    0.0189   -2.5251  -29.3522 H   0  0  0  0  0
   -6.5858    0.5753  -24.4056 H   0  0  0  0  0
   -7.4004    6.3060  -24.0100 H   0  0  0  0  0
  -11.0901    6.2795  -22.2126 H   0  0  0  0  0
   -5.1746    3.1369  -26.7310 H   0  0  0  0  0
   -5.7381    1.4563  -26.7300 H   0  0  0  0  0
  -11.3977    5.5715  -24.5437 H   0  0  0  0  0
  -10.3421    4.1439  -24.2576 H   0  0  0  0  0
   -2.1059    1.2203  -24.3030 H   0  0  0  0  0
   -3.7817    2.4390  -24.7013 H   0  0  0  0  0
    2.5359   -2.5989  -22.4841 H   0  0  0  0  0
    0.1821   -2.9181  -23.0829 H   0  0  0  0  0
   -8.2197    1.1081  -22.6558 H   0  0  0  0  0
   -6.3843    4.6941  -25.4557 H   0  0  0  0  0
   -9.6361    2.6915  -21.6216 H   0  0  0  0  0
   -9.7903    4.8631  -20.6847 H   0  0  0  0  0
   -8.7278    6.8150  -21.9140 H   0  0  0  0  0
   -7.5470    5.5415  -21.5792 H   0  0  0  0  0
  -12.1273    4.4630  -21.2831 H   0  0  0  0  0
  1 20  1  0  0  0
 22  1  1  0  0  0
  2  3  2  0  0  0
 20  2  1  0  0  0
  2 21  1  0  0  0
  4  7  1  0  0  0
  4  8  1  0  0  0
 23  4  1  0  0  0
  5  6  1  0  0  0
 23  5  1  0  0  0
  6  7  1  0  0  0
  8  9  4  0  0  0
  8 26  4  0  0  0
  9 10  4  0  0  0
  9 27  1  0  0  0
 10 11  4  0  0  0
 11 25  4  0  0  0
 27 12  1  0  0  0
 13 14  4  0  0  0
 18 13  1  0  0  0
 13 30  4  0  0  0
 14 28  4  0  0  0
 28 15  4  0  0  0
 15 29  4  0  0  0
 15 31  1  0  0  0
 29 16  1  0  0  0
 16 33  1  0  0  0
 16 34  1  0  0  0
 19 17  1  0  0  0
 17 32  1  0  0  0
 17 35  1  0  0  0
 21 18  1  0  0  0
 34 19  1  0  0  0
 22 23  1  0  0  0
 22 24  2  0  0  0
 25 26  4  0  0  0
 29 30  4  0  0  0
 31 32  1  0  0  0
 32 33  1  0  0  0
  1 36  1  0  0  0
  1 37  1  0  0  0
  4 38  1  0  0  0
  5 39  1  0  0  0
  5 40  1  0  0  0
  6 41  1  0  0  0
  6 42  1  0  0  0
  7 43  1  0  0  0
  7 44  1  0  0  0
 10 45  1  0  0  0
 11 46  1  0  0  0
 12 47  1  0  0  0
 12 48  1  0  0  0
 12 49  1  0  0  0
 14 50  1  0  0  0
 16 51  1  0  0  0
 17 52  1  0  0  0
 18 53  1  0  0  0
 18 54  1  0  0  0
 19 55  1  0  0  0
 19 56  1  0  0  0
 20 57  1  0  0  0
 21 58  1  0  0  0
 25 59  1  0  0  0
 26 60  1  0  0  0
 28 61  1  0  0  0
 30 62  1  0  0  0
 31 63  1  0  0  0
 32 64  1  0  0  0
 33 65  1  0  0  0
 33 66  1  0  0  0
 35 67  1  0  0  0
M  END
$$$$
