5u69_ligand
  -I-interpret- 

 58 61  0  0  0  0  0  0  0  0999 V2000
  -17.3960  -23.7630   24.7060 C   0  0  0  0  0
  -17.4030  -23.8660   23.1980 C   0  0  0  0  0
  -18.2520  -22.9360   25.3980 C   0  0  0  0  0
  -16.5320  -25.4730   21.6090 C   0  0  0  0  0
  -14.2950  -24.4560   21.2050 C   0  0  0  0  0
  -12.4290  -25.9270   22.0870 C   0  0  0  0  0
  -18.7640  -22.2870   27.7290 C   0  0  0  0  0
  -15.5790  -25.3110   25.6710 C   0  0  0  0  0
  -16.4500  -24.3330   28.1660 C   0  0  0  0  0
  -13.5940  -26.6060   20.1400 C   0  0  0  0  0
  -19.9580  -25.3840   23.0770 C   0  0  0  0  0
  -19.1290  -26.5050   21.2010 C   0  0  0  0  0
  -11.6520  -27.0700   22.0050 C   0  0  0  0  0
  -11.2330  -25.1220   24.0120 C   0  0  0  0  0
  -15.0160  -25.7260   26.8530 C   0  0  0  0  0
  -15.4340  -25.2600   28.0770 C   0  0  0  0  0
  -12.8150  -27.7420   20.0470 C   0  0  0  0  0
  -11.8440  -27.9740   20.9870 C   0  0  0  0  0
  -18.0170  -23.0410   26.7370 N   0  0  0  0  0
  -16.6080  -24.3890   25.7150 C   0  0  0  0  0
  -15.4400  -24.6520   22.1270 N   0  3  0  0  0
  -17.6210  -25.2620   22.6420 C   0  0  0  0  0
  -17.0060  -23.9310   26.9700 C   0  0  0  0  0
  -16.1220  -23.4080   22.5270 C   0  0  0  0  0
  -13.4210  -25.6790   21.1520 C   0  0  0  0  0
  -18.9420  -25.3070   22.0190 N   0  3  0  0  0
  -12.2950  -24.9790   23.0800 O   0  0  0  0  0
  -18.2444  -23.2109   22.9724 H   0  0  0  0  0
  -19.0055  -22.2930   24.9431 H   0  0  0  0  0
  -16.2572  -26.5207   21.4867 H   0  0  0  0  0
  -16.8384  -25.1895   20.6021 H   0  0  0  0  0
  -13.6983  -23.6182   21.5658 H   0  0  0  0  0
  -14.6836  -24.2634   20.2050 H   0  0  0  0  0
  -18.6304  -21.2203   27.5491 H   0  0  0  0  0
  -19.8217  -22.5396   27.6547 H   0  0  0  0  0
  -18.3984  -22.5374   28.7249 H   0  0  0  0  0
  -15.2218  -25.7007   24.7178 H   0  0  0  0  0
  -16.7931  -23.9415   29.1236 H   0  0  0  0  0
  -14.3691  -26.4343   19.3931 H   0  0  0  0  0
  -20.9499  -25.4050   22.6256 H   0  0  0  0  0
  -19.8041  -26.2911   23.6614 H   0  0  0  0  0
  -19.8713  -24.5128   23.7263 H   0  0  0  0  0
  -18.9904  -27.3914   21.8201 H   0  0  0  0  0
  -20.1362  -26.5052   20.7842 H   0  0  0  0  0
  -18.3993  -26.5080   20.3913 H   0  0  0  0  0
  -10.8817  -27.2547   22.7537 H   0  0  0  0  0
  -11.3410  -26.0686   24.5415 H   0  0  0  0  0
  -10.2811  -25.1077   23.4812 H   0  0  0  0  0
  -11.2647  -24.2991   24.7261 H   0  0  0  0  0
  -14.2054  -26.4539   26.8193 H   0  0  0  0  0
  -14.9573  -25.6272   28.9858 H   0  0  0  0  0
  -12.9707  -28.4493   19.2324 H   0  0  0  0  0
  -11.2273  -28.8708   20.9275 H   0  0  0  0  0
  -14.9583  -25.1075   22.9021 H   0  0  0  0  0
  -17.5776  -26.0361   23.4081 H   0  0  0  0  0
  -15.5071  -22.8054   23.1955 H   0  0  0  0  0
  -16.3207  -22.7616   21.6721 H   0  0  0  0  0
  -19.0257  -24.4737   21.4368 H   0  0  0  0  0
  2  1  1  0  0  0
  1  3  4  0  0  0
  1 20  4  0  0  0
 22  2  1  0  0  0
  2 24  1  0  0  0
  3 19  4  0  0  0
  4 21  1  0  0  0
 22  4  1  0  0  0
 21  5  1  0  0  0
  5 25  1  0  0  0
  6 13  4  0  0  0
 25  6  4  0  0  0
  6 27  1  0  0  0
 19  7  1  0  0  0
  8 15  4  0  0  0
 20  8  4  0  0  0
  9 16  4  0  0  0
 23  9  4  0  0  0
 10 17  4  0  0  0
 25 10  4  0  0  0
 26 11  1  0  0  0
 26 12  1  0  0  0
 13 18  4  0  0  0
 27 14  1  0  0  0
 15 16  4  0  0  0
 17 18  4  0  0  0
 23 19  4  0  0  0
 20 23  4  0  0  0
 21 24  1  0  0  0
 22 26  1  0  0  0
  2 28  1  0  0  0
  3 29  1  0  0  0
  4 30  1  0  0  0
  4 31  1  0  0  0
  5 32  1  0  0  0
  5 33  1  0  0  0
  7 34  1  0  0  0
  7 35  1  0  0  0
  7 36  1  0  0  0
  8 37  1  0  0  0
  9 38  1  0  0  0
 10 39  1  0  0  0
 11 40  1  0  0  0
 11 41  1  0  0  0
 11 42  1  0  0  0
 12 43  1  0  0  0
 12 44  1  0  0  0
 12 45  1  0  0  0
 13 46  1  0  0  0
 14 47  1  0  0  0
 14 48  1  0  0  0
 14 49  1  0  0  0
 15 50  1  0  0  0
 16 51  1  0  0  0
 17 52  1  0  0  0
 18 53  1  0  0  0
 21 54  1  0  0  0
 22 55  1  0  0  0
 24 56  1  0  0  0
 24 57  1  0  0  0
 26 58  1  0  0  0
M  END
$$$$
