2euf_ligand
  -I-interpret- 

 63 67  0  0  0  0  0  0  0  0999 V2000
   32.4090   28.5440   60.1410 O   0  0  0  0  0
   33.0080   27.5190   59.9010 C   0  0  0  0  0
   34.3120   27.5070   59.1620 C   0  0  0  0  0
   32.4150   26.2120   60.3390 C   0  0  0  0  0
   32.6480   25.6900   61.6150 C   0  0  0  0  0
   33.4290   26.4260   62.6690 C   0  0  0  0  0
   31.9290   24.4600   62.0050 C   0  0  0  0  0
   32.1990   23.7830   63.2720 C   0  0  0  0  0
   31.5880   22.6260   63.5420 N   0  0  0  0  0
   30.8720   21.9680   62.6070 C   0  0  0  0  0
   30.7030   22.5010   61.3540 N   0  0  0  0  0
   31.2660   23.6800   60.9670 C   0  0  0  0  0
   31.0700   24.2300   59.7410 N   0  0  0  0  0
   30.2950   23.4750   58.7390 C   0  0  0  0  0
   29.2130   24.2680   58.0150 C   0  0  0  0  0
   29.2870   23.8720   56.5360 C   0  0  0  0  0
   30.5060   22.9550   56.3320 C   0  0  0  0  0
   31.2520   22.9450   57.6650 C   0  0  0  0  0
   31.6630   25.4930   59.4060 C   0  0  0  0  0
   31.5220   26.0010   58.2620 O   0  0  0  0  0
   30.3500   20.7760   63.0170 N   0  0  0  0  0
   29.6660   19.8610   62.2880 C   0  0  0  0  0
   29.5140   18.6170   62.8010 N   0  0  0  0  0
   28.8440   17.6710   62.1330 C   0  0  0  0  0
   28.2800   17.9460   60.8870 C   0  0  0  0  0
   28.4240   19.2200   60.3470 C   0  0  0  0  0
   29.1170   20.1840   61.0520 C   0  0  0  0  0
   27.5710   16.9530   60.1740 N   0  0  0  0  0
   28.4660   15.8000   59.9060 C   0  0  0  0  0
   27.7120   14.6830   59.1890 C   0  0  0  0  0
   27.0440   15.1960   58.0030 N   0  3  0  0  0
   26.3410   16.4760   58.0250 C   0  0  0  0  0
   26.9860   17.5260   58.9330 C   0  0  0  0  0
   34.1712   27.9410   58.1721 H   0  0  0  0  0
   35.0471   28.0916   59.7152 H   0  0  0  0  0
   34.6627   26.4797   59.0632 H   0  0  0  0  0
   34.4387   26.6158   62.3049 H   0  0  0  0  0
   32.9367   27.3732   62.8891 H   0  0  0  0  0
   33.4756   25.8204   63.5741 H   0  0  0  0  0
   32.8932   24.2186   63.9907 H   0  0  0  0  0
   29.7925   22.6910   59.3055 H   0  0  0  0  0
   29.3710   25.3395   58.1373 H   0  0  0  0  0
   28.2287   24.0451   58.4267 H   0  0  0  0  0
   29.3870   24.7643   55.9180 H   0  0  0  0  0
   28.3763   23.3476   56.2468 H   0  0  0  0  0
   31.1430   23.3181   55.5255 H   0  0  0  0  0
   30.2001   21.9496   56.0429 H   0  0  0  0  0
   31.5754   21.9336   57.9110 H   0  0  0  0  0
   32.1414   23.5725   57.6065 H   0  0  0  0  0
   30.4931   20.5433   63.9997 H   0  0  0  0  0
   28.7379   16.6764   62.5662 H   0  0  0  0  0
   27.9927   19.4556   59.3741 H   0  0  0  0  0
   29.2325   21.1880   60.6438 H   0  0  0  0  0
   28.8404   15.4178   60.8556 H   0  0  0  0  0
   29.2874   16.1329   59.2715 H   0  0  0  0  0
   26.9634   14.2710   59.8658 H   0  0  0  0  0
   28.4227   13.9130   58.8890 H   0  0  0  0  0
   26.3076   14.5141   57.8212 H   0  0  0  0  0
   27.8030   15.3437   57.3378 H   0  0  0  0  0
   25.3389   16.2876   58.4102 H   0  0  0  0  0
   26.3591   16.8720   57.0096 H   0  0  0  0  0
   27.7961   17.9925   58.3725 H   0  0  0  0  0
   26.2063   18.2273   59.2303 H   0  0  0  0  0
  1  2  2  0  0  0
  2  3  1  0  0  0
  2  4  1  0  0  0
  4  5  2  0  0  0
  4 19  1  0  0  0
  5  6  1  0  0  0
  5  7  1  0  0  0
  7  8  4  0  0  0
  7 12  4  0  0  0
  8  9  4  0  0  0
  9 10  4  0  0  0
 10 11  4  0  0  0
 10 21  1  0  0  0
 11 12  4  0  0  0
 12 13  1  0  0  0
 13 14  1  0  0  0
 13 19  1  0  0  0
 14 15  1  0  0  0
 14 18  1  0  0  0
 15 16  1  0  0  0
 16 17  1  0  0  0
 17 18  1  0  0  0
 19 20  2  0  0  0
 21 22  1  0  0  0
 22 23  4  0  0  0
 22 27  4  0  0  0
 23 24  4  0  0  0
 24 25  4  0  0  0
 25 26  4  0  0  0
 25 28  1  0  0  0
 26 27  4  0  0  0
 28 29  1  0  0  0
 28 33  1  0  0  0
 29 30  1  0  0  0
 30 31  1  0  0  0
 31 32  1  0  0  0
 32 33  1  0  0  0
  3 34  1  0  0  0
  3 35  1  0  0  0
  3 36  1  0  0  0
  6 37  1  0  0  0
  6 38  1  0  0  0
  6 39  1  0  0  0
  8 40  1  0  0  0
 14 41  1  0  0  0
 15 42  1  0  0  0
 15 43  1  0  0  0
 16 44  1  0  0  0
 16 45  1  0  0  0
 17 46  1  0  0  0
 17 47  1  0  0  0
 18 48  1  0  0  0
 18 49  1  0  0  0
 21 50  1  0  0  0
 24 51  1  0  0  0
 26 52  1  0  0  0
 27 53  1  0  0  0
 29 54  1  0  0  0
 29 55  1  0  0  0
 30 56  1  0  0  0
 30 57  1  0  0  0
 31 58  1  0  0  0
 31 59  1  0  0  0
 32 60  1  0  0  0
 32 61  1  0  0  0
 33 62  1  0  0  0
 33 63  1  0  0  0
M  END
$$$$
