1pq6_ligand
  -I-interpret- 

 73 76  0  0  0  0  0  0  0  0999 V2000
   45.9280   22.4830   41.9660 O   0  0  0  0  0
   46.0060   22.9220   43.1170 C   0  0  0  0  0
   46.1540   24.1370   43.3520 O   0  0  0  0  0
   45.9910   22.0480   44.3360 C   0  0  0  0  0
   45.0900   20.8430   44.1200 C   0  0  0  0  0
   43.7290   20.9850   44.3850 C   0  0  0  0  0
   42.8480   19.9350   44.1450 C   0  0  0  0  0
   43.3330   18.7340   43.6340 C   0  0  0  0  0
   44.6910   18.5920   43.3610 C   0  0  0  0  0
   45.1450   17.3970   42.8930 O   0  0  0  0  0
   44.6170   16.8430   41.7080 C   0  0  0  0  0
   44.9200   15.3770   41.7030 C   0  0  0  0  0
   44.1000   14.6790   40.6300 C   0  0  0  0  0
   43.5910   13.3960   41.1190 N   0  3  0  0  0
   44.5040   12.5210   41.8260 C   0  0  0  0  0
   43.8830   11.8270   42.9990 C   0  0  0  0  0
   43.1380   12.4980   43.9500 C   0  0  0  0  0
   42.5800   11.7950   45.0150 C   0  0  0  0  0
   42.7420   10.4150   45.1750 C   0  0  0  0  0
   43.4790    9.6620   44.2660 C   0  0  0  0  0
   44.0860   10.3810   43.1320 C   0  0  0  0  0
   45.0460    9.5000   41.9130 Cl  0  0  0  0  0
   43.6720    8.1640   44.3680 C   0  0  0  0  0
   43.0970    7.6170   43.2920 F   0  0  0  0  0
   43.1460    7.6810   45.4810 F   0  0  0  0  0
   44.9580    7.8540   44.3740 F   0  0  0  0  0
   42.3410   12.8510   40.5950 C   0  0  0  0  0
   41.1590   13.8370   40.5850 C   0  0  0  0  0
   40.1170   13.4550   39.5870 C   0  0  0  0  0
   39.8390   12.1220   39.2590 C   0  0  0  0  0
   38.8640   11.7950   38.3180 C   0  0  0  0  0
   38.1420   12.8000   37.6930 C   0  0  0  0  0
   38.4280   14.1250   37.9970 C   0  0  0  0  0
   39.3930   14.4610   38.9490 C   0  0  0  0  0
   40.5620   13.9380   41.9350 C   0  0  0  0  0
   40.0380   12.8110   42.5720 C   0  0  0  0  0
   39.5020   12.9050   43.8580 C   0  0  0  0  0
   39.4570   14.1470   44.4890 C   0  0  0  0  0
   39.9780   15.2600   43.8430 C   0  0  0  0  0
   40.5300   15.1630   42.5700 C   0  0  0  0  0
   45.5770   19.6360   43.6050 C   0  0  0  0  0
   46.1921   24.2759   44.3011 H   0  0  0  0  0
   45.6123   22.6252   45.1795 H   0  0  0  0  0
   47.0049   21.6998   44.5332 H   0  0  0  0  0
   43.3515   21.9266   44.7837 H   0  0  0  0  0
   41.7850   20.0519   44.3557 H   0  0  0  0  0
   42.6499   17.9053   43.4478 H   0  0  0  0  0
   45.0657   17.3218   40.8376 H   0  0  0  0  0
   43.5397   17.0036   41.6664 H   0  0  0  0  0
   44.6686   14.9560   42.6765 H   0  0  0  0  0
   45.9800   15.2311   41.4953 H   0  0  0  0  0
   44.7356   14.4982   39.7631 H   0  0  0  0  0
   43.2553   15.3143   40.3635 H   0  0  0  0  0
   43.1097   13.7935   41.9257 H   0  0  0  0  0
   45.3192   13.1372   42.2052 H   0  0  0  0  0
   44.8276   11.7515   41.1251 H   0  0  0  0  0
   42.9875   13.5744   43.8669 H   0  0  0  0  0
   41.9937   12.3421   45.7532 H   0  0  0  0  0
   42.2814    9.9191   46.0294 H   0  0  0  0  0
   42.0581   12.0254   41.2480 H   0  0  0  0  0
   42.5282   12.5718   39.5581 H   0  0  0  0  0
   41.5513   14.8105   40.2908 H   0  0  0  0  0
   40.3964   11.3241   39.7496 H   0  0  0  0  0
   38.6695   10.7506   38.0739 H   0  0  0  0  0
   37.3611   12.5541   36.9734 H   0  0  0  0  0
   37.8878   14.9192   37.4816 H   0  0  0  0  0
   39.5795   15.5070   39.1925 H   0  0  0  0  0
   40.0475   11.8486   42.0603 H   0  0  0  0  0
   39.1228   12.0166   44.3630 H   0  0  0  0  0
   39.0165   14.2436   45.4813 H   0  0  0  0  0
   39.9540   16.2283   44.3429 H   0  0  0  0  0
   40.9342   16.0475   42.0777 H   0  0  0  0  0
   46.6402   19.5154   43.3972 H   0  0  0  0  0
  1  2  2  0  0  0
  2  3  1  0  0  0
  2  4  1  0  0  0
  4  5  1  0  0  0
  5  6  4  0  0  0
  5 41  4  0  0  0
  6  7  4  0  0  0
  7  8  4  0  0  0
  8  9  4  0  0  0
  9 10  1  0  0  0
  9 41  4  0  0  0
 10 11  1  0  0  0
 11 12  1  0  0  0
 12 13  1  0  0  0
 13 14  1  0  0  0
 14 15  1  0  0  0
 14 27  1  0  0  0
 15 16  1  0  0  0
 16 17  4  0  0  0
 16 21  4  0  0  0
 17 18  4  0  0  0
 18 19  4  0  0  0
 19 20  4  0  0  0
 20 21  4  0  0  0
 20 23  1  0  0  0
 21 22  1  0  0  0
 23 24  1  0  0  0
 23 25  1  0  0  0
 23 26  1  0  0  0
 27 28  1  0  0  0
 28 29  1  0  0  0
 28 35  1  0  0  0
 29 30  4  0  0  0
 29 34  4  0  0  0
 30 31  4  0  0  0
 31 32  4  0  0  0
 32 33  4  0  0  0
 33 34  4  0  0  0
 35 36  4  0  0  0
 35 40  4  0  0  0
 36 37  4  0  0  0
 37 38  4  0  0  0
 38 39  4  0  0  0
 39 40  4  0  0  0
  3 42  1  0  0  0
  4 43  1  0  0  0
  4 44  1  0  0  0
  6 45  1  0  0  0
  7 46  1  0  0  0
  8 47  1  0  0  0
 11 48  1  0  0  0
 11 49  1  0  0  0
 12 50  1  0  0  0
 12 51  1  0  0  0
 13 52  1  0  0  0
 13 53  1  0  0  0
 14 54  1  0  0  0
 15 55  1  0  0  0
 15 56  1  0  0  0
 17 57  1  0  0  0
 18 58  1  0  0  0
 19 59  1  0  0  0
 27 60  1  0  0  0
 27 61  1  0  0  0
 28 62  1  0  0  0
 30 63  1  0  0  0
 31 64  1  0  0  0
 32 65  1  0  0  0
 33 66  1  0  0  0
 34 67  1  0  0  0
 36 68  1  0  0  0
 37 69  1  0  0  0
 38 70  1  0  0  0
 39 71  1  0  0  0
 40 72  1  0  0  0
 41 73  1  0  0  0
M  END
$$$$
