5n1p_ligand
  -I-interpret- 

 23 24  0  0  0  0  0  0  0  0999 V2000
  -34.8270   13.8290   51.0830 C   0  0  0  0  0
  -35.5110   13.1610   49.9360 C   0  0  0  0  0
  -36.8420   13.4690   49.6950 C   0  0  0  0  0
  -37.5020   12.8790   48.6230 C   0  0  0  0  0
  -36.8290   11.9900   47.7840 C   0  0  0  0  0
  -35.4940   11.6860   48.0260 C   0  0  0  0  0
  -34.8350   12.2780   49.1020 C   0  0  0  0  0
  -38.8360   13.1910   48.3990 C   0  0  0  0  0
  -39.5130   14.0770   49.2330 C   0  0  0  0  0
  -38.8510   14.6630   50.3060 C   0  0  0  0  0
  -37.5150   14.3570   50.5300 C   0  0  0  0  0
  -34.6450   15.0260   50.9870 O   0  0  0  0  0
  -34.4660   13.1570   52.1750 N   0  0  0  0  0
  -34.5180   13.8440   53.3870 O   0  0  0  0  0
  -37.3487   11.5349   46.9408 H   0  0  0  0  0
  -34.9652   10.9878   47.3771 H   0  0  0  0  0
  -33.7863   12.0479   49.2901 H   0  0  0  0  0
  -39.3607   12.7362   47.5588 H   0  0  0  0  0
  -40.5608   14.3109   49.0448 H   0  0  0  0  0
  -39.3752   15.3555   50.9646 H   0  0  0  0  0
  -36.9886   14.8160   51.3669 H   0  0  0  0  0
  -34.1651   12.1836   52.1266 H   0  0  0  0  0
  -34.2373   13.2611   54.0962 H   0  0  0  0  0
  1  2  1  0  0  0
  1 12  2  0  0  0
  1 13  1  0  0  0
  2  3  4  0  0  0
  2  7  4  0  0  0
  3  4  4  0  0  0
  3 11  4  0  0  0
  4  5  4  0  0  0
  4  8  4  0  0  0
  5  6  4  0  0  0
  6  7  4  0  0  0
  8  9  4  0  0  0
  9 10  4  0  0  0
 10 11  4  0  0  0
 13 14  1  0  0  0
  5 15  1  0  0  0
  6 16  1  0  0  0
  7 17  1  0  0  0
  8 18  1  0  0  0
  9 19  1  0  0  0
 10 20  1  0  0  0
 11 21  1  0  0  0
 13 22  1  0  0  0
 14 23  1  0  0  0
M  END
$$$$
