5sz3_ligand
  -I-interpret- 

 32 34  0  0  0  0  0  0  0  0999 V2000
    0.4700    5.9580   84.4200 C   0  0  0  0  0
    1.3710    6.8310   83.9130 C   0  0  0  0  0
    1.6180    8.0320   84.5650 C   0  0  0  0  0
    2.5350    8.9270   84.0540 C   0  0  0  0  0
    3.2040    8.6150   82.8890 C   0  0  0  0  0
    2.9610    7.4140   82.2410 C   0  0  0  0  0
    2.0390    6.5190   82.7550 C   0  0  0  0  0
    1.8050    5.3600   82.1260 N   0  0  0  0  0
    0.9110    4.4790   82.6200 C   0  0  0  0  0
    0.2040    4.8030   83.7670 C   0  0  0  0  0
   -0.7510    3.7990   84.3710 C   0  0  0  0  0
    0.0450    2.6280   84.9000 C   0  0  0  0  0
   -0.5440    1.6360   85.4900 C   0  0  0  0  0
   -2.0450    1.6580   85.6430 C   0  0  0  0  0
   -2.6820    0.1940   86.4910 S   0  0  0  0  0
   -4.1490    0.1790   86.5030 O   0  0  0  0  0
   -2.3020    0.2820   87.9050 O   0  0  0  0  0
   -1.9650   -1.1820   85.7860 N   0  0  0  0  0
   -2.7670    2.6750   85.1980 C   0  0  0  0  0
   -2.0620    3.8490   84.5080 C   0  0  0  0  0
   -0.0419    6.1853   85.3551 H   0  0  0  0  0
    1.0844    8.2688   85.4855 H   0  0  0  0  0
    2.7286    9.8700   84.5652 H   0  0  0  0  0
    3.9281    9.3170   82.4754 H   0  0  0  0  0
    3.4980    7.1736   81.3234 H   0  0  0  0  0
    0.7465    3.5231   82.1227 H   0  0  0  0  0
    1.1287    2.6179   84.7836 H   0  0  0  0  0
    0.0374    0.7964   85.8709 H   0  0  0  0  0
   -2.5517   -1.9298   85.4159 H   0  0  0  0  0
   -0.9491   -1.2578   85.7342 H   0  0  0  0  0
   -3.8501    2.6776   85.3208 H   0  0  0  0  0
   -2.6300    4.7034   84.1400 H   0  0  0  0  0
  1  2  4  0  0  0
  1 10  4  0  0  0
  2  3  4  0  0  0
  2  7  4  0  0  0
  3  4  4  0  0  0
  4  5  4  0  0  0
  5  6  4  0  0  0
  6  7  4  0  0  0
  7  8  4  0  0  0
  8  9  4  0  0  0
  9 10  4  0  0  0
 10 11  1  0  0  0
 11 12  4  0  0  0
 11 20  4  0  0  0
 12 13  4  0  0  0
 13 14  4  0  0  0
 14 15  1  0  0  0
 14 19  4  0  0  0
 15 16  2  0  0  0
 15 17  2  0  0  0
 15 18  1  0  0  0
 19 20  4  0  0  0
  1 21  1  0  0  0
  3 22  1  0  0  0
  4 23  1  0  0  0
  5 24  1  0  0  0
  6 25  1  0  0  0
  9 26  1  0  0  0
 12 27  1  0  0  0
 13 28  1  0  0  0
 18 29  1  0  0  0
 18 30  1  0  0  0
 19 31  1  0  0  0
 20 32  1  0  0  0
M  END
$$$$
