4awp_ligand
  -I-interpret- 

 71 75  0  0  0  0  0  0  0  0999 V2000
   -9.8730  -21.9070  -19.5100 C   0  0  0  0  0
  -10.2370  -21.0340  -18.3060 C   0  0  0  0  0
  -10.7150  -21.6760  -17.1640 C   0  0  0  0  0
  -11.0590  -20.9240  -16.0380 C   0  0  0  0  0
  -11.6930  -21.6410  -14.8590 C   0  0  0  0  0
  -12.8380  -21.2720  -14.5610 O   0  0  0  0  0
  -11.0600  -22.6620  -14.3070 N   0  0  0  0  0
  -10.9500  -19.5100  -16.0340 C   0  0  0  0  0
  -11.3330  -18.6370  -14.8370 C   0  0  0  0  0
  -10.4540  -18.8820  -17.1540 C   0  0  0  0  0
  -10.0970  -19.6180  -18.2950 C   0  0  0  0  0
   -9.6140  -18.8190  -19.5350 C   0  0  0  0  0
   -8.7160  -17.9980  -19.5620 O   0  0  0  0  0
  -10.4410  -19.0370  -20.5670 N   0  0  0  0  0
  -10.4420  -18.5540  -21.9250 C   0  0  0  0  0
  -11.8180  -18.5430  -22.6700 C   0  0  0  0  0
   -9.1470  -18.2840  -22.6780 C   0  0  0  0  0
   -9.1930  -19.4580  -23.7340 C   0  0  0  0  0
   -9.5940  -20.9120  -23.2290 C   0  0  0  0  0
  -11.1310  -20.9770  -23.2140 C   0  0  0  0  0
  -11.6110  -19.6240  -23.7660 C   0  0  0  0  0
  -10.4160  -19.1230  -24.4860 N   0  0  0  0  0
  -10.4570  -18.2910  -25.6250 C   0  0  0  0  0
  -11.6770  -17.9900  -26.2420 C   0  0  0  0  0
  -11.7010  -17.1650  -27.3590 C   0  0  0  0  0
   -9.3210  -17.6980  -26.0690 N   0  0  0  0  0
   -9.3170  -16.9190  -27.1330 C   0  0  0  0  0
  -10.5020  -16.6060  -27.8230 C   0  0  0  0  0
  -10.4630  -15.6920  -29.0500 C   0  0  0  0  0
   -9.3920  -15.2130  -29.4260 O   0  0  0  0  0
  -11.6490  -15.5220  -29.6860 N   0  0  0  0  0
  -11.7970  -14.7440  -30.9350 C   0  0  0  0  0
  -11.7020  -13.2200  -30.8190 C   0  0  0  0  0
  -11.4130  -12.5030  -32.0050 C   0  0  0  0  0
  -11.3080  -11.1210  -31.9570 C   0  0  0  0  0
  -11.5520  -10.4630  -30.7400 C   0  0  0  0  0
  -11.8520  -11.1630  -29.5630 C   0  0  0  0  0
  -11.9490  -12.5590  -29.6060 C   0  0  0  0  0
   -9.0892  -22.6087  -19.2247 H   0  0  0  0  0
  -10.7545  -22.4583  -19.8372 H   0  0  0  0  0
   -9.5170  -21.2733  -20.3223 H   0  0  0  0  0
  -10.8199  -22.7609  -17.1500 H   0  0  0  0  0
  -11.5158  -23.2108  -13.5780 H   0  0  0  0  0
  -10.1158  -22.9009  -14.6101 H   0  0  0  0  0
  -12.3870  -18.7860  -14.6027 H   0  0  0  0  0
  -10.7252  -18.9159  -13.9763 H   0  0  0  0  0
  -11.1586  -17.5894  -15.0824 H   0  0  0  0  0
  -10.3368  -17.7983  -17.1550 H   0  0  0  0  0
  -11.2164  -19.6632  -20.3503 H   0  0  0  0  0
  -10.2470  -17.5004  -21.7249 H   0  0  0  0  0
  -12.0775  -17.5653  -23.0761 H   0  0  0  0  0
  -12.6622  -18.7544  -22.0137 H   0  0  0  0  0
   -8.2551  -18.2768  -22.0514 H   0  0  0  0  0
   -9.0798  -17.2878  -23.1151 H   0  0  0  0  0
   -8.2010  -19.5110  -24.1825 H   0  0  0  0  0
   -9.1910  -21.0986  -22.2335 H   0  0  0  0  0
   -9.1828  -21.6758  -23.8890 H   0  0  0  0  0
  -11.5114  -21.1530  -22.2078 H   0  0  0  0  0
  -11.4995  -21.8059  -23.8184 H   0  0  0  0  0
  -12.5423  -19.7699  -24.3133 H   0  0  0  0  0
  -12.6056  -18.4020  -25.8468 H   0  0  0  0  0
  -12.6411  -16.9546  -27.8689 H   0  0  0  0  0
   -8.3717  -16.5074  -27.4866 H   0  0  0  0  0
  -12.4809  -15.9526  -29.2824 H   0  0  0  0  0
  -12.8031  -14.9530  -31.2987 H   0  0  0  0  0
  -10.9676  -15.0464  -31.5744 H   0  0  0  0  0
  -11.2742  -13.0325  -32.9476 H   0  0  0  0  0
  -11.0405  -10.5545  -32.8490 H   0  0  0  0  0
  -11.5067   -9.3744  -30.7099 H   0  0  0  0  0
  -12.0077  -10.6274  -28.6266 H   0  0  0  0  0
  -12.2122  -13.1235  -28.7115 H   0  0  0  0  0
  1  2  1  0  0  0
  2  3  4  0  0  0
  2 11  4  0  0  0
  3  4  4  0  0  0
  4  5  1  0  0  0
  4  8  4  0  0  0
  5  6  2  0  0  0
  5  7  1  0  0  0
  8  9  1  0  0  0
  8 10  4  0  0  0
 10 11  4  0  0  0
 11 12  1  0  0  0
 12 13  2  0  0  0
 12 14  1  0  0  0
 14 15  1  0  0  0
 15 16  1  0  0  0
 15 17  1  0  0  0
 16 21  1  0  0  0
 17 18  1  0  0  0
 18 19  1  0  0  0
 18 22  1  0  0  0
 19 20  1  0  0  0
 20 21  1  0  0  0
 21 22  1  0  0  0
 22 23  1  0  0  0
 23 24  4  0  0  0
 23 26  4  0  0  0
 24 25  4  0  0  0
 25 28  4  0  0  0
 26 27  4  0  0  0
 27 28  4  0  0  0
 28 29  1  0  0  0
 29 30  2  0  0  0
 29 31  1  0  0  0
 31 32  1  0  0  0
 32 33  1  0  0  0
 33 34  4  0  0  0
 33 38  4  0  0  0
 34 35  4  0  0  0
 35 36  4  0  0  0
 36 37  4  0  0  0
 37 38  4  0  0  0
  1 39  1  0  0  0
  1 40  1  0  0  0
  1 41  1  0  0  0
  3 42  1  0  0  0
  7 43  1  0  0  0
  7 44  1  0  0  0
  9 45  1  0  0  0
  9 46  1  0  0  0
  9 47  1  0  0  0
 10 48  1  0  0  0
 14 49  1  0  0  0
 15 50  1  0  0  0
 16 51  1  0  0  0
 16 52  1  0  0  0
 17 53  1  0  0  0
 17 54  1  0  0  0
 18 55  1  0  0  0
 19 56  1  0  0  0
 19 57  1  0  0  0
 20 58  1  0  0  0
 20 59  1  0  0  0
 21 60  1  0  0  0
 24 61  1  0  0  0
 25 62  1  0  0  0
 27 63  1  0  0  0
 31 64  1  0  0  0
 32 65  1  0  0  0
 32 66  1  0  0  0
 34 67  1  0  0  0
 35 68  1  0  0  0
 36 69  1  0  0  0
 37 70  1  0  0  0
 38 71  1  0  0  0
M  END
$$$$
