2w0z_ligand
  -I-interpret- 

142147  0  0  0  0  0  0  0  0999 V2000
   22.6840   23.1280    7.9120 N   0  3  0  0  0
   22.7030   22.1580    9.0610 C   0  0  0  0  0
   21.4390   21.2950    9.0070 C   0  0  0  0  0
   20.4290   21.7520    8.4860 O   0  0  0  0  0
   22.7860   22.8800   10.3470 C   0  0  0  0  0
   21.4750   20.0440    9.5340 N   0  0  0  0  0
   20.2220   19.2780    9.4050 C   0  0  0  0  0
   19.1460   19.8720   10.3310 C   0  0  0  0  0
   19.4920   20.6510   11.2320 O   0  0  0  0  0
   20.6210   17.8600    9.8440 C   0  0  0  0  0
   21.7870   18.0650   10.7680 C   0  0  0  0  0
   22.5310   19.2730   10.2170 C   0  0  0  0  0
   17.8650   19.5220   10.1130 N   0  0  0  0  0
   16.7760   20.1470   10.8630 C   0  0  0  0  0
   16.8510   19.8250   12.3520 C   0  0  0  0  0
   17.4000   18.7980   12.7390 O   0  0  0  0  0
   15.5240   19.4770   10.2730 C   0  0  0  0  0
   15.9120   18.9890    8.9400 C   0  0  0  0  0
   17.3610   18.6030    9.0700 C   0  0  0  0  0
   16.2970   20.6990   13.2070 N   0  0  0  0  0
   16.3070   20.3490   14.6380 C   0  0  0  0  0
   15.5340   19.0710   14.9660 C   0  0  0  0  0
   14.4660   18.8270   14.3900 O   0  0  0  0  0
   15.6000   21.5430   15.2970 C   0  0  0  0  0
   15.6510   22.6490   14.2460 C   0  0  0  0  0
   15.5740   21.9490   12.9370 C   0  0  0  0  0
   16.0610   18.2740   15.8810 N   0  0  0  0  0
   15.3300   17.1080   16.3720 C   0  0  0  0  0
   14.0090   17.6040   16.9770 C   0  0  0  0  0
   14.0290   18.5250   17.8190 O   0  0  0  0  0
   16.1540   16.3540   17.4210 C   0  0  0  0  0
   17.4980   15.8080   16.9200 C   0  0  0  0  0
   18.4760   15.5190   18.0550 C   0  0  0  0  0
   17.8930   14.7180   19.1450 N   0  0  0  0  0
   17.8720   13.3830   19.1960 C   0  0  0  0  0
   17.2920   12.7730   20.2270 N   0  0  0  0  0
   18.4180   12.6430   18.2350 N   0  0  0  0  0
   12.8680   17.0120   16.5540 N   0  0  0  0  0
   11.5720   17.4460   17.0660 C   0  0  0  0  0
   11.3480   16.9390   18.4780 C   0  0  0  0  0
   12.1130   16.0960   18.9760 O   0  0  0  0  0
   10.5620   16.8440   16.0680 C   0  0  0  0  0
   11.2580   15.7070   15.4140 C   0  0  0  0  0
   12.7480   15.9010   15.5790 C   0  0  0  0  0
   10.3130   17.4760   19.1510 N   0  0  0  0  0
   10.0850   17.0800   20.5250 C   0  0  0  0  0
    9.7670   15.5970   20.6190 C   0  0  0  0  0
    9.0130   15.0540   19.7960 O   0  0  0  0  0
    8.8540   17.9120   20.9380 C   0  0  0  0  0
    8.7640   19.0380   19.9370 C   0  0  0  0  0
    9.3040   18.4400   18.6650 C   0  0  0  0  0
   10.3530   14.9310   21.6000 N   0  0  0  0  0
    9.8710   13.6000   21.9220 C   0  0  0  0  0
    8.5530   13.7460   22.6900 C   0  0  0  0  0
    8.4420   14.6100   23.5740 O   0  0  0  0  0
   10.9090   12.8100   22.6960 C   0  0  0  0  0
   12.1330   12.5180   21.8590 C   0  0  0  0  0
   12.5520   11.0930   21.9460 C   0  0  0  0  0
   13.8240   10.8860   21.1420 C   0  0  0  0  0
   14.3990    9.5480   21.3640 N   0  3  0  0  0
    7.5390   12.9380   22.3320 N   0  0  0  0  0
    6.1880   13.0630   22.9210 C   0  0  0  0  0
    6.1090   12.7540   24.4260 C   0  0  0  0  0
    7.0470   12.1930   25.0030 O   0  0  0  0  0
    5.3620   12.0440   22.1300 C   0  0  0  0  0
    6.3740   11.0800   21.5590 C   0  0  0  0  0
    7.5950   11.8840   21.2960 C   0  0  0  0  0
   22.6265   22.6121    7.0340 H   0  0  0  0  0
   21.8745   23.7422    8.0005 H   0  0  0  0  0
   23.5382   23.6854    7.9250 H   0  0  0  0  0
   23.5812   21.5174    8.9809 H   0  0  0  0  0
   21.9135   23.5238   10.4577 H   0  0  0  0  0
   22.8142   22.1603   11.1651 H   0  0  0  0  0
   23.6913   23.4868   10.3638 H   0  0  0  0  0
   19.7992   19.2955    8.4005 H   0  0  0  0  0
   20.8797   17.2276    8.9947 H   0  0  0  0  0
   19.7990   17.3381   10.3339 H   0  0  0  0  0
   22.4272   17.1837   10.8066 H   0  0  0  0  0
   21.4602   18.2300   11.7947 H   0  0  0  0  0
   23.0307   19.8479   10.9967 H   0  0  0  0  0
   23.3444   18.9936    9.5474 H   0  0  0  0  0
   16.7967   21.2338   10.7823 H   0  0  0  0  0
   14.6941   20.1807   10.2086 H   0  0  0  0  0
   15.1791   18.6598   10.9065 H   0  0  0  0  0
   15.7649   19.7501    8.1737 H   0  0  0  0  0
   15.2971   18.1460    8.6248 H   0  0  0  0  0
   17.4939   17.5540    9.3348 H   0  0  0  0  0
   17.9059   18.6950    8.1305 H   0  0  0  0  0
   17.3245   20.1616   14.9810 H   0  0  0  0  0
   16.0850   21.8414   16.2264 H   0  0  0  0  0
   14.5769   21.3021   15.5856 H   0  0  0  0  0
   16.5616   23.2421   14.3312 H   0  0  0  0  0
   14.8333   23.3590   14.3703 H   0  0  0  0  0
   14.5512   21.7877   12.5966 H   0  0  0  0  0
   16.0039   22.5244   12.1172 H   0  0  0  0  0
   16.9906   18.4763   16.2489 H   0  0  0  0  0
   15.1343   16.4150   15.5538 H   0  0  0  0  0
   15.5599   15.4936   17.7290 H   0  0  0  0  0
   16.3798   17.0658   18.2150 H   0  0  0  0  0
   17.9470   16.5638   16.2756 H   0  0  0  0  0
   17.3049   14.8709   16.3978 H   0  0  0  0  0
   18.7781   16.4769   18.4784 H   0  0  0  0  0
   19.3040   14.9474   17.6358 H   0  0  0  0  0
   17.4711   15.2234   19.9241 H   0  0  0  0  0
   17.2714   11.7542   20.2710 H   0  0  0  0  0
   16.8682   13.3244   20.9732 H   0  0  0  0  0
   18.8654   13.0933   17.4366 H   0  0  0  0  0
   11.4814   18.5299   17.1371 H   0  0  0  0  0
   10.2429   17.5849   15.3350 H   0  0  0  0  0
    9.6563   16.5122   16.5757 H   0  0  0  0  0
   11.0015   15.6719   14.3552 H   0  0  0  0  0
   10.9510   14.7676   15.8737 H   0  0  0  0  0
   13.2434   14.9947   15.9271 H   0  0  0  0  0
   13.2388   16.1307   14.6332 H   0  0  0  0  0
   10.9556   17.2468   21.1592 H   0  0  0  0  0
    8.9553   18.2923   21.9545 H   0  0  0  0  0
    7.9476   17.3066   20.9363 H   0  0  0  0  0
    9.3275   19.9163   20.2519 H   0  0  0  0  0
    7.7446   19.4058   19.8200 H   0  0  0  0  0
    8.5300   17.9704   18.0580 H   0  0  0  0  0
    9.7246   19.1878   17.9927 H   0  0  0  0  0
   11.1275   15.3440   22.1195 H   0  0  0  0  0
    9.6904   13.0322   21.0093 H   0  0  0  0  0
   10.4640   11.8607   22.9942 H   0  0  0  0  0
   11.2171   13.4022   23.5577 H   0  0  0  0  0
   12.9515   13.1338   22.2317 H   0  0  0  0  0
   11.8903   12.7355   20.8189 H   0  0  0  0  0
   11.7623   10.4581   21.5444 H   0  0  0  0  0
   12.7359   10.8325   22.9883 H   0  0  0  0  0
   14.5548   11.6301   21.4588 H   0  0  0  0  0
   13.5806   10.9833   20.0840 H   0  0  0  0  0
   15.2488    9.4481   20.8088 H   0  0  0  0  0
   14.6222    9.4350   22.3528 H   0  0  0  0  0
   13.7227    8.8378   21.0835 H   0  0  0  0  0
    5.8382   14.0930   22.8520 H   0  0  0  0  0
    5.2178   13.0323   24.9885 H   0  0  0  0  0
    4.7727   12.5218   21.3473 H   0  0  0  0  0
    4.6329   11.5370   22.7620 H   0  0  0  0  0
    6.0042   10.6107   20.6474 H   0  0  0  0  0
    6.5784   10.2634   22.2514 H   0  0  0  0  0
    8.5077   11.2905   21.3505 H   0  0  0  0  0
    7.6196   12.2906   20.2850 H   0  0  0  0  0
  1  2  1  0  0  0
  2  3  1  0  0  0
  2  5  1  0  0  0
  3  4  2  0  0  0
  3  6  1  0  0  0
  6  7  1  0  0  0
  6 12  1  0  0  0
  7  8  1  0  0  0
  7 10  1  0  0  0
  8  9  2  0  0  0
  8 13  1  0  0  0
 10 11  1  0  0  0
 11 12  1  0  0  0
 13 14  1  0  0  0
 13 19  1  0  0  0
 14 15  1  0  0  0
 14 17  1  0  0  0
 15 16  2  0  0  0
 15 20  1  0  0  0
 17 18  1  0  0  0
 18 19  1  0  0  0
 20 21  1  0  0  0
 20 26  1  0  0  0
 21 22  1  0  0  0
 21 24  1  0  0  0
 22 23  2  0  0  0
 22 27  1  0  0  0
 24 25  1  0  0  0
 25 26  1  0  0  0
 27 28  1  0  0  0
 28 29  1  0  0  0
 28 31  1  0  0  0
 29 30  2  0  0  0
 29 38  1  0  0  0
 31 32  1  0  0  0
 32 33  1  0  0  0
 33 34  1  0  0  0
 34 35  1  0  0  0
 35 36  1  0  0  0
 35 37  2  0  0  0
 38 39  1  0  0  0
 38 44  1  0  0  0
 39 40  1  0  0  0
 39 42  1  0  0  0
 40 41  2  0  0  0
 40 45  1  0  0  0
 42 43  1  0  0  0
 43 44  1  0  0  0
 45 46  1  0  0  0
 45 51  1  0  0  0
 46 47  1  0  0  0
 46 49  1  0  0  0
 47 48  2  0  0  0
 47 52  1  0  0  0
 49 50  1  0  0  0
 50 51  1  0  0  0
 52 53  1  0  0  0
 53 54  1  0  0  0
 53 56  1  0  0  0
 54 55  2  0  0  0
 54 61  1  0  0  0
 56 57  1  0  0  0
 57 58  1  0  0  0
 58 59  1  0  0  0
 59 60  1  0  0  0
 61 62  1  0  0  0
 61 67  1  0  0  0
 62 63  1  0  0  0
 62 65  1  0  0  0
 63 64  2  0  0  0
 65 66  1  0  0  0
 66 67  1  0  0  0
  1 68  1  0  0  0
  1 69  1  0  0  0
  1 70  1  0  0  0
  2 71  1  0  0  0
  5 72  1  0  0  0
  5 73  1  0  0  0
  5 74  1  0  0  0
  7 75  1  0  0  0
 10 76  1  0  0  0
 10 77  1  0  0  0
 11 78  1  0  0  0
 11 79  1  0  0  0
 12 80  1  0  0  0
 12 81  1  0  0  0
 14 82  1  0  0  0
 17 83  1  0  0  0
 17 84  1  0  0  0
 18 85  1  0  0  0
 18 86  1  0  0  0
 19 87  1  0  0  0
 19 88  1  0  0  0
 21 89  1  0  0  0
 24 90  1  0  0  0
 24 91  1  0  0  0
 25 92  1  0  0  0
 25 93  1  0  0  0
 26 94  1  0  0  0
 26 95  1  0  0  0
 27 96  1  0  0  0
 28 97  1  0  0  0
 31 98  1  0  0  0
 31 99  1  0  0  0
 32100  1  0  0  0
 32101  1  0  0  0
 33102  1  0  0  0
 33103  1  0  0  0
 34104  1  0  0  0
 36105  1  0  0  0
 36106  1  0  0  0
 37107  1  0  0  0
 39108  1  0  0  0
 42109  1  0  0  0
 42110  1  0  0  0
 43111  1  0  0  0
 43112  1  0  0  0
 44113  1  0  0  0
 44114  1  0  0  0
 46115  1  0  0  0
 49116  1  0  0  0
 49117  1  0  0  0
 50118  1  0  0  0
 50119  1  0  0  0
 51120  1  0  0  0
 51121  1  0  0  0
 52122  1  0  0  0
 53123  1  0  0  0
 56124  1  0  0  0
 56125  1  0  0  0
 57126  1  0  0  0
 57127  1  0  0  0
 58128  1  0  0  0
 58129  1  0  0  0
 59130  1  0  0  0
 59131  1  0  0  0
 60132  1  0  0  0
 60133  1  0  0  0
 60134  1  0  0  0
 62135  1  0  0  0
 63136  1  0  0  0
 65137  1  0  0  0
 65138  1  0  0  0
 66139  1  0  0  0
 66140  1  0  0  0
 67141  1  0  0  0
 67142  1  0  0  0
M  END
$$$$
