5q0i_ligand
  -I-interpret- 

 66 67  0  0  0  0  0  0  0  0999 V2000
   31.9670   28.6890   29.6620 O   0  0  0  0  0
   32.5430   29.4510   30.7220 S   0  0  0  0  0
   33.8160   29.0900   31.2630 O   0  0  0  0  0
   31.3690   29.5620   32.0380 C   0  0  0  0  0
   30.0900   29.0530   31.8680 C   0  0  0  0  0
   29.1730   29.1570   32.9020 C   0  0  0  0  0
   29.5030   29.7620   34.1060 C   0  0  0  0  0
   28.4950   29.8650   35.2230 C   0  0  0  0  0
   30.7880   30.2720   34.2530 C   0  0  0  0  0
   31.7250   30.1800   33.2330 C   0  0  0  0  0
   32.6530   31.0610   30.1950 N   0  0  0  0  0
   33.5850   31.9550   30.9060 C   0  0  0  0  0
   34.9150   32.4720   30.4050 C   0  0  0  0  0
   35.5200   31.8230   29.4080 N   0  0  0  0  0
   36.8150   32.2570   28.8790 C   0  0  0  0  0
   37.8610   31.1190   28.9310 C   0  0  0  0  0
   37.8690   30.4070   30.2880 C   0  0  0  0  0
   39.2680   31.6150   28.5790 C   0  0  0  0  0
   36.7220   33.0380   27.5040 C   0  0  0  0  0
   36.1390   32.1940   26.3740 C   0  0  0  0  0
   35.9950   34.3620   27.6450 C   0  0  0  0  0
   35.4000   33.4700   30.9300 O   0  0  0  0  0
   31.8460   31.5940   29.1190 C   0  0  0  0  0
   30.7410   32.3750   29.4430 C   0  0  0  0  0
   29.9360   32.9090   28.4600 C   0  0  0  0  0
   32.1520   31.3420   27.7710 C   0  0  0  0  0
   31.3320   31.8810   26.7670 C   0  0  0  0  0
   31.5210   31.7140   25.4100 O   0  0  0  0  0
   31.8540   30.4170   24.9340 C   0  0  0  0  0
   30.2180   32.6720   27.1240 C   0  0  0  0  0
   29.4790   33.1580   26.0830 O   0  0  0  0  0
   28.1220   33.5400   26.3480 C   0  0  0  0  0
   29.8086   28.5754   30.9295 H   0  0  0  0  0
   28.1693   28.7541   32.7661 H   0  0  0  0  0
   27.6311   30.4343   34.8798 H   0  0  0  0  0
   28.1785   28.8647   35.5184 H   0  0  0  0  0
   28.9494   30.3703   36.0753 H   0  0  0  0  0
   31.0658   30.7548   35.1899 H   0  0  0  0  0
   32.7274   30.5868   33.3664 H   0  0  0  0  0
   33.8980   31.3237   31.7376 H   0  0  0  0  0
   33.0026   32.8747   30.9611 H   0  0  0  0  0
   35.0684   31.0027   29.0036 H   0  0  0  0  0
   37.1946   33.0249   29.5530 H   0  0  0  0  0
   37.5606   30.3950   28.1736 H   0  0  0  0  0
   38.1078   31.1253   31.0723 H   0  0  0  0  0
   36.8861   29.9751   30.4760 H   0  0  0  0  0
   38.6189   29.6160   30.2774 H   0  0  0  0  0
   39.2643   32.0287   27.5705 H   0  0  0  0  0
   39.5680   32.3863   29.2884 H   0  0  0  0  0
   39.9687   30.7815   28.6287 H   0  0  0  0  0
   37.7510   33.2602   27.2212 H   0  0  0  0  0
   36.7678   31.3180   26.2149 H   0  0  0  0  0
   35.1316   31.8758   26.6424 H   0  0  0  0  0
   36.1027   32.7875   25.4605 H   0  0  0  0  0
   34.9810   34.1820   28.0021 H   0  0  0  0  0
   36.5262   34.9926   28.3580 H   0  0  0  0  0
   35.9573   34.8594   26.6758 H   0  0  0  0  0
   30.5084   32.5675   30.4904 H   0  0  0  0  0
   29.0754   33.5192   28.7340 H   0  0  0  0  0
   33.0175   30.7341   27.5074 H   0  0  0  0  0
   32.7886   30.0924   25.3914 H   0  0  0  0  0
   31.0583   29.7197   25.1962 H   0  0  0  0  0
   31.9696   30.4476   23.8506 H   0  0  0  0  0
   27.5675   32.6759   26.7139 H   0  0  0  0  0
   28.1081   34.3277   27.1013 H   0  0  0  0  0
   27.6629   33.9057   25.4295 H   0  0  0  0  0
  1  2  2  0  0  0
  2  3  2  0  0  0
  2  4  1  0  0  0
  2 11  1  0  0  0
  4  5  4  0  0  0
  4 10  4  0  0  0
  5  6  4  0  0  0
  6  7  4  0  0  0
  7  8  1  0  0  0
  7  9  4  0  0  0
  9 10  4  0  0  0
 11 12  1  0  0  0
 11 23  1  0  0  0
 12 13  1  0  0  0
 13 14  1  0  0  0
 13 22  2  0  0  0
 14 15  1  0  0  0
 15 16  1  0  0  0
 15 19  1  0  0  0
 16 17  1  0  0  0
 16 18  1  0  0  0
 19 20  1  0  0  0
 19 21  1  0  0  0
 23 24  4  0  0  0
 23 26  4  0  0  0
 24 25  4  0  0  0
 25 30  4  0  0  0
 26 27  4  0  0  0
 27 28  1  0  0  0
 27 30  4  0  0  0
 28 29  1  0  0  0
 30 31  1  0  0  0
 31 32  1  0  0  0
  5 33  1  0  0  0
  6 34  1  0  0  0
  8 35  1  0  0  0
  8 36  1  0  0  0
  8 37  1  0  0  0
  9 38  1  0  0  0
 10 39  1  0  0  0
 12 40  1  0  0  0
 12 41  1  0  0  0
 14 42  1  0  0  0
 15 43  1  0  0  0
 16 44  1  0  0  0
 17 45  1  0  0  0
 17 46  1  0  0  0
 17 47  1  0  0  0
 18 48  1  0  0  0
 18 49  1  0  0  0
 18 50  1  0  0  0
 19 51  1  0  0  0
 20 52  1  0  0  0
 20 53  1  0  0  0
 20 54  1  0  0  0
 21 55  1  0  0  0
 21 56  1  0  0  0
 21 57  1  0  0  0
 24 58  1  0  0  0
 25 59  1  0  0  0
 26 60  1  0  0  0
 29 61  1  0  0  0
 29 62  1  0  0  0
 29 63  1  0  0  0
 32 64  1  0  0  0
 32 65  1  0  0  0
 32 66  1  0  0  0
M  END
$$$$
