5ivf_ligand
  -I-interpret- 

 37 39  0  0  0  0  0  0  0  0999 V2000
  -24.5330   21.1370    6.6720 C   0  0  0  0  0
  -26.6370   24.1290    6.4330 C   0  0  0  0  0
  -28.9700   24.8200    6.7080 C   0  0  0  0  0
  -23.7290   19.0660    7.5560 C   0  0  0  0  0
  -23.5680   18.6450    6.1720 C   0  0  0  0  0
  -22.9240   17.0400    4.5630 C   0  0  0  0  0
  -24.1030   23.0430    0.7400 C   0  0  0  0  0
  -23.9250   21.6890    1.2640 N   0  0  0  0  0
  -23.6530   20.5340    0.5380 C   0  0  0  0  0
  -23.5600   19.4690    1.3610 N   0  0  0  0  0
  -23.8780   19.9350    2.6400 C   0  0  0  0  0
  -24.0120   21.3050    2.5810 C   0  0  0  0  0
  -23.7300   19.0910    3.7800 C   0  0  0  0  0
  -23.8780   19.5430    5.1330 C   0  0  0  0  0
  -24.3760   20.8060    5.3730 N   0  0  0  0  0
  -25.0200   22.3520    7.0370 O   0  0  0  0  0
  -25.5780   23.1120    5.9730 C   0  0  0  0  0
  -27.8810   23.8840    6.3350 C   0  0  0  0  0
  -28.6840   25.5290    7.7880 F   0  0  0  0  0
  -30.1220   24.1860    6.9370 F   0  0  0  0  0
  -29.2290   25.7040    5.7500 F   0  0  0  0  0
  -24.2260   20.3190    7.7560 N   0  0  0  0  0
  -23.4550   18.3660    8.5030 O   0  0  0  0  0
  -23.0710   17.3760    5.8840 C   0  0  0  0  0
  -23.2280   17.8680    3.5060 N   0  0  0  0  0
  -26.3134   25.0815    6.8526 H   0  0  0  0  0
  -22.5390   16.0465    4.3332 H   0  0  0  0  0
  -23.1952   23.3532    0.2226 H   0  0  0  0  0
  -24.9415   23.0544    0.0437 H   0  0  0  0  0
  -24.3045   23.7268    1.5646 H   0  0  0  0  0
  -23.5319   20.4949   -0.5445 H   0  0  0  0  0
  -24.1613   21.9697    3.4319 H   0  0  0  0  0
  -24.7657   23.6723    5.5101 H   0  0  0  0  0
  -26.0679   22.4139    5.2942 H   0  0  0  0  0
  -28.1705   22.9079    5.9457 H   0  0  0  0  0
  -24.3740   20.6598    8.7059 H   0  0  0  0  0
  -22.8091   16.6770    6.6783 H   0  0  0  0  0
  1 15  2  0  0  0
 16  1  1  0  0  0
  1 22  1  0  0  0
 17  2  1  0  0  0
  2 18  2  0  0  0
 18  3  1  0  0  0
  3 19  1  0  0  0
  3 20  1  0  0  0
  3 21  1  0  0  0
  4  5  1  0  0  0
 22  4  1  0  0  0
  4 23  2  0  0  0
 14  5  4  0  0  0
  5 24  4  0  0  0
 24  6  4  0  0  0
 25  6  4  0  0  0
  8  7  1  0  0  0
  8  9  4  0  0  0
 12  8  4  0  0  0
 10  9  4  0  0  0
 11 10  4  0  0  0
 11 12  4  0  0  0
 13 11  1  0  0  0
 14 13  4  0  0  0
 13 25  4  0  0  0
 15 14  1  0  0  0
 16 17  1  0  0  0
  2 26  1  0  0  0
  6 27  1  0  0  0
  7 28  1  0  0  0
  7 29  1  0  0  0
  7 30  1  0  0  0
  9 31  1  0  0  0
 12 32  1  0  0  0
 17 33  1  0  0  0
 17 34  1  0  0  0
 18 35  1  0  0  0
 22 36  1  0  0  0
 24 37  1  0  0  0
M  END
$$$$
