5w92_ligand
  -I-interpret- 

 58 61  0  0  0  0  0  0  0  0999 V2000
  127.2480  104.8850  417.0000 C   0  0  0  0  0
  134.5790  102.3930  420.1830 C   0  0  0  0  0
  133.6410  101.3750  420.1840 C   0  0  0  0  0
  132.5660  101.4410  421.0540 C   0  0  0  0  0
  132.4370  102.5030  421.9220 C   0  0  0  0  0
  133.3760  103.5080  421.9250 C   0  0  0  0  0
  134.4550  103.4580  421.0580 C   0  0  0  0  0
  131.3380  105.9260  419.9670 C   0  0  0  0  0
  130.0440  105.7380  420.4640 C   0  0  0  0  0
  129.4790  101.2800  419.0190 C   0  0  0  0  0
  130.5870  100.8230  418.0800 C   0  0  0  0  0
  128.5210  104.6940  416.4600 C   0  0  0  0  0
  130.0190  101.1880  416.7290 C   0  0  0  0  0
  129.3390  105.8200  416.3500 C   0  0  0  0  0
  128.8560  107.0570  416.7550 C   0  0  0  0  0
  126.8470  106.1570  417.3830 C   0  0  0  0  0
  129.0380  103.3500  416.0420 C   0  0  0  0  0
  129.1130  102.6640  418.4560 C   0  0  0  0  0
  129.8870  103.8300  419.0300 C   0  0  0  0  0
  131.8370  105.0700  419.0250 C   0  0  0  0  0
  133.2250  105.2160  418.4500 C   0  0  0  0  0
  134.9990  104.0800  417.2120 C   0  0  0  0  0
  136.0390  103.9080  418.3020 C   0  0  0  0  0
  129.3580  102.4740  417.0040 N   0  0  0  0  0
  131.1180  104.0420  418.5570 N   0  0  0  0  0
  133.6400  104.1870  417.7200 N   0  0  0  0  0
  129.3370  104.6640  419.9660 N   0  0  0  0  0
  127.6370  107.2200  417.2610 N   0  0  0  0  0
  129.2270  103.0900  414.8550 O   0  0  0  0  0
  133.9150  106.2060  418.6700 O   0  0  0  0  0
  135.6890  101.3380  418.0720 O   0  0  0  0  0
  137.1440  102.1480  419.8850 O   0  0  0  0  0
  132.0180  106.9700  420.4620 O   0  0  0  0  0
  129.5130  106.4650  421.3180 O   0  0  0  0  0
  135.9620  102.3160  419.0850 S   0  0  0  0  0
  126.1610  103.5610  417.1960 Cl  0  0  0  0  0
  130.9300  105.6930  415.6950 Cl  0  0  0  0  0
  133.7478  100.5286  419.5056 H   0  0  0  0  0
  131.8177  100.6484  421.0522 H   0  0  0  0  0
  131.5902  102.5468  422.6069 H   0  0  0  0  0
  133.2706  104.3472  422.6125 H   0  0  0  0  0
  135.2015  104.2522  421.0648 H   0  0  0  0  0
  129.7912  101.3131  420.0628 H   0  0  0  0  0
  128.6329  100.5933  419.0463 H   0  0  0  0  0
  130.8275   99.7643  418.1769 H   0  0  0  0  0
  131.5496  101.2911  418.2859 H   0  0  0  0  0
  129.3406  100.4335  416.3308 H   0  0  0  0  0
  130.7770  101.2536  415.9485 H   0  0  0  0  0
  129.5017  107.9294  416.6542 H   0  0  0  0  0
  125.8483  106.2898  417.7990 H   0  0  0  0  0
  128.0937  102.9502  418.7151 H   0  0  0  0  0
  135.0425  103.1967  416.5748 H   0  0  0  0  0
  135.2262  105.0067  416.6851 H   0  0  0  0  0
  135.8504  104.6637  419.0645 H   0  0  0  0  0
  137.0225  104.0059  417.8424 H   0  0  0  0  0
  132.9783  103.4407  417.5067 H   0  0  0  0  0
  128.3895  104.4882  420.3002 H   0  0  0  0  0
  131.4739  107.4282  421.1067 H   0  0  0  0  0
 12  1  4  0  0  0
  1 16  4  0  0  0
  1 36  1  0  0  0
  2  3  4  0  0  0
  2  7  4  0  0  0
 35  2  1  0  0  0
  3  4  4  0  0  0
  4  5  4  0  0  0
  6  5  4  0  0  0
  7  6  4  0  0  0
  8  9  1  0  0  0
 20  8  2  0  0  0
  8 33  1  0  0  0
  9 27  1  0  0  0
  9 34  2  0  0  0
 10 11  1  0  0  0
 18 10  1  0  0  0
 13 11  1  0  0  0
 12 14  4  0  0  0
 17 12  1  0  0  0
 24 13  1  0  0  0
 14 15  4  0  0  0
 14 37  1  0  0  0
 15 28  4  0  0  0
 16 28  4  0  0  0
 24 17  1  0  0  0
 17 29  2  0  0  0
 19 18  1  0  0  0
 18 24  1  0  0  0
 25 19  2  0  0  0
 19 27  1  0  0  0
 21 20  1  0  0  0
 20 25  1  0  0  0
 26 21  1  0  0  0
 21 30  2  0  0  0
 23 22  1  0  0  0
 22 26  1  0  0  0
 23 35  1  0  0  0
 35 31  2  0  0  0
 35 32  2  0  0  0
  3 38  1  0  0  0
  4 39  1  0  0  0
  5 40  1  0  0  0
  6 41  1  0  0  0
  7 42  1  0  0  0
 10 43  1  0  0  0
 10 44  1  0  0  0
 11 45  1  0  0  0
 11 46  1  0  0  0
 13 47  1  0  0  0
 13 48  1  0  0  0
 15 49  1  0  0  0
 16 50  1  0  0  0
 18 51  1  0  0  0
 22 52  1  0  0  0
 22 53  1  0  0  0
 23 54  1  0  0  0
 23 55  1  0  0  0
 26 56  1  0  0  0
 27 57  1  0  0  0
 33 58  1  0  0  0
M  END
$$$$
