3g90_ligand
  -I-interpret- 

 37 40  0  0  0  0  0  0  0  0999 V2000
   17.5090    8.2080   33.6570 O   0  0  0  0  0
   18.0150    7.1540   32.8760 N   0  0  0  0  0
   19.1420    7.2980   32.2410 C   0  0  0  0  0
   19.7520    6.2560   31.3970 C   0  0  0  0  0
   19.2880    5.1520   31.1940 O   0  0  0  0  0
   20.8890    6.7470   30.8990 N   0  0  0  0  0
   21.7540    5.9940   29.9990 C   0  0  0  0  0
   22.6890    5.1150   30.7820 C   0  0  0  0  0
   22.2080    4.1770   31.6910 C   0  0  0  0  0
   23.0960    3.3710   32.3870 C   0  0  0  0  0
   22.6280    2.4550   33.2630 F   0  0  0  0  0
   24.4620    3.5030   32.1870 C   0  0  0  0  0
   24.9380    4.4370   31.2860 C   0  0  0  0  0
   26.4170    4.5830   31.0720 C   0  0  0  0  0
   26.6690    5.4070   29.9220 O   0  0  0  0  0
   25.8790    6.5990   29.8420 C   0  0  0  0  0
   24.5180    6.1770   29.6950 O   0  0  0  0  0
   24.0570    5.2470   30.5790 C   0  0  0  0  0
   21.1260    8.0530   31.3200 C   0  0  0  0  0
   22.1780    8.9300   31.0400 C   0  0  0  0  0
   22.1940   10.2020   31.5840 C   0  0  0  0  0
   21.1500   10.6020   32.4120 C   0  0  0  0  0
   21.1610   11.8420   32.9320 F   0  0  0  0  0
   20.0930    9.7450   32.6990 C   0  0  0  0  0
   20.0790    8.4570   32.1560 C   0  0  0  0  0
   16.6771    7.9398   34.0540 H   0  0  0  0  0
   22.3405    6.6934   29.4032 H   0  0  0  0  0
   21.1364    5.3689   29.3541 H   0  0  0  0  0
   21.1352    4.0763   31.8554 H   0  0  0  0  0
   25.1585    2.8718   32.7389 H   0  0  0  0  0
   26.8545    3.5979   30.9098 H   0  0  0  0  0
   26.8620    5.0490   31.9512 H   0  0  0  0  0
   26.1890    7.2164   28.9989 H   0  0  0  0  0
   26.0034    7.2099   30.7361 H   0  0  0  0  0
   22.9911    8.6095   30.3887 H   0  0  0  0  0
   23.0161   10.8837   31.3661 H   0  0  0  0  0
   19.2793   10.0761   33.3443 H   0  0  0  0  0
  1  2  1  0  0  0
  2  3  2  0  0  0
  3  4  1  0  0  0
  3 25  1  0  0  0
  4  5  2  0  0  0
  4  6  1  0  0  0
  6  7  1  0  0  0
  6 19  1  0  0  0
  7  8  1  0  0  0
  8  9  4  0  0  0
  8 18  4  0  0  0
  9 10  4  0  0  0
 10 11  1  0  0  0
 10 12  4  0  0  0
 12 13  4  0  0  0
 13 14  1  0  0  0
 13 18  4  0  0  0
 14 15  1  0  0  0
 15 16  1  0  0  0
 16 17  1  0  0  0
 17 18  1  0  0  0
 19 20  4  0  0  0
 19 25  4  0  0  0
 20 21  4  0  0  0
 21 22  4  0  0  0
 22 23  1  0  0  0
 22 24  4  0  0  0
 24 25  4  0  0  0
  1 26  1  0  0  0
  7 27  1  0  0  0
  7 28  1  0  0  0
  9 29  1  0  0  0
 12 30  1  0  0  0
 14 31  1  0  0  0
 14 32  1  0  0  0
 16 33  1  0  0  0
 16 34  1  0  0  0
 20 35  1  0  0  0
 21 36  1  0  0  0
 24 37  1  0  0  0
M  END
$$$$
