1ci7_ligand
  -I-interpret- 

 57 59  0  0  0  0  0  0  0  0999 V2000
  108.7850  -21.9730   56.2760 N   0  0  0  0  0
  108.3030  -20.7440   56.6860 C   0  0  0  0  0
  107.8000  -20.5760   57.9110 N   0  0  0  0  0
  108.3720  -19.6830   55.8120 N   0  0  0  0  0
  108.9460  -19.7890   54.5530 C   0  0  0  0  0
  108.8670  -18.6610   53.7420 O   0  0  0  0  0
  109.5540  -21.0380   54.1200 C   0  0  0  0  0
  110.2490  -21.2560   52.8710 C   0  0  0  0  0
  110.8100  -22.5530   52.5190 C   0  0  0  0  0
  110.6480  -23.6520   53.4380 C   0  0  0  0  0
  109.9650  -23.4570   54.6990 C   0  0  0  0  0
  109.4200  -22.1620   55.0600 C   0  0  0  0  0
  111.7410  -22.7620   51.3740 C   0  0  0  0  0
  112.2980  -21.5610   50.6720 N   0  0  0  0  0
  115.3200  -18.9300   52.1750 C   0  0  0  0  0
  115.1670  -20.2440   52.7120 C   0  0  0  0  0
  114.1350  -21.1020   52.2100 C   0  0  0  0  0
  113.2260  -20.6700   51.1690 C   0  0  0  0  0
  113.3410  -19.3070   50.6930 C   0  0  0  0  0
  114.3800  -18.4440   51.1920 C   0  0  0  0  0
  116.5060  -18.1900   52.5250 C   0  0  0  0  0
  117.1550  -18.4340   53.5420 O   0  0  0  0  0
  116.8680  -17.2210   51.6800 N   0  0  0  0  0
  117.9660  -16.2330   51.7860 C   0  0  0  0  0
  118.4530  -15.7990   53.1710 C   0  0  0  0  0
  119.3910  -16.7840   53.8630 C   0  0  0  0  0
  120.6500  -17.0690   53.0540 C   0  0  0  0  0
  121.3090  -16.1040   52.5940 O   0  0  0  0  0
  120.9880  -18.2620   52.8890 O   0  0  0  0  0
  117.6530  -15.0140   50.9180 C   0  0  0  0  0
  116.9600  -15.1920   49.8910 O   0  0  0  0  0
  118.1000  -13.8990   51.2680 O   0  0  0  0  0
  111.9960  -21.5880   49.2190 C   0  0  0  0  0
  111.5860  -20.2860   48.6760 C   0  0  0  0  0
  111.2430  -19.2650   48.1460 C   0  0  0  0  0
  108.6679  -22.7748   56.8955 H   0  0  0  0  0
  107.4646  -19.6581   58.2031 H   0  0  0  0  0
  107.7511  -21.3655   58.5549 H   0  0  0  0  0
  110.3561  -20.4258   52.1729 H   0  0  0  0  0
  111.0422  -24.6354   53.1816 H   0  0  0  0  0
  109.8586  -24.2953   55.3874 H   0  0  0  0  0
  111.1508  -23.2828   50.6200 H   0  0  0  0  0
  112.6069  -23.2677   51.8013 H   0  0  0  0  0
  115.8329  -20.5933   53.5011 H   0  0  0  0  0
  114.0316  -22.1057   52.6224 H   0  0  0  0  0
  112.6358  -18.9317   49.9515 H   0  0  0  0  0
  114.4574  -17.4200   50.8265 H   0  0  0  0  0
  116.3027  -17.1509   50.8338 H   0  0  0  0  0
  118.8244  -16.7984   51.4233 H   0  0  0  0  0
  117.5686  -15.7105   53.8020 H   0  0  0  0  0
  119.0142  -14.8750   53.0319 H   0  0  0  0  0
  118.8543  -17.7245   53.9873 H   0  0  0  0  0
  119.6968  -16.3431   54.8118 H   0  0  0  0  0
  120.8780  -15.2804   52.8337 H   0  0  0  0  0
  116.7285  -16.1209   49.8196 H   0  0  0  0  0
  111.1654  -22.2784   49.0718 H   0  0  0  0  0
  112.9090  -21.8835   48.7021 H   0  0  0  0  0
  1  2  1  0  0  0
 12  1  1  0  0  0
  2  3  1  0  0  0
  4  2  2  0  0  0
  5  4  1  0  0  0
  5  6  2  0  0  0
  7  5  1  0  0  0
  8  7  4  0  0  0
  7 12  4  0  0  0
  9  8  4  0  0  0
  9 10  4  0  0  0
 13  9  1  0  0  0
 10 11  4  0  0  0
 11 12  4  0  0  0
 14 13  1  0  0  0
 18 14  1  0  0  0
 14 33  1  0  0  0
 16 15  4  0  0  0
 15 20  4  0  0  0
 15 21  1  0  0  0
 17 16  4  0  0  0
 17 18  4  0  0  0
 18 19  4  0  0  0
 19 20  4  0  0  0
 21 22  2  0  0  0
 21 23  1  0  0  0
 23 24  1  0  0  0
 24 25  1  0  0  0
 24 30  1  0  0  0
 25 26  1  0  0  0
 26 27  1  0  0  0
 27 28  1  0  0  0
 27 29  2  0  0  0
 30 31  1  0  0  0
 30 32  2  0  0  0
 33 34  1  0  0  0
 34 35  3  0  0  0
  1 36  1  0  0  0
  3 37  1  0  0  0
  3 38  1  0  0  0
  8 39  1  0  0  0
 10 40  1  0  0  0
 11 41  1  0  0  0
 13 42  1  0  0  0
 13 43  1  0  0  0
 16 44  1  0  0  0
 17 45  1  0  0  0
 19 46  1  0  0  0
 20 47  1  0  0  0
 23 48  1  0  0  0
 24 49  1  0  0  0
 25 50  1  0  0  0
 25 51  1  0  0  0
 26 52  1  0  0  0
 26 53  1  0  0  0
 28 54  1  0  0  0
 31 55  1  0  0  0
 33 56  1  0  0  0
 33 57  1  0  0  0
M  END
$$$$
