2y1n_ligand
  -I-interpret- 

129131  0  0  0  0  0  0  0  0999 V2000
   42.6280  -51.2140   -3.9760 N   0  3  0  0  0
   43.4540  -52.4140   -4.1120 C   0  0  0  0  0
   44.9470  -52.0590   -4.0710 C   0  0  0  0  0
   45.7790  -52.8410   -3.5890 O   0  0  0  0  0
   43.1050  -53.1550   -5.4150 C   0  0  0  0  0
   43.6920  -54.4490   -5.4650 O   0  0  0  0  0
   45.2700  -50.8670   -4.5700 N   0  0  0  0  0
   46.6440  -50.4140   -4.7130 C   0  0  0  0  0
   46.6830  -48.9460   -4.3720 C   0  0  0  0  0
   47.7340  -48.3120   -4.4170 O   0  0  0  0  0
   47.1260  -50.5950   -6.1590 C   0  0  0  0  0
   47.5240  -52.0240   -6.4730 C   0  0  0  0  0
   48.1780  -52.6590   -5.6240 O   0  0  0  0  0
   47.1940  -52.5140   -7.5730 O   0  0  0  0  0
   45.5220  -48.3940   -4.0520 N   0  0  0  0  0
   45.4420  -46.9790   -3.7440 C   0  0  0  0  0
   45.0010  -46.7100   -2.3210 C   0  0  0  0  0
   44.7460  -47.6370   -1.5450 O   0  0  0  0  0
   44.9020  -45.4330   -1.9750 N   0  0  0  0  0
   44.3790  -45.0430   -0.6590 C   0  0  0  0  0
   42.8850  -44.6990   -0.7250 C   0  0  0  0  0
   42.4570  -43.8240   -1.4910 O   0  0  0  0  0
   45.2020  -43.9010   -0.0330 C   0  0  0  0  0
   46.6150  -44.3110    0.3380 C   0  0  0  0  0
   46.8330  -45.3320    1.2550 C   0  0  0  0  0
   47.7320  -43.6960   -0.2470 C   0  0  0  0  0
   48.1140  -45.7240    1.5890 C   0  0  0  0  0
   49.0190  -44.0840    0.0870 C   0  0  0  0  0
   49.2000  -45.0980    1.0020 C   0  0  0  0  0
   50.3260  -45.4710    1.3250 O   0  0  0  0  0
   51.6550  -44.6530    0.9390 P   0  0  0  0  0
   51.9050  -44.8250   -0.5020 O   0  0  0  0  0
   52.7880  -45.2680    1.7690 O   0  0  0  0  0
   51.5200  -43.1460    1.2580 O   0  0  0  0  0
   42.0960  -45.4020    0.0820 N   0  0  0  0  0
   40.6600  -45.1840    0.1290 C   0  0  0  0  0
   40.2720  -44.1450    1.1910 C   0  0  0  0  0
   41.0670  -43.8310    2.0820 O   0  0  0  0  0
   39.9350  -46.5050    0.3830 C   0  0  0  0  0
   40.7800  -47.3590    1.1540 O   0  0  0  0  0
   39.6540  -47.2000   -0.9270 C   0  0  0  0  0
   39.0490  -43.5870    1.0910 N   0  0  0  0  0
   38.6420  -42.6600    2.1490 C   0  0  0  0  0
   38.4430  -43.4590    3.4300 C   0  0  0  0  0
   38.1830  -44.6720    3.3820 O   0  0  0  0  0
   37.2890  -42.1100    1.6520 C   0  0  0  0  0
   37.1120  -42.6310    0.2490 C   0  0  0  0  0
   37.9390  -43.8800    0.1670 C   0  0  0  0  0
   38.5880  -42.7860    4.5640 N   0  0  0  0  0
   38.3960  -43.4130    5.8590 C   0  0  0  0  0
   36.9960  -44.0180    5.9060 C   0  0  0  0  0
   36.0170  -43.3430    5.5790 O   0  0  0  0  0
   38.5820  -42.3710    6.9710 C   0  0  0  0  0
   39.5990  -41.2660    6.6330 C   0  0  0  0  0
   39.9030  -40.3580    7.8140 C   0  0  0  0  0
   40.0590  -40.8770    8.9330 O   0  0  0  0  0
   39.9860  -39.1250    7.6230 O   0  0  0  0  0
   36.8900  -45.2950    6.3050 N   0  0  0  0  0
   35.6080  -46.0200    6.3680 C   0  0  0  0  0
   34.4490  -45.2690    7.0630 C   0  0  0  0  0
   34.6780  -44.4270    7.9390 O   0  0  0  0  0
   35.9690  -47.2830    7.1700 C   0  0  0  0  0
   37.2630  -46.9540    7.8580 C   0  0  0  0  0
   37.9850  -46.0910    6.8790 C   0  0  0  0  0
   33.2160  -45.5910    6.6730 N   0  0  0  0  0
   32.0120  -45.0050    7.2750 C   0  0  0  0  0
   32.1150  -44.7930    8.7920 C   0  0  0  0  0
   31.5350  -45.5440    9.5830 O   0  0  0  0  0
   30.7910  -45.8600    6.9430 C   0  0  0  0  0
   32.8031  -43.8364    9.2380 O   0  0  0  0  0
   42.8692  -50.7331   -3.1094 H   0  0  0  0  0
   42.7973  -50.5946   -4.7685 H   0  0  0  0  0
   41.6437  -51.4807   -3.9556 H   0  0  0  0  0
   43.2442  -53.0739   -3.2702 H   0  0  0  0  0
   43.4907  -52.5730   -6.2520 H   0  0  0  0  0
   42.0221  -53.2697   -5.4625 H   0  0  0  0  0
   43.4513  -54.8767   -6.2901 H   0  0  0  0  0
   44.5188  -50.2434   -4.8654 H   0  0  0  0  0
   47.2897  -50.9946   -4.0542 H   0  0  0  0  0
   48.0052  -49.9660   -6.2983 H   0  0  0  0  0
   46.3030  -50.3253   -6.8208 H   0  0  0  0  0
   46.6985  -51.8636   -8.0760 H   0  0  0  0  0
   44.6792  -48.9677   -4.0220 H   0  0  0  0  0
   44.7036  -46.5342   -4.4111 H   0  0  0  0  0
   46.4378  -46.5540   -3.8700 H   0  0  0  0  0
   45.1937  -44.7106   -2.6333 H   0  0  0  0  0
   44.4818  -45.9066   -0.0019 H   0  0  0  0  0
   44.6969  -43.5956    0.8833 H   0  0  0  0  0
   45.2744  -43.1039   -0.7729 H   0  0  0  0  0
   45.9808  -45.8304    1.7171 H   0  0  0  0  0
   47.5846  -42.8996   -0.9765 H   0  0  0  0  0
   48.2696  -46.5240    2.3128 H   0  0  0  0  0
   49.8787  -43.5928   -0.3688 H   0  0  0  0  0
   52.6030  -45.1437    2.7028 H   0  0  0  0  0
   51.3570  -43.0322    2.1972 H   0  0  0  0  0
   42.5099  -46.1135    0.6844 H   0  0  0  0  0
   40.3538  -44.7878   -0.8392 H   0  0  0  0  0
   39.0016  -46.2990    0.9069 H   0  0  0  0  0
   40.3294  -48.1909    1.3167 H   0  0  0  0  0
   39.0278  -46.5605   -1.5491 H   0  0  0  0  0
   40.5948  -47.3995   -1.4401 H   0  0  0  0  0
   39.1372  -48.1402   -0.7345 H   0  0  0  0  0
   39.3634  -41.8680    2.3501 H   0  0  0  0  0
   37.2776  -41.0202    1.6704 H   0  0  0  0  0
   36.4725  -42.4344    2.2972 H   0  0  0  0  0
   37.4316  -41.8957   -0.4894 H   0  0  0  0  0
   36.0636  -42.8357    0.0322 H   0  0  0  0  0
   37.3842  -44.7787    0.4365 H   0  0  0  0  0
   38.2737  -44.1055   -0.8455 H   0  0  0  0  0
   38.8419  -41.7989    4.5248 H   0  0  0  0  0
   39.1310  -44.2035    6.0107 H   0  0  0  0  0
   38.9582  -42.8984    7.8476 H   0  0  0  0  0
   37.6177  -41.8862    7.1233 H   0  0  0  0  0
   39.1703  -40.6504    5.8422 H   0  0  0  0  0
   40.5299  -41.7501    6.3378 H   0  0  0  0  0
   39.8335  -38.9352    6.6944 H   0  0  0  0  0
   35.2237  -46.1901    5.3623 H   0  0  0  0  0
   36.0667  -48.1558    6.5244 H   0  0  0  0  0
   35.1879  -47.5434    7.8843 H   0  0  0  0  0
   37.8309  -47.8474    8.1177 H   0  0  0  0  0
   37.1065  -46.4525    8.8131 H   0  0  0  0  0
   38.7669  -45.4833    7.3345 H   0  0  0  0  0
   38.5425  -46.6580    6.1335 H   0  0  0  0  0
   33.1039  -46.2741    5.9239 H   0  0  0  0  0
   31.9060  -44.0118    6.8386 H   0  0  0  0  0
   30.6649  -45.9065    5.8613 H   0  0  0  0  0
   30.9356  -46.8660    7.3368 H   0  0  0  0  0
   29.9041  -45.4156    7.3947 H   0  0  0  0  0
   33.1864  -43.3501    8.5044 H   0  0  0  0  0
  1  2  1  0  0  0
  2  3  1  0  0  0
  2  5  1  0  0  0
  3  4  2  0  0  0
  3  7  1  0  0  0
  5  6  1  0  0  0
  7  8  1  0  0  0
  8  9  1  0  0  0
  8 11  1  0  0  0
  9 10  2  0  0  0
  9 15  1  0  0  0
 11 12  1  0  0  0
 12 13  2  0  0  0
 12 14  1  0  0  0
 15 16  1  0  0  0
 16 17  1  0  0  0
 17 18  2  0  0  0
 17 19  1  0  0  0
 19 20  1  0  0  0
 20 21  1  0  0  0
 20 23  1  0  0  0
 21 22  2  0  0  0
 21 35  1  0  0  0
 23 24  1  0  0  0
 24 25  4  0  0  0
 24 26  4  0  0  0
 25 27  4  0  0  0
 26 28  4  0  0  0
 27 29  4  0  0  0
 28 29  4  0  0  0
 29 30  1  0  0  0
 30 31  1  0  0  0
 31 32  2  0  0  0
 31 33  1  0  0  0
 31 34  1  0  0  0
 35 36  1  0  0  0
 36 37  1  0  0  0
 36 39  1  0  0  0
 37 38  2  0  0  0
 37 42  1  0  0  0
 39 40  1  0  0  0
 39 41  1  0  0  0
 42 43  1  0  0  0
 42 48  1  0  0  0
 43 44  1  0  0  0
 43 46  1  0  0  0
 44 45  2  0  0  0
 44 49  1  0  0  0
 46 47  1  0  0  0
 47 48  1  0  0  0
 49 50  1  0  0  0
 50 51  1  0  0  0
 50 53  1  0  0  0
 51 52  2  0  0  0
 51 58  1  0  0  0
 53 54  1  0  0  0
 54 55  1  0  0  0
 55 56  2  0  0  0
 55 57  1  0  0  0
 58 59  1  0  0  0
 58 64  1  0  0  0
 59 60  1  0  0  0
 59 62  1  0  0  0
 60 61  2  0  0  0
 60 65  1  0  0  0
 62 63  1  0  0  0
 63 64  1  0  0  0
 65 66  1  0  0  0
 66 67  1  0  0  0
 66 69  1  0  0  0
 67 68  2  0  0  0
 67 70  1  0  0  0
  1 71  1  0  0  0
  1 72  1  0  0  0
  1 73  1  0  0  0
  2 74  1  0  0  0
  5 75  1  0  0  0
  5 76  1  0  0  0
  6 77  1  0  0  0
  7 78  1  0  0  0
  8 79  1  0  0  0
 11 80  1  0  0  0
 11 81  1  0  0  0
 14 82  1  0  0  0
 15 83  1  0  0  0
 16 84  1  0  0  0
 16 85  1  0  0  0
 19 86  1  0  0  0
 20 87  1  0  0  0
 23 88  1  0  0  0
 23 89  1  0  0  0
 25 90  1  0  0  0
 26 91  1  0  0  0
 27 92  1  0  0  0
 28 93  1  0  0  0
 33 94  1  0  0  0
 34 95  1  0  0  0
 35 96  1  0  0  0
 36 97  1  0  0  0
 39 98  1  0  0  0
 40 99  1  0  0  0
 41100  1  0  0  0
 41101  1  0  0  0
 41102  1  0  0  0
 43103  1  0  0  0
 46104  1  0  0  0
 46105  1  0  0  0
 47106  1  0  0  0
 47107  1  0  0  0
 48108  1  0  0  0
 48109  1  0  0  0
 49110  1  0  0  0
 50111  1  0  0  0
 53112  1  0  0  0
 53113  1  0  0  0
 54114  1  0  0  0
 54115  1  0  0  0
 57116  1  0  0  0
 59117  1  0  0  0
 62118  1  0  0  0
 62119  1  0  0  0
 63120  1  0  0  0
 63121  1  0  0  0
 64122  1  0  0  0
 64123  1  0  0  0
 65124  1  0  0  0
 66125  1  0  0  0
 69126  1  0  0  0
 69127  1  0  0  0
 69128  1  0  0  0
 70129  1  0  0  0
M  END
$$$$
