### 
### Created by X-TOOL on Mon Sep 10 21:13:08 2018
### 

@<TRIPOS>MOLECULE
2y1n_ligand
  124   126     1     0     0
SMALL
GAST_HUCK


@<TRIPOS>ATOM
      1 N          42.6280  -51.2140   -3.9760 N.4       1 SER         0.2396
      2 CA         43.4540  -52.4140   -4.1120 C.3       1 SER         0.0885
      3 C          44.9470  -52.0590   -4.0710 C.2       1 SER         0.2291
      4 O          45.7790  -52.8410   -3.5890 O.2       1 SER        -0.3906
      5 CB         43.1050  -53.1550   -5.4150 C.3       1 SER         0.1041
      6 OG         43.6920  -54.4490   -5.4650 O.3       1 SER        -0.3870
      7 N          45.2700  -50.8670   -4.5700 N.am      1 ASP        -0.2594
      8 CA         46.6440  -50.4140   -4.7130 C.3       1 ASP         0.1424
      9 C          46.6830  -48.9460   -4.3720 C.2       1 ASP         0.2054
     10 O          47.7340  -48.3120   -4.4170 O.2       1 ASP        -0.3943
     11 CB         47.1260  -50.5950   -6.1590 C.3       1 ASP         0.0406
     12 CG         47.5240  -52.0240   -6.4730 C.2       1 ASP         0.0393
     13 OD1        48.1780  -52.6590   -5.6240 O.co2     1 ASP        -0.5688
     14 OD2        47.1940  -52.5140   -7.5730 O.co2     1 ASP        -0.5688
     15 N          45.5220  -48.3940   -4.0520 N.am      1 GLY        -0.2663
     16 CA         45.4420  -46.9790   -3.7440 C.3       1 GLY         0.1201
     17 C          45.0010  -46.7100   -2.3210 C.2       1 GLY         0.2009
     18 O          44.7460  -47.6370   -1.5450 O.2       1 GLY        -0.3947
     19 N          44.9020  -45.4330   -1.9750 N.am      1 PTR        -0.2609
     20 CA         44.3790  -45.0430   -0.6590 C.3       1 PTR         0.1468
     21 C          42.8850  -44.6990   -0.7250 C.2       1 PTR         0.2075
     22 O          42.4570  -43.8240   -1.4910 O.2       1 PTR        -0.3941
     23 CB         45.2020  -43.9010   -0.0330 C.3       1 PTR         0.0400
     24 CG         46.6150  -44.3110    0.3380 C.ar      1 PTR        -0.0004
     25 CD1        46.8330  -45.3320    1.2550 C.ar      1 PTR        -0.0239
     26 CD2        47.7320  -43.6960   -0.2470 C.ar      1 PTR        -0.0239
     27 CE1        48.1140  -45.7240    1.5890 C.ar      1 PTR         0.0115
     28 CE2        49.0190  -44.0840    0.0870 C.ar      1 PTR         0.0115
     29 CZ         49.2000  -45.0980    1.0020 C.ar      1 PTR         0.1728
     30 OH         50.3260  -45.4710    1.3250 O.3       1 PTR        -0.2040
     31 P          51.6550  -44.6530    0.9390 P.3       1 PTR         0.1348
     32 O1P        51.9050  -44.8250   -0.5020 O.co2     1 PTR        -0.6653
     33 O2P        52.7880  -45.2680    1.7690 O.co2     1 PTR        -0.6653
     34 O3P        51.5200  -43.1460    1.2580 O.co2     1 PTR        -0.6653
     35 N          42.0960  -45.4020    0.0820 N.am      1 THR        -0.2611
     36 CA         40.6600  -45.1840    0.1290 C.3       1 THR         0.1567
     37 C          40.2720  -44.1450    1.1910 C.2       1 THR         0.2090
     38 O          41.0670  -43.8310    2.0820 O.2       1 THR        -0.3941
     39 CB         39.9350  -46.5050    0.3830 C.3       1 THR         0.0924
     40 OG1        40.7800  -47.3590    1.1540 O.3       1 THR        -0.3874
     41 CG2        39.6540  -47.2000   -0.9270 C.3       1 THR        -0.0346
     42 N          39.0490  -43.5870    1.0910 N.am      1 PRO        -0.2498
     43 CA         38.6420  -42.6600    2.1490 C.3       1 PRO         0.1338
     44 C          38.4430  -43.4590    3.4300 C.2       1 PRO         0.2041
     45 O          38.1830  -44.6720    3.3820 O.2       1 PRO        -0.3944
     46 CB         37.2890  -42.1100    1.6520 C.3       1 PRO        -0.0104
     47 CG         37.1120  -42.6310    0.2490 C.3       1 PRO        -0.0281
     48 CD         37.9390  -43.8800    0.1670 C.3       1 PRO         0.0369
     49 N          38.5880  -42.7860    4.5640 N.am      1 GLU        -0.2636
     50 CA         38.3960  -43.4130    5.8590 C.3       1 GLU         0.1327
     51 C          36.9960  -44.0180    5.9060 C.2       1 GLU         0.2065
     52 O          36.0170  -43.3430    5.5790 O.2       1 GLU        -0.3942
     53 CB         38.5820  -42.3710    6.9710 C.3       1 GLU        -0.0008
     54 CG         39.5990  -41.2660    6.6330 C.3       1 GLU         0.0044
     55 CD         39.9030  -40.3580    7.8140 C.2       1 GLU         0.0350
     56 OE1        40.0590  -40.8770    8.9330 O.co2     1 GLU        -0.5690
     57 OE2        39.9860  -39.1250    7.6230 O.co2     1 GLU        -0.5690
     58 N          36.8900  -45.2950    6.3050 N.am      1 PRO        -0.2498
     59 CA         35.6080  -46.0200    6.3680 C.3       1 PRO         0.1337
     60 C          34.4490  -45.2690    7.0630 C.2       1 PRO         0.2035
     61 O          34.6780  -44.4270    7.9390 O.2       1 PRO        -0.3944
     62 CB         35.9690  -47.2830    7.1700 C.3       1 PRO        -0.0104
     63 CG         37.2630  -46.9540    7.8580 C.3       1 PRO        -0.0281
     64 CD         37.9850  -46.0910    6.8790 C.3       1 PRO         0.0369
     65 N          33.2160  -45.5910    6.6730 N.am      1 ALA        -0.2697
     66 CA         32.0120  -45.0050    7.2750 C.3       1 ALA         0.0916
     67 C          32.1150  -44.7930    8.7920 C.2       1 ALA         0.0598
     68 O          31.5350  -45.5440    9.5830 O.co2     1 ALA        -0.5666
     69 CB         30.7910  -45.8600    6.9430 C.3       1 ALA        -0.0300
     70 H          42.8692  -50.7331   -3.1094 H         1 SER         0.2016
     71 H          42.7973  -50.5946   -4.7685 H         1 SER         0.2016
     72 H          41.6437  -51.4807   -3.9556 H         1 SER         0.2016
     73 H          43.2442  -53.0739   -3.2702 H         1 SER         0.1122
     74 H          43.4907  -52.5730   -6.2520 H         1 SER         0.0640
     75 H          42.0221  -53.2697   -5.4625 H         1 SER         0.0640
     76 H          43.4513  -54.8767   -6.2901 H         1 SER         0.2099
     77 H          44.5188  -50.2434   -4.8654 H         1 ASP         0.1886
     78 H          47.2897  -50.9946   -4.0542 H         1 ASP         0.0819
     79 H          48.0052  -49.9660   -6.2983 H         1 ASP         0.0478
     80 H          46.3030  -50.3253   -6.8208 H         1 ASP         0.0478
     81 H          44.6792  -48.9677   -4.0220 H         1 GLY         0.1881
     82 H          44.7036  -46.5342   -4.4111 H         1 GLY         0.0763
     83 H          46.4378  -46.5540   -3.8700 H         1 GLY         0.0763
     84 H          45.1937  -44.7106   -2.6333 H         1 PTR         0.1886
     85 H          44.4818  -45.9066   -0.0019 H         1 PTR         0.0840
     86 H          44.6969  -43.5956    0.8833 H         1 PTR         0.0584
     87 H          45.2744  -43.1039   -0.7729 H         1 PTR         0.0584
     88 H          45.9808  -45.8304    1.7171 H         1 PTR         0.0703
     89 H          47.5846  -42.8996   -0.9765 H         1 PTR         0.0703
     90 H          48.2696  -46.5240    2.3128 H         1 PTR         0.0736
     91 H          49.8787  -43.5928   -0.3688 H         1 PTR         0.0736
     92 H          42.5099  -46.1135    0.6844 H         1 THR         0.1884
     93 H          40.3538  -44.7878   -0.8392 H         1 THR         0.0826
     94 H          39.0016  -46.2990    0.9069 H         1 THR         0.0639
     95 H          41.5932  -47.5234    0.6711 H         1 THR         0.2101
     96 H          39.0278  -46.5605   -1.5491 H         1 THR         0.0257
     97 H          40.5948  -47.3995   -1.4401 H         1 THR         0.0257
     98 H          39.1372  -48.1402   -0.7345 H         1 THR         0.0257
     99 H          39.3634  -41.8680    2.3501 H         1 PRO         0.0802
    100 H          37.2776  -41.0202    1.6704 H         1 PRO         0.0313
    101 H          36.4725  -42.4344    2.2972 H         1 PRO         0.0313
    102 H          37.4316  -41.8957   -0.4894 H         1 PRO         0.0287
    103 H          36.0636  -42.8357    0.0322 H         1 PRO         0.0287
    104 H          37.3842  -44.7787    0.4365 H         1 PRO         0.0524
    105 H          38.2737  -44.1055   -0.8455 H         1 PRO         0.0524
    106 H          38.8419  -41.7989    4.5248 H         1 GLU         0.1883
    107 H          39.1310  -44.2035    6.0107 H         1 GLU         0.0801
    108 H          38.9582  -42.8984    7.8476 H         1 GLU         0.0330
    109 H          37.6177  -41.8862    7.1233 H         1 GLU         0.0330
    110 H          39.1703  -40.6504    5.8422 H         1 GLU         0.0433
    111 H          40.5299  -41.7501    6.3378 H         1 GLU         0.0433
    112 H          35.2237  -46.1901    5.3623 H         1 PRO         0.0802
    113 H          36.0667  -48.1558    6.5244 H         1 PRO         0.0313
    114 H          35.1879  -47.5434    7.8843 H         1 PRO         0.0313
    115 H          37.8309  -47.8474    8.1177 H         1 PRO         0.0287
    116 H          37.1065  -46.4525    8.8131 H         1 PRO         0.0287
    117 H          38.7669  -45.4833    7.3345 H         1 PRO         0.0524
    118 H          38.5425  -46.6580    6.1335 H         1 PRO         0.0524
    119 H          33.1039  -46.2741    5.9239 H         1 ALA         0.1875
    120 H          31.9060  -44.0118    6.8386 H         1 ALA         0.0723
    121 O1         32.8031  -43.8364    9.2380 O.co2     1 ALA        -0.5666
    122 H          30.6649  -45.9065    5.8613 H         1 ALA         0.0270
    123 H          30.9356  -46.8660    7.3368 H         1 ALA         0.0270
    124 H          29.9041  -45.4156    7.3947 H         1 ALA         0.0270
@<TRIPOS>BOND
     1    1    2 1  
     2    2    3 1  
     3    2    5 1  
     4    3    4 2  
     5    3    7 am 
     6    5    6 1  
     7    7    8 1  
     8    8    9 1  
     9    8   11 1  
    10    9   10 2  
    11    9   15 am 
    12   11   12 1  
    13   12   13 ar 
    14   12   14 ar 
    15   15   16 1  
    16   16   17 1  
    17   17   18 2  
    18   17   19 am 
    19   19   20 1  
    20   20   21 1  
    21   20   23 1  
    22   21   22 2  
    23   21   35 am 
    24   23   24 1  
    25   24   25 ar 
    26   24   26 ar 
    27   25   27 ar 
    28   26   28 ar 
    29   27   29 ar 
    30   28   29 ar 
    31   29   30 1  
    32   30   31 1  
    33   31   32 ar 
    34   31   33 ar 
    35   31   34 ar 
    36   35   36 1  
    37   36   37 1  
    38   36   39 1  
    39   37   38 2  
    40   37   42 am 
    41   39   40 1  
    42   39   41 1  
    43   42   43 1  
    44   42   48 1  
    45   43   44 1  
    46   43   46 1  
    47   44   45 2  
    48   44   49 am 
    49   46   47 1  
    50   47   48 1  
    51   49   50 1  
    52   50   51 1  
    53   50   53 1  
    54   51   52 2  
    55   51   58 am 
    56   53   54 1  
    57   54   55 1  
    58   55   56 ar 
    59   55   57 ar 
    60   58   59 1  
    61   58   64 1  
    62   59   60 1  
    63   59   62 1  
    64   60   61 2  
    65   60   65 am 
    66   62   63 1  
    67   63   64 1  
    68   65   66 1  
    69   66   67 1  
    70   66   69 1  
    71   67   68 ar 
    72    1   70 1  
    73    1   71 1  
    74    1   72 1  
    75    2   73 1  
    76    5   74 1  
    77    5   75 1  
    78    6   76 1  
    79    7   77 1  
    80    8   78 1  
    81   11   79 1  
    82   11   80 1  
    83   15   81 1  
    84   16   82 1  
    85   16   83 1  
    86   19   84 1  
    87   20   85 1  
    88   23   86 1  
    89   23   87 1  
    90   25   88 1  
    91   26   89 1  
    92   27   90 1  
    93   28   91 1  
    94   35   92 1  
    95   36   93 1  
    96   39   94 1  
    97   40   95 1  
    98   41   96 1  
    99   41   97 1  
   100   41   98 1  
   101   43   99 1  
   102   46  100 1  
   103   46  101 1  
   104   47  102 1  
   105   47  103 1  
   106   48  104 1  
   107   48  105 1  
   108   49  106 1  
   109   50  107 1  
   110   53  108 1  
   111   53  109 1  
   112   54  110 1  
   113   54  111 1  
   114   59  112 1  
   115   62  113 1  
   116   62  114 1  
   117   63  115 1  
   118   63  116 1  
   119   64  117 1  
   120   64  118 1  
   121   65  119 1  
   122   66  120 1  
   123   67  121 ar 
   124   69  122 1  
   125   69  123 1  
   126   69  124 1  
@<TRIPOS>SUBSTRUCTURE
     1 SER         1

