5upj_ligand
  -I-interpret- 

 47 49  0  0  0  0  0  0  0  0999 V2000
   -0.3130   18.0280   20.7550 C   0  0  0  0  0
   -1.4450   17.5700   21.4950 C   0  0  0  0  0
   -1.6890   16.3870   21.6060 O   0  0  0  0  0
   -2.3370   18.4270   22.0680 O   0  0  0  0  0
   -2.0880   19.7930   21.8820 C   0  0  0  0  0
   -0.9840   20.2990   21.1760 C   0  0  0  0  0
   -0.0940   19.3910   20.6050 C   0  0  0  0  0
    0.9880   19.7760   19.8770 O   0  0  0  0  0
    0.1850   16.4700   18.8470 C   0  0  0  0  0
   -0.1750   17.3160   17.7600 C   0  0  0  0  0
   -0.7070   16.7560   16.5960 C   0  0  0  0  0
   -0.8770   15.3680   16.4890 C   0  0  0  0  0
   -0.5250   14.5230   17.5560 C   0  0  0  0  0
    0.0130   15.0530   18.7300 C   0  0  0  0  0
    0.7060   17.0670   20.1320 C   0  0  0  0  0
    1.2990   16.0450   21.0860 C   0  0  0  0  0
    2.3750   16.5950   22.0140 C   0  0  0  0  0
   -3.1100   20.6730   22.5560 C   0  0  0  0  0
   -4.2070   21.2450   21.6890 C   0  0  0  0  0
   -3.8210   22.4020   20.7910 C   0  0  0  0  0
   -2.9190   22.0610   19.6040 C   0  0  0  0  0
   -1.4330   22.3770   19.7910 C   0  0  0  0  0
   -0.7770   21.7860   21.0160 C   0  0  0  0  0
    1.0281   20.7347   19.8481 H   0  0  0  0  0
   -0.0363   18.3945   17.8356 H   0  0  0  0  0
   -0.9918   17.4020   15.7655 H   0  0  0  0  0
   -1.2847   14.9416   15.5725 H   0  0  0  0  0
   -0.6732   13.4469   17.4660 H   0  0  0  0  0
    0.2995   14.3945   19.5500 H   0  0  0  0  0
    1.5688   17.6821   19.8765 H   0  0  0  0  0
    1.7687   15.2740   20.4752 H   0  0  0  0  0
    0.4851   15.6890   21.7176 H   0  0  0  0  0
    3.1990   16.9893   21.4193 H   0  0  0  0  0
    1.9526   17.3922   22.6257 H   0  0  0  0  0
    2.7404   15.7955   22.6585 H   0  0  0  0  0
   -2.5565   21.5309   22.9376 H   0  0  0  0  0
   -3.6109   20.0386   23.2872 H   0  0  0  0  0
   -4.5204   20.4386   21.0260 H   0  0  0  0  0
   -4.9628   21.6315   22.3727 H   0  0  0  0  0
   -4.7505   22.7834   20.3682 H   0  0  0  0  0
   -3.2566   23.0963   21.4135 H   0  0  0  0  0
   -2.9907   20.9829   19.4602 H   0  0  0  0  0
   -3.2626   22.6710   18.7686 H   0  0  0  0  0
   -0.9189   21.9463   18.9317 H   0  0  0  0  0
   -1.3624   23.4593   19.8992 H   0  0  0  0  0
    0.2958   21.9514   20.9164 H   0  0  0  0  0
   -1.2268   22.2675   21.8843 H   0  0  0  0  0
  1 15  1  0  0  0
  1  7  2  0  0  0
  1  2  1  0  0  0
  2  4  1  0  0  0
  2  3  2  0  0  0
  4  5  1  0  0  0
  5 18  1  0  0  0
  5  6  2  0  0  0
  6 23  1  0  0  0
  6  7  1  0  0  0
  7  8  1  0  0  0
 23 22  1  0  0  0
 22 21  1  0  0  0
 21 20  1  0  0  0
 20 19  1  0  0  0
 19 18  1  0  0  0
 15 16  1  0  0  0
 15  9  1  0  0  0
  9 14  4  0  0  0
  9 10  4  0  0  0
 10 11  4  0  0  0
 11 12  4  0  0  0
 12 13  4  0  0  0
 13 14  4  0  0  0
 16 17  1  0  0  0
  8 24  1  0  0  0
 10 25  1  0  0  0
 11 26  1  0  0  0
 12 27  1  0  0  0
 13 28  1  0  0  0
 14 29  1  0  0  0
 15 30  1  0  0  0
 16 31  1  0  0  0
 16 32  1  0  0  0
 17 33  1  0  0  0
 17 34  1  0  0  0
 17 35  1  0  0  0
 18 36  1  0  0  0
 18 37  1  0  0  0
 19 38  1  0  0  0
 19 39  1  0  0  0
 20 40  1  0  0  0
 20 41  1  0  0  0
 21 42  1  0  0  0
 21 43  1  0  0  0
 22 44  1  0  0  0
 22 45  1  0  0  0
 23 46  1  0  0  0
 23 47  1  0  0  0
M  END
$$$$
