6dyn_ligand
  -I-interpret- 

 17 17  0  0  0  0  0  0  0  0999 V2000
    9.6440   -3.5380   14.7070 N   0  3  0  0  0
    8.5680   -2.6650   15.1540 C   0  0  0  0  0
    7.2800   -3.4830   15.3400 C   0  0  0  0  0
    6.2210   -3.0450   14.3180 C   0  0  0  0  0
    6.4560   -2.6350   13.0850 N   0  0  0  0  0
    4.8640   -3.0190   14.5130 C   0  0  0  0  0
    5.2740   -2.3460   12.5070 C   0  0  0  0  0
    4.2980   -2.5920   13.4010 N   0  0  0  0  0
   10.4960   -2.9906   14.5852 H   0  0  0  0  0
    9.8024   -4.2650   15.4047 H   0  0  0  0  0
    9.3848   -3.9679   13.8191 H   0  0  0  0  0
    8.3985   -1.8893   14.4073 H   0  0  0  0  0
    8.8453   -2.2071   16.1035 H   0  0  0  0  0
    6.8946   -3.3176   16.3461 H   0  0  0  0  0
    7.5038   -4.5394   15.1913 H   0  0  0  0  0
    4.3436   -3.3020   15.4280 H   0  0  0  0  0
    5.1324   -1.9769   11.4912 H   0  0  0  0  0
  1  2  1  0  0  0
  2  3  1  0  0  0
  3  4  1  0  0  0
  4  5  4  0  0  0
  4  6  4  0  0  0
  5  7  4  0  0  0
  6  8  4  0  0  0
  7  8  4  0  0  0
  1  9  1  0  0  0
  1 10  1  0  0  0
  1 11  1  0  0  0
  2 12  1  0  0  0
  2 13  1  0  0  0
  3 14  1  0  0  0
  3 15  1  0  0  0
  6 16  1  0  0  0
  7 17  1  0  0  0
M  END
$$$$
