5jau_ligand
  -I-interpret- 

 61 63  0  0  0  0  0  0  0  0999 V2000
   23.4390    9.8720   -2.4060 C   0  0  0  0  0
   23.7100    7.5220   -2.8110 C   0  0  0  0  0
   23.4910    6.5980   -4.0130 C   0  0  0  0  0
   21.7960    7.1980   -5.7740 C   0  0  0  0  0
   20.0410    6.4750   -4.7020 C   0  0  0  0  0
   17.5250    6.5350   -4.9010 C   0  0  0  0  0
   17.3190    7.8140   -5.3940 C   0  0  0  0  0
   16.1090    8.1930   -5.9760 C   0  0  0  0  0
   15.0450    7.2740   -6.0350 C   0  0  0  0  0
   13.7130    7.6220   -6.6500 C   0  0  0  0  0
   16.4810    2.0210   -4.3440 C   0  0  0  0  0
   15.9900    9.6000   -6.4560 C   0  0  0  0  0
   16.6210    9.9700   -7.6390 C   0  0  0  0  0
   16.5480   11.2640   -8.0960 C   0  0  0  0  0
   15.8520   12.2080   -7.3870 C   0  0  0  0  0
   15.2190   11.8680   -6.2130 C   0  0  0  0  0
   15.2710   10.5660   -5.7280 C   0  0  0  0  0
   23.8190    8.8540   -3.3320 O   0  0  0  0  0
   24.9950    7.1930   -2.0360 C   0  0  0  0  0
   24.8260    6.0600   -1.1950 O   0  0  0  0  0
   22.1500    6.7000   -4.5780 N   0  0  0  0  0
   20.4490    7.0760   -5.8780 C   0  0  0  0  0
   18.7400    6.1560   -4.3070 N   0  0  0  0  0
   15.2440    5.9960   -5.5310 C   0  0  0  0  0
   16.4530    5.6220   -4.9610 C   0  0  0  0  0
   16.7170    4.3850   -4.4420 O   0  0  0  0  0
   15.8080    3.3180   -4.7350 C   0  0  0  0  0
   16.5570    1.8870   -2.8690 N   0  3  0  0  0
   14.5880   10.2390   -4.4240 C   0  0  0  0  0
   21.0710    6.2440   -3.8930 N   0  0  0  0  0
   22.3997    9.7246   -2.1122 H   0  0  0  0  0
   24.0783    9.8169   -1.5249 H   0  0  0  0  0
   23.5498   10.8490   -2.8764 H   0  0  0  0  0
   22.8789    7.4018   -2.1161 H   0  0  0  0  0
   23.6287    5.5722   -3.6710 H   0  0  0  0  0
   24.1995    6.8901   -4.7881 H   0  0  0  0  0
   22.4663    7.6214   -6.5220 H   0  0  0  0  0
   18.1252    8.5443   -5.3250 H   0  0  0  0  0
   13.2752    8.4636   -6.1132 H   0  0  0  0  0
   13.8567    7.8919   -7.6962 H   0  0  0  0  0
   13.0476    6.7612   -6.5836 H   0  0  0  0  0
   17.4930    2.0157   -4.7488 H   0  0  0  0  0
   15.8981    1.1902   -4.7416 H   0  0  0  0  0
   17.1786    9.2267   -8.2089 H   0  0  0  0  0
   17.0454   11.5405   -9.0256 H   0  0  0  0  0
   15.7995   13.2328   -7.7545 H   0  0  0  0  0
   14.6705   12.6284   -5.6570 H   0  0  0  0  0
   25.2482    8.0496   -1.4114 H   0  0  0  0  0
   25.7831    6.9719   -2.7558 H   0  0  0  0  0
   25.6461    5.8844   -0.7279 H   0  0  0  0  0
   19.8208    7.3865   -6.7129 H   0  0  0  0  0
   18.6617    5.5695   -3.4762 H   0  0  0  0  0
   14.4327    5.2700   -5.5841 H   0  0  0  0  0
   14.8796    3.4467   -4.1785 H   0  0  0  0  0
   15.5595    3.3118   -5.7963 H   0  0  0  0  0
   17.0138    1.0064   -2.6319 H   0  0  0  0  0
   17.0946    2.6643   -2.4854 H   0  0  0  0  0
   15.6147    1.8984   -2.4788 H   0  0  0  0  0
   13.8471    9.4568   -4.5895 H   0  0  0  0  0
   15.3293    9.8926   -3.7039 H   0  0  0  0  0
   14.0956   11.1321   -4.0393 H   0  0  0  0  0
 18  1  1  0  0  0
  3  2  1  0  0  0
  2 18  1  0  0  0
  2 19  1  0  0  0
 21  3  1  0  0  0
 21  4  4  0  0  0
 22  4  4  0  0  0
  5 22  4  0  0  0
 23  5  1  0  0  0
  5 30  4  0  0  0
  6  7  4  0  0  0
  6 23  1  0  0  0
 25  6  4  0  0  0
  7  8  4  0  0  0
  9  8  4  0  0  0
  8 12  1  0  0  0
  9 10  1  0  0  0
 24  9  4  0  0  0
 27 11  1  0  0  0
 11 28  1  0  0  0
 12 13  4  0  0  0
 12 17  4  0  0  0
 13 14  4  0  0  0
 14 15  4  0  0  0
 16 15  4  0  0  0
 17 16  4  0  0  0
 17 29  1  0  0  0
 19 20  1  0  0  0
 30 21  4  0  0  0
 25 24  4  0  0  0
 26 25  1  0  0  0
 26 27  1  0  0  0
  1 31  1  0  0  0
  1 32  1  0  0  0
  1 33  1  0  0  0
  2 34  1  0  0  0
  3 35  1  0  0  0
  3 36  1  0  0  0
  4 37  1  0  0  0
  7 38  1  0  0  0
 10 39  1  0  0  0
 10 40  1  0  0  0
 10 41  1  0  0  0
 11 42  1  0  0  0
 11 43  1  0  0  0
 13 44  1  0  0  0
 14 45  1  0  0  0
 15 46  1  0  0  0
 16 47  1  0  0  0
 19 48  1  0  0  0
 19 49  1  0  0  0
 20 50  1  0  0  0
 22 51  1  0  0  0
 23 52  1  0  0  0
 24 53  1  0  0  0
 27 54  1  0  0  0
 27 55  1  0  0  0
 28 56  1  0  0  0
 28 57  1  0  0  0
 28 58  1  0  0  0
 29 59  1  0  0  0
 29 60  1  0  0  0
 29 61  1  0  0  0
M  END
$$$$
