5qb3_ligand
  -I-interpret- 

 47 50  0  0  0  0  0  0  0  0999 V2000
   95.5840  253.8530    5.3360 O   0  0  0  0  0
   91.9130  247.6560    3.3830 C   0  0  0  0  0
   90.6140  245.6210    2.8590 C   0  0  0  0  0
   90.3680  244.4610    3.7740 C   0  0  0  0  0
   97.2070  250.6190    5.5470 C   0  0  0  0  0
   96.1960  251.5670    5.4130 C   0  0  0  0  0
   96.5060  253.0340    5.5650 C   0  0  0  0  0
   98.0410  248.2580    5.3250 C   0  0  0  0  0
   97.8730  247.0190    4.6960 C   0  0  0  0  0
   98.8600  246.0790    4.6920 C   0  0  0  0  0
  100.1000  246.3220    5.3270 C   0  0  0  0  0
  100.2870  247.5690    5.9630 C   0  0  0  0  0
  101.1710  245.4050    5.3600 C   0  0  0  0  0
  102.3310  245.7410    5.9890 C   0  0  0  0  0
  102.4300  246.9890    6.5850 C   0  0  0  0  0
   97.6690  253.3490    5.9160 O   0  0  0  0  0
   91.7630  246.2860    3.0960 N   0  0  0  0  0
   92.1650  250.1450    4.5710 C   0  0  0  0  0
   89.7860  245.9880    2.0310 O   0  0  0  0  0
   90.9280  249.7030    4.1350 C   0  0  0  0  0
   95.6660  248.8890    4.9520 C   0  0  0  0  0
   96.9580  249.2690    5.3040 C   0  0  0  0  0
   99.2440  248.5200    5.9520 C   0  0  0  0  0
   90.7990  248.4690    3.5250 C   0  0  0  0  0
   93.1590  248.1260    3.7630 C   0  0  0  0  0
   93.3010  249.3660    4.3810 C   0  0  0  0  0
   94.6360  249.8160    4.8210 C   0  0  0  0  0
   94.9160  251.1600    5.0580 C   0  0  0  0  0
  101.4640  247.8950    6.5910 N   0  0  0  0  0
   89.4878  244.6619    4.3847 H   0  0  0  0  0
   90.2031  243.5611    3.1815 H   0  0  0  0  0
   91.2348  244.3188    4.4194 H   0  0  0  0  0
   98.2060  250.9365    5.8457 H   0  0  0  0  0
   96.9291  246.8003    4.1968 H   0  0  0  0  0
   98.6910  245.1254    4.1917 H   0  0  0  0  0
  101.0704  244.4299    4.8833 H   0  0  0  0  0
  103.1664  245.0417    6.0233 H   0  0  0  0  0
  103.3664  247.2416    7.0824 H   0  0  0  0  0
   98.1938  252.5534    6.0312 H   0  0  0  0  0
   92.6201  245.7340    3.0637 H   0  0  0  0  0
   92.2494  251.1117    5.0674 H   0  0  0  0  0
   90.0490  250.3325    4.2736 H   0  0  0  0  0
   95.4547  247.8346    4.7737 H   0  0  0  0  0
   99.3905  249.4796    6.4477 H   0  0  0  0  0
   89.8277  248.1374    3.1581 H   0  0  0  0  0
   94.0425  247.5158    3.5755 H   0  0  0  0  0
   94.1218  251.9006    4.9638 H   0  0  0  0  0
  7  1  2  0  0  0
  2 17  1  0  0  0
  2 24  4  0  0  0
 25  2  4  0  0  0
  3  4  1  0  0  0
 17  3  1  0  0  0
  3 19  2  0  0  0
  5  6  4  0  0  0
 22  5  4  0  0  0
  6  7  1  0  0  0
  6 28  4  0  0  0
  7 16  1  0  0  0
  8  9  4  0  0  0
 22  8  1  0  0  0
  8 23  4  0  0  0
  9 10  4  0  0  0
 10 11  4  0  0  0
 12 11  4  0  0  0
 11 13  4  0  0  0
 23 12  4  0  0  0
 12 29  4  0  0  0
 13 14  4  0  0  0
 15 14  4  0  0  0
 29 15  4  0  0  0
 18 20  4  0  0  0
 26 18  4  0  0  0
 20 24  4  0  0  0
 21 22  4  0  0  0
 27 21  4  0  0  0
 26 25  4  0  0  0
 26 27  1  0  0  0
 27 28  4  0  0  0
  4 30  1  0  0  0
  4 31  1  0  0  0
  4 32  1  0  0  0
  5 33  1  0  0  0
  9 34  1  0  0  0
 10 35  1  0  0  0
 13 36  1  0  0  0
 14 37  1  0  0  0
 15 38  1  0  0  0
 16 39  1  0  0  0
 17 40  1  0  0  0
 18 41  1  0  0  0
 20 42  1  0  0  0
 21 43  1  0  0  0
 23 44  1  0  0  0
 24 45  1  0  0  0
 25 46  1  0  0  0
 28 47  1  0  0  0
M  END
$$$$
