### 
### Created by X-TOOL on Mon Sep 10 21:13:23 2018
### 

@<TRIPOS>MOLECULE
4rh5_ligand
   93    95     1     0     0
SMALL
GAST_HUCK


@<TRIPOS>ATOM
      1 N           6.4360   27.0910   12.6740 N.4       1 PHE         0.2394
      2 CA          6.5100   25.6140   12.5780 C.3       1 PHE         0.0744
      3 C           7.8850   25.1940   13.0430 C.2       1 PHE         0.2288
      4 O           8.8750   25.8300   12.6900 O.2       1 PHE        -0.3905
      5 CB          6.2340   25.1440   11.1480 C.3       1 PHE         0.0416
      6 CG          4.8540   25.5090   10.6470 C.ar      1 PHE        -0.0353
      7 CD1         3.7310   25.1580   11.3720 C.ar      1 PHE        -0.0600
      8 CD2         4.6940   26.2360    9.4890 C.ar      1 PHE        -0.0600
      9 CE1         2.4590   25.5180   10.9390 C.ar      1 PHE        -0.0686
     10 CE2         3.4250   26.5930    9.0560 C.ar      1 PHE        -0.0686
     11 CZ          2.3080   26.1990    9.7810 C.ar      1 PHE        -0.0687
     12 N           7.9290   24.1350   13.8500 N.am      1 SER        -0.2587
     13 CA          9.1410   23.7090   14.5430 C.3       1 SER         0.1540
     14 C           9.7650   22.4820   13.8880 C.2       1 SER         0.2062
     15 O           9.0470   21.6610   13.3320 O.2       1 SER        -0.3943
     16 CB          8.8190   23.3760   16.0100 C.3       1 SER         0.0843
     17 OG          8.2680   24.4820   16.6920 O.3       1 SER        -0.3903
     18 N          11.0960   22.3800   13.9530 N.am      1 ALA        -0.2639
     19 CA         11.8040   21.1530   13.5630 C.3       1 ALA         0.1282
     20 C          11.6070   20.0830   14.6090 C.2       1 ALA         0.2038
     21 O          11.4080   20.3800   15.7910 O.2       1 ALA        -0.3944
     22 CB         13.2860   21.3980   13.3930 C.3       1 ALA        -0.0244
     23 N          11.7050   18.8320   14.1710 N.am      1 PTR        -0.2607
     24 CA         11.7520   17.7160   15.1180 C.3       1 PTR         0.1470
     25 C          12.9990   17.8870   15.9950 C.2       1 PTR         0.2099
     26 O          14.1040   17.8780   15.4480 O.2       1 PTR        -0.3939
     27 CB         11.7940   16.4270   14.3080 C.3       1 PTR         0.0400
     28 CG         11.5750   15.1280   15.0520 C.ar      1 PTR        -0.0004
     29 CD1        12.3030   14.0020   14.7050 C.ar      1 PTR        -0.0239
     30 CD2        10.6040   14.9910   16.0380 C.ar      1 PTR        -0.0239
     31 CE1        12.0850   12.7860   15.3360 C.ar      1 PTR         0.0115
     32 CE2        10.3850   13.7850   16.6690 C.ar      1 PTR         0.0115
     33 CZ         11.1260   12.6680   16.3140 C.ar      1 PTR         0.1728
     34 OH         10.9940   11.4360   16.8660 O.3       1 PTR        -0.2040
     35 P          10.0180   10.2770   16.3010 P.3       1 PTR         0.1348
     36 O1P        10.1590   10.2280   14.8140 O.co2     1 PTR        -0.6653
     37 O2P        10.5800    9.0220   16.9630 O.co2     1 PTR        -0.6653
     38 O3P         8.6070   10.6160   16.7950 O.co2     1 PTR        -0.6653
     39 N          12.8280   17.9720   17.3320 N.am      1 PRO        -0.2496
     40 CA         13.9640   18.1880   18.2280 C.3       1 PRO         0.1337
     41 C          15.0280   17.1070   18.1640 C.2       1 PRO         0.2036
     42 O          14.7280   15.9850   17.7820 O.2       1 PRO        -0.3944
     43 CB         13.3090   18.2010   19.6110 C.3       1 PRO        -0.0104
     44 CG         11.9380   18.5640   19.4010 C.3       1 PRO        -0.0281
     45 CD         11.5550   17.9720   18.0640 C.3       1 PRO         0.0369
     46 N          16.2660   17.4440   18.5130 N.am      1 SER        -0.2672
     47 CA         17.3170   16.4310   18.6690 C.3       1 SER         0.1173
     48 C          17.2660   15.7960   20.0620 C.2       1 SER         0.0623
     49 O          16.7860   16.4200   21.0160 O.co2     1 SER        -0.5665
     50 CB         18.6890   17.0590   18.4340 C.3       1 SER         0.0789
     51 OG         18.5500   18.3330   17.8260 O.3       1 SER        -0.3910
     52 OXT        17.7040   14.6540   20.2450 O.co2     1 SER        -0.5665
     53 H1          5.5270   27.4024   12.3694 H         1 PHE         0.2017
     54 H2          7.1457   27.5018   12.0878 H         1 PHE         0.2017
     55 H3          6.5849   27.3735   13.6301 H         1 PHE         0.2017
     56 H4          5.7541   25.1698   13.2422 H         1 PHE         0.1122
     57 H5          6.3376   24.0494   11.1154 H         1 PHE         0.0507
     58 H6          6.9788   25.6028   10.4811 H         1 PHE         0.0507
     59 H7          3.8430   24.5942   12.2911 H         1 PHE         0.0557
     60 H8          5.5635   26.5309    8.9127 H         1 PHE         0.0557
     61 H9          1.5896   25.2527   11.5296 H         1 PHE         0.0599
     62 H10         3.3056   27.1793    8.1521 H         1 PHE         0.0599
     63 H11         1.3147   26.4376    9.4183 H         1 PHE         0.0559
     64 H12         7.0913   23.6064   13.9877 H         1 SER         0.1885
     65 H13         9.8682   24.5338   14.5127 H         1 SER         0.0823
     66 H14         9.7462   23.0714   16.5173 H         1 SER         0.0606
     67 H15         8.0971   22.5465   16.0362 H         1 SER         0.0606
     68 H16         8.0833   24.2381   17.5914 H         1 SER         0.2097
     69 H17        11.6266   23.1632   14.2772 H         1 ALA         0.1883
     70 H18        11.3910   20.8006   12.6063 H         1 ALA         0.0797
     71 H19        13.7816   20.4601   13.1019 H         1 ALA         0.0277
     72 H20        13.7096   21.7571   14.3425 H         1 ALA         0.0277
     73 H21        13.4452   22.1549   12.6109 H         1 ALA         0.0277
     74 H22        11.7469   18.6516   13.1883 H         1 PTR         0.1886
     75 H23        10.8553   17.7191   15.7551 H         1 PTR         0.0840
     76 H24        12.7830   16.3702   13.8298 H         1 PTR         0.0584
     77 H25        11.0159   16.4986   13.5338 H         1 PTR         0.0584
     78 H26        13.0553   14.0721   13.9277 H         1 PTR         0.0703
     79 H27        10.0062   15.8513   16.3165 H         1 PTR         0.0703
     80 H28        12.6758   11.9215   15.0556 H         1 PTR         0.0736
     81 H29         9.6316   13.7097   17.4447 H         1 PTR         0.0736
     82 H30        14.4360   19.1572   18.0091 H         1 PRO         0.0802
     83 H31        13.8035   18.9385   20.2602 H         1 PRO         0.0313
     84 H32        13.3732   17.2047   20.0727 H         1 PRO         0.0313
     85 H33        11.8305   19.6585   19.3801 H         1 PRO         0.0287
     86 H34        11.3052   18.1486   20.1991 H         1 PRO         0.0287
     87 H35        11.1647   16.9502   18.1803 H         1 PRO         0.0524
     88 H36        10.8051   18.5952   17.5549 H         1 PRO         0.0524
     89 H37        16.4855   18.4065   18.6724 H         1 SER         0.1876
     90 H38        17.1562   15.6426   17.9190 H         1 SER         0.0749
     91 H39        19.2793   16.4051   17.7752 H         1 SER         0.0599
     92 H40        19.2064   17.1717   19.3981 H         1 SER         0.0599
     93 H41        18.0421   18.9001   18.3943 H         1 SER         0.2096
@<TRIPOS>BOND
     1    1    2 1  
     2    2    3 1  
     3    2    5 1  
     4    3    4 2  
     5    3   12 am 
     6    5    6 1  
     7    6    7 ar 
     8    6    8 ar 
     9    7    9 ar 
    10    8   10 ar 
    11    9   11 ar 
    12   10   11 ar 
    13   12   13 1  
    14   13   14 1  
    15   13   16 1  
    16   14   15 2  
    17   14   18 am 
    18   16   17 1  
    19   18   19 1  
    20   19   20 1  
    21   19   22 1  
    22   20   21 2  
    23   20   23 am 
    24   23   24 1  
    25   24   25 1  
    26   24   27 1  
    27   25   26 2  
    28   25   39 am 
    29   27   28 1  
    30   28   29 ar 
    31   28   30 ar 
    32   29   31 ar 
    33   30   32 ar 
    34   31   33 ar 
    35   32   33 ar 
    36   33   34 1  
    37   34   35 1  
    38   35   36 ar 
    39   35   37 ar 
    40   35   38 ar 
    41   39   40 1  
    42   39   45 1  
    43   40   41 1  
    44   40   43 1  
    45   41   42 2  
    46   41   46 am 
    47   43   44 1  
    48   44   45 1  
    49   46   47 1  
    50   47   48 1  
    51   47   50 1  
    52   48   49 ar 
    53   48   52 ar 
    54   50   51 1  
    55    1   53 1  
    56    1   54 1  
    57    1   55 1  
    58    2   56 1  
    59    5   57 1  
    60    5   58 1  
    61    7   59 1  
    62    8   60 1  
    63    9   61 1  
    64   10   62 1  
    65   11   63 1  
    66   12   64 1  
    67   13   65 1  
    68   16   66 1  
    69   16   67 1  
    70   17   68 1  
    71   18   69 1  
    72   19   70 1  
    73   22   71 1  
    74   22   72 1  
    75   22   73 1  
    76   23   74 1  
    77   24   75 1  
    78   27   76 1  
    79   27   77 1  
    80   29   78 1  
    81   30   79 1  
    82   31   80 1  
    83   32   81 1  
    84   40   82 1  
    85   43   83 1  
    86   43   84 1  
    87   44   85 1  
    88   44   86 1  
    89   45   87 1  
    90   45   88 1  
    91   46   89 1  
    92   47   90 1  
    93   50   91 1  
    94   50   92 1  
    95   51   93 1  
@<TRIPOS>SUBSTRUCTURE
     1 PHE         1

