4rh5_ligand
  -I-interpret- 

 96 98  0  0  0  0  0  0  0  0999 V2000
    6.4360   27.0910   12.6740 N   0  3  0  0  0
    6.5100   25.6140   12.5780 C   0  0  0  0  0
    7.8850   25.1940   13.0430 C   0  0  0  0  0
    8.8750   25.8300   12.6900 O   0  0  0  0  0
    6.2340   25.1440   11.1480 C   0  0  0  0  0
    4.8540   25.5090   10.6470 C   0  0  0  0  0
    3.7310   25.1580   11.3720 C   0  0  0  0  0
    4.6940   26.2360    9.4890 C   0  0  0  0  0
    2.4590   25.5180   10.9390 C   0  0  0  0  0
    3.4250   26.5930    9.0560 C   0  0  0  0  0
    2.3080   26.1990    9.7810 C   0  0  0  0  0
    7.9290   24.1350   13.8500 N   0  0  0  0  0
    9.1410   23.7090   14.5430 C   0  0  0  0  0
    9.7650   22.4820   13.8880 C   0  0  0  0  0
    9.0470   21.6610   13.3320 O   0  0  0  0  0
    8.8190   23.3760   16.0100 C   0  0  0  0  0
    8.2680   24.4820   16.6920 O   0  0  0  0  0
   11.0960   22.3800   13.9530 N   0  0  0  0  0
   11.8040   21.1530   13.5630 C   0  0  0  0  0
   11.6070   20.0830   14.6090 C   0  0  0  0  0
   11.4080   20.3800   15.7910 O   0  0  0  0  0
   13.2860   21.3980   13.3930 C   0  0  0  0  0
   11.7050   18.8320   14.1710 N   0  0  0  0  0
   11.7520   17.7160   15.1180 C   0  0  0  0  0
   12.9990   17.8870   15.9950 C   0  0  0  0  0
   14.1040   17.8780   15.4480 O   0  0  0  0  0
   11.7940   16.4270   14.3080 C   0  0  0  0  0
   11.5750   15.1280   15.0520 C   0  0  0  0  0
   12.3030   14.0020   14.7050 C   0  0  0  0  0
   10.6040   14.9910   16.0380 C   0  0  0  0  0
   12.0850   12.7860   15.3360 C   0  0  0  0  0
   10.3850   13.7850   16.6690 C   0  0  0  0  0
   11.1260   12.6680   16.3140 C   0  0  0  0  0
   10.9940   11.4360   16.8660 O   0  0  0  0  0
   10.0180   10.2770   16.3010 P   0  0  0  0  0
   10.1590   10.2280   14.8140 O   0  0  0  0  0
   10.5800    9.0220   16.9630 O   0  0  0  0  0
    8.6070   10.6160   16.7950 O   0  0  0  0  0
   12.8280   17.9720   17.3320 N   0  0  0  0  0
   13.9640   18.1880   18.2280 C   0  0  0  0  0
   15.0280   17.1070   18.1640 C   0  0  0  0  0
   14.7280   15.9850   17.7820 O   0  0  0  0  0
   13.3090   18.2010   19.6110 C   0  0  0  0  0
   11.9380   18.5640   19.4010 C   0  0  0  0  0
   11.5550   17.9720   18.0640 C   0  0  0  0  0
   16.2660   17.4440   18.5130 N   0  0  0  0  0
   17.3170   16.4310   18.6690 C   0  0  0  0  0
   17.2660   15.7960   20.0620 C   0  0  0  0  0
   16.7860   16.4200   21.0160 O   0  0  0  0  0
   18.6890   17.0590   18.4340 C   0  0  0  0  0
   18.5500   18.3330   17.8260 O   0  0  0  0  0
   17.7040   14.6540   20.2450 O   0  0  0  0  0
    6.6233   27.3779   13.6347 H   0  0  0  0  0
    7.1301   27.5061   12.0525 H   0  0  0  0  0
    5.5038   27.4020   12.4006 H   0  0  0  0  0
    5.7487   25.1530   13.2074 H   0  0  0  0  0
    6.3074   24.0565   11.1413 H   0  0  0  0  0
    6.9584   25.6338   10.4972 H   0  0  0  0  0
    3.8436   24.5911   12.2961 H   0  0  0  0  0
    5.5683   26.5326    8.9095 H   0  0  0  0  0
    1.5848   25.2512   11.5329 H   0  0  0  0  0
    3.3049   27.1825    8.1471 H   0  0  0  0  0
    1.3092   26.4389    9.4163 H   0  0  0  0  0
    7.0746   23.5959   13.9904 H   0  0  0  0  0
    9.8527   24.5327   14.4875 H   0  0  0  0  0
    9.7468   23.0948   16.5082 H   0  0  0  0  0
    8.0886   22.5671   16.0245 H   0  0  0  0  0
    8.0813   24.2355   17.6008 H   0  0  0  0  0
   11.6372   23.1789   14.2837 H   0  0  0  0  0
   11.3890   20.8280   12.6089 H   0  0  0  0  0
   13.4424   22.1482   12.6178 H   0  0  0  0  0
   13.7045   21.7538   14.3345 H   0  0  0  0  0
   13.7760   20.4680   13.1045 H   0  0  0  0  0
   11.7478   18.6480   13.1686 H   0  0  0  0  0
   10.8806   17.6867   15.7722 H   0  0  0  0  0
   12.8044   16.3671   13.9036 H   0  0  0  0  0
   10.9714   16.5003   13.5966 H   0  0  0  0  0
   13.0595   14.0725   13.9234 H   0  0  0  0  0
   10.0029   15.8561   16.3181 H   0  0  0  0  0
   12.6791   11.9167   15.0540 H   0  0  0  0  0
    9.6274   13.7093   17.4490 H   0  0  0  0  0
   10.4727    9.0882   17.9147 H   0  0  0  0  0
    8.5995   10.6279   17.7549 H   0  0  0  0  0
   14.5023   19.0977   17.9618 H   0  0  0  0  0
   13.8057   18.9090   20.2744 H   0  0  0  0  0
   13.3881   17.2262   20.0924 H   0  0  0  0  0
   11.8092   19.6463   19.4068 H   0  0  0  0  0
   11.3007   18.1845   20.1997 H   0  0  0  0  0
   11.1150   16.9785   18.1501 H   0  0  0  0  0
   10.7739   18.5386   17.5571 H   0  0  0  0  0
   16.4899   18.4258   18.6755 H   0  0  0  0  0
   17.1470   15.6486   17.9293 H   0  0  0  0  0
   16.4916   17.2833   20.7166 H   0  0  0  0  0
   19.2684   16.4119   17.7755 H   0  0  0  0  0
   19.1958   17.1754   19.3920 H   0  0  0  0  0
   19.4191   18.7153   17.6845 H   0  0  0  0  0
  1  2  1  0  0  0
  2  3  1  0  0  0
  2  5  1  0  0  0
  3  4  2  0  0  0
  3 12  1  0  0  0
  5  6  1  0  0  0
  6  7  4  0  0  0
  6  8  4  0  0  0
  7  9  4  0  0  0
  8 10  4  0  0  0
  9 11  4  0  0  0
 10 11  4  0  0  0
 12 13  1  0  0  0
 13 14  1  0  0  0
 13 16  1  0  0  0
 14 15  2  0  0  0
 14 18  1  0  0  0
 16 17  1  0  0  0
 18 19  1  0  0  0
 19 20  1  0  0  0
 19 22  1  0  0  0
 20 21  2  0  0  0
 20 23  1  0  0  0
 23 24  1  0  0  0
 24 25  1  0  0  0
 24 27  1  0  0  0
 25 26  2  0  0  0
 25 39  1  0  0  0
 27 28  1  0  0  0
 28 29  4  0  0  0
 28 30  4  0  0  0
 29 31  4  0  0  0
 30 32  4  0  0  0
 31 33  4  0  0  0
 32 33  4  0  0  0
 33 34  1  0  0  0
 34 35  1  0  0  0
 35 36  2  0  0  0
 35 37  1  0  0  0
 35 38  1  0  0  0
 39 40  1  0  0  0
 39 45  1  0  0  0
 40 41  1  0  0  0
 40 43  1  0  0  0
 41 42  2  0  0  0
 41 46  1  0  0  0
 43 44  1  0  0  0
 44 45  1  0  0  0
 46 47  1  0  0  0
 47 48  1  0  0  0
 47 50  1  0  0  0
 48 49  1  0  0  0
 48 52  2  0  0  0
 50 51  1  0  0  0
  1 53  1  0  0  0
  1 54  1  0  0  0
  1 55  1  0  0  0
  2 56  1  0  0  0
  5 57  1  0  0  0
  5 58  1  0  0  0
  7 59  1  0  0  0
  8 60  1  0  0  0
  9 61  1  0  0  0
 10 62  1  0  0  0
 11 63  1  0  0  0
 12 64  1  0  0  0
 13 65  1  0  0  0
 16 66  1  0  0  0
 16 67  1  0  0  0
 17 68  1  0  0  0
 18 69  1  0  0  0
 19 70  1  0  0  0
 22 71  1  0  0  0
 22 72  1  0  0  0
 22 73  1  0  0  0
 23 74  1  0  0  0
 24 75  1  0  0  0
 27 76  1  0  0  0
 27 77  1  0  0  0
 29 78  1  0  0  0
 30 79  1  0  0  0
 31 80  1  0  0  0
 32 81  1  0  0  0
 37 82  1  0  0  0
 38 83  1  0  0  0
 40 84  1  0  0  0
 43 85  1  0  0  0
 43 86  1  0  0  0
 44 87  1  0  0  0
 44 88  1  0  0  0
 45 89  1  0  0  0
 45 90  1  0  0  0
 46 91  1  0  0  0
 47 92  1  0  0  0
 49 93  1  0  0  0
 50 94  1  0  0  0
 50 95  1  0  0  0
 51 96  1  0  0  0
M  END
$$$$
