4ux6_ligand
  -I-interpret- 

 44 45  0  0  0  0  0  0  0  0999 V2000
   19.1080   69.8170   21.1080 C   0  0  0  0  0
   20.1800   67.7170   22.0680 N   0  0  0  0  0
   21.0980   69.3640   24.1530 O   0  0  0  0  0
   19.8730   69.2130   22.1150 C   0  0  0  0  0
   22.2090   70.7240   30.3550 N   0  3  0  0  0
   19.8200   67.1220   21.0140 O   0  0  0  0  0
   20.3700   70.0020   23.1960 C   0  0  0  0  0
   24.7000   73.4100   30.6720 N   0  3  0  0  0
   20.7820   67.1470   23.0450 O   0  0  0  0  0
   20.0930   71.4240   23.2520 C   0  0  0  0  0
   24.7520   71.2280   31.3150 O   0  0  0  0  0
   19.3390   72.0130   22.2450 C   0  0  0  0  0
   18.8430   71.2360   21.1840 C   0  0  0  0  0
   21.8010   69.9440   25.1880 C   0  0  0  0  0
   21.3020   69.6690   26.4300 C   0  0  0  0  0
   21.9860   70.1710   27.6020 C   0  0  0  0  0
   23.1840   70.9540   27.4280 C   0  0  0  0  0
   23.6870   71.2540   26.1130 C   0  0  0  0  0
   22.9940   70.7540   24.9750 C   0  0  0  0  0
   19.0570   73.4260   22.2860 C   0  0  0  0  0
   23.9500   71.4470   28.6600 C   0  0  0  0  0
   23.1030   71.8410   29.8970 C   0  0  0  0  0
   24.0450   72.2380   31.0190 C   0  0  0  0  0
   18.7185   69.2254   20.2795 H   0  0  0  0  0
   21.6740   71.0298   31.1678 H   0  0  0  0  0
   21.5699   70.4709   29.6014 H   0  0  0  0  0
   22.7782   69.9156   30.6056 H   0  0  0  0  0
   24.0120   74.1328   30.4606 H   0  0  0  0  0
   25.2859   73.7137   31.4497 H   0  0  0  0  0
   25.2821   73.2426   29.8513 H   0  0  0  0  0
   20.4732   72.0259   24.0774 H   0  0  0  0  0
   24.1782   70.4902   31.5338 H   0  0  0  0  0
   18.2479   71.7119   20.4046 H   0  0  0  0  0
   20.3943   69.0751   26.5371 H   0  0  0  0  0
   21.6018   69.9606   28.6001 H   0  0  0  0  0
   24.5871   71.8564   25.9905 H   0  0  0  0  0
   23.3473   70.9718   23.9671 H   0  0  0  0  0
   18.5068   73.6591   23.1976 H   0  0  0  0  0
   19.9940   73.9827   22.2733 H   0  0  0  0  0
   18.4577   73.7009   21.4180 H   0  0  0  0  0
   24.4658   72.3553   28.3484 H   0  0  0  0  0
   24.5747   70.6124   28.9782 H   0  0  0  0  0
   22.4564   72.6733   29.6188 H   0  0  0  0  0
   23.5412   72.5001   31.9494 H   0  0  0  0  0
  4  1  4  0  0  0
  1 13  4  0  0  0
  4  2  1  0  0  0
  2  6  2  0  0  0
  2  9  2  0  0  0
  3  7  1  0  0  0
 14  3  1  0  0  0
  7  4  4  0  0  0
 22  5  1  0  0  0
  7 10  4  0  0  0
 23  8  1  0  0  0
 10 12  4  0  0  0
 23 11  1  0  0  0
 12 13  4  0  0  0
 12 20  1  0  0  0
 15 14  4  0  0  0
 19 14  4  0  0  0
 16 15  4  0  0  0
 17 16  4  0  0  0
 17 18  4  0  0  0
 21 17  1  0  0  0
 18 19  4  0  0  0
 22 21  1  0  0  0
 22 23  1  0  0  0
  1 24  1  0  0  0
  5 25  1  0  0  0
  5 26  1  0  0  0
  5 27  1  0  0  0
  8 28  1  0  0  0
  8 29  1  0  0  0
  8 30  1  0  0  0
 10 31  1  0  0  0
 11 32  1  0  0  0
 13 33  1  0  0  0
 15 34  1  0  0  0
 16 35  1  0  0  0
 18 36  1  0  0  0
 19 37  1  0  0  0
 20 38  1  0  0  0
 20 39  1  0  0  0
 20 40  1  0  0  0
 21 41  1  0  0  0
 21 42  1  0  0  0
 22 43  1  0  0  0
 23 44  1  0  0  0
M  END
$$$$
