6gxg_ligand
  -I-interpret- 

 27 29  0  0  0  0  0  0  0  0999 V2000
   -1.6910    1.5760   24.6130 C   0  0  0  0  0
   -2.1870    0.3220   24.8040 C   0  0  0  0  0
   -3.1060   -0.2170   24.0050 N   0  0  0  0  0
   -1.7240   -0.3970   25.8750 N   0  0  0  0  0
   -2.2050   -1.6770   26.1120 C   0  0  0  0  0
   -1.6940   -2.2450   27.0810 O   0  0  0  0  0
   -3.1370   -2.2390   25.2900 C   0  0  0  0  0
   -3.5650   -1.4510   24.2270 C   0  0  0  0  0
   -4.6650   -2.2820   23.3090 S   0  0  0  0  0
   -4.6200   -3.6290   24.2770 C   0  0  0  0  0
   -3.7350   -3.4690   25.2900 C   0  0  0  0  0
   -3.6400   -4.4980   26.2020 C   0  0  0  0  0
   -3.8590   -4.2570   27.5660 C   0  0  0  0  0
   -3.8390   -5.2460   28.5560 C   0  0  0  0  0
   -3.6280   -6.5660   28.1940 C   0  0  0  0  0
   -3.6130   -7.5480   29.1730 F   0  0  0  0  0
   -3.4370   -6.8510   26.8410 C   0  0  0  0  0
   -3.4480   -5.8420   25.8560 C   0  0  0  0  0
   -1.2162    1.6322   23.6335 H   0  0  0  0  0
   -2.5048    2.2992   24.6657 H   0  0  0  0  0
   -0.9564    1.7966   25.3875 H   0  0  0  0  0
   -1.0257    0.0088   26.4980 H   0  0  0  0  0
   -5.2224   -4.5235   24.1188 H   0  0  0  0  0
   -4.0581   -3.2311   27.8758 H   0  0  0  0  0
   -3.9881   -4.9798   29.6024 H   0  0  0  0  0
   -3.2744   -7.8849   26.5366 H   0  0  0  0  0
   -3.3050   -6.1117   24.8096 H   0  0  0  0  0
  1  2  1  0  0  0
  2  3  2  0  0  0
  2  4  1  0  0  0
  3  8  1  0  0  0
  4  5  1  0  0  0
  5  6  2  0  0  0
  5  7  1  0  0  0
  7  8  4  0  0  0
  7 11  4  0  0  0
  8  9  4  0  0  0
  9 10  4  0  0  0
 10 11  4  0  0  0
 11 12  1  0  0  0
 12 13  4  0  0  0
 12 18  4  0  0  0
 13 14  4  0  0  0
 14 15  4  0  0  0
 15 16  1  0  0  0
 15 17  4  0  0  0
 17 18  4  0  0  0
  1 19  1  0  0  0
  1 20  1  0  0  0
  1 21  1  0  0  0
  4 22  1  0  0  0
 10 23  1  0  0  0
 13 24  1  0  0  0
 14 25  1  0  0  0
 17 26  1  0  0  0
 18 27  1  0  0  0
M  END
$$$$
