4o12_ligand
  -I-interpret- 

 50 51  0  0  0  0  0  0  0  0999 V2000
   16.2290    3.3570   -3.7530 C   0  0  0  0  0
   17.5170    3.0610   -4.1450 C   0  0  0  0  0
   18.4860    2.7680   -3.1970 C   0  0  0  0  0
   18.1590    2.7700   -1.8530 C   0  0  0  0  0
   16.8690    3.0650   -1.4550 C   0  0  0  0  0
   15.9000    3.3640   -2.3990 C   0  0  0  0  0
   14.0480    4.9000   -2.3890 C   0  0  0  0  0
   14.9200    6.0620   -1.9160 C   0  0  0  0  0
   14.9760    6.1170   -0.3840 C   0  0  0  0  0
   16.0750    7.0950    0.0400 C   0  0  0  0  0
   15.8590    7.5970    1.4750 C   0  0  0  0  0
   16.6110    8.9210    1.6460 C   0  0  0  0  0
   15.7520    9.8610    3.8970 C   0  0  0  0  0
   14.0110   10.3950    2.2850 C   0  0  0  0  0
   15.3660   10.2520    6.3560 C   0  0  0  0  0
   14.1240   10.9000    6.3270 C   0  0  0  0  0
   14.6290    3.6490   -1.9930 O   0  0  0  0  0
   16.7030    9.2880    3.0710 N   0  0  0  0  0
   14.5620   10.3490    3.5230 N   0  0  0  0  0
   13.5500   10.4270    1.2430 N   0  0  0  0  0
   16.1320    9.9190    5.2250 N   0  0  0  0  0
   13.4630   11.1800    7.5080 C   0  0  0  0  0
   13.9930   10.8480    8.6690 N   0  0  0  0  0
   15.1620   10.2420    8.7530 C   0  0  0  0  0
   15.8790    9.9340    7.6130 C   0  0  0  0  0
   20.1080    2.3980   -3.6900 Cl  0  0  0  0  0
   15.4694    3.5851   -4.5007 H   0  0  0  0  0
   17.7749    3.0572   -5.2040 H   0  0  0  0  0
   18.9195    2.5387   -1.1072 H   0  0  0  0  0
   16.6131    3.0625   -0.3955 H   0  0  0  0  0
   13.9737    4.9299   -3.4761 H   0  0  0  0  0
   13.0589    4.9913   -1.9402 H   0  0  0  0  0
   14.4916    6.9941   -2.2845 H   0  0  0  0  0
   15.9307    5.9198   -2.2986 H   0  0  0  0  0
   15.1941    5.1250    0.0116 H   0  0  0  0  0
   14.0152    6.4518    0.0071 H   0  0  0  0  0
   16.0524    7.9524   -0.6327 H   0  0  0  0  0
   17.0333    6.5776   -0.0041 H   0  0  0  0  0
   16.2343    6.8616    2.1866 H   0  0  0  0  0
   14.7954    7.7469    1.6604 H   0  0  0  0  0
   16.0705    9.7043    1.1146 H   0  0  0  0  0
   17.6185    8.8082    1.2455 H   0  0  0  0  0
   15.0373    9.9365    3.0775 H   0  0  0  0  0
   13.6792   11.1832    5.3731 H   0  0  0  0  0
   17.3866   10.0436    3.0238 H   0  0  0  0  0
   13.9917   10.7399    4.2729 H   0  0  0  0  0
   17.1077    9.6870    5.4109 H   0  0  0  0  0
   12.4948   11.6798    7.4795 H   0  0  0  0  0
   15.5660    9.9818    9.7314 H   0  0  0  0  0
   16.8478    9.4414    7.6963 H   0  0  0  0  0
  1  2  4  0  0  0
  6  1  4  0  0  0
  2  3  4  0  0  0
  4  3  4  0  0  0
  3 26  1  0  0  0
  5  4  4  0  0  0
  6  5  4  0  0  0
 17  6  1  0  0  0
  8  7  1  0  0  0
  7 17  1  0  0  0
  9  8  1  0  0  0
 10  9  1  0  0  0
 11 10  1  0  0  0
 12 11  1  0  0  0
 18 12  1  0  0  0
 13 18  1  0  0  0
 13 19  1  0  0  0
 21 13  1  0  0  0
 19 14  1  0  0  0
 14 20  3  0  0  0
 15 16  4  0  0  0
 15 21  1  0  0  0
 15 25  4  0  0  0
 16 22  4  0  0  0
 22 23  4  0  0  0
 23 24  4  0  0  0
 24 25  4  0  0  0
  1 27  1  0  0  0
  2 28  1  0  0  0
  4 29  1  0  0  0
  5 30  1  0  0  0
  7 31  1  0  0  0
  7 32  1  0  0  0
  8 33  1  0  0  0
  8 34  1  0  0  0
  9 35  1  0  0  0
  9 36  1  0  0  0
 10 37  1  0  0  0
 10 38  1  0  0  0
 11 39  1  0  0  0
 11 40  1  0  0  0
 12 41  1  0  0  0
 12 42  1  0  0  0
 13 43  1  0  0  0
 16 44  1  0  0  0
 18 45  1  0  0  0
 19 46  1  0  0  0
 21 47  1  0  0  0
 22 48  1  0  0  0
 24 49  1  0  0  0
 25 50  1  0  0  0
M  END
$$$$
