1c2t_ligand
  -I-interpret- 

 57 59  0  0  0  0  0  0  0  0999 V2000
   37.2490   23.5520    6.2040 N   0  0  0  0  0
   36.1100   23.0840    6.6250 C   0  0  0  0  0
   35.5530   23.5940    7.7620 N   0  0  0  0  0
   35.4030   22.0400    5.8980 N   0  0  0  0  0
   35.8910   21.4700    4.7420 C   0  0  0  0  0
   35.2380   20.5920    4.1870 O   0  0  0  0  0
   37.2200   21.9760    4.2090 C   0  0  0  0  0
   37.8220   21.4700    3.0360 C   0  0  0  0  0
   39.0660   21.9820    2.5960 C   0  0  0  0  0
   39.7070   23.0110    3.3400 C   0  0  0  0  0
   39.1140   23.5300    4.5250 C   0  0  0  0  0
   37.8800   23.0230    4.9790 C   0  0  0  0  0
   39.7120   21.4250    1.3180 C   0  0  0  0  0
   40.3330   19.9700    1.2600 C   0  0  0  0  0
   43.0650   19.2390    4.7430 C   0  0  0  0  0
   41.8400   18.4840    4.6380 C   0  0  0  0  0
   40.9350   18.6980    3.5370 C   0  0  0  0  0
   41.2580   19.6720    2.5170 C   0  0  0  0  0
   42.4690   20.4070    2.6450 C   0  0  0  0  0
   43.3450   20.1930    3.7260 C   0  0  0  0  0
   44.0680   19.0410    5.8940 C   0  0  0  0  0
   43.8420   18.2050    6.8020 O   0  0  0  0  0
   45.2470   19.7960    5.8540 N   0  0  0  0  0
   46.4410   19.8570    6.7800 C   0  0  0  0  0
   45.9820   19.7510    8.2740 C   0  0  0  0  0
   45.6410   21.0710    9.0550 C   0  0  0  0  0
   45.5650   22.3450    8.2090 C   0  0  0  0  0
   44.5160   22.8410    7.8240 O   0  0  0  0  0
   46.7980   22.8640    7.9220 O   0  0  0  0  0
   47.6780   18.9280    6.4670 C   0  0  0  0  0
   47.6290   17.6910    6.4840 O   0  0  0  0  0
   48.8180   19.6310    6.1630 O   0  0  0  0  0
   39.3970   18.7950    0.8920 C   0  0  0  0  0
   39.9690   17.7990    0.4320 O   0  0  0  0  0
   38.3270   19.0360    0.3330 O   0  0  0  0  0
   36.0292   24.3362    8.2747 H   0  0  0  0  0
   34.6605   23.2330    8.0990 H   0  0  0  0  0
   34.5063   21.7157    6.2602 H   0  0  0  0  0
   37.3270   20.6826    2.4676 H   0  0  0  0  0
   40.6635   23.4066    2.9985 H   0  0  0  0  0
   39.6152   24.3212    5.0825 H   0  0  0  0  0
   40.5706   22.0773    1.1588 H   0  0  0  0  0
   38.8841   21.3794    0.6105 H   0  0  0  0  0
   40.9600   20.0125    0.3694 H   0  0  0  0  0
   41.5963   17.7435    5.3999 H   0  0  0  0  0
   40.0087   18.1270    3.4728 H   0  0  0  0  0
   42.7240   21.1513    1.8906 H   0  0  0  0  0
   44.2645   20.7753    3.7853 H   0  0  0  0  0
   45.3125   20.4211    5.0507 H   0  0  0  0  0
   46.8633   20.8413    6.5778 H   0  0  0  0  0
   46.8336   19.3219    8.8019 H   0  0  0  0  0
   45.0476   19.1906    8.2438 H   0  0  0  0  0
   46.4499   21.2237    9.7694 H   0  0  0  0  0
   44.6496   20.9271    9.4846 H   0  0  0  0  0
   47.4761   22.3158    8.3236 H   0  0  0  0  0
   48.6340   20.5721    6.2086 H   0  0  0  0  0
   40.7938   17.6590    0.9029 H   0  0  0  0  0
  1  2  2  0  0  0
 12  1  1  0  0  0
  2  3  1  0  0  0
  4  2  1  0  0  0
  5  4  1  0  0  0
  5  6  2  0  0  0
  7  5  1  0  0  0
  8  7  4  0  0  0
  7 12  4  0  0  0
  9  8  4  0  0  0
  9 10  4  0  0  0
 13  9  1  0  0  0
 10 11  4  0  0  0
 11 12  4  0  0  0
 14 13  1  0  0  0
 18 14  1  0  0  0
 14 33  1  0  0  0
 16 15  4  0  0  0
 15 20  4  0  0  0
 15 21  1  0  0  0
 17 16  4  0  0  0
 17 18  4  0  0  0
 18 19  4  0  0  0
 19 20  4  0  0  0
 21 22  2  0  0  0
 21 23  1  0  0  0
 23 24  1  0  0  0
 24 25  1  0  0  0
 24 30  1  0  0  0
 25 26  1  0  0  0
 26 27  1  0  0  0
 27 28  2  0  0  0
 27 29  1  0  0  0
 30 31  2  0  0  0
 30 32  1  0  0  0
 33 34  1  0  0  0
 33 35  2  0  0  0
  3 36  1  0  0  0
  3 37  1  0  0  0
  4 38  1  0  0  0
  8 39  1  0  0  0
 10 40  1  0  0  0
 11 41  1  0  0  0
 13 42  1  0  0  0
 13 43  1  0  0  0
 14 44  1  0  0  0
 16 45  1  0  0  0
 17 46  1  0  0  0
 19 47  1  0  0  0
 20 48  1  0  0  0
 23 49  1  0  0  0
 24 50  1  0  0  0
 25 51  1  0  0  0
 25 52  1  0  0  0
 26 53  1  0  0  0
 26 54  1  0  0  0
 29 55  1  0  0  0
 32 56  1  0  0  0
 34 57  1  0  0  0
M  END
$$$$
