1br5_ligand
  -I-interpret- 

 29 30  0  0  0  0  0  0  0  0999 V2000
    1.5530    0.2000    8.7160 N   0  0  0  0  0
    0.4910    0.6730    8.0140 C   0  0  0  0  0
    0.6880    1.3640    6.8030 C   0  0  0  0  0
   -0.2930    1.8640    5.9930 N   0  0  0  0  0
    0.0180    2.5660    4.8470 C   0  0  0  0  0
    1.3970    2.7510    4.5250 C   0  0  0  0  0
    2.3650    2.2240    5.3160 N   0  0  0  0  0
    2.0460    1.5410    6.4300 C   0  0  0  0  0
    3.0470    1.0660    7.1590 N   0  0  0  0  0
    2.8270    0.3950    8.2910 C   0  0  0  0  0
    3.8670    0.2480    9.1050 N   0  0  0  0  0
   -1.1430    3.1220    3.9790 C   0  0  0  0  0
   -2.4010    2.6330    4.4350 O   0  0  0  0  0
   -1.2830    4.6450    3.8280 C   0  0  0  0  0
   -2.5800    5.0780    4.3140 O   0  0  0  0  0
   -1.0770    5.1640    2.3550 C   0  0  0  0  0
   -0.0520    4.4460    1.6220 O   0  0  0  0  0
   -0.7550    0.6090    8.6080 O   0  0  0  0  0
    1.3894   -0.3133    9.5821 H   0  0  0  0  0
    1.6738    3.3197    3.6373 H   0  0  0  0  0
    4.7737    0.6393    8.8498 H   0  0  0  0  0
    3.7586   -0.2561    9.9851 H   0  0  0  0  0
   -0.8572    2.7562    2.9928 H   0  0  0  0  0
   -2.3530    1.6802    4.5419 H   0  0  0  0  0
   -0.4816    5.0781    4.4266 H   0  0  0  0  0
   -2.6562    6.0298    4.2149 H   0  0  0  0  0
   -0.7636    6.2061    2.4174 H   0  0  0  0  0
   -2.0182    5.0206    1.8243 H   0  0  0  0  0
    0.0218    4.8107    0.7370 H   0  0  0  0  0
  1 10  1  0  0  0
  1  2  1  0  0  0
  2 18  2  0  0  0
  2  3  1  0  0  0
  3  8  4  0  0  0
  3  4  4  0  0  0
  4  5  4  0  0  0
  5 12  1  0  0  0
  5  6  4  0  0  0
  6  7  4  0  0  0
  7  8  4  0  0  0
  8  9  1  0  0  0
  9 10  2  0  0  0
 10 11  1  0  0  0
 12 14  1  0  0  0
 12 13  1  0  0  0
 14 16  1  0  0  0
 14 15  1  0  0  0
 16 17  1  0  0  0
  1 19  1  0  0  0
  6 20  1  0  0  0
 11 21  1  0  0  0
 11 22  1  0  0  0
 12 23  1  0  0  0
 13 24  1  0  0  0
 14 25  1  0  0  0
 15 26  1  0  0  0
 16 27  1  0  0  0
 16 28  1  0  0  0
 17 29  1  0  0  0
M  END
$$$$
