5cxa_ligand
  -I-interpret- 

 76 78  0  0  0  0  0  0  0  0999 V2000
   10.9810   32.4360   10.3490 O   0  0  0  0  0
   10.3310   31.5270   10.8520 C   0  0  0  0  0
   10.2090   31.3740   12.1360 O   0  0  0  0  0
    9.6360   30.5500    9.9460 C   0  0  0  0  0
    9.0120   31.3000    8.7840 C   0  0  0  0  0
    8.0090   30.5430    7.9310 C   0  0  0  0  0
    7.0270   31.5720    7.4440 C   0  0  0  0  0
    7.4730   32.4040    6.5230 N   0  0  0  0  0
    5.8900   31.6420    7.9110 O   0  0  0  0  0
    8.7120   29.8440    6.8680 N   0  0  0  0  0
    8.0870   29.2050    5.8860 C   0  0  0  0  0
    6.8760   28.9590    5.8990 O   0  0  0  0  0
    8.9540   28.7650    4.7390 C   0  0  0  0  0
    9.4260   29.9380    3.8620 C   0  0  0  0  0
    8.2910   30.6470    3.1270 C   0  0  0  0  0
    8.8010   31.7470    2.2090 C   0  0  0  0  0
    9.6820   32.6060    2.6350 O   0  0  0  0  0
    8.3330   31.8040    1.0520 O   0  0  0  0  0
    8.3060   27.7090    3.9760 N   0  0  0  0  0
    8.9870   26.6070    3.7110 C   0  0  0  0  0
   10.0800   26.3850    4.2100 O   0  0  0  0  0
    8.3870   25.6320    2.7490 C   0  0  0  0  0
    9.3130   25.5300    1.5340 C   0  0  0  0  0
    8.7010   24.7450    0.3960 C   0  0  0  0  0
    9.0880   23.5740    0.1920 O   0  0  0  0  0
    7.8120   25.2780   -0.3050 O   0  0  0  0  0
    8.2870   24.2770    3.4510 C   0  0  0  0  0
    7.0720   23.9420    4.2570 C   0  0  0  0  0
    5.7570   24.2140    4.2350 C   0  0  0  0  0
    7.3210   23.0780    5.2880 O   0  0  0  0  0
    6.0960   22.8200    5.9490 N   0  0  0  0  0
    5.1870   23.5130    5.3040 C   0  0  0  0  0
    3.7630   23.4360    5.7380 C   0  0  0  0  0
    3.4100   22.6310    6.8190 C   0  0  0  0  0
    2.0820   22.5320    7.2170 C   0  0  0  0  0
    2.7670   24.1070    5.0410 C   0  0  0  0  0
    1.4450   24.0080    5.4460 C   0  0  0  0  0
    1.0870   23.2210    6.5310 C   0  0  0  0  0
   -0.3340   23.1330    6.9360 C   0  0  0  0  0
   -0.9060   21.9010    7.2160 C   0  0  0  0  0
   -1.1060   24.2820    7.0130 C   0  0  0  0  0
   -2.4420   24.2110    7.3860 C   0  0  0  0  0
   -3.0100   22.9890    7.6700 C   0  0  0  0  0
   -2.2430   21.8480    7.5850 C   0  0  0  0  0
   -2.9630   20.3160    7.9430 Cl  0  0  0  0  0
    9.6621   30.6056   12.3150 H   0  0  0  0  0
    8.8584   30.0264   10.5020 H   0  0  0  0  0
   10.3578   29.8262    9.5676 H   0  0  0  0  0
    9.8364   31.5541    8.1177 H   0  0  0  0  0
    8.4592   32.1280    9.2277 H   0  0  0  0  0
    7.4678   29.7690    8.4752 H   0  0  0  0  0
    6.8676   33.1442    6.1682 H   0  0  0  0  0
    8.4234   32.3072    6.1655 H   0  0  0  0  0
    9.7320   29.8443    6.8768 H   0  0  0  0  0
    9.8666   28.3450    5.1620 H   0  0  0  0  0
   10.1001   29.5317    3.1080 H   0  0  0  0  0
    9.8965   30.6690    4.5195 H   0  0  0  0  0
    7.6368   31.1018    3.8708 H   0  0  0  0  0
    7.7694   29.9100    2.5164 H   0  0  0  0  0
    9.9174   32.3980    3.5421 H   0  0  0  0  0
    7.3449   27.8168    3.6518 H   0  0  0  0  0
    7.3960   25.9487    2.4237 H   0  0  0  0  0
   10.2195   25.0122    1.8474 H   0  0  0  0  0
    9.5070   26.5411    1.1760 H   0  0  0  0  0
    7.6550   26.1728    0.0053 H   0  0  0  0  0
    9.1018   24.2837    4.1750 H   0  0  0  0  0
    8.2862   23.5486    2.6401 H   0  0  0  0  0
    5.2358   24.8550    3.5240 H   0  0  0  0  0
    4.1795   22.0759    7.3555 H   0  0  0  0  0
    1.8183   21.9102    8.0725 H   0  0  0  0  0
    3.0254   24.7133    4.1729 H   0  0  0  0  0
    0.6750   24.5568    4.9038 H   0  0  0  0  0
   -0.3145   20.9880    7.1473 H   0  0  0  0  0
   -0.6608   25.2490    6.7789 H   0  0  0  0  0
   -3.0394   25.1202    7.4538 H   0  0  0  0  0
   -4.0588   22.9252    7.9599 H   0  0  0  0  0
  1  2  2  0  0  0
  2  3  1  0  0  0
  2  4  1  0  0  0
  4  5  1  0  0  0
  5  6  1  0  0  0
  6  7  1  0  0  0
  6 10  1  0  0  0
  7  8  1  0  0  0
  7  9  2  0  0  0
 10 11  1  0  0  0
 11 12  2  0  0  0
 11 13  1  0  0  0
 13 14  1  0  0  0
 13 19  1  0  0  0
 14 15  1  0  0  0
 15 16  1  0  0  0
 16 17  1  0  0  0
 16 18  2  0  0  0
 19 20  1  0  0  0
 20 21  2  0  0  0
 20 22  1  0  0  0
 22 23  1  0  0  0
 22 27  1  0  0  0
 23 24  1  0  0  0
 24 25  2  0  0  0
 24 26  1  0  0  0
 27 28  1  0  0  0
 28 29  4  0  0  0
 28 30  4  0  0  0
 29 32  4  0  0  0
 30 31  4  0  0  0
 31 32  4  0  0  0
 32 33  1  0  0  0
 33 34  4  0  0  0
 33 36  4  0  0  0
 34 35  4  0  0  0
 35 38  4  0  0  0
 36 37  4  0  0  0
 37 38  4  0  0  0
 38 39  1  0  0  0
 39 40  4  0  0  0
 39 41  4  0  0  0
 40 44  4  0  0  0
 41 42  4  0  0  0
 42 43  4  0  0  0
 43 44  4  0  0  0
 44 45  1  0  0  0
  3 46  1  0  0  0
  4 47  1  0  0  0
  4 48  1  0  0  0
  5 49  1  0  0  0
  5 50  1  0  0  0
  6 51  1  0  0  0
  8 52  1  0  0  0
  8 53  1  0  0  0
 10 54  1  0  0  0
 13 55  1  0  0  0
 14 56  1  0  0  0
 14 57  1  0  0  0
 15 58  1  0  0  0
 15 59  1  0  0  0
 17 60  1  0  0  0
 19 61  1  0  0  0
 22 62  1  0  0  0
 23 63  1  0  0  0
 23 64  1  0  0  0
 26 65  1  0  0  0
 27 66  1  0  0  0
 27 67  1  0  0  0
 29 68  1  0  0  0
 34 69  1  0  0  0
 35 70  1  0  0  0
 36 71  1  0  0  0
 37 72  1  0  0  0
 40 73  1  0  0  0
 41 74  1  0  0  0
 42 75  1  0  0  0
 43 76  1  0  0  0
M  END
$$$$
