3zlr_ligand
  -I-interpret- 

 71 76  0  0  0  0  0  0  0  0999 V2000
  -14.2260  -18.1680  -47.1010 O   0  0  0  0  0
  -14.1850  -17.0040  -47.5570 C   0  0  0  0  0
  -13.2320  -16.5780  -48.2490 O   0  0  0  0  0
  -15.3460  -16.1480  -47.2150 C   0  0  0  0  0
  -16.5280  -16.6380  -46.7930 N   0  0  0  0  0
  -15.3110  -14.7540  -47.2660 C   0  0  0  0  0
  -14.2380  -13.7680  -47.6800 C   0  0  0  0  0
  -14.3280  -13.5970  -49.2060 C   0  0  0  0  0
  -13.0080  -13.1710  -49.8490 C   0  0  0  0  0
  -12.5890  -11.9130  -49.2920 O   0  0  0  0  0
  -11.4300  -11.3080  -49.7060 C   0  0  0  0  0
  -11.1000  -10.0490  -49.2100 C   0  0  0  0  0
   -9.9220   -9.4330  -49.6190 C   0  0  0  0  0
   -9.0740  -10.0690  -50.5240 C   0  0  0  0  0
   -7.7880   -9.3970  -50.9680 C   0  0  0  0  0
   -7.1660  -10.1790  -52.0240 N   0  3  0  0  0
   -9.4040  -11.3270  -51.0180 C   0  0  0  0  0
  -10.5810  -11.9550  -50.6020 C   0  0  0  0  0
  -16.8270  -14.0470  -46.7680 S   0  0  0  0  0
  -17.4330  -15.6750  -46.5220 C   0  0  0  0  0
  -18.7370  -15.8530  -46.0690 C   0  0  0  0  0
  -19.0530  -17.0980  -45.5100 C   0  0  0  0  0
  -20.3440  -17.3430  -45.0450 C   0  0  0  0  0
  -21.3130  -16.3560  -45.1410 C   0  0  0  0  0
  -22.7200  -16.6030  -44.6420 C   0  0  0  0  0
  -23.6980  -15.9710  -45.6360 C   0  0  0  0  0
  -23.5380  -14.4510  -45.6970 C   0  0  0  0  0
  -19.7080  -14.8580  -46.1530 C   0  0  0  0  0
  -20.9990  -15.1200  -45.6910 C   0  0  0  0  0
  -22.0730  -14.0700  -45.7690 C   0  0  0  0  0
  -21.7840  -12.8400  -45.8920 N   0  0  0  0  0
  -22.7340  -11.9080  -45.9490 N   0  0  0  0  0
  -22.3620  -10.6230  -45.7310 C   0  0  0  0  0
  -20.7050  -10.2520  -45.3620 S   0  0  0  0  0
  -21.2620   -8.6490  -45.3060 C   0  0  0  0  0
  -20.3840   -7.6060  -45.0290 C   0  0  0  0  0
  -20.8720   -6.3030  -44.9860 C   0  0  0  0  0
  -23.2460   -9.5980  -45.8020 N   0  0  0  0  0
  -22.6110   -8.4100  -45.5560 C   0  0  0  0  0
  -23.0950   -7.1030  -45.5180 C   0  0  0  0  0
  -22.2230   -6.0510  -45.2350 C   0  0  0  0  0
  -13.3995  -15.6652  -48.4948 H   0  0  0  0  0
  -13.2524  -14.1369  -47.3960 H   0  0  0  0  0
  -14.3878  -12.8108  -47.1805 H   0  0  0  0  0
  -15.0585  -12.8131  -49.4059 H   0  0  0  0  0
  -14.6023  -14.5634  -49.6290 H   0  0  0  0  0
  -13.1451  -13.0648  -50.9251 H   0  0  0  0  0
  -12.2474  -13.9269  -49.6535 H   0  0  0  0  0
  -11.7625   -9.5484  -48.5039 H   0  0  0  0  0
   -9.6609   -8.4488  -49.2302 H   0  0  0  0  0
   -7.1058   -9.3267  -50.1208 H   0  0  0  0  0
   -8.0127   -8.3983  -51.3424 H   0  0  0  0  0
   -6.3023   -9.7235  -52.3190 H   0  0  0  0  0
   -6.9564  -11.1141  -51.6746 H   0  0  0  0  0
   -7.8043  -10.2461  -52.8167 H   0  0  0  0  0
   -8.7442  -11.8230  -51.7298 H   0  0  0  0  0
  -10.8340  -12.9468  -50.9768 H   0  0  0  0  0
  -18.2907  -17.8738  -45.4388 H   0  0  0  0  0
  -20.5915  -18.3096  -44.6063 H   0  0  0  0  0
  -22.8506  -16.1600  -43.6547 H   0  0  0  0  0
  -22.9066  -17.6739  -44.5622 H   0  0  0  0  0
  -24.7133  -16.1970  -45.3101 H   0  0  0  0  0
  -23.4930  -16.3782  -46.6261 H   0  0  0  0  0
  -23.9722  -14.0143  -44.7977 H   0  0  0  0  0
  -24.0435  -14.0786  -46.5880 H   0  0  0  0  0
  -19.4621  -13.8838  -46.5756 H   0  0  0  0  0
  -23.7040  -12.1519  -46.1490 H   0  0  0  0  0
  -19.3280   -7.8064  -44.8480 H   0  0  0  0  0
  -20.1981   -5.4773  -44.7574 H   0  0  0  0  0
  -24.1496   -6.9039  -45.7085 H   0  0  0  0  0
  -22.5979   -5.0279  -45.2081 H   0  0  0  0  0
  1  2  2  0  0  0
  2  3  1  0  0  0
  2  4  1  0  0  0
  4  5  4  0  0  0
  4  6  4  0  0  0
  5 20  4  0  0  0
  6  7  1  0  0  0
  6 19  4  0  0  0
  7  8  1  0  0  0
  8  9  1  0  0  0
  9 10  1  0  0  0
 10 11  1  0  0  0
 11 12  4  0  0  0
 11 18  4  0  0  0
 12 13  4  0  0  0
 13 14  4  0  0  0
 14 15  1  0  0  0
 14 17  4  0  0  0
 15 16  1  0  0  0
 17 18  4  0  0  0
 19 20  4  0  0  0
 20 21  1  0  0  0
 21 22  4  0  0  0
 21 28  4  0  0  0
 22 23  4  0  0  0
 23 24  4  0  0  0
 24 25  1  0  0  0
 24 29  4  0  0  0
 25 26  1  0  0  0
 26 27  1  0  0  0
 27 30  1  0  0  0
 28 29  4  0  0  0
 29 30  1  0  0  0
 30 31  2  0  0  0
 31 32  1  0  0  0
 32 33  1  0  0  0
 33 34  4  0  0  0
 33 38  4  0  0  0
 34 35  4  0  0  0
 35 36  4  0  0  0
 35 39  4  0  0  0
 36 37  4  0  0  0
 37 41  4  0  0  0
 38 39  4  0  0  0
 39 40  4  0  0  0
 40 41  4  0  0  0
  3 42  1  0  0  0
  7 43  1  0  0  0
  7 44  1  0  0  0
  8 45  1  0  0  0
  8 46  1  0  0  0
  9 47  1  0  0  0
  9 48  1  0  0  0
 12 49  1  0  0  0
 13 50  1  0  0  0
 15 51  1  0  0  0
 15 52  1  0  0  0
 16 53  1  0  0  0
 16 54  1  0  0  0
 16 55  1  0  0  0
 17 56  1  0  0  0
 18 57  1  0  0  0
 22 58  1  0  0  0
 23 59  1  0  0  0
 25 60  1  0  0  0
 25 61  1  0  0  0
 26 62  1  0  0  0
 26 63  1  0  0  0
 27 64  1  0  0  0
 27 65  1  0  0  0
 28 66  1  0  0  0
 32 67  1  0  0  0
 36 68  1  0  0  0
 37 69  1  0  0  0
 40 70  1  0  0  0
 41 71  1  0  0  0
M  END
$$$$
