6m89_ligand
  -I-interpret- 

 34 36  0  0  0  0  0  0  0  0999 V2000
    7.2430   24.7990   21.9110 C   0  0  0  0  0
    6.2950   25.8150   21.8110 C   0  0  0  0  0
    5.7980   26.4720   23.0290 C   0  0  0  0  0
    6.3320   26.0020   24.3150 C   0  0  0  0  0
    7.2720   24.9840   24.3270 C   0  0  0  0  0
    7.7170   24.3920   23.1490 C   0  0  0  0  0
    4.7930   27.5570   23.0250 C   0  0  0  0  0
    4.3800   28.1430   24.3190 C   0  0  0  0  0
    4.9860   27.5970   25.5780 C   0  0  0  0  0
    4.6640   28.0640   26.9570 C   0  0  0  0  0
    4.0870   29.3170   27.2370 C   0  0  0  0  0
    3.7940   29.7070   28.5430 C   0  0  0  0  0
    4.0660   28.8550   29.6030 C   0  0  0  0  0
    4.6640   27.5180   29.3200 C   0  0  0  0  0
    4.9410   27.1710   28.0070 C   0  0  0  0  0
    5.9030   26.5660   25.4860 O   0  0  0  0  0
    4.3250   27.9690   21.9500 O   0  0  0  0  0
    4.9500   26.6300   30.3110 O   0  0  0  0  0
    3.7760   29.2520   30.8660 O   0  0  0  0  0
    3.4740   29.1470   24.2920 O   0  0  0  0  0
    8.6410   23.3910   23.2110 O   0  0  0  0  0
    5.8350   26.1960   20.6110 O   0  0  0  0  0
    7.6161   24.3188   21.0064 H   0  0  0  0  0
    7.6718   24.6392   25.2806 H   0  0  0  0  0
    4.1367   28.4683   25.3305 H   0  0  0  0  0
    4.4193   28.4940   25.3284 H   0  0  0  0  0
    3.8644   29.9972   26.4148 H   0  0  0  0  0
    3.3499   30.6844   28.7316 H   0  0  0  0  0
    5.3776   26.1969   27.7865 H   0  0  0  0  0
    5.3261   25.8344   29.9275 H   0  0  0  0  0
    4.0205   28.5579   31.4825 H   0  0  0  0  0
    3.2924   29.4369   25.1890 H   0  0  0  0  0
    8.8689   23.2238   24.1284 H   0  0  0  0  0
    5.1935   26.9011   20.7246 H   0  0  0  0  0
  1  2  4  0  0  0
  1  6  4  0  0  0
  2  3  4  0  0  0
  2 22  1  0  0  0
  3  4  4  0  0  0
  3  7  1  0  0  0
  4  5  4  0  0  0
  4 16  1  0  0  0
  5  6  4  0  0  0
  6 21  1  0  0  0
  7  8  1  0  0  0
  7 17  2  0  0  0
  8  9  1  0  0  0
  8 20  1  0  0  0
  9 10  1  0  0  0
  9 16  1  0  0  0
 10 11  4  0  0  0
 10 15  4  0  0  0
 11 12  4  0  0  0
 12 13  4  0  0  0
 13 14  4  0  0  0
 13 19  1  0  0  0
 14 15  4  0  0  0
 14 18  1  0  0  0
  1 23  1  0  0  0
  5 24  1  0  0  0
  8 25  1  0  0  0
  9 26  1  0  0  0
 11 27  1  0  0  0
 12 28  1  0  0  0
 15 29  1  0  0  0
 18 30  1  0  0  0
 19 31  1  0  0  0
 20 32  1  0  0  0
 21 33  1  0  0  0
 22 34  1  0  0  0
M  END
$$$$
