4q08_ligand
  -I-interpret- 

 49 50  0  0  0  0  0  0  0  0999 V2000
   -2.8270    3.2430   12.8210 F   0  0  0  0  0
   -3.7020    3.2760   13.8130 C   0  0  0  0  0
   -4.2430    4.5600   14.0820 C   0  0  0  0  0
   -3.8110    5.9980   13.1800 S   0  0  0  0  0
   -2.4110    6.7160   14.0820 C   0  0  0  0  0
   -1.1810    5.9410   13.7210 C   0  0  0  0  0
   -0.5080    6.4750   12.6470 O   0  0  0  0  0
   -5.0340    4.6060   15.2870 C   0  0  0  0  0
   -5.5990    5.7410   15.6840 F   0  0  0  0  0
   -4.0750    2.1120   14.4580 C   0  0  0  0  0
   -4.9740    2.1890   15.5560 C   0  0  0  0  0
   -5.4810    0.8250   16.5570 S   0  0  0  0  0
   -6.9300    0.8520   16.4680 O   0  0  0  0  0
   -4.9230   -0.5320   15.9750 N   0  0  0  0  0
   -4.9160    1.0670   17.8840 O   0  0  0  0  0
   -5.4050    3.4160   15.9230 C   0  0  0  0  0
   -6.2320    3.5870   16.9730 F   0  0  0  0  0
   -3.5200    0.9190   13.9620 N   0  0  0  0  0
   -3.4750    0.5520   12.5790 C   0  0  0  0  0
   -3.4560   -0.9960   12.5540 C   0  0  0  0  0
   -2.1640   -1.3680   11.8620 C   0  0  0  0  0
   -2.3140   -1.3570   10.3040 C   0  0  0  0  0
   -2.3800    0.0620    9.7020 C   0  0  0  0  0
   -3.8560    0.4620    9.3760 C   0  0  0  0  0
   -4.2270    1.6040   10.3220 C   0  0  0  0  0
   -4.6210    1.1550   11.7550 C   0  0  0  0  0
   -2.5879    6.6625   15.1562 H   0  0  0  0  0
   -2.2877    7.7650   13.8126 H   0  0  0  0  0
   -1.4909    4.9314   13.4512 H   0  0  0  0  0
   -0.5095    5.9635   14.5793 H   0  0  0  0  0
    0.2680    5.9417   12.4598 H   0  0  0  0  0
   -5.5671   -1.2331   15.6091 H   0  0  0  0  0
   -3.9183   -0.7077   15.9648 H   0  0  0  0  0
   -3.1201    0.2673   14.6371 H   0  0  0  0  0
   -2.5852    0.9594   12.0990 H   0  0  0  0  0
   -4.3224   -1.3995   12.0299 H   0  0  0  0  0
   -3.5075   -1.4142   13.5593 H   0  0  0  0  0
   -1.8874   -2.3757   12.1722 H   0  0  0  0  0
   -1.4048   -0.6361   12.1380 H   0  0  0  0  0
   -3.2503   -1.8596   10.0615 H   0  0  0  0  0
   -1.4355   -1.8493    9.8869 H   0  0  0  0  0
   -1.8005    0.0784    8.7790 H   0  0  0  0  0
   -1.9772    0.7693   10.4270 H   0  0  0  0  0
   -4.5257   -0.3869    9.5139 H   0  0  0  0  0
   -3.9507    0.7754    8.3363 H   0  0  0  0  0
   -5.0975    2.1012    9.8941 H   0  0  0  0  0
   -3.3444    2.2364   10.4184 H   0  0  0  0  0
   -4.9564    2.0466   12.2848 H   0  0  0  0  0
   -5.3760    0.3764   11.6461 H   0  0  0  0  0
  1  2  1  0  0  0
  2  3  4  0  0  0
  2 10  4  0  0  0
  3  4  1  0  0  0
  3  8  4  0  0  0
  4  5  1  0  0  0
  5  6  1  0  0  0
  6  7  1  0  0  0
  8  9  1  0  0  0
  8 16  4  0  0  0
 10 11  4  0  0  0
 10 18  1  0  0  0
 11 12  1  0  0  0
 11 16  4  0  0  0
 12 13  2  0  0  0
 12 14  1  0  0  0
 12 15  2  0  0  0
 16 17  1  0  0  0
 18 19  1  0  0  0
 19 20  1  0  0  0
 19 26  1  0  0  0
 20 21  1  0  0  0
 21 22  1  0  0  0
 22 23  1  0  0  0
 23 24  1  0  0  0
 24 25  1  0  0  0
 25 26  1  0  0  0
  5 27  1  0  0  0
  5 28  1  0  0  0
  6 29  1  0  0  0
  6 30  1  0  0  0
  7 31  1  0  0  0
 14 32  1  0  0  0
 14 33  1  0  0  0
 18 34  1  0  0  0
 19 35  1  0  0  0
 20 36  1  0  0  0
 20 37  1  0  0  0
 21 38  1  0  0  0
 21 39  1  0  0  0
 22 40  1  0  0  0
 22 41  1  0  0  0
 23 42  1  0  0  0
 23 43  1  0  0  0
 24 44  1  0  0  0
 24 45  1  0  0  0
 25 46  1  0  0  0
 25 47  1  0  0  0
 26 48  1  0  0  0
 26 49  1  0  0  0
M  END
$$$$
