2jko_ligand
  -I-interpret- 

 64 68  0  0  0  0  0  0  0  0999 V2000
   29.1450   20.0430   31.1850 C   0  0  0  0  0
   28.1560   19.7580   30.0440 C   0  0  0  0  0
   26.9130   19.1920   30.5960 N   0  3  0  0  0
   26.0570   18.6960   29.5020 C   0  0  0  0  0
   26.1880   20.2270   31.3640 C   0  0  0  0  0
   27.0140   20.6490   32.6070 C   0  0  0  0  0
   28.4980   20.7390   32.3510 N   0  0  0  0  0
   29.3250   21.4750   33.2520 C   0  0  0  0  0
   30.7020   21.5630   33.0320 C   0  0  0  0  0
   31.5390   22.2750   33.9020 C   0  0  0  0  0
   32.8870   22.3620   33.6740 O   0  0  0  0  0
   33.3070   21.8740   32.3690 C   0  0  0  0  0
   28.7920   22.1100   34.3810 C   0  0  0  0  0
   29.6190   22.8200   35.2580 C   0  0  0  0  0
   30.9970   22.9180   35.0220 C   0  0  0  0  0
   31.8260   23.5860   35.8480 N   0  0  0  0  0
   31.5480   24.7030   36.5470 C   0  0  0  0  0
   30.2890   25.1830   36.6290 N   0  0  0  0  0
   32.5560   25.3400   37.1830 N   0  0  0  0  0
   32.3300   26.4420   37.8920 C   0  0  0  0  0
   31.0340   26.9590   37.9860 C   0  0  0  0  0
   30.7170   28.3930   38.9100 Cl  0  0  0  0  0
   29.9930   26.2940   37.3340 C   0  0  0  0  0
   28.7270   26.7600   37.4070 N   0  0  0  0  0
   27.6420   25.9660   37.3250 C   0  0  0  0  0
   26.8080   25.7410   38.4390 C   0  0  0  0  0
   26.8420   26.1850   39.7730 C   0  0  0  0  0
   27.7000   26.9420   40.2350 O   0  0  0  0  0
   25.8270   25.6810   40.4920 N   0  0  0  0  0
   25.5580   25.9420   41.9300 C   0  0  0  0  0
   24.9790   24.8300   39.6490 C   0  0  0  0  0
   25.6890   24.9050   38.2970 C   0  0  0  0  0
   25.3960   24.3060   37.0710 C   0  0  0  0  0
   26.2180   24.5330   35.9680 C   0  0  0  0  0
   27.3310   25.3640   36.0980 C   0  0  0  0  0
   29.9265   20.6959   30.7962 H   0  0  0  0  0
   29.5339   19.0879   31.5382 H   0  0  0  0  0
   28.6007   19.0455   29.3492 H   0  0  0  0  0
   27.9295   20.6871   29.5210 H   0  0  0  0  0
   27.1483   18.4164   31.2152 H   0  0  0  0  0
   25.1472   18.2659   29.9207 H   0  0  0  0  0
   25.7985   19.5233   28.8410 H   0  0  0  0  0
   26.5950   17.9336   28.9386 H   0  0  0  0  0
   25.2307   19.8223   31.6925 H   0  0  0  0  0
   26.0303   21.0981   30.7280 H   0  0  0  0  0
   26.8620   19.8874   33.3718 H   0  0  0  0  0
   26.6743   21.6422   32.9008 H   0  0  0  0  0
   31.1353   21.0665   32.1638 H   0  0  0  0  0
   33.0336   20.8235   32.2701 H   0  0  0  0  0
   32.8133   22.4542   31.5894 H   0  0  0  0  0
   34.3876   21.9801   32.2734 H   0  0  0  0  0
   27.7217   22.0503   34.5783 H   0  0  0  0  0
   29.1868   23.3024   36.1347 H   0  0  0  0  0
   32.7658   23.2043   35.9554 H   0  0  0  0  0
   33.1546   26.9422   38.3998 H   0  0  0  0  0
   28.5858   27.7626   37.5303 H   0  0  0  0  0
   26.4100   25.6107   42.5237 H   0  0  0  0  0
   25.4016   27.0101   42.0810 H   0  0  0  0  0
   24.6658   25.3959   42.2364 H   0  0  0  0  0
   23.9416   25.1621   39.6088 H   0  0  0  0  0
   24.8804   23.8124   40.0270 H   0  0  0  0  0
   24.5234   23.6598   36.9757 H   0  0  0  0  0
   25.9925   24.0642   35.0102 H   0  0  0  0  0
   27.9680   25.5478   35.2328 H   0  0  0  0  0
  1  2  1  0  0  0
  1  7  1  0  0  0
  2  3  1  0  0  0
  3  4  1  0  0  0
  3  5  1  0  0  0
  5  6  1  0  0  0
  6  7  1  0  0  0
  7  8  1  0  0  0
  8  9  4  0  0  0
  8 13  4  0  0  0
  9 10  4  0  0  0
 10 11  1  0  0  0
 10 15  4  0  0  0
 11 12  1  0  0  0
 13 14  4  0  0  0
 14 15  4  0  0  0
 15 16  1  0  0  0
 16 17  1  0  0  0
 17 18  4  0  0  0
 17 19  4  0  0  0
 18 23  4  0  0  0
 19 20  4  0  0  0
 20 21  4  0  0  0
 21 22  1  0  0  0
 21 23  4  0  0  0
 23 24  1  0  0  0
 24 25  1  0  0  0
 25 26  4  0  0  0
 25 35  4  0  0  0
 26 27  1  0  0  0
 26 32  4  0  0  0
 27 28  2  0  0  0
 27 29  1  0  0  0
 29 30  1  0  0  0
 29 31  1  0  0  0
 31 32  1  0  0  0
 32 33  4  0  0  0
 33 34  4  0  0  0
 34 35  4  0  0  0
  1 36  1  0  0  0
  1 37  1  0  0  0
  2 38  1  0  0  0
  2 39  1  0  0  0
  3 40  1  0  0  0
  4 41  1  0  0  0
  4 42  1  0  0  0
  4 43  1  0  0  0
  5 44  1  0  0  0
  5 45  1  0  0  0
  6 46  1  0  0  0
  6 47  1  0  0  0
  9 48  1  0  0  0
 12 49  1  0  0  0
 12 50  1  0  0  0
 12 51  1  0  0  0
 13 52  1  0  0  0
 14 53  1  0  0  0
 16 54  1  0  0  0
 20 55  1  0  0  0
 24 56  1  0  0  0
 30 57  1  0  0  0
 30 58  1  0  0  0
 30 59  1  0  0  0
 31 60  1  0  0  0
 31 61  1  0  0  0
 33 62  1  0  0  0
 34 63  1  0  0  0
 35 64  1  0  0  0
M  END
$$$$
