5dw2_ligand
  -I-interpret- 

 26 26  0  0  0  0  0  0  0  0999 V2000
   11.7660    6.6960    1.2920 C   0  0  0  0  0
   13.9430    5.5810    1.1680 C   0  0  0  0  0
   10.4360    6.9260    0.8240 C   0  0  0  0  0
    9.9710    6.1760   -0.1870 C   0  0  0  0  0
   12.0630    4.9870   -0.3990 C   0  0  0  0  0
   12.2720    3.0900   -1.8340 C   0  0  0  0  0
   14.8290    4.8410    0.6880 O   0  0  0  0  0
   12.5590    5.7490    0.6360 C   0  0  0  0  0
   12.8350    4.0050   -0.9100 O   0  0  0  0  0
   10.7480    5.2290   -0.8300 C   0  0  0  0  0
    8.7150    6.2870   -0.7290 O   0  0  0  0  0
    7.7840    7.2060   -0.1490 C   0  0  0  0  0
   14.2440    6.3210    2.2970 N   0  0  0  0  0
   12.1620    7.4520    2.3700 N   0  0  0  0  0
    9.8116    7.6950    1.2788 H   0  0  0  0  0
   11.4415    2.5644   -1.3627 H   0  0  0  0  0
   11.9111    3.6333   -2.7073 H   0  0  0  0  0
   13.0318    2.3710   -2.1402 H   0  0  0  0  0
   10.3395    4.6701   -1.6719 H   0  0  0  0  0
    7.6085    6.9350    0.8921 H   0  0  0  0  0
    8.1926    8.2153   -0.1991 H   0  0  0  0  0
    6.8442    7.1653   -0.6997 H   0  0  0  0  0
   15.1708    6.2551    2.7179 H   0  0  0  0  0
   13.5392    6.9326    2.7088 H   0  0  0  0  0
   11.5183    8.1261    2.7842 H   0  0  0  0  0
   13.0995    7.3387    2.7555 H   0  0  0  0  0
  1  3  4  0  0  0
  8  1  4  0  0  0
  1 14  1  0  0  0
  2  7  2  0  0  0
  2  8  1  0  0  0
  2 13  1  0  0  0
  3  4  4  0  0  0
  4 10  4  0  0  0
  4 11  1  0  0  0
  8  5  4  0  0  0
  5  9  1  0  0  0
  5 10  4  0  0  0
  9  6  1  0  0  0
 11 12  1  0  0  0
  3 15  1  0  0  0
  6 16  1  0  0  0
  6 17  1  0  0  0
  6 18  1  0  0  0
 10 19  1  0  0  0
 12 20  1  0  0  0
 12 21  1  0  0  0
 12 22  1  0  0  0
 13 23  1  0  0  0
 13 24  1  0  0  0
 14 25  1  0  0  0
 14 26  1  0  0  0
M  END
$$$$
