6dj2_ligand
  -I-interpret- 

 94 97  0  0  0  0  0  0  0  0999 V2000
    5.0070   16.5070   64.2720 C   0  0  0  0  0
    6.7890   17.9290   63.2850 C   0  0  0  0  0
    7.7980   16.9030   63.6600 N   0  0  0  0  0
    7.4400   15.8620   64.4070 C   0  0  0  0  0
    6.1280   15.6720   64.7750 N   0  0  0  0  0
   14.7760   20.4710   61.8760 C   0  0  0  0  0
   16.0600   20.9530   61.7480 C   0  0  0  0  0
   16.4530   21.9840   60.9270 C   0  0  0  0  0
   15.4420   22.6050   60.1510 C   0  0  0  0  0
   14.1720   22.1090   60.1890 C   0  0  0  0  0
   13.8270   21.0660   61.0440 C   0  0  0  0  0
    8.3080   15.0440   64.7660 O   0  0  0  0  0
    9.1990   17.1040   63.1990 C   0  0  0  0  0
    9.7260   18.3290   63.9330 C   0  0  0  0  0
   10.4880   18.0610   64.9880 N   0  0  0  0  0
   11.0520   19.1250   65.8400 C   0  0  0  0  0
    9.2680   17.2040   61.6820 C   0  0  0  0  0
   10.7410   17.4150   61.3090 C   0  0  0  0  0
    8.7950   15.8930   61.0560 C   0  0  0  0  0
    9.4480   19.4520   63.4950 O   0  0  0  0  0
    7.1070   20.9870   67.0950 C   0  0  0  0  0
    6.1430   19.9930   67.1130 C   0  0  0  0  0
    6.5790   18.6610   67.1410 C   0  0  0  0  0
    7.9560   18.3990   67.1870 C   0  0  0  0  0
    8.9120   19.3990   67.0770 C   0  0  0  0  0
    8.4490   20.7290   67.0910 C   0  0  0  0  0
   10.2790   19.1680   67.1530 C   0  0  0  0  0
   12.5340   18.8550   66.1000 C   0  0  0  0  0
   13.3780   18.5920   64.8700 C   0  0  0  0  0
   13.6670   19.7930   63.9710 C   0  0  0  0  0
   14.4030   20.8620   64.6780 N   0  0  0  0  0
   13.8120   22.0570   64.9090 C   0  0  0  0  0
   14.6960   23.1550   65.4950 C   0  0  0  0  0
   15.9360   22.5600   65.9540 O   0  0  0  0  0
   16.7980   23.5450   66.3080 C   0  0  0  0  0
   14.6300   18.0420   65.2890 O   0  0  0  0  0
   14.4910   19.4120   62.7560 C   0  0  0  0  0
   12.6170   22.3150   64.6770 O   0  0  0  0  0
   16.6740   24.0960   67.5720 C   0  0  0  0  0
   17.5950   25.0810   67.9000 C   0  0  0  0  0
   18.5530   25.5340   67.0120 C   0  0  0  0  0
   18.6640   24.9600   65.7370 C   0  0  0  0  0
   17.7680   23.9270   65.3920 C   0  0  0  0  0
   17.8310   23.3970   64.1070 C   0  0  0  0  0
   15.7640   23.6570   68.5740 C   0  0  0  0  0
    5.4370   17.2800   63.0350 C   0  0  0  0  0
    4.7137   17.2135   65.0485 H   0  0  0  0  0
    4.1696   15.8591   64.0130 H   0  0  0  0  0
    7.1153   18.4299   62.3736 H   0  0  0  0  0
    6.6924   18.6454   64.1008 H   0  0  0  0  0
    5.9137   14.9180   65.4277 H   0  0  0  0  0
   16.8326   20.4752   62.3504 H   0  0  0  0  0
   17.4924   22.3083   60.8754 H   0  0  0  0  0
   15.6772   23.4698   59.5305 H   0  0  0  0  0
   13.4116   22.5381   59.5365 H   0  0  0  0  0
   12.7977   20.7079   61.0639 H   0  0  0  0  0
    9.8359   16.2519   63.4364 H   0  0  0  0  0
   10.6896   17.0875   65.2163 H   0  0  0  0  0
   10.9634   20.0881   65.3373 H   0  0  0  0  0
    8.6398   18.0201   61.3250 H   0  0  0  0  0
   11.1037   18.3329   61.7716 H   0  0  0  0  0
   11.3295   16.5697   61.6657 H   0  0  0  0  0
   10.8327   17.4919   60.2256 H   0  0  0  0  0
    9.4356   15.0785   61.3940 H   0  0  0  0  0
    7.7663   15.6976   61.3589 H   0  0  0  0  0
    8.8468   15.9709   59.9700 H   0  0  0  0  0
    6.7792   22.0265   67.0835 H   0  0  0  0  0
    5.0809   20.2381   67.1056 H   0  0  0  0  0
    5.8595   17.8423   67.1272 H   0  0  0  0  0
    8.2886   17.3688   67.3142 H   0  0  0  0  0
    9.1619   21.5535   67.0987 H   0  0  0  0  0
   10.6907   20.0087   67.7115 H   0  0  0  0  0
   10.3877   18.1767   67.5931 H   0  0  0  0  0
   12.5817   17.9508   66.7068 H   0  0  0  0  0
   12.9357   19.7560   66.5637 H   0  0  0  0  0
   12.7800   17.9140   64.2611 H   0  0  0  0  0
   12.6854   20.1547   63.6649 H   0  0  0  0  0
   15.3593   20.6984   64.9927 H   0  0  0  0  0
   14.1850   23.6350   66.3296 H   0  0  0  0  0
   14.9060   23.9063   64.7337 H   0  0  0  0  0
   15.1764   17.8699   64.5187 H   0  0  0  0  0
   15.4479   19.0448   63.1270 H   0  0  0  0  0
   13.9054   18.6845   62.1939 H   0  0  0  0  0
   17.5617   25.5155   68.8991 H   0  0  0  0  0
   19.2251   26.3409   67.3041 H   0  0  0  0  0
   19.4217   25.3028   65.0324 H   0  0  0  0  0
   17.9699   22.3175   64.1670 H   0  0  0  0  0
   16.9030   23.6164   63.5789 H   0  0  0  0  0
   18.6693   23.8433   63.5720 H   0  0  0  0  0
   14.7436   23.7505   68.2024 H   0  0  0  0  0
   15.9692   22.6146   68.8178 H   0  0  0  0  0
   15.8846   24.2708   69.4666 H   0  0  0  0  0
    4.6994   18.0518   62.8151 H   0  0  0  0  0
    5.5135   16.5970   62.1890 H   0  0  0  0  0
  5  1  1  0  0  0
 46  1  1  0  0  0
  3  2  1  0  0  0
  2 46  1  0  0  0
  3  4  1  0  0  0
 13  3  1  0  0  0
  4  5  1  0  0  0
  4 12  2  0  0  0
  6  7  4  0  0  0
  6 11  4  0  0  0
 37  6  1  0  0  0
  7  8  4  0  0  0
  8  9  4  0  0  0
 10  9  4  0  0  0
 11 10  4  0  0  0
 14 13  1  0  0  0
 13 17  1  0  0  0
 15 14  1  0  0  0
 14 20  2  0  0  0
 16 15  1  0  0  0
 16 27  1  0  0  0
 28 16  1  0  0  0
 17 18  1  0  0  0
 17 19  1  0  0  0
 21 22  4  0  0  0
 26 21  4  0  0  0
 23 22  4  0  0  0
 24 23  4  0  0  0
 25 24  4  0  0  0
 25 26  4  0  0  0
 27 25  1  0  0  0
 29 28  1  0  0  0
 30 29  1  0  0  0
 29 36  1  0  0  0
 30 31  1  0  0  0
 30 37  1  0  0  0
 31 32  1  0  0  0
 32 33  1  0  0  0
 32 38  2  0  0  0
 33 34  1  0  0  0
 34 35  1  0  0  0
 35 39  4  0  0  0
 35 43  4  0  0  0
 39 40  4  0  0  0
 39 45  1  0  0  0
 40 41  4  0  0  0
 41 42  4  0  0  0
 42 43  4  0  0  0
 43 44  1  0  0  0
  1 47  1  0  0  0
  1 48  1  0  0  0
  2 49  1  0  0  0
  2 50  1  0  0  0
  5 51  1  0  0  0
  7 52  1  0  0  0
  8 53  1  0  0  0
  9 54  1  0  0  0
 10 55  1  0  0  0
 11 56  1  0  0  0
 13 57  1  0  0  0
 15 58  1  0  0  0
 16 59  1  0  0  0
 17 60  1  0  0  0
 18 61  1  0  0  0
 18 62  1  0  0  0
 18 63  1  0  0  0
 19 64  1  0  0  0
 19 65  1  0  0  0
 19 66  1  0  0  0
 21 67  1  0  0  0
 22 68  1  0  0  0
 23 69  1  0  0  0
 24 70  1  0  0  0
 26 71  1  0  0  0
 27 72  1  0  0  0
 27 73  1  0  0  0
 28 74  1  0  0  0
 28 75  1  0  0  0
 29 76  1  0  0  0
 30 77  1  0  0  0
 31 78  1  0  0  0
 33 79  1  0  0  0
 33 80  1  0  0  0
 36 81  1  0  0  0
 37 82  1  0  0  0
 37 83  1  0  0  0
 40 84  1  0  0  0
 41 85  1  0  0  0
 42 86  1  0  0  0
 44 87  1  0  0  0
 44 88  1  0  0  0
 44 89  1  0  0  0
 45 90  1  0  0  0
 45 91  1  0  0  0
 45 92  1  0  0  0
 46 93  1  0  0  0
 46 94  1  0  0  0
M  END
$$$$
