6eq8_ligand
  -I-interpret- 

 45 46  0  0  0  0  0  0  0  0999 V2000
  139.5810    7.7310   77.7300 C   0  0  0  0  0
  139.2540    7.6420   76.2390 C   0  0  0  0  0
  140.3390    8.2210   75.3420 C   0  0  0  0  0
  134.8190    6.8420   72.8650 C   0  0  0  0  0
  136.2060    5.9420   74.8610 C   0  0  0  0  0
  135.3050    4.6610   74.8510 C   0  0  0  0  0
  134.7580    4.3810   73.4400 C   0  0  0  0  0
  133.9330    5.5720   72.9050 C   0  0  0  0  0
  135.4150    7.1630   74.2900 C   0  0  0  0  0
  138.3820    7.2120   78.5110 C   0  0  0  0  0
  137.8410    5.6360   76.5810 C   0  0  0  0  0
  138.0610    5.7440   78.0980 C   0  0  0  0  0
  136.5880    6.2280   76.2160 O   0  0  0  0  0
  136.9640    5.2310   78.8100 O   0  0  0  0  0
  138.7570    7.2460   79.8650 O   0  0  0  0  0
  140.6950    6.8880   78.0440 O   0  0  0  0  0
  138.9540    6.2670   75.8680 O   0  0  0  0  0
  139.9490    7.9480   73.9930 O   0  0  0  0  0
  134.2230    4.7850   75.8060 O   0  0  0  0  0
  133.9780    3.2070   73.4940 O   0  0  0  0  0
  133.4990    5.2640   71.5920 O   0  0  0  0  0
  134.0360    7.9320   72.3710 O   0  0  0  0  0
  136.2370    8.3170   74.2890 O   0  0  0  0  0
  139.8150    8.7648   77.9840 H   0  0  0  0  0
  138.3718    8.2618   76.0787 H   0  0  0  0  0
  141.3066    7.7712   75.5643 H   0  0  0  0  0
  140.4455    9.2934   75.5052 H   0  0  0  0  0
  135.6655    6.6756   72.1988 H   0  0  0  0  0
  137.0870    5.7665   74.2436 H   0  0  0  0  0
  135.9240    3.8137   75.1459 H   0  0  0  0  0
  135.5893    4.2438   72.7485 H   0  0  0  0  0
  133.0763    5.7527   73.5543 H   0  0  0  0  0
  134.5627    7.3678   74.9379 H   0  0  0  0  0
  137.4949    7.8150   78.3173 H   0  0  0  0  0
  137.8080    4.5838   76.2982 H   0  0  0  0  0
  138.9261    5.1338   78.3575 H   0  0  0  0  0
  136.7963    4.3281   78.5302 H   0  0  0  0  0
  138.9545    8.1506   80.1185 H   0  0  0  0  0
  141.4695    7.1913   77.5646 H   0  0  0  0  0
  140.6107    8.2990   73.3925 H   0  0  0  0  0
  134.5855    4.9591   76.6777 H   0  0  0  0  0
  134.5131    2.4838   73.8290 H   0  0  0  0  0
  132.9840    5.9967   71.2463 H   0  0  0  0  0
  134.5760    8.7252   72.3420 H   0  0  0  0  0
  135.7423    9.0606   73.9368 H   0  0  0  0  0
  1  2  1  0  0  0
 10  1  1  0  0  0
  1 16  1  0  0  0
  2  3  1  0  0  0
  2 17  1  0  0  0
  3 18  1  0  0  0
  4  8  1  0  0  0
  9  4  1  0  0  0
  4 22  1  0  0  0
  5  6  1  0  0  0
  5  9  1  0  0  0
 13  5  1  0  0  0
  6  7  1  0  0  0
  6 19  1  0  0  0
  7  8  1  0  0  0
  7 20  1  0  0  0
  8 21  1  0  0  0
  9 23  1  0  0  0
 12 10  1  0  0  0
 10 15  1  0  0  0
 11 12  1  0  0  0
 11 13  1  0  0  0
 11 17  1  0  0  0
 12 14  1  0  0  0
  1 24  1  0  0  0
  2 25  1  0  0  0
  3 26  1  0  0  0
  3 27  1  0  0  0
  4 28  1  0  0  0
  5 29  1  0  0  0
  6 30  1  0  0  0
  7 31  1  0  0  0
  8 32  1  0  0  0
  9 33  1  0  0  0
 10 34  1  0  0  0
 11 35  1  0  0  0
 12 36  1  0  0  0
 14 37  1  0  0  0
 15 38  1  0  0  0
 16 39  1  0  0  0
 18 40  1  0  0  0
 19 41  1  0  0  0
 20 42  1  0  0  0
 21 43  1  0  0  0
 22 44  1  0  0  0
 23 45  1  0  0  0
M  END
$$$$
