### 
### Created by X-TOOL on Mon Aug  2 16:11:38 2021
### 

@<TRIPOS>MOLECULE
6nnr_ligand
   33    34     1     0     0
SMALL
GAST_HUCK


@<TRIPOS>ATOM
      1 P         -13.0900   24.6550    8.6170 P.3       1 UMC         0.2008
      2 N1         -8.6490   24.8670   13.2760 N.am      1 UMC        -0.2258
      3 C2         -8.1670   25.5130   14.3620 C.2       1 UMC         0.2923
      4 O2         -8.8720   25.7260   15.3630 O.2       1 UMC        -0.3913
      5 N3         -6.8600   25.9270   14.3490 N.am      1 UMC        -0.1851
      6 C4         -5.9510   25.5680   13.4160 C.2       1 UMC         0.2063
      7 O4         -4.7760   25.9480   13.5070 O.2       1 UMC        -0.3868
      8 C5         -6.4080   24.6860   12.2860 C.3       1 UMC         0.0625
      9 C6         -7.9240   24.8010   12.0100 C.3       1 UMC         0.0544
     10 C1'       -10.0080   24.2480   13.3480 C.3       1 UMC         0.1494
     11 O1P       -14.3630   23.9510    8.1660 O.co2     1 UMC        -0.5537
     12 C2'       -11.1930   25.2010   13.0790 C.3       1 UMC         0.0236
     13 O2P       -12.0990   24.9370    7.5100 O.co2     1 UMC        -0.5537
     14 C3'       -12.2330   24.2040   12.5550 C.3       1 UMC         0.0882
     15 O3'       -12.8160   23.4540   13.6240 O.3       1 UMC        -0.3890
     16 O3P       -13.3850   25.8710    9.4670 O.co2     1 UMC        -0.5537
     17 C4'       -11.3770   23.2690   11.7100 C.3       1 UMC         0.1149
     18 O4'       -10.0850   23.2380   12.3560 O.3       1 UMC        -0.3460
     19 C5'       -11.2090   23.7440   10.2910 C.3       1 UMC         0.1070
     20 O5'       -12.4390   23.5310    9.5880 O.3       1 UMC        -0.2734
     21 H1         -6.5583   26.5374   15.0814 H         1 UMC         0.2254
     22 H2         -6.1756   23.6412   12.5399 H         1 UMC         0.0527
     23 H3         -5.8625   24.9720   11.3746 H         1 UMC         0.0527
     24 H4         -8.1218   25.7126   11.4270 H         1 UMC         0.0546
     25 H5         -8.2602   23.9216   11.4410 H         1 UMC         0.0546
     26 H6        -10.1323   23.8072   14.3481 H         1 UMC         0.0868
     27 H7        -10.9412   25.9606   12.3243 H         1 UMC         0.0337
     28 H8        -11.5331   25.6975   13.9998 H         1 UMC         0.0337
     29 H9        -13.0152   24.7026   11.9639 H         1 UMC         0.0621
     30 H10       -13.4549   22.8459   13.2711 H         1 UMC         0.2099
     31 H11       -11.8258   22.2648   11.6996 H         1 UMC         0.0649
     32 H12       -10.4013   23.1779    9.8041 H         1 UMC         0.0639
     33 H13       -10.9604   24.8155   10.2860 H         1 UMC         0.0639
@<TRIPOS>BOND
     1    1   11 ar 
     2    1   13 ar 
     3    1   16 ar 
     4   20    1 1  
     5    2    3 am 
     6    2    9 1  
     7   10    2 1  
     8    3    4 2  
     9    3    5 am 
    10    5    6 am 
    11    6    7 2  
    12    8    6 1  
    13    9    8 1  
    14   10   12 1  
    15   18   10 1  
    16   14   12 1  
    17   14   15 1  
    18   17   14 1  
    19   17   18 1  
    20   19   17 1  
    21   19   20 1  
    22    5   21 1  
    23    8   22 1  
    24    8   23 1  
    25    9   24 1  
    26    9   25 1  
    27   10   26 1  
    28   12   27 1  
    29   12   28 1  
    30   14   29 1  
    31   15   30 1  
    32   17   31 1  
    33   19   32 1  
    34   19   33 1  
@<TRIPOS>SUBSTRUCTURE
     1 UMC         1

