6nnr_ligand
  -I-interpret- 

 35 36  0  0  0  0  0  0  0  0999 V2000
  -13.0900   24.6550    8.6170 P   0  0  0  0  0
   -8.6490   24.8670   13.2760 N   0  0  0  0  0
   -8.1670   25.5130   14.3620 C   0  0  0  0  0
   -8.8720   25.7260   15.3630 O   0  0  0  0  0
   -6.8600   25.9270   14.3490 N   0  0  0  0  0
   -5.9510   25.5680   13.4160 C   0  0  0  0  0
   -4.7760   25.9480   13.5070 O   0  0  0  0  0
   -6.4080   24.6860   12.2860 C   0  0  0  0  0
   -7.9240   24.8010   12.0100 C   0  0  0  0  0
  -10.0080   24.2480   13.3480 C   0  0  0  0  0
  -14.3630   23.9510    8.1660 O   0  0  0  0  0
  -11.1930   25.2010   13.0790 C   0  0  0  0  0
  -12.0990   24.9370    7.5100 O   0  0  0  0  0
  -12.2330   24.2040   12.5550 C   0  0  0  0  0
  -12.8160   23.4540   13.6240 O   0  0  0  0  0
  -13.3850   25.8710    9.4670 O   0  0  0  0  0
  -11.3770   23.2690   11.7100 C   0  0  0  0  0
  -10.0850   23.2380   12.3560 O   0  0  0  0  0
  -11.2090   23.7440   10.2910 C   0  0  0  0  0
  -12.4390   23.5310    9.5880 O   0  0  0  0  0
   -6.5523   26.5496   15.0960 H   0  0  0  0  0
   -6.1971   23.6531   12.5632 H   0  0  0  0  0
   -5.8805   24.9988   11.3849 H   0  0  0  0  0
   -8.1195   25.7050   11.4332 H   0  0  0  0  0
   -8.2568   23.9289   11.4472 H   0  0  0  0  0
  -10.1052   23.8933   14.3741 H   0  0  0  0  0
  -14.9350   23.8099    8.9240 H   0  0  0  0  0
  -10.9657   26.0143   12.3898 H   0  0  0  0  0
  -11.5172   25.7692   13.9509 H   0  0  0  0  0
  -13.0556   24.6860   12.0267 H   0  0  0  0  0
  -13.4616   22.8395   13.2674 H   0  0  0  0  0
  -14.0167   25.6365   10.1507 H   0  0  0  0  0
  -11.8550   22.2915   11.6460 H   0  0  0  0  0
  -10.4047   23.1897    9.8073 H   0  0  0  0  0
  -10.9559   24.8042   10.2824 H   0  0  0  0  0
  1 11  1  0  0  0
  1 13  2  0  0  0
  1 16  1  0  0  0
 20  1  1  0  0  0
  2  3  1  0  0  0
  2  9  1  0  0  0
 10  2  1  0  0  0
  3  4  2  0  0  0
  3  5  1  0  0  0
  5  6  1  0  0  0
  6  7  2  0  0  0
  8  6  1  0  0  0
  9  8  1  0  0  0
 10 12  1  0  0  0
 18 10  1  0  0  0
 14 12  1  0  0  0
 14 15  1  0  0  0
 17 14  1  0  0  0
 17 18  1  0  0  0
 19 17  1  0  0  0
 19 20  1  0  0  0
  5 21  1  0  0  0
  8 22  1  0  0  0
  8 23  1  0  0  0
  9 24  1  0  0  0
  9 25  1  0  0  0
 10 26  1  0  0  0
 11 27  1  0  0  0
 12 28  1  0  0  0
 12 29  1  0  0  0
 14 30  1  0  0  0
 15 31  1  0  0  0
 16 32  1  0  0  0
 17 33  1  0  0  0
 19 34  1  0  0  0
 19 35  1  0  0  0
M  END
$$$$
