4hmk_ligand
  -I-interpret- 

 23 22  0  0  0  0  0  0  0  0999 V2000
  -17.8630   12.9670   -5.7630 N   0  3  0  0  0
  -17.7760   13.5810   -7.0880 C   0  0  0  0  0
  -17.0450   14.9180   -7.0700 C   0  0  0  0  0
  -16.7280   15.5480   -8.0910 O   0  0  0  0  0
  -19.1650   13.9140   -7.5990 C   0  0  0  0  0
  -20.0500   12.7350   -7.8860 C   0  0  0  0  0
  -21.2400   13.2130   -8.6330 C   0  0  0  0  0
  -19.2800   11.7100   -8.6860 C   0  0  0  0  0
  -16.8680   15.5040   -6.0400 O   0  0  0  0  0
  -16.9246   12.7473   -5.4291 H   0  0  0  0  0
  -18.3115   13.6168   -5.1173 H   0  0  0  0  0
  -18.4134   12.1103   -5.8221 H   0  0  0  0  0
  -17.2468   12.8576   -7.7083 H   0  0  0  0  0
  -16.9015   15.0081   -8.8656 H   0  0  0  0  0
  -19.0297   14.4374   -8.5455 H   0  0  0  0  0
  -19.6561   14.4855   -6.8114 H   0  0  0  0  0
  -20.3769   12.2630   -6.9595 H   0  0  0  0  0
  -20.9201   13.6698   -9.5695 H   0  0  0  0  0
  -21.8975   12.3697   -8.8445 H   0  0  0  0  0
  -21.7733   13.9493   -8.0316 H   0  0  0  0  0
  -19.9248   10.8571   -8.8978 H   0  0  0  0  0
  -18.9475   12.1572   -9.6228 H   0  0  0  0  0
  -18.4142   11.3790   -8.1125 H   0  0  0  0  0
  1  2  1  0  0  0
  2  3  1  0  0  0
  2  5  1  0  0  0
  3  4  1  0  0  0
  3  9  2  0  0  0
  5  6  1  0  0  0
  6  7  1  0  0  0
  6  8  1  0  0  0
  1 10  1  0  0  0
  1 11  1  0  0  0
  1 12  1  0  0  0
  2 13  1  0  0  0
  4 14  1  0  0  0
  5 15  1  0  0  0
  5 16  1  0  0  0
  6 17  1  0  0  0
  7 18  1  0  0  0
  7 19  1  0  0  0
  7 20  1  0  0  0
  8 21  1  0  0  0
  8 22  1  0  0  0
  8 23  1  0  0  0
M  END
$$$$
