2v5x_ligand
  -I-interpret- 

 85 89  0  0  0  0  0  0  0  0999 V2000
   12.8710   10.8500   52.5410 C   0  0  0  0  0
   13.3400   11.1680   51.0980 C   0  0  0  0  0
   13.7750   12.3620   50.6780 N   0  0  0  0  0
   14.1020   12.2680   49.3900 C   0  0  0  0  0
   14.6020   13.2090   48.4780 C   0  0  0  0  0
   14.8600   12.8110   47.1600 C   0  0  0  0  0
   14.6240   11.4860   46.7570 C   0  0  0  0  0
   14.8820   11.0600   45.4830 O   0  0  0  0  0
   14.0240   11.6760   44.5110 C   0  0  0  0  0
   14.1310   10.5550   47.6720 C   0  0  0  0  0
   13.8690   10.9480   48.9830 C   0  0  0  0  0
   13.3930   10.2400   50.0720 C   0  0  0  0  0
   13.0080    8.7490   50.1170 C   0  0  0  0  0
   14.2620    7.8750   49.9790 C   0  0  0  0  0
   14.6390    7.4580   48.8820 O   0  0  0  0  0
   14.8500    7.6470   51.1510 N   0  0  0  0  0
   16.0760    6.8570   51.4960 C   0  0  0  0  0
   17.3990    7.5650   51.1300 C   0  0  0  0  0
   18.6020    6.6210   51.3370 C   0  0  0  0  0
   19.7730    7.2020   52.1240 C   0  0  0  0  0
   21.0910    6.4620   51.8400 C   0  0  0  0  0
   22.2620    7.0480   52.6290 C   0  0  0  0  0
   23.6310    6.8460   51.9410 C   0  0  0  0  0
   24.1670    5.7340   51.8260 O   0  0  0  0  0
   24.1910    7.9640   51.5220 N   0  0  0  0  0
   25.4090    7.9740   50.9050 O   0  0  0  0  0
   16.1010    5.3230   51.1720 C   0  0  0  0  0
   16.6290    4.8140   50.1810 O   0  0  0  0  0
   15.5710    4.5850   52.1180 N   0  0  0  0  0
   15.5330    3.1120   52.0510 C   0  0  0  0  0
   15.0790    2.4370   50.7300 C   0  0  0  0  0
   15.1580    0.9330   51.0480 C   0  0  0  0  0
   14.5320    0.4030   52.1720 C   0  0  0  0  0
   13.7410    1.0020   53.1640 C   0  0  0  0  0
   13.2170    0.2430   54.1990 C   0  0  0  0  0
   13.5100   -1.1140   54.2040 C   0  0  0  0  0
   14.2970   -1.7110   53.2160 C   0  0  0  0  0
   14.8160   -0.9550   52.1810 C   0  0  0  0  0
   15.5920   -1.2490   51.1220 N   0  0  0  0  0
   15.8540   -0.1240   50.4250 C   0  0  0  0  0
   16.5460    0.0000   49.2030 C   0  0  0  0  0
   16.6150   -1.1090   48.3580 C   0  0  0  0  0
   17.2180   -1.0330   47.1050 C   0  0  0  0  0
   17.7480    0.1730   46.6570 C   0  0  0  0  0
   17.6610    1.2980   47.4770 C   0  0  0  0  0
   17.0480    1.2130   48.7320 C   0  0  0  0  0
   13.6891   11.0361   53.2369 H   0  0  0  0  0
   12.0240   11.4873   52.7951 H   0  0  0  0  0
   12.5713    9.8038   52.6020 H   0  0  0  0  0
   14.7874   14.2366   48.7908 H   0  0  0  0  0
   15.2466   13.5343   46.4421 H   0  0  0  0  0
   12.9858   11.4365   44.7410 H   0  0  0  0  0
   14.1635   12.7567   44.5381 H   0  0  0  0  0
   14.2734   11.3009   43.5184 H   0  0  0  0  0
   13.9517    9.5253   47.3628 H   0  0  0  0  0
   12.3278    8.5306   49.2937 H   0  0  0  0  0
   12.5252    8.5332   51.0701 H   0  0  0  0  0
   14.3884    8.0835   51.9490 H   0  0  0  0  0
   15.9881    6.8454   52.5824 H   0  0  0  0  0
   17.5211    8.4359   51.7740 H   0  0  0  0  0
   17.3608    7.8605   50.0815 H   0  0  0  0  0
   18.9844    6.3867   50.3435 H   0  0  0  0  0
   18.2329    5.7734   51.9145 H   0  0  0  0  0
   19.5502    7.1007   53.1862 H   0  0  0  0  0
   19.8982    8.2428   51.8253 H   0  0  0  0  0
   21.3139    6.5607   50.7776 H   0  0  0  0  0
   20.9673    5.4210   52.1386 H   0  0  0  0  0
   22.2992    6.5348   53.5899 H   0  0  0  0  0
   22.0941    8.1215   52.7159 H   0  0  0  0  0
   23.7000    8.8469   51.6629 H   0  0  0  0  0
   25.6434    8.8765   50.6768 H   0  0  0  0  0
   15.1689    5.0484   52.9328 H   0  0  0  0  0
   14.7901    2.8141   52.7909 H   0  0  0  0  0
   16.5668    2.7956   52.1897 H   0  0  0  0  0
   15.7035    2.7176   49.8818 H   0  0  0  0  0
   14.0796    2.7471   50.4248 H   0  0  0  0  0
   13.5370    2.0719   53.1206 H   0  0  0  0  0
   12.6003    0.6932   54.9769 H   0  0  0  0  0
   13.1123   -1.7352   55.0065 H   0  0  0  0  0
   14.5034   -2.7803   53.2614 H   0  0  0  0  0
   16.1871   -2.0562   48.6865 H   0  0  0  0  0
   17.2749   -1.9200   46.4740 H   0  0  0  0  0
   18.2246    0.2377   45.6788 H   0  0  0  0  0
   18.0728    2.2487   47.1383 H   0  0  0  0  0
   16.9617    2.1068   49.3498 H   0  0  0  0  0
  1  2  1  0  0  0
  2  3  4  0  0  0
  2 12  4  0  0  0
  3  4  4  0  0  0
  4  5  4  0  0  0
  4 11  4  0  0  0
  5  6  4  0  0  0
  6  7  4  0  0  0
  7  8  1  0  0  0
  7 10  4  0  0  0
  8  9  1  0  0  0
 10 11  4  0  0  0
 11 12  4  0  0  0
 12 13  1  0  0  0
 13 14  1  0  0  0
 14 15  2  0  0  0
 14 16  1  0  0  0
 16 17  1  0  0  0
 17 18  1  0  0  0
 17 27  1  0  0  0
 18 19  1  0  0  0
 19 20  1  0  0  0
 20 21  1  0  0  0
 21 22  1  0  0  0
 22 23  1  0  0  0
 23 24  2  0  0  0
 23 25  1  0  0  0
 25 26  1  0  0  0
 27 28  2  0  0  0
 27 29  1  0  0  0
 29 30  1  0  0  0
 30 31  1  0  0  0
 31 32  1  0  0  0
 32 33  4  0  0  0
 32 40  4  0  0  0
 33 34  4  0  0  0
 33 38  4  0  0  0
 34 35  4  0  0  0
 35 36  4  0  0  0
 36 37  4  0  0  0
 37 38  4  0  0  0
 38 39  4  0  0  0
 39 40  4  0  0  0
 40 41  1  0  0  0
 41 42  4  0  0  0
 41 46  4  0  0  0
 42 43  4  0  0  0
 43 44  4  0  0  0
 44 45  4  0  0  0
 45 46  4  0  0  0
  1 47  1  0  0  0
  1 48  1  0  0  0
  1 49  1  0  0  0
  5 50  1  0  0  0
  6 51  1  0  0  0
  9 52  1  0  0  0
  9 53  1  0  0  0
  9 54  1  0  0  0
 10 55  1  0  0  0
 13 56  1  0  0  0
 13 57  1  0  0  0
 16 58  1  0  0  0
 17 59  1  0  0  0
 18 60  1  0  0  0
 18 61  1  0  0  0
 19 62  1  0  0  0
 19 63  1  0  0  0
 20 64  1  0  0  0
 20 65  1  0  0  0
 21 66  1  0  0  0
 21 67  1  0  0  0
 22 68  1  0  0  0
 22 69  1  0  0  0
 25 70  1  0  0  0
 26 71  1  0  0  0
 29 72  1  0  0  0
 30 73  1  0  0  0
 30 74  1  0  0  0
 31 75  1  0  0  0
 31 76  1  0  0  0
 34 77  1  0  0  0
 35 78  1  0  0  0
 36 79  1  0  0  0
 37 80  1  0  0  0
 42 81  1  0  0  0
 43 82  1  0  0  0
 44 83  1  0  0  0
 45 84  1  0  0  0
 46 85  1  0  0  0
M  END
$$$$
