4hxs_ligand
  -I-interpret- 

 37 39  0  0  0  0  0  0  0  0999 V2000
   -0.1570    7.1510    1.3790 C   0  0  0  0  0
    0.8590    6.2100    1.4720 C   0  0  0  0  0
    0.8890    5.3050    2.5210 C   0  0  0  0  0
   -0.1020    5.3470    3.4870 C   0  0  0  0  0
   -1.1140    6.2930    3.3970 C   0  0  0  0  0
   -1.1590    7.1910    2.3410 C   0  0  0  0  0
   -2.2500    8.2150    2.2520 C   0  0  0  0  0
   -3.8950    7.5530    2.1480 S   0  0  0  0  0
   -3.8600    6.1240    2.3200 O   0  0  0  0  0
   -4.6810    8.1660    3.2260 O   0  0  0  0  0
   -4.6050    7.9450    0.7230 N   0  0  0  0  0
   -5.9610    7.7110    0.2690 C   0  0  0  0  0
   -6.9070    6.8790    0.8890 C   0  0  0  0  0
   -6.3170    8.3700   -0.9000 C   0  0  0  0  0
   -7.5770    8.2360   -1.4600 C   0  0  0  0  0
   -8.5080    7.4200   -0.8420 C   0  0  0  0  0
   -8.1860    6.7490    0.3270 C   0  0  0  0  0
   -9.2650    5.8890    0.8950 C   0  0  0  0  0
   -9.1420    4.8800    1.9180 C   0  0  0  0  0
  -10.5610    4.2290    2.1560 S   0  0  0  0  0
  -11.4740    5.0140    1.0860 C   0  0  0  0  0
  -12.8030    4.8490    0.8610 O   0  0  0  0  0
  -10.6790    5.9570    0.3950 N   0  0  0  0  0
   -0.1690    7.8593    0.5506 H   0  0  0  0  0
    1.6406    6.1826    0.7128 H   0  0  0  0  0
    1.6871    4.5654    2.5852 H   0  0  0  0  0
   -0.0876    4.6393    4.3158 H   0  0  0  0  0
   -1.8843    6.3306    4.1673 H   0  0  0  0  0
   -2.0789    8.7779    1.3344 H   0  0  0  0  0
   -2.2050    8.8030    3.1687 H   0  0  0  0  0
   -4.0015    8.4258    0.0559 H   0  0  0  0  0
   -6.6498    6.3383    1.7998 H   0  0  0  0  0
   -5.5846    9.0108   -1.3909 H   0  0  0  0  0
   -7.8321    8.7673   -2.3769 H   0  0  0  0  0
   -9.5006    7.3043   -1.2772 H   0  0  0  0  0
   -8.2233    4.6116    2.4397 H   0  0  0  0  0
  -11.0151    6.5878   -0.3327 H   0  0  0  0  0
  1  2  4  0  0  0
  1  6  4  0  0  0
  2  3  4  0  0  0
  3  4  4  0  0  0
  4  5  4  0  0  0
  5  6  4  0  0  0
  6  7  1  0  0  0
  7  8  1  0  0  0
  8  9  2  0  0  0
  8 10  2  0  0  0
  8 11  1  0  0  0
 11 12  1  0  0  0
 12 13  4  0  0  0
 12 14  4  0  0  0
 13 17  4  0  0  0
 14 15  4  0  0  0
 15 16  4  0  0  0
 16 17  4  0  0  0
 17 18  1  0  0  0
 18 19  2  0  0  0
 18 23  1  0  0  0
 19 20  1  0  0  0
 20 21  1  0  0  0
 21 22  2  0  0  0
 21 23  1  0  0  0
  1 24  1  0  0  0
  2 25  1  0  0  0
  3 26  1  0  0  0
  4 27  1  0  0  0
  5 28  1  0  0  0
  7 29  1  0  0  0
  7 30  1  0  0  0
 11 31  1  0  0  0
 13 32  1  0  0  0
 14 33  1  0  0  0
 15 34  1  0  0  0
 16 35  1  0  0  0
 19 36  1  0  0  0
 23 37  1  0  0  0
M  END
$$$$
