1swi_ligand
  -I-interpret- 

 12 12  0  0  0  0  0  0  0  0999 V2000
  -10.2480   -9.5580   31.4800 C   0  0  0  0  0
  -10.0100   -8.6480   32.5110 C   0  0  0  0  0
   -8.7790   -7.9830   32.5400 C   0  0  0  0  0
   -7.8270   -8.1440   31.5320 C   0  0  0  0  0
   -8.1240   -8.9970   30.4700 C   0  0  0  0  0
   -9.3150   -9.7220   30.4580 C   0  0  0  0  0
  -11.1677  -10.1430   31.4741 H   0  0  0  0  0
  -10.7644   -8.4598   33.2749 H   0  0  0  0  0
   -8.5568   -7.3190   33.3753 H   0  0  0  0  0
   -6.8745   -7.6157   31.5741 H   0  0  0  0  0
   -7.4205   -9.0978   29.6436 H   0  0  0  0  0
   -9.5171  -10.4201   29.6456 H   0  0  0  0  0
  1  2  4  0  0  0
  1  6  4  0  0  0
  2  3  4  0  0  0
  3  4  4  0  0  0
  4  5  4  0  0  0
  5  6  4  0  0  0
  1  7  1  0  0  0
  2  8  1  0  0  0
  3  9  1  0  0  0
  4 10  1  0  0  0
  5 11  1  0  0  0
  6 12  1  0  0  0
M  END
$$$$
