4rrs_ligand
  -I-interpret- 

 47 51  0  0  0  0  0  0  0  0999 V2000
   27.5370   14.5940    9.1390 C   0  0  0  0  0
   26.8040   15.7900    9.3670 C   0  0  0  0  0
   25.4180   15.8210    9.0760 C   0  0  0  0  0
   24.7740   14.6590    8.5840 C   0  0  0  0  0
   25.5050   13.4550    8.3610 C   0  0  0  0  0
   26.8940   13.4330    8.6430 C   0  0  0  0  0
   27.4190   16.9770    9.8340 C   0  0  0  0  0
   24.8970   12.3040    7.8940 O   0  0  0  0  0
   23.4790   12.1470    8.0450 C   0  0  0  0  0
   22.8600   13.4740    7.5260 C   0  0  0  0  0
   23.2890   14.7530    8.2620 C   0  0  0  0  0
   23.0020   16.0270    7.4340 C   0  0  0  0  0
   22.0630   16.7940    8.2060 O   0  0  0  0  0
   21.8640   16.1540    9.3910 C   0  0  0  0  0
   22.4670   14.9680    9.4340 N   0  0  0  0  0
   21.0790   16.7670   10.2980 N   0  0  0  0  0
   21.4480   13.4160    7.2950 O   0  0  0  0  0
   21.0720   12.3960    6.3640 C   0  0  0  0  0
   21.5090   11.0070    6.8940 C   0  0  0  0  0
   23.0330   10.9570    7.1650 C   0  0  0  0  0
   23.1140   11.8510    9.5280 C   0  0  0  0  0
   27.0070   17.6420   11.0170 C   0  0  0  0  0
   27.5540   18.8010   11.4490 N   0  0  0  0  0
   28.5570   19.3570   10.7440 C   0  0  0  0  0
   29.0370   18.7720    9.5470 C   0  0  0  0  0
   28.4600   17.5690    9.0710 C   0  0  0  0  0
   26.0120   17.1390   11.7670 F   0  0  0  0  0
   28.6065   14.5696    9.3482 H   0  0  0  0  0
   24.8480   16.7372    9.2303 H   0  0  0  0  0
   27.4683   12.5214    8.4780 H   0  0  0  0  0
   23.3246   13.5680    6.5445 H   0  0  0  0  0
   22.5984   15.7788    6.4524 H   0  0  0  0  0
   23.9153   16.5916    7.2465 H   0  0  0  0  0
   22.3632   14.2969   10.1951 H   0  0  0  0  0
   20.6623   17.6727   10.0826 H   0  0  0  0  0
   21.5609   12.5851    5.4083 H   0  0  0  0  0
   19.9894   12.4072    6.2379 H   0  0  0  0  0
   21.2676   10.2580    6.1398 H   0  0  0  0  0
   20.9852   10.8142    7.8303 H   0  0  0  0  0
   23.2647   10.0293    7.6882 H   0  0  0  0  0
   23.5594   11.0104    6.2120 H   0  0  0  0  0
   23.6068   10.9321    9.8457 H   0  0  0  0  0
   23.4464   12.6785   10.1548 H   0  0  0  0  0
   22.0339   11.7357    9.6190 H   0  0  0  0  0
   29.0110   20.2805   11.1034 H   0  0  0  0  0
   29.8478   19.2459    8.9937 H   0  0  0  0  0
   28.8056   17.1104    8.1445 H   0  0  0  0  0
  1  2  4  0  0  0
  1  6  4  0  0  0
  2  3  4  0  0  0
  2  7  1  0  0  0
  3  4  4  0  0  0
  4  5  4  0  0  0
  4 11  1  0  0  0
  5  6  4  0  0  0
  5  8  1  0  0  0
  7 22  4  0  0  0
  7 26  4  0  0  0
  8  9  1  0  0  0
  9 10  1  0  0  0
  9 20  1  0  0  0
  9 21  1  0  0  0
 10 11  1  0  0  0
 10 17  1  0  0  0
 11 12  1  0  0  0
 11 15  1  0  0  0
 12 13  1  0  0  0
 13 14  1  0  0  0
 14 15  1  0  0  0
 14 16  2  0  0  0
 17 18  1  0  0  0
 18 19  1  0  0  0
 19 20  1  0  0  0
 22 23  4  0  0  0
 22 27  1  0  0  0
 23 24  4  0  0  0
 24 25  4  0  0  0
 25 26  4  0  0  0
  1 28  1  0  0  0
  3 29  1  0  0  0
  6 30  1  0  0  0
 10 31  1  0  0  0
 12 32  1  0  0  0
 12 33  1  0  0  0
 15 34  1  0  0  0
 16 35  1  0  0  0
 18 36  1  0  0  0
 18 37  1  0  0  0
 19 38  1  0  0  0
 19 39  1  0  0  0
 20 40  1  0  0  0
 20 41  1  0  0  0
 21 42  1  0  0  0
 21 43  1  0  0  0
 21 44  1  0  0  0
 24 45  1  0  0  0
 25 46  1  0  0  0
 26 47  1  0  0  0
M  END
$$$$
