2ama_ligand
  -I-interpret- 

 51 54  0  0  0  0  0  0  0  0999 V2000
   27.3330    5.1460    4.3910 C   0  0  0  0  0
   26.4290    6.3160    4.8430 C   0  0  0  0  0
   24.9960    6.0700    4.2170 C   0  0  0  0  0
   24.6070    7.0270    3.5420 O   0  0  0  0  0
   24.4570    4.9470    4.4700 C   0  0  0  0  0
   25.2980    3.7110    3.9910 C   0  0  0  0  0
   24.6020    2.3300    4.2660 C   0  0  0  0  0
   25.4890    1.1780    3.7360 C   0  0  0  0  0
   26.9030    1.1550    4.4180 C   0  0  0  0  0
   27.5950    2.5460    4.1760 C   0  0  0  0  0
   26.7230    3.7620    4.7090 C   0  0  0  0  0
   29.0140    2.4940    4.8300 C   0  0  0  0  0
   29.9300    1.3520    4.3990 C   0  0  0  0  0
   29.2430   -0.0370    4.5080 C   0  0  0  0  0
   27.8190    0.0360    3.8480 C   0  0  0  0  0
   27.3370   -1.4250    3.9770 C   0  0  0  0  0
   28.6190   -2.2230    3.5900 C   0  0  0  0  0
   29.7780   -1.1910    3.6800 C   0  0  0  0  0
   30.9260   -1.8170    4.2640 O   0  0  0  0  0
   29.1640   -0.4420    6.0350 C   0  0  0  0  0
   26.5610    3.6230    6.2790 C   0  0  0  0  0
   28.2777    5.2265    4.9288 H   0  0  0  0  0
   27.4559    5.2168    3.3103 H   0  0  0  0  0
   26.8369    7.2686    4.5051 H   0  0  0  0  0
   26.3705    6.3576    5.9306 H   0  0  0  0  0
   23.5070    4.9174    3.9364 H   0  0  0  0  0
   24.3608    4.8718    5.5531 H   0  0  0  0  0
   25.3984    3.7808    2.9079 H   0  0  0  0  0
   23.6386    2.3053    3.7567 H   0  0  0  0  0
   24.4576    2.2078    5.3395 H   0  0  0  0  0
   25.6316    1.3252    2.6654 H   0  0  0  0  0
   24.9895    0.2354    3.9598 H   0  0  0  0  0
   26.7598    0.9555    5.4800 H   0  0  0  0  0
   27.6910    2.7257    3.1052 H   0  0  0  0  0
   28.8460    2.3556    5.8980 H   0  0  0  0  0
   29.5171    3.4118    4.5258 H   0  0  0  0  0
   30.7977    1.3502    5.0588 H   0  0  0  0  0
   30.1986    1.5128    3.3549 H   0  0  0  0  0
   27.8133    0.3621    2.8079 H   0  0  0  0  0
   26.4783   -1.6542    3.3460 H   0  0  0  0  0
   26.9590   -1.6694    4.9697 H   0  0  0  0  0
   28.5398   -2.6555    2.5926 H   0  0  0  0  0
   28.7819   -3.0722    4.2537 H   0  0  0  0  0
   30.1002   -0.8207    2.7068 H   0  0  0  0  0
   31.2189   -2.5360    3.6994 H   0  0  0  0  0
   30.1711   -0.4918    6.4489 H   0  0  0  0  0
   28.5832    0.3037    6.5778 H   0  0  0  0  0
   28.6835   -1.4160    6.1268 H   0  0  0  0  0
   26.0632    2.6811    6.5096 H   0  0  0  0  0
   27.5451    3.6396    6.7474 H   0  0  0  0  0
   25.9636    4.4530    6.6562 H   0  0  0  0  0
  1  2  1  0  0  0
  1 11  1  0  0  0
  2  3  1  0  0  0
  3  4  2  0  0  0
  3  5  1  0  0  0
  5  6  1  0  0  0
  6  7  1  0  0  0
  6 11  1  0  0  0
  7  8  1  0  0  0
  8  9  1  0  0  0
  9 10  1  0  0  0
  9 15  1  0  0  0
 10 11  1  0  0  0
 10 12  1  0  0  0
 11 21  1  0  0  0
 12 13  1  0  0  0
 13 14  1  0  0  0
 14 15  1  0  0  0
 14 18  1  0  0  0
 14 20  1  0  0  0
 15 16  1  0  0  0
 16 17  1  0  0  0
 17 18  1  0  0  0
 18 19  1  0  0  0
  1 22  1  0  0  0
  1 23  1  0  0  0
  2 24  1  0  0  0
  2 25  1  0  0  0
  5 26  1  0  0  0
  5 27  1  0  0  0
  6 28  1  0  0  0
  7 29  1  0  0  0
  7 30  1  0  0  0
  8 31  1  0  0  0
  8 32  1  0  0  0
  9 33  1  0  0  0
 10 34  1  0  0  0
 12 35  1  0  0  0
 12 36  1  0  0  0
 13 37  1  0  0  0
 13 38  1  0  0  0
 15 39  1  0  0  0
 16 40  1  0  0  0
 16 41  1  0  0  0
 17 42  1  0  0  0
 17 43  1  0  0  0
 18 44  1  0  0  0
 19 45  1  0  0  0
 20 46  1  0  0  0
 20 47  1  0  0  0
 20 48  1  0  0  0
 21 49  1  0  0  0
 21 50  1  0  0  0
 21 51  1  0  0  0
M  END
$$$$
