2vio_ligand
  -I-interpret- 

 25 25  0  0  0  0  0  0  0  0999 V2000
   32.9440    4.6260   26.4540 N   0  3  0  0  0
   32.2610    4.7900   27.7650 C   0  0  0  0  0
   31.7220    6.1920   27.9750 C   0  0  0  0  0
   30.5740    6.3930   27.1050 O   0  0  0  0  0
   29.6610    7.3400   27.4920 C   0  0  0  0  0
   29.6120    8.6200   26.9170 C   0  0  0  0  0
   30.6850    9.0490   25.6210 Cl  0  0  0  0  0
   28.6780    9.5430   27.3700 C   0  0  0  0  0
   27.8040    9.2200   28.4030 C   0  0  0  0  0
   27.8720    7.9570   28.9810 C   0  0  0  0  0
   28.7870    7.0180   28.5270 C   0  0  0  0  0
   28.8440    5.4450   29.2570 Cl  0  0  0  0  0
   26.8180   10.2330   28.9010 C   0  0  0  0  0
   26.3070   10.1600   30.0020 O   0  0  0  0  0
   26.5880   11.2220   28.0750 O   0  0  0  0  0
   33.2849    3.6686   26.3670 H   0  0  0  0  0
   32.2844    4.8230   25.7013 H   0  0  0  0  0
   33.7295    5.2743   26.3977 H   0  0  0  0  0
   32.9916    4.5921   28.5493 H   0  0  0  0  0
   31.4172    4.1005   27.7906 H   0  0  0  0  0
   32.4954    6.9226   27.7378 H   0  0  0  0  0
   31.4216    6.3184   29.0151 H   0  0  0  0  0
   28.6294   10.5306   26.9113 H   0  0  0  0  0
   27.1991    7.7019   29.7997 H   0  0  0  0  0
   27.0879   11.0854   27.2669 H   0  0  0  0  0
  1  2  1  0  0  0
  2  3  1  0  0  0
  3  4  1  0  0  0
  4  5  1  0  0  0
  5  6  4  0  0  0
  5 11  4  0  0  0
  6  7  1  0  0  0
  6  8  4  0  0  0
  8  9  4  0  0  0
  9 10  4  0  0  0
  9 13  1  0  0  0
 10 11  4  0  0  0
 11 12  1  0  0  0
 13 14  2  0  0  0
 13 15  1  0  0  0
  1 16  1  0  0  0
  1 17  1  0  0  0
  1 18  1  0  0  0
  2 19  1  0  0  0
  2 20  1  0  0  0
  3 21  1  0  0  0
  3 22  1  0  0  0
  8 23  1  0  0  0
 10 24  1  0  0  0
 15 25  1  0  0  0
M  END
$$$$
