2aa9_ligand
  -I-interpret- 

 22 22  0  0  0  0  0  0  0  0999 V2000
   56.6790    8.6380   30.4740 O   0  0  0  0  0
   56.6260    9.9260   29.8790 C   0  0  0  0  0
   57.9020   10.2560   29.1100 C   0  0  0  0  0
   59.0440   10.1580   29.9750 O   0  0  0  0  0
   57.7680   11.6890   28.5680 C   0  0  0  0  0
   56.5170   12.0620   27.9730 C   0  0  0  0  0
   56.3950   13.3500   27.1710 C   0  0  0  0  0
   55.4970   13.3990   26.2960 O   0  0  0  0  0
   57.1220   14.3070   27.4410 O   0  0  0  0  0
   55.3580   11.2710   28.1490 C   0  0  0  0  0
   55.4030    9.9800   28.9340 C   0  0  0  0  0
   55.4060    8.8830   28.0370 O   0  0  0  0  0
   57.4347    8.5902   31.0641 H   0  0  0  0  0
   56.5321   10.6709   30.6692 H   0  0  0  0  0
   58.0413    9.5518   28.2898 H   0  0  0  0  0
   59.1168    9.2600   30.3065 H   0  0  0  0  0
   58.5062   11.7695   27.7701 H   0  0  0  0  0
   57.8853   12.3407   29.4338 H   0  0  0  0  0
   55.0526   12.5495   26.2473 H   0  0  0  0  0
   54.4152   11.5982   27.7107 H   0  0  0  0  0
   54.5149    9.9276   29.5638 H   0  0  0  0  0
   55.4346    8.0633   28.5358 H   0  0  0  0  0
  1  2  1  0  0  0
  2  3  1  0  0  0
  2 11  1  0  0  0
  3  4  1  0  0  0
  3  5  1  0  0  0
  5  6  1  0  0  0
  6  7  1  0  0  0
  6 10  2  0  0  0
  7  8  1  0  0  0
  7  9  2  0  0  0
 10 11  1  0  0  0
 11 12  1  0  0  0
  1 13  1  0  0  0
  2 14  1  0  0  0
  3 15  1  0  0  0
  4 16  1  0  0  0
  5 17  1  0  0  0
  5 18  1  0  0  0
  8 19  1  0  0  0
 10 20  1  0  0  0
 11 21  1  0  0  0
 12 22  1  0  0  0
M  END
$$$$
