6g9h_ligand
  -I-interpret- 

 63 66  0  0  0  0  0  0  0  0999 V2000
   -0.9180    9.4780   46.8030 C   0  0  0  0  0
    1.3210    8.6320   47.3360 C   0  0  0  0  0
    1.6530    8.8570   45.8510 C   0  0  0  0  0
    3.8410   10.1270   45.4790 C   0  0  0  0  0
    5.2390    9.6280   45.2660 C   0  0  0  0  0
    7.6190    9.6270   44.9190 C   0  0  0  0  0
    7.6460    8.2340   44.8450 C   0  0  0  0  0
    6.4330    7.5480   44.9850 C   0  0  0  0  0
    5.2310    8.2470   45.1930 C   0  0  0  0  0
    3.8380    7.7670   45.4140 C   0  0  0  0  0
    8.9520    7.5440   44.6410 C   0  0  0  0  0
   12.8970   10.4160   42.1180 C   0  0  0  0  0
   12.6610   11.6790   41.3240 C   0  0  0  0  0
   10.8330   10.7800   40.1750 C   0  0  0  0  0
   10.9350    9.4570   40.8950 C   0  0  0  0  0
   10.5830    5.8320   44.9180 C   0  0  0  0  0
    9.3210    6.3250   45.2060 C   0  0  0  0  0
   -0.0240    6.7000   49.0790 C   0  0  0  0  0
    0.0150    8.8110   47.7150 N   0  0  0  0  0
    2.1990    8.3050   48.1260 O   0  0  0  0  0
    3.0800    8.8800   45.5960 N   0  0  0  0  0
    6.4340   10.3150   45.1080 C   0  0  0  0  0
    3.4190    6.6200   45.4450 O   0  0  0  0  0
    9.8080    8.2090   43.8710 N   0  0  0  0  0
   11.0120    7.6510   43.6490 C   0  0  0  0  0
   11.8680    8.3440   42.8770 N   0  0  0  0  0
   11.6020    9.6380   42.2580 C   0  0  0  0  0
   12.1260   11.3920   40.0330 O   0  0  0  0  0
   11.4480    6.4760   44.1300 N   0  0  0  0  0
    8.2800    5.4130   46.2450 Cl  0  0  0  0  0
   -0.5060    8.1470   48.9710 C   0  0  0  0  0
   -0.0210    8.9240   50.1900 C   0  0  0  0  0
   -2.0370    8.1090   49.0290 C   0  0  0  0  0
   -1.6475    8.7547   46.4386 H   0  0  0  0  0
   -1.4326   10.2791   47.3336 H   0  0  0  0  0
   -0.3655    9.8946   45.9608 H   0  0  0  0  0
    1.2444    9.8244   45.5588 H   0  0  0  0  0
    1.2240    8.0318   45.2826 H   0  0  0  0  0
    3.4879   10.7715   44.6740 H   0  0  0  0  0
    3.7439   10.7727   46.3518 H   0  0  0  0  0
    8.5509   10.1846   44.8260 H   0  0  0  0  0
    6.4207    6.4594   44.9321 H   0  0  0  0  0
   13.2643   10.6804   43.1096 H   0  0  0  0  0
   13.6304    9.7991   41.5988 H   0  0  0  0  0
   13.6151   12.1904   41.1967 H   0  0  0  0  0
   11.9453   12.2983   41.8647 H   0  0  0  0  0
   10.1938   11.4451   40.7557 H   0  0  0  0  0
   10.4181   10.6061   39.1822 H   0  0  0  0  0
   11.5358    8.7733   40.2952 H   0  0  0  0  0
    9.9321    9.0563   41.0425 H   0  0  0  0  0
   10.8828    4.8784   45.3527 H   0  0  0  0  0
   -0.3778    6.1352   48.2165 H   0  0  0  0  0
    1.0656    6.6823   49.1044 H   0  0  0  0  0
   -0.4173    6.2546   49.9928 H   0  0  0  0  0
    6.4391   11.4047   45.1330 H   0  0  0  0  0
   12.7842    7.9281   42.7095 H   0  0  0  0  0
   10.9191   10.1992   42.8958 H   0  0  0  0  0
   -0.4245    8.4680   51.0941 H   0  0  0  0  0
    1.0682    8.9003   50.2246 H   0  0  0  0  0
   -0.3612    9.9572   50.1197 H   0  0  0  0  0
   -2.4160    7.5113   48.2000 H   0  0  0  0  0
   -2.3526    7.6648   49.9730 H   0  0  0  0  0
   -2.4274    9.1240   48.9551 H   0  0  0  0  0
 19  1  1  0  0  0
  3  2  1  0  0  0
  2 19  1  0  0  0
  2 20  2  0  0  0
 21  3  1  0  0  0
  5  4  1  0  0  0
 21  4  1  0  0  0
  9  5  4  0  0  0
 22  5  4  0  0  0
  7  6  4  0  0  0
  6 22  4  0  0  0
  7  8  4  0  0  0
 11  7  1  0  0  0
  8  9  4  0  0  0
  9 10  1  0  0  0
 10 21  1  0  0  0
 10 23  2  0  0  0
 11 17  4  0  0  0
 24 11  4  0  0  0
 12 13  1  0  0  0
 27 12  1  0  0  0
 13 28  1  0  0  0
 15 14  1  0  0  0
 14 28  1  0  0  0
 27 15  1  0  0  0
 16 17  4  0  0  0
 29 16  4  0  0  0
 17 30  1  0  0  0
 31 18  1  0  0  0
 19 31  1  0  0  0
 25 24  4  0  0  0
 26 25  1  0  0  0
 25 29  4  0  0  0
 26 27  1  0  0  0
 31 32  1  0  0  0
 31 33  1  0  0  0
  1 34  1  0  0  0
  1 35  1  0  0  0
  1 36  1  0  0  0
  3 37  1  0  0  0
  3 38  1  0  0  0
  4 39  1  0  0  0
  4 40  1  0  0  0
  6 41  1  0  0  0
  8 42  1  0  0  0
 12 43  1  0  0  0
 12 44  1  0  0  0
 13 45  1  0  0  0
 13 46  1  0  0  0
 14 47  1  0  0  0
 14 48  1  0  0  0
 15 49  1  0  0  0
 15 50  1  0  0  0
 16 51  1  0  0  0
 18 52  1  0  0  0
 18 53  1  0  0  0
 18 54  1  0  0  0
 22 55  1  0  0  0
 26 56  1  0  0  0
 27 57  1  0  0  0
 32 58  1  0  0  0
 32 59  1  0  0  0
 32 60  1  0  0  0
 33 61  1  0  0  0
 33 62  1  0  0  0
 33 63  1  0  0  0
M  END
$$$$
