3k16_ligand
  -I-interpret- 

 68 69  0  0  0  0  0  0  0  0999 V2000
  -27.9030   55.1100    6.3210 N   0  3  0  0  0
  -26.6170   54.6230    5.7630 C   0  0  0  0  0
  -26.8870   53.5930    4.6810 C   0  0  0  0  0
  -26.5500   52.3000    5.1250 O   0  0  0  0  0
  -25.9750   55.8340    5.1330 C   0  0  0  0  0
  -26.6730   56.7240    4.6540 O   0  0  0  0  0
  -27.5980   51.3220    4.4150 P   0  0  0  0  0
  -27.0450   50.6750    3.0530 O   0  0  0  0  0
  -28.8270   52.3370    4.1470 O   0  0  0  0  0
  -27.9470   50.0550    5.3320 O   0  0  0  0  0
  -24.6430   55.8710    5.0860 N   0  0  0  0  0
  -24.1050   57.0410    4.4130 C   0  0  0  0  0
  -24.2000   56.8260    2.9130 C   0  0  0  0  0
  -24.4430   55.7020    2.4720 O   0  0  0  0  0
  -22.6460   57.0550    4.8610 C   0  0  0  0  0
  -22.6510   56.3120    6.1610 C   0  0  0  0  0
  -23.6450   55.2140    5.9400 C   0  0  0  0  0
  -24.0400   57.8890    2.1320 N   0  0  0  0  0
  -24.0140   57.7370    0.6810 C   0  0  0  0  0
  -22.7990   58.3920    0.0280 C   0  0  0  0  0
  -22.1070   59.2110    0.6430 O   0  0  0  0  0
  -25.2870   58.2870    0.0490 C   0  0  0  0  0
  -25.7580   59.3840    0.8380 O   0  0  0  0  0
  -26.3610   57.2040   -0.0210 C   0  0  0  0  0
  -22.5490   58.0280   -1.2280 N   0  0  0  0  0
  -21.3160   58.4270   -1.9110 C   0  0  0  0  0
  -21.5170   58.8150   -3.3780 C   0  0  0  0  0
  -20.8470   59.7240   -3.8770 O   0  0  0  0  0
  -20.2690   57.3180   -1.8020 C   0  0  0  0  0
  -19.8890   56.9930   -0.3920 C   0  0  0  0  0
  -20.1910   55.7580    0.1490 C   0  0  0  0  0
  -19.3160   57.9530    0.4140 C   0  0  0  0  0
  -19.9020   55.4820    1.4540 C   0  0  0  0  0
  -18.9950   57.6680    1.7140 C   0  0  0  0  0
  -19.3030   56.4350    2.2440 C   0  0  0  0  0
  -22.2880   58.1880   -4.1160 O   0  0  0  0  0
  -28.3942   54.3349    6.7664 H   0  0  0  0  0
  -27.7188   55.8386    7.0106 H   0  0  0  0  0
  -28.4768   55.4900    5.5681 H   0  0  0  0  0
  -25.9898   54.1645    6.5275 H   0  0  0  0  0
  -26.2804   53.8336    3.8079 H   0  0  0  0  0
  -27.9483   53.6137    4.4335 H   0  0  0  0  0
  -26.8097   51.3752    2.4399 H   0  0  0  0  0
  -28.5275   53.0609    3.5921 H   0  0  0  0  0
  -24.6241   57.9716    4.6425 H   0  0  0  0  0
  -22.2597   58.0685    4.9691 H   0  0  0  0  0
  -21.9868   56.5924    4.1265 H   0  0  0  0  0
  -22.9178   56.9504    7.0032 H   0  0  0  0  0
  -21.6644   55.9319    6.4260 H   0  0  0  0  0
  -23.2098   54.3230    5.4874 H   0  0  0  0  0
  -24.0631   54.8181    6.8655 H   0  0  0  0  0
  -23.9350   58.8143    2.5481 H   0  0  0  0  0
  -23.9451   56.6646    0.4986 H   0  0  0  0  0
  -25.0696   58.6217   -0.9653 H   0  0  0  0  0
  -26.5605   59.7369    0.4467 H   0  0  0  0  0
  -25.9971   56.3717   -0.6234 H   0  0  0  0  0
  -26.5879   56.8535    0.9859 H   0  0  0  0  0
  -27.2620   57.6164   -0.4752 H   0  0  0  0  0
  -23.2322   57.4578   -1.7265 H   0  0  0  0  0
  -20.9678   59.3261   -1.4026 H   0  0  0  0  0
  -19.3702   57.6646   -2.3121 H   0  0  0  0  0
  -20.6983   56.4177   -2.2415 H   0  0  0  0  0
  -20.6643   54.9974   -0.4720 H   0  0  0  0  0
  -19.1169   58.9469    0.0133 H   0  0  0  0  0
  -20.1463   54.5048    1.8706 H   0  0  0  0  0
  -18.4959   58.4167    2.3292 H   0  0  0  0  0
  -19.0727   56.2150    3.2864 H   0  0  0  0  0
  -22.7430   57.5154   -3.6040 H   0  0  0  0  0
  1  2  1  0  0  0
  2  3  1  0  0  0
  2  5  1  0  0  0
  3  4  1  0  0  0
  4  7  1  0  0  0
  5  6  2  0  0  0
  5 11  1  0  0  0
  7  8  1  0  0  0
  7  9  1  0  0  0
  7 10  2  0  0  0
 11 12  1  0  0  0
 11 17  1  0  0  0
 12 13  1  0  0  0
 12 15  1  0  0  0
 13 14  2  0  0  0
 13 18  1  0  0  0
 15 16  1  0  0  0
 16 17  1  0  0  0
 18 19  1  0  0  0
 19 20  1  0  0  0
 19 22  1  0  0  0
 20 21  2  0  0  0
 20 25  1  0  0  0
 22 23  1  0  0  0
 22 24  1  0  0  0
 25 26  1  0  0  0
 26 27  1  0  0  0
 26 29  1  0  0  0
 27 28  2  0  0  0
 27 36  1  0  0  0
 29 30  1  0  0  0
 30 31  4  0  0  0
 30 32  4  0  0  0
 31 33  4  0  0  0
 32 34  4  0  0  0
 33 35  4  0  0  0
 34 35  4  0  0  0
  1 37  1  0  0  0
  1 38  1  0  0  0
  1 39  1  0  0  0
  2 40  1  0  0  0
  3 41  1  0  0  0
  3 42  1  0  0  0
  8 43  1  0  0  0
  9 44  1  0  0  0
 12 45  1  0  0  0
 15 46  1  0  0  0
 15 47  1  0  0  0
 16 48  1  0  0  0
 16 49  1  0  0  0
 17 50  1  0  0  0
 17 51  1  0  0  0
 18 52  1  0  0  0
 19 53  1  0  0  0
 22 54  1  0  0  0
 23 55  1  0  0  0
 24 56  1  0  0  0
 24 57  1  0  0  0
 24 58  1  0  0  0
 25 59  1  0  0  0
 26 60  1  0  0  0
 29 61  1  0  0  0
 29 62  1  0  0  0
 31 63  1  0  0  0
 32 64  1  0  0  0
 33 65  1  0  0  0
 34 66  1  0  0  0
 35 67  1  0  0  0
 36 68  1  0  0  0
M  END
$$$$
