### 
### Created by X-TOOL on Mon Sep 10 21:13:04 2018
### 

@<TRIPOS>MOLECULE
3k16_ligand
   65    66     1     0     0
SMALL
GAST_HUCK


@<TRIPOS>ATOM
      1 N         -27.9030   55.1100    6.3210 N.4       1 SEP         0.2398
      2 CA        -26.6170   54.6230    5.7630 C.3       1 SEP         0.0934
      3 CB        -26.8870   53.5930    4.6810 C.3       1 SEP         0.1380
      4 OG        -26.5500   52.3000    5.1250 O.3       1 SEP        -0.2680
      5 C         -25.9750   55.8340    5.1330 C.2       1 SEP         0.2318
      6 O         -26.6730   56.7240    4.6540 O.2       1 SEP        -0.3904
      7 P         -27.5980   51.3220    4.4150 P.3       1 SEP         0.2012
      8 O1P       -27.0450   50.6750    3.0530 O.co2     1 SEP        -0.5537
      9 O2P       -28.8270   52.3370    4.1470 O.co2     1 SEP        -0.5537
     10 O3P       -27.9470   50.0550    5.3320 O.co2     1 SEP        -0.5537
     11 N         -24.6430   55.8710    5.0860 N.am      1 PRO        -0.2471
     12 CA        -24.1050   57.0410    4.4130 C.3       1 PRO         0.1339
     13 C         -24.2000   56.8260    2.9130 C.2       1 PRO         0.2042
     14 O         -24.4430   55.7020    2.4720 O.2       1 PRO        -0.3944
     15 CB        -22.6460   57.0550    4.8610 C.3       1 PRO        -0.0104
     16 CG        -22.6510   56.3120    6.1610 C.3       1 PRO        -0.0281
     17 CD        -23.6450   55.2140    5.9400 C.3       1 PRO         0.0371
     18 N         -24.0400   57.8890    2.1320 N.am      1 THR        -0.2613
     19 CA        -24.0140   57.7370    0.6810 C.3       1 THR         0.1564
     20 C         -22.7990   58.3920    0.0280 C.2       1 THR         0.2060
     21 O         -22.1070   59.2110    0.6430 O.2       1 THR        -0.3943
     22 CB        -25.2870   58.2870    0.0490 C.3       1 THR         0.0924
     23 OG1       -25.7580   59.3840    0.8380 O.3       1 THR        -0.3874
     24 CG2       -26.3610   57.2040   -0.0210 C.3       1 THR        -0.0346
     25 N         -22.5490   58.0280   -1.2280 N.am      1 PHE        -0.2676
     26 CA        -21.3160   58.4270   -1.9110 C.3       1 PHE         0.1039
     27 C         -21.5170   58.8150   -3.3780 C.2       1 PHE         0.0621
     28 O         -20.8470   59.7240   -3.8770 O.co2     1 PHE        -0.5664
     29 CB        -20.2690   57.3180   -1.8020 C.3       1 PHE         0.0159
     30 CG        -19.8890   56.9930   -0.3920 C.ar      1 PHE        -0.0392
     31 CD1       -20.1910   55.7580    0.1490 C.ar      1 PHE        -0.0602
     32 CD2       -19.3160   57.9530    0.4140 C.ar      1 PHE        -0.0602
     33 CE1       -19.9020   55.4820    1.4540 C.ar      1 PHE        -0.0686
     34 CE2       -18.9950   57.6680    1.7140 C.ar      1 PHE        -0.0686
     35 CZ        -19.3030   56.4350    2.2440 C.ar      1 PHE        -0.0687
     36 OXT       -22.2880   58.1880   -4.1160 O.co2     1 PHE        -0.5664
     37 H         -28.3942   54.3349    6.7664 H         1 SEP         0.2016
     38 H         -27.7188   55.8386    7.0106 H         1 SEP         0.2016
     39 H         -28.4768   55.4900    5.5681 H         1 SEP         0.2016
     40 H         -25.9898   54.1645    6.5275 H         1 SEP         0.1125
     41 H         -26.2804   53.8336    3.8079 H         1 SEP         0.0696
     42 H         -27.9483   53.6137    4.4335 H         1 SEP         0.0696
     43 H         -24.6241   57.9716    4.6425 H         1 PRO         0.0802
     44 H         -22.2597   58.0685    4.9691 H         1 PRO         0.0313
     45 H         -21.9868   56.5924    4.1265 H         1 PRO         0.0313
     46 H         -22.9178   56.9504    7.0032 H         1 PRO         0.0287
     47 H         -21.6644   55.9319    6.4260 H         1 PRO         0.0287
     48 H         -23.2098   54.3230    5.4874 H         1 PRO         0.0524
     49 H         -24.0631   54.8181    6.8655 H         1 PRO         0.0524
     50 H         -23.9350   58.8143    2.5481 H         1 THR         0.1884
     51 H         -23.9451   56.6646    0.4986 H         1 THR         0.0826
     52 H         -25.0696   58.6217   -0.9653 H         1 THR         0.0639
     53 H         -26.5605   59.7369    0.4467 H         1 THR         0.2101
     54 H         -25.9971   56.3717   -0.6234 H         1 THR         0.0257
     55 H         -26.5879   56.8535    0.9859 H         1 THR         0.0257
     56 H         -27.2620   57.6164   -0.4752 H         1 THR         0.0257
     57 H         -23.2322   57.4578   -1.7265 H         1 PHE         0.1877
     58 H         -20.9678   59.3261   -1.4026 H         1 PHE         0.0749
     59 H         -19.3702   57.6646   -2.3121 H         1 PHE         0.0467
     60 H         -20.6983   56.4177   -2.2415 H         1 PHE         0.0467
     61 H         -20.6643   54.9974   -0.4720 H         1 PHE         0.0557
     62 H         -19.1169   58.9469    0.0133 H         1 PHE         0.0557
     63 H         -20.1463   54.5048    1.8706 H         1 PHE         0.0599
     64 H         -18.4959   58.4167    2.3292 H         1 PHE         0.0599
     65 H         -19.0727   56.2150    3.2864 H         1 PHE         0.0559
@<TRIPOS>BOND
     1    1    2 1  
     2    2    3 1  
     3    2    5 1  
     4    3    4 1  
     5    4    7 1  
     6    5    6 2  
     7    5   11 am 
     8    7    8 ar 
     9    7    9 ar 
    10    7   10 ar 
    11   11   12 1  
    12   11   17 1  
    13   12   13 1  
    14   12   15 1  
    15   13   14 2  
    16   13   18 am 
    17   15   16 1  
    18   16   17 1  
    19   18   19 1  
    20   19   20 1  
    21   19   22 1  
    22   20   21 2  
    23   20   25 am 
    24   22   23 1  
    25   22   24 1  
    26   25   26 1  
    27   26   27 1  
    28   26   29 1  
    29   27   28 ar 
    30   27   36 ar 
    31   29   30 1  
    32   30   31 ar 
    33   30   32 ar 
    34   31   33 ar 
    35   32   34 ar 
    36   33   35 ar 
    37   34   35 ar 
    38    1   37 1  
    39    1   38 1  
    40    1   39 1  
    41    2   40 1  
    42    3   41 1  
    43    3   42 1  
    44   12   43 1  
    45   15   44 1  
    46   15   45 1  
    47   16   46 1  
    48   16   47 1  
    49   17   48 1  
    50   17   49 1  
    51   18   50 1  
    52   19   51 1  
    53   22   52 1  
    54   23   53 1  
    55   24   54 1  
    56   24   55 1  
    57   24   56 1  
    58   25   57 1  
    59   26   58 1  
    60   29   59 1  
    61   29   60 1  
    62   31   61 1  
    63   32   62 1  
    64   33   63 1  
    65   34   64 1  
    66   35   65 1  
@<TRIPOS>SUBSTRUCTURE
     1 SEP         1

