4egh_ligand
  -I-interpret- 

 28 29  0  0  0  0  0  0  0  0999 V2000
    2.4340   10.3740  -27.0160 O   0  0  0  0  0
    1.6450    9.8560  -26.1860 C   0  0  0  0  0
    0.9840    8.7040  -26.3730 N   0  0  0  0  0
    0.0820    8.0620  -25.3980 C   0  0  0  0  0
    0.4610    6.5910  -25.3700 C   0  0  0  0  0
    0.2990    6.0090  -26.6660 O   0  0  0  0  0
    1.3040    6.4990  -27.4980 C   0  0  0  0  0
    0.9830    7.9890  -27.6430 C   0  0  0  0  0
    1.4330   10.6070  -24.9210 C   0  0  0  0  0
    0.1960   11.0460  -24.4830 C   0  0  0  0  0
    0.0640   11.7650  -23.2700 C   0  0  0  0  0
    1.2060   12.0480  -22.4790 C   0  0  0  0  0
    1.1800   12.6790  -21.2830 O   0  0  0  0  0
    2.4610   11.6090  -22.9480 C   0  0  0  0  0
    2.5420   10.9210  -24.1600 C   0  0  0  0  0
   -0.9615    8.1924  -25.6846 H   0  0  0  0  0
    0.1872    8.5126  -24.4111 H   0  0  0  0  0
   -0.1868    6.0711  -24.6642 H   0  0  0  0  0
    1.5042    6.4992  -25.0678 H   0  0  0  0  0
    1.3247    5.9883  -28.4608 H   0  0  0  0  0
    2.2979    6.3321  -27.0827 H   0  0  0  0  0
    1.7545    8.4329  -28.2721 H   0  0  0  0  0
   -0.0178    8.0711  -28.0670 H   0  0  0  0  0
   -0.6907   10.8351  -25.0809 H   0  0  0  0  0
   -0.9197   12.1022  -22.9432 H   0  0  0  0  0
    2.0745   12.7541  -20.9426 H   0  0  0  0  0
    3.3626   11.8056  -22.3678 H   0  0  0  0  0
    3.5245   10.6180  -24.5220 H   0  0  0  0  0
  1  2  2  0  0  0
  2  3  1  0  0  0
  2  9  1  0  0  0
  3  4  1  0  0  0
  3  8  1  0  0  0
  4  5  1  0  0  0
  5  6  1  0  0  0
  6  7  1  0  0  0
  7  8  1  0  0  0
  9 10  4  0  0  0
  9 15  4  0  0  0
 10 11  4  0  0  0
 11 12  4  0  0  0
 12 13  1  0  0  0
 12 14  4  0  0  0
 14 15  4  0  0  0
  4 16  1  0  0  0
  4 17  1  0  0  0
  5 18  1  0  0  0
  5 19  1  0  0  0
  7 20  1  0  0  0
  7 21  1  0  0  0
  8 22  1  0  0  0
  8 23  1  0  0  0
 10 24  1  0  0  0
 11 25  1  0  0  0
 13 26  1  0  0  0
 14 27  1  0  0  0
 15 28  1  0  0  0
M  END
$$$$
