4zfi_ligand
  -I-interpret- 

 54 58  0  0  0  0  0  0  0  0999 V2000
   18.0480   -1.3940   25.4900 C   0  0  0  0  0
   17.0940   -0.8070   24.4800 C   0  0  0  0  0
   17.4430   -0.7600   23.1280 C   0  0  0  0  0
   16.6010   -0.2330   22.1860 C   0  0  0  0  0
   15.3590    0.2680   22.5890 C   0  0  0  0  0
   14.9710    0.2270   23.9320 C   0  0  0  0  0
   15.8510   -0.3280   24.8620 C   0  0  0  0  0
   14.2690    0.8570   21.3360 Cl  0  0  0  0  0
   19.0840   -0.4160   25.9540 C   0  0  0  0  0
   18.5150    0.8570   26.4650 C   0  0  0  0  0
   19.0510    2.0630   25.8730 C   0  0  0  0  0
   19.9620    1.4300   24.9200 C   0  0  0  0  0
   20.0070    0.0920   24.8930 N   0  0  0  0  0
   20.8420   -0.8220   24.0870 C   0  0  0  0  0
   20.6360    2.0660   24.0810 O   0  0  0  0  0
   19.8210   -0.9240   27.0660 O   0  0  0  0  0
   18.7800    3.5210   26.1000 C   0  0  0  0  0
   17.7660    4.0070   25.1150 C   0  0  0  0  0
   17.1370    5.1710   25.4260 C   0  0  0  0  0
   16.2430    5.7710   24.5830 C   0  0  0  0  0
   15.9000    5.1690   23.4500 C   0  0  0  0  0
   16.4680    3.9530   23.1340 C   0  0  0  0  0
   17.4020    3.3860   23.9430 C   0  0  0  0  0
   14.6540    5.9930   22.4400 Cl  0  0  0  0  0
   17.5440    1.0860   27.5860 C   0  0  0  0  0
   17.5830    0.3570   28.8650 C   0  0  0  0  0
   16.4440    0.9310   29.5580 C   0  0  0  0  0
   16.4690    1.9320   27.5700 C   0  0  0  0  0
   15.8480    1.8240   28.7940 N   0  0  0  0  0
   16.1930    0.4970   30.8340 C   0  0  0  0  0
   16.9500   -0.4800   31.3960 C   0  0  0  0  0
   18.0200   -1.0640   30.7330 C   0  0  0  0  0
   18.3410   -0.6790   29.4360 C   0  0  0  0  0
   16.5160   -0.9040   33.0940 Cl  0  0  0  0  0
   18.5665   -2.2256   25.0128 H   0  0  0  0  0
   17.4653   -1.6981   26.3596 H   0  0  0  0  0
   18.4104   -1.1530   22.8153 H   0  0  0  0  0
   16.8944   -0.2043   21.1366 H   0  0  0  0  0
   14.0035    0.6195   24.2451 H   0  0  0  0  0
   15.5549   -0.3859   25.9094 H   0  0  0  0  0
   21.5068   -1.3807   24.7457 H   0  0  0  0  0
   20.1996   -1.5153   23.5441 H   0  0  0  0  0
   21.4335   -0.2421   23.3786 H   0  0  0  0  0
   20.2296   -1.7582   26.8235 H   0  0  0  0  0
   19.7048    4.0836   25.9724 H   0  0  0  0  0
   18.3976    3.6634   27.1108 H   0  0  0  0  0
   17.3534    5.6442   26.3838 H   0  0  0  0  0
   15.8137    6.7394   24.8399 H   0  0  0  0  0
   16.1638    3.4388   22.2223 H   0  0  0  0  0
   17.8626    2.4387   23.6626 H   0  0  0  0  0
   16.1616    2.5719   26.7429 H   0  0  0  0  0
   15.3767    0.9412   31.4036 H   0  0  0  0  0
   18.6131   -1.8300   31.2325 H   0  0  0  0  0
   19.1480   -1.1614   28.8846 H   0  0  0  0  0
  1  2  1  0  0  0
  1  9  1  0  0  0
  2  3  4  0  0  0
  2  7  4  0  0  0
  3  4  4  0  0  0
  4  5  4  0  0  0
  5  6  4  0  0  0
  5  8  1  0  0  0
  6  7  4  0  0  0
  9 10  1  0  0  0
  9 13  1  0  0  0
  9 16  1  0  0  0
 10 11  2  0  0  0
 10 25  1  0  0  0
 11 12  1  0  0  0
 11 17  1  0  0  0
 12 13  1  0  0  0
 12 15  2  0  0  0
 13 14  1  0  0  0
 17 18  1  0  0  0
 18 19  4  0  0  0
 18 23  4  0  0  0
 19 20  4  0  0  0
 20 21  4  0  0  0
 21 22  4  0  0  0
 21 24  1  0  0  0
 22 23  4  0  0  0
 25 26  4  0  0  0
 25 28  4  0  0  0
 26 27  4  0  0  0
 26 33  4  0  0  0
 27 29  4  0  0  0
 27 30  4  0  0  0
 28 29  4  0  0  0
 30 31  4  0  0  0
 31 32  4  0  0  0
 31 34  1  0  0  0
 32 33  4  0  0  0
  1 35  1  0  0  0
  1 36  1  0  0  0
  3 37  1  0  0  0
  4 38  1  0  0  0
  6 39  1  0  0  0
  7 40  1  0  0  0
 14 41  1  0  0  0
 14 42  1  0  0  0
 14 43  1  0  0  0
 16 44  1  0  0  0
 17 45  1  0  0  0
 17 46  1  0  0  0
 19 47  1  0  0  0
 20 48  1  0  0  0
 22 49  1  0  0  0
 23 50  1  0  0  0
 28 51  1  0  0  0
 30 52  1  0  0  0
 32 53  1  0  0  0
 33 54  1  0  0  0
M  END
$$$$
