3mna_ligand
  -I-interpret- 

 37 38  0  0  0  0  0  0  0  0999 V2000
   -5.2200    2.6390   15.7540 C   0  0  0  0  0
   -5.3950   -0.0150   16.0790 N   0  0  0  0  0
   -7.3310    1.5100   16.6350 O   0  0  0  0  0
   -5.8860    1.3350   16.7470 S   0  0  0  0  0
   -6.1000    3.7450   15.2940 C   0  0  0  0  0
   -5.3270    1.5240   18.0710 O   0  0  0  0  0
   -5.6000    4.7620   14.5530 C   0  0  0  0  0
   -4.1780    4.7370   14.2180 C   0  0  0  0  0
   -3.3630    3.7420   14.6190 C   0  0  0  0  0
   -3.8970    2.6560   15.4170 C   0  0  0  0  0
   -3.5240    5.7510   13.5140 N   0  0  0  0  0
   -4.1280    6.6130   12.6130 C   0  0  0  0  0
   -3.2450    7.6020   12.1200 N   0  0  0  0  0
   -3.7080    8.4890   11.3030 C   0  0  0  0  0
   -2.8580    9.5030   10.8120 N   0  0  0  0  0
   -5.0700    8.4840   10.9340 N   0  0  0  0  0
   -5.8540    7.5600   11.4100 C   0  0  0  0  0
   -7.4770    7.5490   10.9190 Cl  0  0  0  0  0
   -5.3860    6.5770   12.3180 N   0  0  0  0  0
   -1.4510    9.3600   11.0240 C   0  0  0  0  0
   -0.9020    8.5610    9.8920 C   0  0  0  0  0
    0.7800    7.9600    8.4800 C   0  0  0  0  0
    0.3040    8.6850    9.5590 O   0  0  0  0  0
   -1.6470    7.7850    9.2350 O   0  0  0  0  0
   -6.0695   -0.6413   15.6394 H   0  0  0  0  0
   -4.4044   -0.2579   16.0885 H   0  0  0  0  0
   -7.1581    3.7373   15.5557 H   0  0  0  0  0
   -6.2406    5.5768   14.2157 H   0  0  0  0  0
   -2.3081    3.7535   14.3450 H   0  0  0  0  0
   -3.2409    1.8512   15.7487 H   0  0  0  0  0
   -2.5235    5.8658   13.6760 H   0  0  0  0  0
   -3.2358   10.3132   10.3208 H   0  0  0  0  0
   -1.2591    8.8571   11.9718 H   0  0  0  0  0
   -0.9720   10.3382   11.0657 H   0  0  0  0  0
    0.6581    6.8950    8.6773 H   0  0  0  0  0
    0.2193    8.2316    7.5856 H   0  0  0  0  0
    1.8361    8.1846    8.3304 H   0  0  0  0  0
  1  4  1  0  0  0
  1  5  4  0  0  0
  1 10  4  0  0  0
  4  2  1  0  0  0
  4  3  2  0  0  0
  4  6  2  0  0  0
  5  7  4  0  0  0
  7  8  4  0  0  0
  8  9  4  0  0  0
  8 11  1  0  0  0
  9 10  4  0  0  0
 11 12  1  0  0  0
 12 13  4  0  0  0
 12 19  4  0  0  0
 13 14  4  0  0  0
 14 15  1  0  0  0
 14 16  4  0  0  0
 15 20  1  0  0  0
 16 17  4  0  0  0
 17 18  1  0  0  0
 17 19  4  0  0  0
 20 21  1  0  0  0
 21 23  1  0  0  0
 21 24  2  0  0  0
 23 22  1  0  0  0
  2 25  1  0  0  0
  2 26  1  0  0  0
  5 27  1  0  0  0
  7 28  1  0  0  0
  9 29  1  0  0  0
 10 30  1  0  0  0
 11 31  1  0  0  0
 15 32  1  0  0  0
 20 33  1  0  0  0
 20 34  1  0  0  0
 22 35  1  0  0  0
 22 36  1  0  0  0
 22 37  1  0  0  0
M  END
$$$$
