1rs2_ligand
  -I-interpret- 

 23 24  0  0  0  0  0  0  0  0999 V2000
   48.0840   47.9700   74.0810 N   0  0  0  0  0
   47.3250   47.7430   75.2340 C   0  0  0  0  0
   47.7940   46.7250   76.1850 C   0  0  0  0  0
   48.9050   46.0440   75.9490 C   0  0  0  0  0
   49.6740   46.3260   74.7110 N   0  0  0  0  0
   49.2610   47.2860   73.7820 C   0  0  0  0  0
   47.2170   46.2670   77.4540 N   0  0  0  0  0
   48.0480   45.3130   77.9120 C   0  0  0  0  0
   49.1050   45.0990   77.0690 N   0  0  0  0  0
   47.8650   44.6400   79.0350 N   0  0  0  0  0
   50.9050   45.5810   74.4290 C   0  0  0  0  0
   47.6260   48.9900   73.1150 C   0  0  0  0  0
   49.9130   47.5100   72.7470 O   0  0  0  0  0
   46.2750   48.3110   75.5490 O   0  0  0  0  0
   46.3620   46.6027   77.8976 H   0  0  0  0  0
   49.8669   44.4313   77.1877 H   0  0  0  0  0
   48.5308   43.9184   79.3114 H   0  0  0  0  0
   50.7928   45.0383   73.4904 H   0  0  0  0  0
   51.7397   46.2775   74.3500 H   0  0  0  0  0
   51.0944   44.8752   75.2378 H   0  0  0  0  0
   48.3904   49.7601   73.0119 H   0  0  0  0  0
   47.4499   48.5194   72.1478 H   0  0  0  0  0
   46.7010   49.4403   73.4752 H   0  0  0  0  0
  1  2  1  0  0  0
  1  6  1  0  0  0
  1 12  1  0  0  0
  2  3  1  0  0  0
  2 14  2  0  0  0
  3  4  2  0  0  0
  3  7  1  0  0  0
  4  5  1  0  0  0
  4  9  1  0  0  0
  5  6  1  0  0  0
  5 11  1  0  0  0
  6 13  2  0  0  0
  7  8  1  0  0  0
  8  9  1  0  0  0
  8 10  2  0  0  0
  7 15  1  0  0  0
  9 16  1  0  0  0
 10 17  1  0  0  0
 11 18  1  0  0  0
 11 19  1  0  0  0
 11 20  1  0  0  0
 12 21  1  0  0  0
 12 22  1  0  0  0
 12 23  1  0  0  0
M  END
$$$$
