### 
### Created by X-TOOL on Mon Sep 10 21:13:20 2018
### 

@<TRIPOS>MOLECULE
3zmp_ligand
   49    49     1     0     0
SMALL
GAST_HUCK


@<TRIPOS>ATOM
      1 N         -17.8580  -15.0050  -35.3030 N.4       1 GLN         0.2377
      2 CA        -16.7250  -15.9200  -35.4110 C.3       1 GLN         0.0622
      3 C         -15.6660  -15.4040  -36.3740 C.2       1 GLN         0.2266
      4 O         -15.9900  -14.9310  -37.4580 O.2       1 GLN        -0.3907
      5 CB        -17.2040  -17.3070  -35.8410 C.3       1 GLN        -0.0040
      6 N         -14.3990  -15.5560  -35.9860 N.am      1 FTY        -0.2585
      7 CA        -13.2620  -15.1300  -36.7880 C.3       1 FTY         0.1452
      8 C         -12.9940  -16.0470  -37.9520 C.2       1 FTY         0.2063
      9 O         -13.1520  -15.6210  -39.1390 O.2       1 FTY        -0.3942
     10 CB        -12.0650  -15.0950  -35.8850 C.3       1 FTY         0.0367
     11 CG        -10.8080  -14.4880  -36.4390 C.ar      1 FTY        -0.0068
     12 CD1        -9.6960  -15.2830  -36.7070 C.ar      1 FTY        -0.0280
     13 CD2       -10.7250  -13.1230  -36.6560 C.ar      1 FTY        -0.0280
     14 CE1        -8.5250  -14.7170  -37.2010 C.ar      1 FTY        -0.0385
     15 CE2        -9.5570  -12.5610  -37.1530 C.ar      1 FTY        -0.0385
     16 CZ         -8.4530  -13.3510  -37.4220 C.ar      1 FTY         0.0219
     17 C1         -7.2010  -12.7390  -37.9680 C.3       1 FTY         0.2931
     18 F1         -6.3850  -13.6750  -38.4340 F         1 FTY        -0.2419
     19 F2         -7.4870  -11.9240  -38.9800 F         1 FTY        -0.2419
     20 P          -6.2720  -11.7650  -36.7410 P.3       1 FTY         0.0966
     21 O1P        -5.0070  -11.3090  -37.5400 O.co2     1 FTY        -0.5668
     22 O2P        -7.0820  -10.5950  -36.2750 O.co2     1 FTY        -0.5668
     23 O3P        -5.8190  -12.5880  -35.5040 O.co2     1 FTY        -0.5668
     24 N         -12.5750  -17.2820  -37.6430 N.am      1 GLN        -0.2671
     25 CA        -12.2750  -18.3450  -38.6230 C.3       1 GLN         0.1198
     26 C         -11.6830  -17.8480  -39.9470 C.2       1 GLN         0.2147
     27 O         -11.1570  -18.6230  -40.7460 O.co2     1 GLN        -0.4120
     28 CB        -13.5110  -19.2240  -38.8770 C.3       1 GLN        -0.0276
     29 H         -18.5343  -15.3824  -34.6579 H         1 GLN         0.2015
     30 H         -18.2851  -14.8907  -36.2088 H         1 GLN         0.2015
     31 H         -17.5367  -14.1104  -34.9677 H         1 GLN         0.2015
     32 H         -16.2640  -16.0075  -34.4161 H         1 GLN         0.1095
     33 H         -16.3414  -17.9852  -35.9183 H         1 GLN         0.0310
     34 H         -17.7031  -17.2358  -36.8187 H         1 GLN         0.0310
     35 H         -17.9120  -17.6979  -35.0954 H         1 GLN         0.0310
     36 H         -14.2216  -15.9840  -35.0998 H         1 FTY         0.1887
     37 H         -13.4585  -14.1203  -37.1778 H         1 FTY         0.0833
     38 H         -11.8345  -16.1321  -35.5999 H         1 FTY         0.0547
     39 H         -12.3428  -14.5214  -34.9885 H         1 FTY         0.0547
     40 H          -9.7434  -16.3513  -36.5292 H         1 FTY         0.0652
     41 H         -11.5769  -12.4896  -36.4365 H         1 FTY         0.0652
     42 H          -7.6677  -15.3455  -37.4133 H         1 FTY         0.0835
     43 H          -9.5092  -11.4930  -37.3321 H         1 FTY         0.0835
     44 H         -12.4564  -17.5003  -36.6744 H         1 GLN         0.1876
     45 H         -11.5098  -18.9860  -38.1610 H         1 GLN         0.0748
     46 H         -11.7288  -16.7855  -40.1861 O.co2     1 GLN        -0.4120
     47 H         -13.2606  -20.0060  -39.6090 H         1 GLN         0.0271
     48 H         -14.3287  -18.6021  -39.2701 H         1 GLN         0.0271
     49 H         -13.8277  -19.6928  -37.9337 H         1 GLN         0.0271
@<TRIPOS>BOND
     1    1    2 1  
     2    2    3 1  
     3    2    5 1  
     4    3    4 2  
     5    3    6 am 
     6    6    7 1  
     7    7    8 1  
     8    7   10 1  
     9    8    9 2  
    10    8   24 am 
    11   10   11 1  
    12   11   12 ar 
    13   11   13 ar 
    14   12   14 ar 
    15   13   15 ar 
    16   14   16 ar 
    17   15   16 ar 
    18   16   17 1  
    19   17   18 1  
    20   17   19 1  
    21   17   20 1  
    22   20   21 ar 
    23   20   22 ar 
    24   20   23 ar 
    25   24   25 1  
    26   25   26 1  
    27   25   28 1  
    28   26   27 ar 
    29    1   29 1  
    30    1   30 1  
    31    1   31 1  
    32    2   32 1  
    33    5   33 1  
    34    5   34 1  
    35    5   35 1  
    36    6   36 1  
    37    7   37 1  
    38   10   38 1  
    39   10   39 1  
    40   12   40 1  
    41   13   41 1  
    42   14   42 1  
    43   15   43 1  
    44   24   44 1  
    45   25   45 1  
    46   26   46 ar 
    47   28   47 1  
    48   28   48 1  
    49   28   49 1  
@<TRIPOS>SUBSTRUCTURE
     1 GLN         1

