3zmp_ligand
  -I-interpret- 

 52 52  0  0  0  0  0  0  0  0999 V2000
  -17.8580  -15.0050  -35.3030 N   0  3  0  0  0
  -16.7250  -15.9200  -35.4110 C   0  0  0  0  0
  -15.6660  -15.4040  -36.3740 C   0  0  0  0  0
  -15.9900  -14.9310  -37.4580 O   0  0  0  0  0
  -17.2040  -17.3070  -35.8410 C   0  0  0  0  0
  -14.3990  -15.5560  -35.9860 N   0  0  0  0  0
  -13.2620  -15.1300  -36.7880 C   0  0  0  0  0
  -12.9940  -16.0470  -37.9520 C   0  0  0  0  0
  -13.1520  -15.6210  -39.1390 O   0  0  0  0  0
  -12.0650  -15.0950  -35.8850 C   0  0  0  0  0
  -10.8080  -14.4880  -36.4390 C   0  0  0  0  0
   -9.6960  -15.2830  -36.7070 C   0  0  0  0  0
  -10.7250  -13.1230  -36.6560 C   0  0  0  0  0
   -8.5250  -14.7170  -37.2010 C   0  0  0  0  0
   -9.5570  -12.5610  -37.1530 C   0  0  0  0  0
   -8.4530  -13.3510  -37.4220 C   0  0  0  0  0
   -7.2010  -12.7390  -37.9680 C   0  0  0  0  0
   -6.3850  -13.6750  -38.4340 F   0  0  0  0  0
   -7.4870  -11.9240  -38.9800 F   0  0  0  0  0
   -6.2720  -11.7650  -36.7410 P   0  0  0  0  0
   -5.0070  -11.3090  -37.5400 O   0  0  0  0  0
   -7.0820  -10.5950  -36.2750 O   0  0  0  0  0
   -5.8190  -12.5880  -35.5040 O   0  0  0  0  0
  -12.5750  -17.2820  -37.6430 N   0  0  0  0  0
  -12.2750  -18.3450  -38.6230 C   0  0  0  0  0
  -11.6830  -17.8480  -39.9470 C   0  0  0  0  0
  -11.1570  -18.6230  -40.7460 O   0  0  0  0  0
  -13.5110  -19.2240  -38.8770 C   0  0  0  0  0
  -11.7288  -16.7855  -40.1861 O   0  0  0  0  0
  -17.5243  -14.0849  -35.0158 H   0  0  0  0  0
  -18.3223  -14.9323  -36.2083 H   0  0  0  0  0
  -18.5161  -15.3609  -34.6097 H   0  0  0  0  0
  -16.2640  -15.9887  -34.4257 H   0  0  0  0  0
  -17.6313  -17.2482  -36.8420 H   0  0  0  0  0
  -16.3598  -17.9965  -35.8448 H   0  0  0  0  0
  -17.9612  -17.6615  -35.1416 H   0  0  0  0  0
  -14.2180  -15.9926  -35.0821 H   0  0  0  0  0
  -13.4793  -14.1498  -37.2123 H   0  0  0  0  0
  -11.8231  -16.1363  -35.6723 H   0  0  0  0  0
  -12.3493  -14.4688  -35.0393 H   0  0  0  0  0
   -9.7437  -16.3572  -36.5282 H   0  0  0  0  0
  -11.5816  -12.4861  -36.4353 H   0  0  0  0  0
   -7.6630  -15.3490  -37.4145 H   0  0  0  0  0
   -9.5089  -11.4871  -37.3331 H   0  0  0  0  0
   -4.5126  -12.0819  -37.8226 H   0  0  0  0  0
   -5.2987  -13.3405  -35.7948 H   0  0  0  0  0
  -12.4541  -17.5047  -36.6550 H   0  0  0  0  0
  -11.4894  -18.9429  -38.1610 H   0  0  0  0  0
  -11.1941  -19.5160  -40.3956 H   0  0  0  0  0
  -13.8238  -19.6879  -37.9415 H   0  0  0  0  0
  -14.3205  -18.6066  -39.2664 H   0  0  0  0  0
  -13.2617  -19.9984  -39.6025 H   0  0  0  0  0
  1  2  1  0  0  0
  2  3  1  0  0  0
  2  5  1  0  0  0
  3  4  2  0  0  0
  3  6  1  0  0  0
  6  7  1  0  0  0
  7  8  1  0  0  0
  7 10  1  0  0  0
  8  9  2  0  0  0
  8 24  1  0  0  0
 10 11  1  0  0  0
 11 12  4  0  0  0
 11 13  4  0  0  0
 12 14  4  0  0  0
 13 15  4  0  0  0
 14 16  4  0  0  0
 15 16  4  0  0  0
 16 17  1  0  0  0
 17 18  1  0  0  0
 17 19  1  0  0  0
 17 20  1  0  0  0
 20 21  1  0  0  0
 20 22  2  0  0  0
 20 23  1  0  0  0
 24 25  1  0  0  0
 25 26  1  0  0  0
 25 28  1  0  0  0
 26 27  1  0  0  0
 26 29  2  0  0  0
  1 30  1  0  0  0
  1 31  1  0  0  0
  1 32  1  0  0  0
  2 33  1  0  0  0
  5 34  1  0  0  0
  5 35  1  0  0  0
  5 36  1  0  0  0
  6 37  1  0  0  0
  7 38  1  0  0  0
 10 39  1  0  0  0
 10 40  1  0  0  0
 12 41  1  0  0  0
 13 42  1  0  0  0
 14 43  1  0  0  0
 15 44  1  0  0  0
 21 45  1  0  0  0
 23 46  1  0  0  0
 24 47  1  0  0  0
 25 48  1  0  0  0
 27 49  1  0  0  0
 28 50  1  0  0  0
 28 51  1  0  0  0
 28 52  1  0  0  0
M  END
$$$$
