3dc2_ligand
  -I-interpret- 

 16 15  0  0  0  0  0  0  0  0999 V2000
   26.9070   79.3440   46.9410 O   0  0  0  0  0
   28.3660   80.8900   47.5810 O   0  0  0  0  0
   27.1350   80.3900   47.5300 C   0  0  0  0  0
   26.0060   81.1200   48.1940 C   0  0  0  0  0
   26.4920   82.3430   48.7610 O   0  0  0  0  0
   25.2990   80.2000   49.2160 C   0  0  0  0  0
   26.2400   79.5370   50.0710 O   0  0  0  0  0
   24.2620   81.0020   49.9820 C   0  0  0  0  0
   23.7920   82.0150   49.4790 O   0  0  0  0  0
   23.8510   80.6430   51.2010 O   0  0  0  0  0
   28.3569   81.7095   48.0810 H   0  0  0  0  0
   25.2474   81.3929   47.4605 H   0  0  0  0  0
   26.9176   82.8647   48.0767 H   0  0  0  0  0
   24.7794   79.4023   48.6851 H   0  0  0  0  0
   26.8685   79.0479   49.5349 H   0  0  0  0  0
   24.3008   79.8369   51.4646 H   0  0  0  0  0
  1  3  2  0  0  0
  3  2  1  0  0  0
  3  4  1  0  0  0
  4  5  1  0  0  0
  4  6  1  0  0  0
  6  7  1  0  0  0
  6  8  1  0  0  0
  8  9  2  0  0  0
  8 10  1  0  0  0
  2 11  1  0  0  0
  4 12  1  0  0  0
  5 13  1  0  0  0
  6 14  1  0  0  0
  7 15  1  0  0  0
 10 16  1  0  0  0
M  END
$$$$
