4u5o_ligand
  -I-interpret- 

 49 50  0  0  0  0  0  0  0  0999 V2000
    0.5230   31.4680   13.4240 C   0  0  0  0  0
    0.0980   30.2150   13.8410 C   0  0  0  0  0
   -1.0320   29.6530   13.2600 C   0  0  0  0  0
   -1.7030   30.3510   12.2450 N   0  0  0  0  0
   -1.2630   31.6010   11.8100 C   0  0  0  0  0
   -0.1180   32.1370   12.3870 C   0  0  0  0  0
    0.3230   33.3960   12.0120 C   0  0  0  0  0
   -0.1330   33.9760   10.8320 C   0  0  0  0  0
    0.3530   35.2220   10.4410 C   0  0  0  0  0
    1.3110   34.0150   12.7620 C   0  0  0  0  0
    1.7770   35.2670   12.3950 C   0  0  0  0  0
    1.3060   35.8580   11.2300 C   0  0  0  0  0
    1.7960   37.0970   10.8760 C   0  0  0  0  0
    2.7910   37.0150    9.7970 N   0  3  0  0  0
    3.2300   38.4030    9.5890 C   0  0  0  0  0
    3.7980   38.9510   10.9200 C   0  0  0  0  0
    3.2420   39.8800   11.5110 O   0  0  0  0  0
    4.8850   38.3240   11.3820 N   0  0  0  0  0
    4.2480   38.4890    8.4500 C   0  0  0  0  0
    3.5930   37.9700    7.1550 C   0  0  0  0  0
    2.3560   38.7930    6.7410 C   0  0  0  0  0
    1.8000   38.1920    5.4350 C   0  0  0  0  0
    0.6150   38.9000    4.9030 N   0  3  0  0  0
    1.3744   31.9364   13.9179 H   0  0  0  0  0
    0.6445   29.6774   14.6158 H   0  0  0  0  0
   -1.3937   28.6790   13.5897 H   0  0  0  0  0
   -1.8044   32.1446   11.0358 H   0  0  0  0  0
   -0.8676   33.4575   10.2159 H   0  0  0  0  0
   -0.0094   35.6930    9.5273 H   0  0  0  0  0
    1.7212   33.5167   13.6404 H   0  0  0  0  0
    2.5081   35.7844   13.0162 H   0  0  0  0  0
    2.2800   37.5320   11.7504 H   0  0  0  0  0
    0.9617   37.7024   10.5218 H   0  0  0  0  0
    2.3991   36.6082    8.9477 H   0  0  0  0  0
    3.5688   36.4022   10.0419 H   0  0  0  0  0
    2.3818   39.0196    9.2918 H   0  0  0  0  0
    5.2991   38.6084   12.2697 H   0  0  0  0  0
    5.3000   37.5614   10.8467 H   0  0  0  0  0
    5.1215   37.8826    8.6898 H   0  0  0  0  0
    4.5630   39.5237    8.3146 H   0  0  0  0  0
    3.2683   36.9447    7.3323 H   0  0  0  0  0
    4.3287   38.0466    6.3544 H   0  0  0  0  0
    2.6316   39.8365    6.5882 H   0  0  0  0  0
    1.5994   38.7562    7.5248 H   0  0  0  0  0
    1.4938   37.1692    5.6546 H   0  0  0  0  0
    2.5862   38.2681    4.6838 H   0  0  0  0  0
    0.3071   38.4463    4.0429 H   0  0  0  0  0
   -0.1359   38.8693    5.5926 H   0  0  0  0  0
    0.8596   39.8708    4.7079 H   0  0  0  0  0
  1  2  4  0  0  0
  1  6  4  0  0  0
  2  3  4  0  0  0
  3  4  4  0  0  0
  4  5  4  0  0  0
  5  6  4  0  0  0
  6  7  1  0  0  0
  7  8  4  0  0  0
  7 10  4  0  0  0
  8  9  4  0  0  0
  9 12  4  0  0  0
 10 11  4  0  0  0
 11 12  4  0  0  0
 12 13  1  0  0  0
 13 14  1  0  0  0
 14 15  1  0  0  0
 15 16  1  0  0  0
 15 19  1  0  0  0
 16 17  2  0  0  0
 16 18  1  0  0  0
 19 20  1  0  0  0
 20 21  1  0  0  0
 21 22  1  0  0  0
 22 23  1  0  0  0
  1 24  1  0  0  0
  2 25  1  0  0  0
  3 26  1  0  0  0
  5 27  1  0  0  0
  8 28  1  0  0  0
  9 29  1  0  0  0
 10 30  1  0  0  0
 11 31  1  0  0  0
 13 32  1  0  0  0
 13 33  1  0  0  0
 14 34  1  0  0  0
 14 35  1  0  0  0
 15 36  1  0  0  0
 18 37  1  0  0  0
 18 38  1  0  0  0
 19 39  1  0  0  0
 19 40  1  0  0  0
 20 41  1  0  0  0
 20 42  1  0  0  0
 21 43  1  0  0  0
 21 44  1  0  0  0
 22 45  1  0  0  0
 22 46  1  0  0  0
 23 47  1  0  0  0
 23 48  1  0  0  0
 23 49  1  0  0  0
M  END
$$$$
