6f8v_ligand
  -I-interpret- 

 64 67  0  0  0  0  0  0  0  0999 V2000
   30.9880  228.0360  146.7970 C   0  0  0  0  0
   30.3210  226.8080  147.1570 C   0  0  0  0  0
   27.0210  224.1110  146.0750 C   0  0  0  0  0
   26.3780  226.7360  147.4640 C   0  0  0  0  0
   25.4940  225.3820  149.3710 C   0  0  0  0  0
   29.6850  224.9640  148.1680 C   0  0  0  0  0
   30.3810  226.0810  148.3730 C   0  0  0  0  0
   26.3460  226.2830  151.5760 C   0  0  0  0  0
   33.6290  231.7630  144.6620 C   0  0  0  0  0
   33.1500  231.3660  145.8700 O   0  0  0  0  0
   32.4470  230.2690  146.0910 C   0  0  0  0  0
   32.2820  230.0320  147.4170 C   0  0  0  0  0
   32.7370  230.7200  148.4810 O   0  0  0  0  0
   32.5120  230.4530  149.8450 C   0  0  0  0  0
   31.1870  230.9740  150.3470 C   0  0  0  0  0
   31.5610  232.1900  151.0500 C   0  0  0  0  0
   32.9580  232.4480  150.6510 C   0  0  0  0  0
   33.5480  231.0860  150.5610 C   0  0  0  0  0
   31.5540  228.8800  147.7600 C   0  0  0  0  0
   31.2090  228.3180  145.5080 C   0  0  0  0  0
   31.9120  229.4300  145.1730 C   0  0  0  0  0
   29.7000  226.0830  146.3270 N   0  0  0  0  0
   29.3040  225.0330  146.9150 N   0  0  0  0  0
   28.5230  223.9210  146.3370 C   0  0  0  0  0
   26.3710  224.1790  147.4340 C   0  0  0  0  0
   26.1060  225.4060  148.0290 N   0  0  0  0  0
   27.1910  227.5120  148.4890 C   0  0  0  0  0
   26.4310  227.7460  149.6840 O   0  0  0  0  0
   25.6880  226.6430  150.2460 C   0  0  0  0  0
   26.0970  223.1100  147.9830 O   0  0  0  0  0
   27.6890  228.8200  147.8960 C   0  0  0  0  0
   26.6154  223.2908  145.4826 H   0  0  0  0  0
   26.8309  225.0168  145.4992 H   0  0  0  0  0
   25.4447  227.2552  147.2461 H   0  0  0  0  0
   26.9303  226.6466  146.5286 H   0  0  0  0  0
   25.9792  224.5667  149.9076 H   0  0  0  0  0
   24.4199  225.2911  149.2095 H   0  0  0  0  0
   29.4779  224.1683  148.8836 H   0  0  0  0  0
   30.8926  226.3762  149.2891 H   0  0  0  0  0
   27.3831  225.9968  151.4011 H   0  0  0  0  0
   26.3131  227.1457  152.2414 H   0  0  0  0  0
   25.8098  225.4505  152.0316 H   0  0  0  0  0
   34.3023  231.0002  144.2710 H   0  0  0  0  0
   32.7976  231.9041  143.9714 H   0  0  0  0  0
   34.1701  232.7021  144.7779 H   0  0  0  0  0
   32.4932  229.3723  149.9859 H   0  0  0  0  0
   30.6658  230.2600  150.9846 H   0  0  0  0  0
   30.4711  231.1523  149.5446 H   0  0  0  0  0
   31.4635  232.0783  152.1299 H   0  0  0  0  0
   30.9070  233.0230  150.7920 H   0  0  0  0  0
   33.4848  233.0864  151.3602 H   0  0  0  0  0
   33.0306  232.9985  149.7130 H   0  0  0  0  0
   34.5312  231.0373  150.0929 H   0  0  0  0  0
   33.7985  230.6258  151.5168 H   0  0  0  0  0
   31.4253  228.6346  148.8142 H   0  0  0  0  0
   30.8262  227.6576  144.7299 H   0  0  0  0  0
   32.0522  229.6578  144.1163 H   0  0  0  0  0
   28.9585  223.7590  145.3510 H   0  0  0  0  0
   28.5766  223.1274  147.0822 H   0  0  0  0  0
   28.0568  226.9083  148.7612 H   0  0  0  0  0
   24.6639  227.0012  150.3506 H   0  0  0  0  0
   26.8369  229.4540  147.6508 H   0  0  0  0  0
   28.3245  229.3278  148.6216 H   0  0  0  0  0
   28.2615  228.6129  146.9919 H   0  0  0  0  0
  2  1  1  0  0  0
  1 19  4  0  0  0
  1 20  4  0  0  0
  2  7  4  0  0  0
 22  2  4  0  0  0
  3 24  1  0  0  0
 25  3  1  0  0  0
 26  4  1  0  0  0
  4 27  1  0  0  0
 26  5  1  0  0  0
  5 29  1  0  0  0
  6  7  4  0  0  0
 23  6  4  0  0  0
 29  8  1  0  0  0
 10  9  1  0  0  0
 11 10  1  0  0  0
 12 11  4  0  0  0
 21 11  4  0  0  0
 12 13  1  0  0  0
 19 12  4  0  0  0
 13 14  1  0  0  0
 14 15  1  0  0  0
 14 18  1  0  0  0
 15 16  1  0  0  0
 17 16  1  0  0  0
 18 17  1  0  0  0
 20 21  4  0  0  0
 23 22  4  0  0  0
 24 23  1  0  0  0
 25 26  1  0  0  0
 25 30  2  0  0  0
 27 28  1  0  0  0
 27 31  1  0  0  0
 28 29  1  0  0  0
  3 32  1  0  0  0
  3 33  1  0  0  0
  4 34  1  0  0  0
  4 35  1  0  0  0
  5 36  1  0  0  0
  5 37  1  0  0  0
  6 38  1  0  0  0
  7 39  1  0  0  0
  8 40  1  0  0  0
  8 41  1  0  0  0
  8 42  1  0  0  0
  9 43  1  0  0  0
  9 44  1  0  0  0
  9 45  1  0  0  0
 14 46  1  0  0  0
 15 47  1  0  0  0
 15 48  1  0  0  0
 16 49  1  0  0  0
 16 50  1  0  0  0
 17 51  1  0  0  0
 17 52  1  0  0  0
 18 53  1  0  0  0
 18 54  1  0  0  0
 19 55  1  0  0  0
 20 56  1  0  0  0
 21 57  1  0  0  0
 24 58  1  0  0  0
 24 59  1  0  0  0
 27 60  1  0  0  0
 29 61  1  0  0  0
 31 62  1  0  0  0
 31 63  1  0  0  0
 31 64  1  0  0  0
M  END
$$$$
