6b1c_ligand
  -I-interpret- 

 37 40  0  0  0  0  0  0  0  0999 V2000
  -42.4940   41.4970   11.7160 C   0  0  0  0  0
  -42.0150   41.0100   10.5140 C   0  0  0  0  0
  -41.6330   41.9340    9.5510 C   0  0  0  0  0
  -40.0800   40.5180    6.6500 N   0  0  0  0  0
  -41.0520   41.5370    8.2680 C   0  0  0  0  0
  -40.5560   40.3190    7.8900 C   0  0  0  0  0
  -40.2250   41.8090    6.2690 N   0  0  0  0  0
  -39.4680   39.5910    5.7570 C   0  0  0  0  0
  -38.7140   38.5290    6.2400 C   0  0  0  0  0
  -38.1110   37.6420    5.3660 C   0  0  0  0  0
  -38.2550   37.8010    3.9950 C   0  0  0  0  0
  -40.7930   42.4300    7.2700 N   0  0  0  0  0
  -39.0150   38.8920    3.5570 C   0  0  0  0  0
  -39.6180   39.7830    4.3910 C   0  0  0  0  0
  -42.1480   43.7360   10.9090 C   0  0  0  0  0
  -41.6830   43.2610    9.7330 N   0  0  0  0  0
  -42.6730   45.6680   12.2910 N   0  0  0  0  0
  -42.7350   47.1180   12.4900 C   0  0  0  0  0
  -37.6690   36.9120    3.1560 O   0  0  0  0  0
  -43.0800   44.8120   13.2950 C   0  0  0  0  0
  -42.1880   45.2100   11.0500 C   0  0  0  0  0
  -43.0460   43.4810   13.1740 C   0  0  0  0  0
  -42.5720   42.8800   11.9560 C   0  0  0  0  0
  -39.1650   39.0690    2.2230 F   0  0  0  0  0
  -41.8330   46.0030   10.1850 O   0  0  0  0  0
  -42.8158   40.7987   12.4886 H   0  0  0  0  0
  -41.9400   39.9384   10.3290 H   0  0  0  0  0
  -40.5488   39.3939    8.4665 H   0  0  0  0  0
  -38.5966   38.3935    7.3152 H   0  0  0  0  0
  -37.5196   36.8138    5.7565 H   0  0  0  0  0
  -40.1985   40.6183    3.9993 H   0  0  0  0  0
  -43.7661   47.4130   12.6846 H   0  0  0  0  0
  -42.1103   47.3939   13.3396 H   0  0  0  0  0
  -42.3745   47.6222   11.5934 H   0  0  0  0  0
  -37.8599   37.1571    2.2477 H   0  0  0  0  0
  -43.4454   45.2407   14.2282 H   0  0  0  0  0
  -43.3777   42.8506   13.9990 H   0  0  0  0  0
  1  2  4  0  0  0
 23  1  4  0  0  0
  3  2  4  0  0  0
  3  5  1  0  0  0
 16  3  4  0  0  0
  6  4  4  0  0  0
  7  4  4  0  0  0
  4  8  1  0  0  0
  5  6  4  0  0  0
  5 12  4  0  0  0
 12  7  4  0  0  0
  8  9  4  0  0  0
  8 14  4  0  0  0
  9 10  4  0  0  0
 10 11  4  0  0  0
 13 11  4  0  0  0
 11 19  1  0  0  0
 14 13  4  0  0  0
 13 24  1  0  0  0
 15 16  4  0  0  0
 21 15  1  0  0  0
 15 23  4  0  0  0
 17 18  1  0  0  0
 17 20  1  0  0  0
 17 21  1  0  0  0
 20 22  2  0  0  0
 21 25  2  0  0  0
 22 23  1  0  0  0
  1 26  1  0  0  0
  2 27  1  0  0  0
  6 28  1  0  0  0
  9 29  1  0  0  0
 10 30  1  0  0  0
 14 31  1  0  0  0
 18 32  1  0  0  0
 18 33  1  0  0  0
 18 34  1  0  0  0
 19 35  1  0  0  0
 20 36  1  0  0  0
 22 37  1  0  0  0
M  END
$$$$
