6bik_ligand
  -I-interpret- 

 80 84  0  0  0  0  0  0  0  0999 V2000
  105.3630  -50.0410    0.8530 C   0  0  0  0  0
  103.8850  -48.5030   -7.7140 C   0  0  0  0  0
  105.3790  -49.0260   -1.4150 C   0  0  0  0  0
  104.4320  -49.9980   -1.7340 C   0  0  0  0  0
  103.6960  -49.1570   -5.3710 C   0  0  0  0  0
  103.8730  -50.0390   -3.0100 C   0  0  0  0  0
  104.2750  -49.1230   -3.9960 C   0  0  0  0  0
  105.2410  -48.1540   -3.6640 C   0  0  0  0  0
  105.7820  -48.1150   -2.3850 C   0  0  0  0  0
  107.4880  -49.2910   -0.1240 C   0  0  0  0  0
  105.8260  -47.5840    0.5850 C   0  0  0  0  0
  105.9990  -48.9720   -0.0390 C   0  0  0  0  0
  102.6350  -49.7460   -5.5780 O   0  0  0  0  0
  104.3690  -48.5580   -6.3860 N   0  0  0  0  0
  104.1110  -49.5030   -8.6410 C   0  0  0  0  0
  103.6200  -49.4000   -9.9270 C   0  0  0  0  0
  102.9030  -48.2860  -10.3170 C   0  0  0  0  0
  102.6870  -47.2510   -9.4070 C   0  0  0  0  0
  103.1630  -47.3760   -8.0940 C   0  0  0  0  0
  102.9760  -46.2660   -7.0860 C   0  0  0  0  0
  101.9770  -46.5460   -6.1190 O   0  0  0  0  0
  101.9070  -46.0650   -9.8230 C   0  0  0  0  0
  102.1670  -45.4060  -11.0500 C   0  0  0  0  0
  101.3890  -44.3290  -11.3930 C   0  0  0  0  0
  100.3680  -43.8910  -10.5220 C   0  0  0  0  0
   99.6880  -42.9140  -10.8220 O   0  0  0  0  0
  100.1660  -44.5300   -9.3640 N   0  0  0  0  0
  100.9460  -45.6430   -9.0360 N   0  0  0  0  0
   99.1240  -44.0640   -8.4550 C   0  0  0  0  0
  101.5190  -43.5920  -12.5670 N   0  0  0  0  0
  102.3820  -43.7960  -13.6250 C   0  0  0  0  0
  102.1270  -43.0110  -14.7440 C   0  0  0  0  0
  102.9260  -43.1330  -15.8350 C   0  0  0  0  0
  103.9970  -44.0390  -15.7850 C   0  0  0  0  0
  104.2020  -44.8110  -14.6320 C   0  0  0  0  0
  103.3910  -44.6630  -13.5930 N   0  0  0  0  0
  104.8600  -44.1760  -16.9690 C   0  0  0  0  0
  105.0500  -45.2880  -17.4070 O   0  0  0  0  0
  105.4190  -43.1010  -17.5710 N   0  0  0  0  0
  105.2310  -41.7240  -17.0760 C   0  0  0  0  0
  106.0930  -40.7910  -17.9310 C   0  0  0  0  0
  105.6880  -40.9370  -19.2930 O   0  0  0  0  0
  105.7540  -42.2700  -19.8210 C   0  0  0  0  0
  106.2710  -43.2550  -18.7600 C   0  0  0  0  0
  105.5224  -51.0240    0.4098 H   0  0  0  0  0
  105.8218  -50.0078    1.8412 H   0  0  0  0  0
  104.2935  -49.8497    0.9409 H   0  0  0  0  0
  104.1280  -50.7278   -0.9836 H   0  0  0  0  0
  103.1172  -50.7885   -3.2449 H   0  0  0  0  0
  105.5656  -47.4318   -4.4132 H   0  0  0  0  0
  106.5307  -47.3619   -2.1392 H   0  0  0  0  0
  107.9838  -48.5430   -0.7427 H   0  0  0  0  0
  107.9185  -49.2794    0.8773 H   0  0  0  0  0
  107.6221  -50.2778   -0.5672 H   0  0  0  0  0
  106.2629  -47.5790    1.5836 H   0  0  0  0  0
  106.3282  -46.8425   -0.0364 H   0  0  0  0  0
  104.7643  -47.3462    0.6503 H   0  0  0  0  0
  105.2697  -48.1255   -6.1808 H   0  0  0  0  0
  104.6842  -50.3842   -8.3529 H   0  0  0  0  0
  103.7996  -50.2043  -10.6403 H   0  0  0  0  0
  102.5080  -48.2158  -11.3305 H   0  0  0  0  0
  102.6646  -45.3754   -7.6319 H   0  0  0  0  0
  103.9203  -46.1407   -6.5562 H   0  0  0  0  0
  101.9062  -45.8069   -5.5105 H   0  0  0  0  0
  102.9672  -45.7470  -11.7069 H   0  0  0  0  0
  100.7634  -46.1389   -8.1636 H   0  0  0  0  0
   99.3338  -43.0358   -8.1604 H   0  0  0  0  0
   98.1580  -44.1093   -8.9579 H   0  0  0  0  0
   99.1045  -44.7001   -7.5701 H   0  0  0  0  0
  101.2956  -42.3061  -14.7453 H   0  0  0  0  0
  102.7398  -42.5401  -16.7305 H   0  0  0  0  0
  105.0222  -45.5277  -14.5902 H   0  0  0  0  0
  105.5278  -41.6566  -16.0294 H   0  0  0  0  0
  104.1816  -41.4382  -17.1483 H   0  0  0  0  0
  107.1466  -41.0484  -17.8226 H   0  0  0  0  0
  105.9621  -39.7580  -17.6087 H   0  0  0  0  0
  106.4382  -42.2776  -20.6695 H   0  0  0  0  0
  104.7533  -42.5763  -20.1258 H   0  0  0  0  0
  106.2278  -44.2783  -19.1330 H   0  0  0  0  0
  107.3122  -43.0443  -18.5158 H   0  0  0  0  0
 12  1  1  0  0  0
 14  2  1  0  0  0
  2 15  4  0  0  0
  2 19  4  0  0  0
  4  3  4  0  0  0
  3  9  4  0  0  0
  3 12  1  0  0  0
  6  4  4  0  0  0
  7  5  1  0  0  0
  5 13  2  0  0  0
  5 14  1  0  0  0
  6  7  4  0  0  0
  7  8  4  0  0  0
  8  9  4  0  0  0
 12 10  1  0  0  0
 12 11  1  0  0  0
 15 16  4  0  0  0
 16 17  4  0  0  0
 17 18  4  0  0  0
 18 19  4  0  0  0
 18 22  1  0  0  0
 19 20  1  0  0  0
 20 21  1  0  0  0
 22 23  2  0  0  0
 22 28  1  0  0  0
 23 24  1  0  0  0
 24 25  1  0  0  0
 24 30  2  0  0  0
 25 26  2  0  0  0
 25 27  1  0  0  0
 27 28  1  0  0  0
 27 29  1  0  0  0
 30 31  1  0  0  0
 31 32  4  0  0  0
 31 36  4  0  0  0
 32 33  4  0  0  0
 33 34  4  0  0  0
 34 35  4  0  0  0
 34 37  1  0  0  0
 35 36  4  0  0  0
 37 38  2  0  0  0
 37 39  1  0  0  0
 39 40  1  0  0  0
 39 44  1  0  0  0
 40 41  1  0  0  0
 41 42  1  0  0  0
 42 43  1  0  0  0
 43 44  1  0  0  0
  1 45  1  0  0  0
  1 46  1  0  0  0
  1 47  1  0  0  0
  4 48  1  0  0  0
  6 49  1  0  0  0
  8 50  1  0  0  0
  9 51  1  0  0  0
 10 52  1  0  0  0
 10 53  1  0  0  0
 10 54  1  0  0  0
 11 55  1  0  0  0
 11 56  1  0  0  0
 11 57  1  0  0  0
 14 58  1  0  0  0
 15 59  1  0  0  0
 16 60  1  0  0  0
 17 61  1  0  0  0
 20 62  1  0  0  0
 20 63  1  0  0  0
 21 64  1  0  0  0
 23 65  1  0  0  0
 28 66  1  0  0  0
 29 67  1  0  0  0
 29 68  1  0  0  0
 29 69  1  0  0  0
 32 70  1  0  0  0
 33 71  1  0  0  0
 35 72  1  0  0  0
 40 73  1  0  0  0
 40 74  1  0  0  0
 41 75  1  0  0  0
 41 76  1  0  0  0
 43 77  1  0  0  0
 43 78  1  0  0  0
 44 79  1  0  0  0
 44 80  1  0  0  0
M  END
$$$$
