6hhg_ligand
  -I-interpret- 

 82 87  0  0  0  0  0  0  0  0999 V2000
   16.7040  -11.5810   -8.9560 C   0  0  0  0  0
   16.3280  -10.2450   -8.8960 C   0  0  0  0  0
   15.8050   -9.7220   -7.7180 C   0  0  0  0  0
   15.6570  -10.5420   -6.6050 C   0  0  0  0  0
   16.0320  -11.8790   -6.6680 C   0  0  0  0  0
   16.5420  -12.4080   -7.8450 C   0  0  0  0  0
   16.9200  -13.7530   -7.8760 C   0  0  0  0  0
   17.7840  -14.1810   -6.8740 C   0  0  0  0  0
   18.2090  -15.5010   -6.8450 C   0  0  0  0  0
   19.0730  -15.9580   -5.8550 C   0  0  0  0  0
   19.4850  -15.2010   -4.9780 O   0  0  0  0  0
   19.4800  -17.2990   -5.8570 N   0  0  0  0  0
   19.0510  -18.1320   -6.7890 C   0  0  0  0  0
   18.1860  -17.7010   -7.7900 C   0  0  0  0  0
   17.7620  -16.3780   -7.8200 C   0  0  0  0  0
   16.9290  -15.9510   -8.7810 N   0  0  0  0  0
   16.4970  -14.6790   -8.8470 C   0  0  0  0  0
   15.6210  -14.3830   -9.8940 C   0  0  0  0  0
   14.3730  -13.8160   -9.6420 C   0  0  0  0  0
   13.5010  -13.5370  -10.6860 C   0  0  0  0  0
   15.9710  -14.7020  -11.2020 C   0  0  0  0  0
   15.0960  -14.4260  -12.2500 C   0  0  0  0  0
   13.8570  -13.8460  -11.9920 C   0  0  0  0  0
   12.9670  -13.5600  -13.0230 C   0  0  0  0  0
   12.8450  -14.6740  -13.9780 N   0  3  0  0  0
   12.0530  -15.7770  -13.3920 C   0  0  0  0  0
   11.9010  -16.9260  -14.3790 C   0  0  0  0  0
   12.1560  -14.1670  -15.1710 C   0  0  0  0  0
   12.0130  -15.2620  -16.2180 C   0  0  0  0  0
   11.2090  -16.4110  -15.6350 C   0  0  0  0  0
   11.1350  -17.4650  -16.6550 N   0  0  0  0  0
   10.0090  -17.7230  -17.3310 C   0  0  0  0  0
    8.9750  -17.1010  -17.0870 O   0  0  0  0  0
   10.0760  -18.6970  -18.2590 N   0  0  0  0  0
    8.9940  -19.0240  -18.9740 C   0  0  0  0  0
    8.2630  -18.0650  -19.6750 C   0  0  0  0  0
    8.6140  -20.3590  -19.0460 C   0  0  0  0  0
    7.5000  -20.7370  -19.7890 C   0  0  0  0  0
    6.7630  -19.7800  -20.4760 C   0  0  0  0  0
    5.3820  -20.2510  -21.3960 Cl  0  0  0  0  0
    7.1460  -18.4470  -20.4070 C   0  0  0  0  0
    6.4060  -17.5740  -21.0880 N   0  0  0  0  0
    5.7280  -16.6380  -20.4000 C   0  0  0  0  0
    5.7260  -16.5350  -19.1740 O   0  0  0  0  0
    4.9130  -15.6760  -21.2700 C   0  0  0  0  0
    4.1250  -14.6040  -20.5200 C   0  0  0  0  0
   17.1276  -11.9846   -9.8757 H   0  0  0  0  0
   16.4428   -9.6066   -9.7720 H   0  0  0  0  0
   15.5123   -8.6732   -7.6676 H   0  0  0  0  0
   15.2460  -10.1355   -5.6809 H   0  0  0  0  0
   15.9250  -12.5146   -5.7890 H   0  0  0  0  0
   18.1267  -13.4803   -6.1126 H   0  0  0  0  0
   19.3794  -19.1712   -6.7733 H   0  0  0  0  0
   17.2741  -18.2757   -7.6281 H   0  0  0  0  0
   18.7529  -17.8264   -8.7125 H   0  0  0  0  0
   14.0791  -13.5897   -8.6171 H   0  0  0  0  0
   12.5356  -13.0747  -10.4800 H   0  0  0  0  0
   16.9338  -15.1698  -11.4076 H   0  0  0  0  0
   15.3820  -14.6647  -13.2744 H   0  0  0  0  0
   13.3417  -12.6903  -13.5627 H   0  0  0  0  0
   11.9856  -13.3810  -12.5838 H   0  0  0  0  0
   13.7713  -15.0318  -14.2112 H   0  0  0  0  0
   11.0619  -15.3996  -13.1402 H   0  0  0  0  0
   12.5692  -16.1446  -12.5052 H   0  0  0  0  0
   11.3050  -17.7205  -13.9299 H   0  0  0  0  0
   12.8832  -17.3226  -14.6363 H   0  0  0  0  0
   12.7405  -13.3500  -15.5941 H   0  0  0  0  0
   11.1623  -13.8232  -14.8837 H   0  0  0  0  0
   13.0006  -15.6188  -16.5104 H   0  0  0  0  0
   11.5000  -14.8649  -17.0939 H   0  0  0  0  0
   10.2043  -16.0889  -15.3614 H   0  0  0  0  0
   11.9684  -18.0181  -16.8547 H   0  0  0  0  0
   10.9562  -19.1876  -18.4172 H   0  0  0  0  0
    8.5674  -17.0187  -19.6485 H   0  0  0  0  0
    9.1931  -21.1155  -18.5164 H   0  0  0  0  0
    7.2049  -21.7854  -19.8322 H   0  0  0  0  0
    6.3547  -17.6142  -22.1059 H   0  0  0  0  0
    4.1784  -16.2853  -21.7964 H   0  0  0  0  0
    5.6301  -15.1472  -21.8979 H   0  0  0  0  0
    3.4139  -15.0822  -19.8464 H   0  0  0  0  0
    4.8132  -13.9852  -19.9442 H   0  0  0  0  0
    3.5875  -13.9823  -21.2360 H   0  0  0  0  0
  1  2  4  0  0  0
  1  6  4  0  0  0
  2  3  4  0  0  0
  3  4  4  0  0  0
  4  5  4  0  0  0
  5  6  4  0  0  0
  6  7  1  0  0  0
  7  8  4  0  0  0
  7 17  4  0  0  0
  8  9  4  0  0  0
  9 10  1  0  0  0
  9 15  4  0  0  0
 10 11  2  0  0  0
 10 12  1  0  0  0
 12 13  2  0  0  0
 13 14  1  0  0  0
 14 15  1  0  0  0
 15 16  4  0  0  0
 16 17  4  0  0  0
 17 18  1  0  0  0
 18 19  4  0  0  0
 18 21  4  0  0  0
 19 20  4  0  0  0
 20 23  4  0  0  0
 21 22  4  0  0  0
 22 23  4  0  0  0
 23 24  1  0  0  0
 24 25  1  0  0  0
 25 26  1  0  0  0
 25 28  1  0  0  0
 26 27  1  0  0  0
 27 30  1  0  0  0
 28 29  1  0  0  0
 29 30  1  0  0  0
 30 31  1  0  0  0
 31 32  1  0  0  0
 32 33  2  0  0  0
 32 34  1  0  0  0
 34 35  1  0  0  0
 35 36  4  0  0  0
 35 37  4  0  0  0
 36 41  4  0  0  0
 37 38  4  0  0  0
 38 39  4  0  0  0
 39 40  1  0  0  0
 39 41  4  0  0  0
 41 42  1  0  0  0
 42 43  1  0  0  0
 43 44  2  0  0  0
 43 45  1  0  0  0
 45 46  1  0  0  0
  1 47  1  0  0  0
  2 48  1  0  0  0
  3 49  1  0  0  0
  4 50  1  0  0  0
  5 51  1  0  0  0
  8 52  1  0  0  0
 13 53  1  0  0  0
 14 54  1  0  0  0
 14 55  1  0  0  0
 19 56  1  0  0  0
 20 57  1  0  0  0
 21 58  1  0  0  0
 22 59  1  0  0  0
 24 60  1  0  0  0
 24 61  1  0  0  0
 25 62  1  0  0  0
 26 63  1  0  0  0
 26 64  1  0  0  0
 27 65  1  0  0  0
 27 66  1  0  0  0
 28 67  1  0  0  0
 28 68  1  0  0  0
 29 69  1  0  0  0
 29 70  1  0  0  0
 30 71  1  0  0  0
 31 72  1  0  0  0
 34 73  1  0  0  0
 36 74  1  0  0  0
 37 75  1  0  0  0
 38 76  1  0  0  0
 42 77  1  0  0  0
 45 78  1  0  0  0
 45 79  1  0  0  0
 46 80  1  0  0  0
 46 81  1  0  0  0
 46 82  1  0  0  0
M  END
$$$$
