2wgi_ligand
  -I-interpret- 

 46 47  0  0  0  0  0  0  0  0999 V2000
   -0.5780  -12.4150   61.6870 O   0  0  0  0  0
    0.0270  -12.6080   60.5790 C   0  0  0  0  0
   -1.0130  -10.8380   58.9040 N   0  3  0  0  0
   -2.1510  -10.0590   59.3270 C   0  0  0  0  0
   -1.8360   -8.5900   59.4130 C   0  0  0  0  0
   -2.6710   -7.8400   59.9680 O   0  0  0  0  0
   -0.7450   -8.1840   58.9480 O   0  0  0  0  0
   -3.2830  -10.4560   58.3720 C   0  0  0  0  0
   -4.6540  -10.2490   59.0280 C   0  0  0  0  0
   -3.1930   -9.7000   57.0430 C   0  0  0  0  0
   -3.0390  -12.1990   58.0590 S   0  0  0  0  0
   -1.3230  -12.1980   58.5340 C   0  0  0  0  0
   -0.9990  -13.1590   59.7080 C   0  0  0  0  0
   -2.2400  -13.4990   60.4350 N   0  0  0  0  0
   -2.8580  -14.6800   60.3250 C   0  0  0  0  0
   -2.5880  -15.5050   59.4570 O   0  0  0  0  0
   -3.9610  -14.9700   61.3220 C   0  0  0  0  0
   -5.2640  -14.4050   60.7880 C   0  0  0  0  0
   -5.6680  -14.6660   59.4720 C   0  0  0  0  0
   -6.8640  -14.1300   58.9820 C   0  0  0  0  0
   -7.6640  -13.3360   59.8100 C   0  0  0  0  0
   -7.2650  -13.0710   61.1230 C   0  0  0  0  0
   -6.0670  -13.6060   61.6090 C   0  0  0  0  0
    0.0368  -12.0474   62.3262 H   0  0  0  0  0
    0.8807  -13.2773   60.6860 H   0  0  0  0  0
    0.4587  -11.6905   60.1792 H   0  0  0  0  0
   -0.3711  -10.8829   59.6954 H   0  0  0  0  0
   -0.6311  -10.3827   58.0750 H   0  0  0  0  0
   -2.4608  -10.2702   60.3505 H   0  0  0  0  0
   -0.2641   -8.9241   58.5705 H   0  0  0  0  0
   -5.4339  -10.6142   58.3598 H   0  0  0  0  0
   -4.6923  -10.7992   59.9682 H   0  0  0  0  0
   -4.8066   -9.1870   59.2205 H   0  0  0  0  0
   -2.2106   -9.8628   56.5997 H   0  0  0  0  0
   -3.9641  -10.0662   56.3652 H   0  0  0  0  0
   -3.3404   -8.6349   57.2216 H   0  0  0  0  0
   -0.7199  -12.5580   57.7005 H   0  0  0  0  0
   -0.5860  -14.0840   59.3057 H   0  0  0  0  0
   -2.6463  -12.7964   61.0528 H   0  0  0  0  0
   -3.7234  -14.5081   62.2803 H   0  0  0  0  0
   -4.0562  -16.0464   61.4647 H   0  0  0  0  0
   -5.0481  -15.2891   58.8274 H   0  0  0  0  0
   -7.1719  -14.3311   57.9559 H   0  0  0  0  0
   -8.5992  -12.9236   59.4311 H   0  0  0  0  0
   -7.8860  -12.4486   61.7673 H   0  0  0  0  0
   -5.7575  -13.3990   62.6334 H   0  0  0  0  0
  2  1  1  0  0  0
 13  2  1  0  0  0
  3  4  1  0  0  0
 12  3  1  0  0  0
  4  5  1  0  0  0
  8  4  1  0  0  0
  5  6  2  0  0  0
  5  7  1  0  0  0
  8  9  1  0  0  0
  8 10  1  0  0  0
 11  8  1  0  0  0
 12 11  1  0  0  0
 12 13  1  0  0  0
 13 14  1  0  0  0
 14 15  1  0  0  0
 15 16  2  0  0  0
 15 17  1  0  0  0
 17 18  1  0  0  0
 18 19  4  0  0  0
 18 23  4  0  0  0
 19 20  4  0  0  0
 20 21  4  0  0  0
 21 22  4  0  0  0
 22 23  4  0  0  0
  1 24  1  0  0  0
  2 25  1  0  0  0
  2 26  1  0  0  0
  3 27  1  0  0  0
  3 28  1  0  0  0
  4 29  1  0  0  0
  7 30  1  0  0  0
  9 31  1  0  0  0
  9 32  1  0  0  0
  9 33  1  0  0  0
 10 34  1  0  0  0
 10 35  1  0  0  0
 10 36  1  0  0  0
 12 37  1  0  0  0
 13 38  1  0  0  0
 14 39  1  0  0  0
 17 40  1  0  0  0
 17 41  1  0  0  0
 19 42  1  0  0  0
 20 43  1  0  0  0
 21 44  1  0  0  0
 22 45  1  0  0  0
 23 46  1  0  0  0
M  END
$$$$
