6dgr_ligand
  -I-interpret- 

 37 39  0  0  0  0  0  0  0  0999 V2000
   18.6500   61.5690   13.0790 C   0  0  0  0  0
   16.6730   61.9550   14.9720 C   0  0  0  0  0
   18.2810   61.6440   16.9240 C   0  0  0  0  0
   18.8210   63.0380   19.1370 C   0  0  0  0  0
   20.5190   64.5390   18.7990 C   0  0  0  0  0
   18.2280   66.9950    8.5180 C   0  0  0  0  0
   18.1940   65.5870    8.8170 C   0  0  0  0  0
   16.9870   65.1610    9.4010 C   0  0  0  0  0
   17.0650   67.7140    8.8340 C   0  0  0  0  0
   16.5830   63.7410    9.8500 C   0  0  0  0  0
   17.6550   62.8270   10.4630 C   0  0  0  0  0
   17.3500   61.8120   12.6470 C   0  0  0  0  0
   18.9690   61.5170   14.4450 C   0  0  0  0  0
   17.9830   61.7360   15.4060 C   0  0  0  0  0
   16.3620   62.0020   13.6090 C   0  0  0  0  0
   19.0130   62.7260   17.7550 C   0  0  0  0  0
   19.6380   64.0030   19.6490 N   0  0  0  0  0
   17.0150   61.8590   11.2720 O   0  0  0  0  0
   17.8760   62.4380   19.9840 O   0  0  0  0  0
   21.4360   65.5510   19.0990 O   0  0  0  0  0
   16.0180   66.5590    9.4910 S   0  0  0  0  0
   20.2840   63.7780   17.3040 S   0  0  0  0  0
   19.4375   61.4158   12.3411 H   0  0  0  0  0
   15.8804   62.0915   15.7077 H   0  0  0  0  0
   18.9753   60.8052   16.9732 H   0  0  0  0  0
   17.2810   61.6564   17.3574 H   0  0  0  0  0
   19.1018   67.4723    8.0743 H   0  0  0  0  0
   19.0259   64.9138    8.6102 H   0  0  0  0  0
   16.8782   68.7780    8.6887 H   0  0  0  0  0
   16.2676   63.2348    8.9376 H   0  0  0  0  0
   15.8524   63.8926   10.6446 H   0  0  0  0  0
   18.3446   63.4172   11.0664 H   0  0  0  0  0
   18.2191   62.3342    9.6711 H   0  0  0  0  0
   19.9919   61.3045   14.7557 H   0  0  0  0  0
   15.3346   62.1895   13.2967 H   0  0  0  0  0
   19.5799   64.2982   20.6236 H   0  0  0  0  0
   17.9465   62.8202   20.8618 H   0  0  0  0  0
 12  1  4  0  0  0
  1 13  4  0  0  0
  2 14  4  0  0  0
 15  2  4  0  0  0
 14  3  1  0  0  0
  3 16  1  0  0  0
 16  4  2  0  0  0
  4 17  1  0  0  0
  4 19  1  0  0  0
 17  5  1  0  0  0
  5 20  2  0  0  0
  5 22  1  0  0  0
  7  6  4  0  0  0
  9  6  4  0  0  0
  8  7  4  0  0  0
 10  8  1  0  0  0
  8 21  4  0  0  0
 21  9  4  0  0  0
 11 10  1  0  0  0
 18 11  1  0  0  0
 12 15  4  0  0  0
 12 18  1  0  0  0
 13 14  4  0  0  0
 16 22  1  0  0  0
  1 23  1  0  0  0
  2 24  1  0  0  0
  3 25  1  0  0  0
  3 26  1  0  0  0
  6 27  1  0  0  0
  7 28  1  0  0  0
  9 29  1  0  0  0
 10 30  1  0  0  0
 10 31  1  0  0  0
 11 32  1  0  0  0
 11 33  1  0  0  0
 13 34  1  0  0  0
 15 35  1  0  0  0
 17 36  1  0  0  0
 19 37  1  0  0  0
M  END
$$$$
