3du8_ligand
  -I-interpret- 

 33 35  0  0  0  0  0  0  0  0999 V2000
   24.2990  -14.5920   -9.9540 O   0  0  0  0  0
   23.2560  -14.9040  -10.5350 C   0  0  0  0  0
   22.8830  -14.4080  -11.7280 N   0  0  0  0  0
   21.6350  -14.7380  -12.4400 C   0  0  0  0  0
   20.4430  -15.1650  -11.5560 C   0  0  0  0  0
   19.7720  -13.9640  -10.8680 C   0  0  0  0  0
   19.6750  -12.7300  -11.7730 C   0  0  0  0  0
   18.6550  -12.8840  -12.6980 F   0  0  0  0  0
   20.9570  -15.9750  -10.4300 C   0  0  0  0  0
   20.3140  -16.8800   -9.6860 N   0  0  0  0  0
   22.3240  -15.8580   -9.8900 C   0  0  0  0  0
   22.4550  -16.7350   -8.8250 C   0  0  0  0  0
   21.1950  -17.3350   -8.7570 C   0  0  0  0  0
   20.6080  -18.3080   -7.8070 C   0  0  0  0  0
   21.2650  -18.5590   -6.5900 C   0  0  0  0  0
   20.6580  -19.4550   -5.7100 C   0  0  0  0  0
   19.3790  -18.8690   -8.0540 N   0  0  0  0  0
   18.8190  -19.7340   -7.1690 C   0  0  0  0  0
   19.4580  -20.0110   -5.9990 N   0  0  0  0  0
   17.6320  -20.3200   -7.4860 N   0  0  0  0  0
   23.5170  -13.7478  -12.1782 H   0  0  0  0  0
   21.8636  -15.5915  -13.0783 H   0  0  0  0  0
   21.3251  -13.8271  -12.9521 H   0  0  0  0  0
   19.7428  -15.6874  -12.2079 H   0  0  0  0  0
   20.3800  -13.6946  -10.0044 H   0  0  0  0  0
   18.7574  -14.2595  -10.6008 H   0  0  0  0  0
   20.6186  -12.6062  -12.3044 H   0  0  0  0  0
   19.4649  -11.8555  -11.1572 H   0  0  0  0  0
   23.3267  -16.9130   -8.1952 H   0  0  0  0  0
   22.2095  -18.0737   -6.3442 H   0  0  0  0  0
   21.1574  -19.7113   -4.7756 H   0  0  0  0  0
   17.1792  -20.1067   -8.3748 H   0  0  0  0  0
   17.1953  -20.9724   -6.8348 H   0  0  0  0  0
  1  2  2  0  0  0
  2  3  1  0  0  0
  2 11  1  0  0  0
  3  4  1  0  0  0
  4  5  1  0  0  0
  5  6  1  0  0  0
  5  9  1  0  0  0
  6  7  1  0  0  0
  7  8  1  0  0  0
  9 10  4  0  0  0
  9 11  4  0  0  0
 10 13  4  0  0  0
 11 12  4  0  0  0
 12 13  4  0  0  0
 13 14  1  0  0  0
 14 15  4  0  0  0
 14 17  4  0  0  0
 15 16  4  0  0  0
 16 19  4  0  0  0
 17 18  4  0  0  0
 18 19  4  0  0  0
 18 20  1  0  0  0
  3 21  1  0  0  0
  4 22  1  0  0  0
  4 23  1  0  0  0
  5 24  1  0  0  0
  6 25  1  0  0  0
  6 26  1  0  0  0
  7 27  1  0  0  0
  7 28  1  0  0  0
 12 29  1  0  0  0
 15 30  1  0  0  0
 16 31  1  0  0  0
 20 32  1  0  0  0
 20 33  1  0  0  0
M  END
$$$$
