6kqi_ligand
  -I-interpret- 

 67 68  0  0  0  0  0  0  0  0999 V2000
   21.9060   -7.7370   46.5050 C   0  0  0  0  0
   23.0720   -7.6970   45.5170 C   0  0  0  0  0
   22.8290   -6.6240   44.4440 C   0  0  0  0  0
   23.7770   -6.8800   43.2630 C   0  0  0  0  0
   23.8500   -5.6580   42.3430 C   0  0  0  0  0
   23.3060   -6.0260   40.9580 C   0  0  0  0  0
   24.3060   -5.7360   39.8280 C   0  0  0  0  0
   25.3500   -4.7070   40.2600 C   0  0  0  0  0
   23.5220   -5.1660   38.6410 C   0  0  0  0  0
   24.9520   -6.9270   39.4560 C   0  0  0  0  0
   25.8690   -7.5370   40.3090 C   0  0  0  0  0
   26.4990   -8.7220   39.9340 C   0  0  0  0  0
   26.2440   -9.3080   38.6920 C   0  0  0  0  0
   26.8500  -10.5070   38.2780 C   0  0  0  0  0
   25.8920  -11.6400   38.6260 C   0  0  0  0  0
   26.4390  -12.9640   38.1500 C   0  0  0  0  0
   27.7580  -13.2230   38.8320 C   0  0  0  0  0
   28.7440  -12.1280   38.4730 C   0  0  0  0  0
   28.2260  -10.7750   38.9370 C   0  0  0  0  0
   29.2830   -9.7240   38.5590 C   0  0  0  0  0
   30.4740   -9.8190   39.5210 C   0  0  0  0  0
   30.2650   -8.8380   40.6800 C   0  0  0  0  0
   25.3190   -8.6960   37.8520 C   0  0  0  0  0
   24.6810   -7.5190   38.2240 C   0  0  0  0  0
   25.5220  -14.0040   38.5040 O   0  0  0  0  0
   31.4260   -8.8070   41.5150 O   0  0  0  0  0
   25.0810   -9.3000   36.6530 O   0  0  0  0  0
   21.8085   -6.7655   46.9895 H   0  0  0  0  0
   20.9858   -7.9715   45.9698 H   0  0  0  0  0
   22.0952   -8.5024   47.2576 H   0  0  0  0  0
   23.1603   -8.6695   45.0327 H   0  0  0  0  0
   23.9874   -7.4570   46.0579 H   0  0  0  0  0
   23.0183   -5.6351   44.8615 H   0  0  0  0  0
   21.7946   -6.6702   44.1036 H   0  0  0  0  0
   23.4006   -7.7273   42.6898 H   0  0  0  0  0
   24.7742   -7.0842   43.6529 H   0  0  0  0  0
   24.8868   -5.3344   42.2513 H   0  0  0  0  0
   23.2520   -4.8501   42.7647 H   0  0  0  0  0
   22.4159   -5.4231   40.7784 H   0  0  0  0  0
   23.0999   -7.0963   40.9543 H   0  0  0  0  0
   26.0263   -4.5066   39.4290 H   0  0  0  0  0
   24.8492   -3.7843   40.5532 H   0  0  0  0  0
   25.9165   -5.0987   41.1048 H   0  0  0  0  0
   23.0304   -4.2410   38.9424 H   0  0  0  0  0
   24.2075   -4.9632   37.8182 H   0  0  0  0  0
   22.7724   -5.8898   38.3211 H   0  0  0  0  0
   26.0949   -7.0850   41.2748 H   0  0  0  0  0
   27.2003   -9.1981   40.6192 H   0  0  0  0  0
   27.0434  -10.4353   37.2077 H   0  0  0  0  0
   24.9356  -11.4566   38.1363 H   0  0  0  0  0
   25.7682  -11.6778   39.7083 H   0  0  0  0  0
   26.5754  -12.9411   37.0688 H   0  0  0  0  0
   28.1515  -14.1849   38.5034 H   0  0  0  0  0
   27.6097  -13.2354   39.9118 H   0  0  0  0  0
   28.8726  -12.1068   37.3908 H   0  0  0  0  0
   29.6952  -12.3316   38.9647 H   0  0  0  0  0
   28.0718  -10.7386   40.0154 H   0  0  0  0  0
   28.8431   -8.7290   38.6259 H   0  0  0  0  0
   29.6258   -9.9066   37.5406 H   0  0  0  0  0
   31.3931   -9.5688   38.9912 H   0  0  0  0  0
   30.5498  -10.8343   39.9102 H   0  0  0  0  0
   29.4082   -9.1611   41.2713 H   0  0  0  0  0
   30.0884   -7.8409   40.2766 H   0  0  0  0  0
   23.9633   -7.0554   37.5472 H   0  0  0  0  0
   25.8658  -14.8483   38.2032 H   0  0  0  0  0
   31.2835   -8.1899   42.2365 H   0  0  0  0  0
   24.4305   -8.7914   36.1633 H   0  0  0  0  0
  1  2  1  0  0  0
  2  3  1  0  0  0
  3  4  1  0  0  0
  4  5  1  0  0  0
  5  6  1  0  0  0
  6  7  1  0  0  0
  7  8  1  0  0  0
  7  9  1  0  0  0
  7 10  1  0  0  0
 10 11  4  0  0  0
 10 24  4  0  0  0
 11 12  4  0  0  0
 12 13  4  0  0  0
 13 14  1  0  0  0
 13 23  4  0  0  0
 14 15  1  0  0  0
 14 19  1  0  0  0
 15 16  1  0  0  0
 16 17  1  0  0  0
 16 25  1  0  0  0
 17 18  1  0  0  0
 18 19  1  0  0  0
 19 20  1  0  0  0
 20 21  1  0  0  0
 21 22  1  0  0  0
 22 26  1  0  0  0
 23 24  4  0  0  0
 23 27  1  0  0  0
  1 28  1  0  0  0
  1 29  1  0  0  0
  1 30  1  0  0  0
  2 31  1  0  0  0
  2 32  1  0  0  0
  3 33  1  0  0  0
  3 34  1  0  0  0
  4 35  1  0  0  0
  4 36  1  0  0  0
  5 37  1  0  0  0
  5 38  1  0  0  0
  6 39  1  0  0  0
  6 40  1  0  0  0
  8 41  1  0  0  0
  8 42  1  0  0  0
  8 43  1  0  0  0
  9 44  1  0  0  0
  9 45  1  0  0  0
  9 46  1  0  0  0
 11 47  1  0  0  0
 12 48  1  0  0  0
 14 49  1  0  0  0
 15 50  1  0  0  0
 15 51  1  0  0  0
 16 52  1  0  0  0
 17 53  1  0  0  0
 17 54  1  0  0  0
 18 55  1  0  0  0
 18 56  1  0  0  0
 19 57  1  0  0  0
 20 58  1  0  0  0
 20 59  1  0  0  0
 21 60  1  0  0  0
 21 61  1  0  0  0
 22 62  1  0  0  0
 22 63  1  0  0  0
 24 64  1  0  0  0
 25 65  1  0  0  0
 26 66  1  0  0  0
 27 67  1  0  0  0
M  END
$$$$
