5faq_ligand
  -I-interpret- 

 45 46  0  0  0  0  0  0  0  0999 V2000
   12.0240   18.8360    0.2010 O   0  0  0  0  0
   10.6280   19.1420    0.0290 S   0  0  0  0  0
   10.0060   19.5850    1.2710 O   0  0  0  0  0
   10.4560   20.3400   -0.7460 O   0  0  0  0  0
    9.8000   17.9270   -0.3580 O   0  0  0  0  0
    8.5290   18.0350   -0.5490 N   0  3  0  0  0
    7.8370   17.1400   -1.4890 C   0  0  0  0  0
    8.3570   17.3100   -2.8670 C   0  0  0  0  0
    8.0840   18.5910   -3.4070 C   0  0  0  0  0
    6.3440   17.4470   -1.4560 C   0  0  0  0  0
    6.2570   18.7790   -1.9040 N   0  0  0  0  0
    6.1080   19.7480   -0.9640 C   0  0  0  0  0
    6.2060   20.9040   -1.2670 O   0  0  0  0  0
    6.6340   18.9790   -3.3070 C   0  0  0  0  0
    5.8220   18.3270   -4.2990 C   0  0  0  0  0
    4.6510   18.2010   -4.0960 O   0  0  0  0  0
    6.3660   17.9890   -5.4690 N   0  0  0  0  0
    5.6970   17.5380   -6.3280 O   0  0  0  0  0
    5.3840   16.1740   -6.1940 C   0  0  0  0  0
    4.5160   15.7000   -7.2940 C   0  0  0  0  0
    5.4030   15.0930   -8.2860 C   0  0  0  0  0
    6.7290   15.4550   -7.8550 N   0  3  0  0  0
    6.5790   15.3000   -6.4450 C   0  0  0  0  0
    9.0791   19.7778    1.1123 H   0  0  0  0  0
    8.4139   18.9635   -0.9552 H   0  0  0  0  0
    8.1188   17.8125    0.3580 H   0  0  0  0  0
    8.0136   16.1071   -1.1888 H   0  0  0  0  0
    7.8667   16.5709   -3.5007 H   0  0  0  0  0
    9.4396   17.1885   -2.8309 H   0  0  0  0  0
    8.3475   18.5669   -4.4644 H   0  0  0  0  0
    8.6611   19.3195   -2.8375 H   0  0  0  0  0
    5.9189   17.3186   -0.4606 H   0  0  0  0  0
    5.7690   16.7638   -2.0810 H   0  0  0  0  0
    5.8985   19.4737    0.0699 H   0  0  0  0  0
    6.4584   20.0259   -3.5546 H   0  0  0  0  0
    7.3659   18.1215   -5.6210 H   0  0  0  0  0
    4.9551   16.1067   -5.1942 H   0  0  0  0  0
    3.9487   16.5235   -7.7278 H   0  0  0  0  0
    3.7827   14.9796   -6.9315 H   0  0  0  0  0
    5.1906   15.4475   -9.2946 H   0  0  0  0  0
    5.2730   14.0123   -8.3428 H   0  0  0  0  0
    7.0295   16.3846   -8.1482 H   0  0  0  0  0
    7.4747   14.8926   -8.2649 H   0  0  0  0  0
    6.4485   14.2667   -6.1235 H   0  0  0  0  0
    7.4623   15.5804   -5.8712 H   0  0  0  0  0
  1  2  2  0  0  0
  2  3  1  0  0  0
  2  4  2  0  0  0
  2  5  1  0  0  0
  5  6  1  0  0  0
  6  7  1  0  0  0
  7  8  1  0  0  0
  7 10  1  0  0  0
  8  9  1  0  0  0
  9 14  1  0  0  0
 10 11  1  0  0  0
 11 12  1  0  0  0
 11 14  1  0  0  0
 12 13  2  0  0  0
 14 15  1  0  0  0
 15 16  2  0  0  0
 15 17  1  0  0  0
 17 18  1  0  0  0
 18 19  1  0  0  0
 19 20  1  0  0  0
 19 23  1  0  0  0
 20 21  1  0  0  0
 21 22  1  0  0  0
 22 23  1  0  0  0
  3 24  1  0  0  0
  6 25  1  0  0  0
  6 26  1  0  0  0
  7 27  1  0  0  0
  8 28  1  0  0  0
  8 29  1  0  0  0
  9 30  1  0  0  0
  9 31  1  0  0  0
 10 32  1  0  0  0
 10 33  1  0  0  0
 12 34  1  0  0  0
 14 35  1  0  0  0
 17 36  1  0  0  0
 19 37  1  0  0  0
 20 38  1  0  0  0
 20 39  1  0  0  0
 21 40  1  0  0  0
 21 41  1  0  0  0
 22 42  1  0  0  0
 22 43  1  0  0  0
 23 44  1  0  0  0
 23 45  1  0  0  0
M  END
$$$$
