2ydm_ligand
  -I-interpret- 

 26 26  0  0  0  0  0  0  0  0999 V2000
   12.9620   -8.3170  -21.7140 C   0  0  0  0  0
   11.8620   -8.6530  -21.3290 O   0  0  0  0  0
   13.9790   -8.1970  -20.6680 C   0  0  0  0  0
   15.2600   -8.2290  -20.9450 C   0  0  0  0  0
   13.5610   -8.1020  -19.2200 C   0  0  0  0  0
   13.7880   -6.2380  -18.6610 Se  0  0  0  0  0
   13.2500   -8.1130  -23.0170 N   0  0  0  0  0
   12.3260   -8.2580  -23.9570 C   0  0  0  0  0
   11.4960   -9.3140  -24.0970 C   0  0  0  0  0
   10.6740   -9.3950  -25.0330 O   0  0  0  0  0
   12.5120   -7.1560  -24.9390 C   0  0  0  0  0
   14.0340   -7.0490  -24.9080 C   0  0  0  0  0
   14.5170   -7.6820  -23.5970 C   0  0  0  0  0
   11.4890  -10.2190  -23.2480 O   0  0  0  0  0
   15.9930   -8.1873  -20.1394 H   0  0  0  0  0
   15.5920   -8.2973  -21.9809 H   0  0  0  0  0
   14.1717   -8.7615  -18.6034 H   0  0  0  0  0
   12.5223   -8.4110  -19.1025 H   0  0  0  0  0
   11.3218   -8.5880  -23.6911 H   0  0  0  0  0
   10.7804   -8.6405  -25.6170 H   0  0  0  0  0
   11.9849   -6.2337  -24.6947 H   0  0  0  0  0
   12.0883   -7.3473  -25.9249 H   0  0  0  0  0
   14.3429   -6.0051  -24.9625 H   0  0  0  0  0
   14.4690   -7.5666  -25.7630 H   0  0  0  0  0
   15.2377   -8.4881  -23.7342 H   0  0  0  0  0
   15.0864   -7.0036  -22.9616 H   0  0  0  0  0
  1  2  2  0  0  0
  1  3  1  0  0  0
  1  7  1  0  0  0
  3  4  2  0  0  0
  3  5  1  0  0  0
  5  6  1  0  0  0
  7  8  1  0  0  0
  7 13  1  0  0  0
  8  9  1  0  0  0
  8 11  1  0  0  0
  9 10  1  0  0  0
  9 14  2  0  0  0
 11 12  1  0  0  0
 12 13  1  0  0  0
  4 15  1  0  0  0
  4 16  1  0  0  0
  5 17  1  0  0  0
  5 18  1  0  0  0
  8 19  1  0  0  0
 10 20  1  0  0  0
 11 21  1  0  0  0
 11 22  1  0  0  0
 12 23  1  0  0  0
 12 24  1  0  0  0
 13 25  1  0  0  0
 13 26  1  0  0  0
M  END
$$$$
