5i29_ligand
  -I-interpret- 

 38 40  0  0  0  0  0  0  0  0999 V2000
    7.9590   -7.5820   -3.2460 C   0  0  0  0  0
    7.0780   -6.7680   -1.0210 C   0  0  0  0  0
    8.1230   -8.7850   -0.0650 C   0  0  0  0  0
    7.6890   -8.1560   -4.4760 C   0  0  0  0  0
    5.6190   -7.6750   -2.7640 C   0  0  0  0  0
    3.9350   -8.5420   -4.4250 C   0  0  0  0  0
    6.4280   -8.4800   -4.8600 C   0  0  0  0  0
    3.0000   -8.9150   -3.4810 C   0  0  0  0  0
    0.7950   -9.4790   -2.6690 C   0  0  0  0  0
   -0.0220   -9.3040   -5.2270 O   0  0  0  0  0
    1.1640   -9.0900   -5.0060 C   0  0  0  0  0
    1.7140   -9.1740   -3.7660 N   0  0  0  0  0
    2.1140   -8.7460   -6.0480 C   0  0  0  0  0
    1.8780   -8.5530   -7.3620 N   0  0  0  0  0
    3.0690   -8.1340   -7.9340 C   0  0  0  0  0
    4.0740   -8.0440   -6.9940 C   0  0  0  0  0
    3.4480   -8.4440   -5.7500 C   0  0  0  0  0
    5.3600   -8.2580   -4.0170 C   0  0  0  0  0
    6.8970   -7.4020   -2.3590 C   0  0  0  0  0
    6.6000   -5.5770   -0.8730 O   0  0  0  0  0
    7.6840   -7.3700   -0.0150 N   0  0  0  0  0
    7.7690   -6.7240    1.2690 C   0  0  0  0  0
    8.9713   -7.2795   -2.9781 H   0  0  0  0  0
    9.1682   -8.8507    0.2373 H   0  0  0  0  0
    7.5094   -9.3786    0.6127 H   0  0  0  0  0
    8.0131   -9.1625   -1.0816 H   0  0  0  0  0
    8.5155   -8.3543   -5.1584 H   0  0  0  0  0
    4.7860   -7.4361   -2.1029 H   0  0  0  0  0
    6.2584   -8.9193   -5.8430 H   0  0  0  0  0
    3.3244   -9.0045   -2.4442 H   0  0  0  0  0
    1.1440  -10.3660   -2.1403 H   0  0  0  0  0
    0.7599   -8.6345   -1.9807 H   0  0  0  0  0
   -0.2011   -9.6628   -3.0716 H   0  0  0  0  0
    3.1952   -7.9048   -8.9921 H   0  0  0  0  0
    5.1087   -7.7397   -7.1517 H   0  0  0  0  0
    7.1455   -7.2589    1.9854 H   0  0  0  0  0
    8.8043   -6.7310    1.6100 H   0  0  0  0  0
    7.4213   -5.6948    1.1802 H   0  0  0  0  0
  4  1  4  0  0  0
 19  1  4  0  0  0
 19  2  1  0  0  0
  2 20  2  0  0  0
  2 21  1  0  0  0
 21  3  1  0  0  0
  7  4  4  0  0  0
 18  5  4  0  0  0
  5 19  4  0  0  0
  8  6  2  0  0  0
  6 17  1  0  0  0
  6 18  1  0  0  0
 18  7  4  0  0  0
 12  8  1  0  0  0
 12  9  1  0  0  0
 11 10  2  0  0  0
 11 12  1  0  0  0
 11 13  1  0  0  0
 13 14  4  0  0  0
 13 17  4  0  0  0
 14 15  4  0  0  0
 15 16  4  0  0  0
 16 17  4  0  0  0
 21 22  1  0  0  0
  1 23  1  0  0  0
  3 24  1  0  0  0
  3 25  1  0  0  0
  3 26  1  0  0  0
  4 27  1  0  0  0
  5 28  1  0  0  0
  7 29  1  0  0  0
  8 30  1  0  0  0
  9 31  1  0  0  0
  9 32  1  0  0  0
  9 33  1  0  0  0
 15 34  1  0  0  0
 16 35  1  0  0  0
 22 36  1  0  0  0
 22 37  1  0  0  0
 22 38  1  0  0  0
M  END
$$$$
