5jan_ligand
  -I-interpret- 

 31 31  0  0  0  0  0  0  0  0999 V2000
   31.8480   -5.2990   -5.2620 C   0  0  0  0  0
   30.7980   -4.3260   -5.8040 C   0  0  0  0  0
   30.0160   -4.9480   -6.9640 C   0  0  0  0  0
   29.0640   -1.7760   -3.8860 C   0  0  0  0  0
   29.3840   -0.5120   -4.2570 C   0  0  0  0  0
   29.1750    0.6060   -3.3920 C   0  0  0  0  0
   29.4460    1.7660   -3.6790 O   0  0  0  0  0
   28.3900    1.4260   -1.2210 C   0  0  0  0  0
   28.2750   -0.9810   -1.7150 C   0  0  0  0  0
   28.1480   -3.3740   -2.1700 C   0  0  0  0  0
   29.8610   -3.8680   -4.6900 C   0  0  0  0  0
   29.4110   -2.5420   -4.9710 O   0  0  0  0  0
   28.6220    0.3040   -2.1440 N   0  0  0  0  0
   27.7960   -1.1780   -0.6120 O   0  0  0  0  0
   28.5060   -2.0140   -2.6060 N   0  0  0  0  0
   32.4350   -4.8041   -4.4883 H   0  0  0  0  0
   31.3494   -6.1713   -4.8394 H   0  0  0  0  0
   32.5047   -5.6120   -6.0737 H   0  0  0  0  0
   31.3170   -3.4487   -6.1901 H   0  0  0  0  0
   29.4568   -5.8109   -6.6022 H   0  0  0  0  0
   29.3247   -4.2103   -7.3714 H   0  0  0  0  0
   30.7117   -5.2641   -7.7413 H   0  0  0  0  0
   29.8135   -0.3435   -5.2445 H   0  0  0  0  0
   27.3284    1.4837   -0.9808 H   0  0  0  0  0
   28.9625    1.2673   -0.3071 H   0  0  0  0  0
   28.7079    2.3553   -1.6937 H   0  0  0  0  0
   28.7163   -3.6288   -1.2755 H   0  0  0  0  0
   27.0816   -3.4141   -1.9482 H   0  0  0  0  0
   28.3820   -4.0823   -2.9647 H   0  0  0  0  0
   30.3911   -3.8805   -3.7377 H   0  0  0  0  0
   29.0051   -4.5404   -4.6322 H   0  0  0  0  0
  2  1  1  0  0  0
  2  3  1  0  0  0
 11  2  1  0  0  0
  4  5  2  0  0  0
 12  4  1  0  0  0
  4 15  1  0  0  0
  5  6  1  0  0  0
  6  7  2  0  0  0
  6 13  1  0  0  0
 13  8  1  0  0  0
  9 13  1  0  0  0
  9 14  2  0  0  0
 15  9  1  0  0  0
 15 10  1  0  0  0
 11 12  1  0  0  0
  1 16  1  0  0  0
  1 17  1  0  0  0
  1 18  1  0  0  0
  2 19  1  0  0  0
  3 20  1  0  0  0
  3 21  1  0  0  0
  3 22  1  0  0  0
  5 23  1  0  0  0
  8 24  1  0  0  0
  8 25  1  0  0  0
  8 26  1  0  0  0
 10 27  1  0  0  0
 10 28  1  0  0  0
 10 29  1  0  0  0
 11 30  1  0  0  0
 11 31  1  0  0  0
M  END
$$$$
