2oh4_ligand
  -I-interpret- 

 52 55  0  0  0  0  0  0  0  0999 V2000
    3.8180   42.1630   16.2660 C   0  0  0  0  0
    3.3520   40.9610   15.7890 C   0  0  0  0  0
    2.2310   40.9280   14.9250 C   0  0  0  0  0
    1.6380   42.1490   14.5570 C   0  0  0  0  0
    3.2090   43.3680   15.9180 C   0  0  0  0  0
    1.7150   39.7440   14.3920 N   0  0  0  0  0
    1.8400   38.4790   14.9620 C   0  0  0  0  0
    0.3750   35.3350   13.5620 C   0  0  0  0  0
    1.3240   34.2650   15.9590 C   0  0  0  0  0
    1.5310   35.6090   15.6870 C   0  0  0  0  0
    0.9770   30.2490   16.5390 C   0  0  0  0  0
    2.5920   24.1590   20.7880 C   0  0  0  0  0
    3.3860   24.9300   19.8640 O   0  0  0  0  0
    2.7940   26.0050   19.3060 C   0  0  0  0  0
    1.5340   26.0010   19.2070 O   0  0  0  0  0
    3.6610   26.6580   18.5000 N   0  0  0  0  0
    3.2900   27.8030   17.7700 C   0  0  0  0  0
    4.1140   28.5060   16.9830 N   0  0  0  0  0
    3.3300   29.5070   16.4530 C   0  0  0  0  0
    3.6970   30.5510   15.5730 C   0  0  0  0  0
    2.6930   31.4170   15.1850 C   0  0  0  0  0
    1.3710   31.2660   15.6690 C   0  0  0  0  0
    0.3720   32.1280   15.2970 O   0  0  0  0  0
    0.6090   33.4740   15.0400 C   0  0  0  0  0
    1.0590   36.1610   14.4710 C   0  0  0  0  0
    1.2720   37.5070   14.1350 N   0  0  0  0  0
    2.7540   38.2140   15.7960 O   0  0  0  0  0
    2.1110   43.3720   15.0650 C   0  0  0  0  0
    0.5910   42.1310   13.7320 F   0  0  0  0  0
    5.0010   42.1560   17.2260 C   0  0  0  0  0
    5.1800   43.3280   17.8870 F   0  0  0  0  0
    4.8570   41.2930   18.2530 F   0  0  0  0  0
    6.1940   41.7900   16.7140 F   0  0  0  0  0
    0.1510   33.9940   13.8360 C   0  0  0  0  0
    1.9790   29.3760   16.9330 C   0  0  0  0  0
    1.9620   28.2750   17.7700 N   0  0  0  0  0
    3.8459   40.0327   16.0762 H   0  0  0  0  0
    3.5939   44.3074   16.3149 H   0  0  0  0  0
    1.2040   39.8115   13.5118 H   0  0  0  0  0
    0.0138   35.7565   12.6239 H   0  0  0  0  0
    1.7120   33.8245   16.8774 H   0  0  0  0  0
    2.0550   36.2383   16.4064 H   0  0  0  0  0
   -0.0513   30.1476   16.8861 H   0  0  0  0  0
    2.2861   24.7937   21.6197 H   0  0  0  0  0
    1.7084   23.7781   20.2758 H   0  0  0  0  0
    3.1833   23.3244   21.1646 H   0  0  0  0  0
    4.6160   26.3093   18.4181 H   0  0  0  0  0
    4.7212   30.6668   15.2183 H   0  0  0  0  0
    2.9222   32.2294   14.4954 H   0  0  0  0  0
    0.9859   37.8024   13.2016 H   0  0  0  0  0
    1.6242   44.3089   14.7942 H   0  0  0  0  0
   -0.3740   33.3607   13.1209 H   0  0  0  0  0
  2  1  4  0  0  0
  1  5  4  0  0  0
  1 30  1  0  0  0
  3  2  4  0  0  0
  3  4  4  0  0  0
  6  3  1  0  0  0
  4 28  4  0  0  0
  4 29  1  0  0  0
 28  5  4  0  0  0
  7  6  1  0  0  0
 26  7  1  0  0  0
  7 27  2  0  0  0
 25  8  4  0  0  0
  8 34  4  0  0  0
 10  9  4  0  0  0
  9 24  4  0  0  0
 25 10  4  0  0  0
 22 11  4  0  0  0
 11 35  4  0  0  0
 13 12  1  0  0  0
 14 13  1  0  0  0
 14 15  2  0  0  0
 16 14  1  0  0  0
 17 16  1  0  0  0
 18 17  4  0  0  0
 17 36  4  0  0  0
 19 18  4  0  0  0
 20 19  4  0  0  0
 35 19  4  0  0  0
 21 20  4  0  0  0
 22 21  4  0  0  0
 23 22  1  0  0  0
 24 23  1  0  0  0
 34 24  4  0  0  0
 25 26  1  0  0  0
 30 31  1  0  0  0
 30 32  1  0  0  0
 30 33  1  0  0  0
 35 36  4  0  0  0
  2 37  1  0  0  0
  5 38  1  0  0  0
  6 39  1  0  0  0
  8 40  1  0  0  0
  9 41  1  0  0  0
 10 42  1  0  0  0
 11 43  1  0  0  0
 12 44  1  0  0  0
 12 45  1  0  0  0
 12 46  1  0  0  0
 16 47  1  0  0  0
 20 48  1  0  0  0
 21 49  1  0  0  0
 26 50  1  0  0  0
 28 51  1  0  0  0
 34 52  1  0  0  0
M  END
$$$$
