4buq_ligand
  -I-interpret- 

 45 45  0  0  0  0  0  0  0  0999 V2000
   21.5880   -4.6460    5.2170 O   0  0  0  0  0
   21.9480   -5.2020    6.5060 C   0  0  0  0  0
   20.7850   -6.0600    7.0150 C   0  0  0  0  0
   20.1990   -5.8900   13.5660 C   0  0  0  0  0
   19.6130   -5.2220    7.1330 O   0  0  0  0  0
   20.4940   -7.1770    6.0630 C   0  0  0  0  0
   21.6730   -8.0430    5.9980 O   0  0  0  0  0
   19.3210   -7.9820    6.5990 C   0  0  0  0  0
   19.0330   -9.0150    5.6520 O   0  0  0  0  0
   18.0940   -7.0760    6.7340 C   0  0  0  0  0
   17.7700   -6.5580    5.4730 O   0  0  0  0  0
   18.4280   -5.9240    7.6330 C   0  0  0  0  0
   18.7600   -6.4330    8.9360 O   0  0  0  0  0
   19.0290   -5.4320    9.9330 C   0  0  0  0  0
   19.4450   -6.1850   11.2030 C   0  0  0  0  0
   19.7640   -5.1740   12.2920 C   0  0  0  0  0
   21.3020   -4.5610   17.0320 C   0  0  0  0  0
   20.9730   -5.5570   15.9150 C   0  0  0  0  0
   20.5220   -4.8420   14.6400 C   0  0  0  0  0
   22.3111   -4.1062    4.8894 H   0  0  0  0  0
   22.1502   -4.3969    7.2124 H   0  0  0  0  0
   22.8439   -5.8149    6.4070 H   0  0  0  0  0
   21.0532   -6.4881    7.9809 H   0  0  0  0  0
   21.0826   -6.4957   13.3648 H   0  0  0  0  0
   19.3970   -6.5403   13.9153 H   0  0  0  0  0
   20.2552   -6.7851    5.0743 H   0  0  0  0  0
   22.4187   -7.5416    5.6602 H   0  0  0  0  0
   19.5644   -8.4025    7.5747 H   0  0  0  0  0
   19.7983   -9.5875    5.5620 H   0  0  0  0  0
   17.2617   -7.6497    7.1416 H   0  0  0  0  0
   17.0010   -5.9886    5.5502 H   0  0  0  0  0
   17.5722   -5.2499    7.6694 H   0  0  0  0  0
   18.1488   -4.8153   10.1150 H   0  0  0  0  0
   19.8174   -4.7550    9.6042 H   0  0  0  0  0
   20.3242   -6.7958   10.9981 H   0  0  0  0  0
   18.6326   -6.8343   11.5293 H   0  0  0  0  0
   20.5734   -4.5279   11.9523 H   0  0  0  0  0
   18.8724   -4.5832   12.5020 H   0  0  0  0  0
   22.1050   -3.9011   16.7037 H   0  0  0  0  0
   20.4157   -3.9699   17.2627 H   0  0  0  0  0
   21.6185   -5.1059   17.9214 H   0  0  0  0  0
   20.1617   -6.2008   16.2548 H   0  0  0  0  0
   21.8716   -6.1311   15.6891 H   0  0  0  0  0
   19.6347   -4.2442   14.8484 H   0  0  0  0  0
   21.3173   -4.1862   14.2858 H   0  0  0  0  0
  2  1  1  0  0  0
  3  2  1  0  0  0
  5  3  1  0  0  0
  3  6  1  0  0  0
  4 16  1  0  0  0
 19  4  1  0  0  0
 12  5  1  0  0  0
  6  7  1  0  0  0
  8  6  1  0  0  0
  8  9  1  0  0  0
 10  8  1  0  0  0
 10 11  1  0  0  0
 12 10  1  0  0  0
 13 12  1  0  0  0
 14 13  1  0  0  0
 15 14  1  0  0  0
 16 15  1  0  0  0
 18 17  1  0  0  0
 18 19  1  0  0  0
  1 20  1  0  0  0
  2 21  1  0  0  0
  2 22  1  0  0  0
  3 23  1  0  0  0
  4 24  1  0  0  0
  4 25  1  0  0  0
  6 26  1  0  0  0
  7 27  1  0  0  0
  8 28  1  0  0  0
  9 29  1  0  0  0
 10 30  1  0  0  0
 11 31  1  0  0  0
 12 32  1  0  0  0
 14 33  1  0  0  0
 14 34  1  0  0  0
 15 35  1  0  0  0
 15 36  1  0  0  0
 16 37  1  0  0  0
 16 38  1  0  0  0
 17 39  1  0  0  0
 17 40  1  0  0  0
 17 41  1  0  0  0
 18 42  1  0  0  0
 18 43  1  0  0  0
 19 44  1  0  0  0
 19 45  1  0  0  0
M  END
$$$$
