2k00_ligand
  -I-interpret- 

247250  0  0  0  0  0  0  0  0999 V2000
  -20.7740  -15.9980  -10.3320 N   0  3  0  0  0
  -20.7280  -15.1930   -9.0880 C   0  0  0  0  0
  -19.4570  -15.4250   -8.3010 C   0  0  0  0  0
  -19.3070  -16.4570   -7.6440 O   0  0  0  0  0
  -18.5370  -14.4740   -8.3690 N   0  0  0  0  0
  -17.2890  -14.5640   -7.6290 C   0  0  0  0  0
  -17.2040  -13.4290   -6.6030 C   0  0  0  0  0
  -17.0030  -12.2720   -6.9710 O   0  0  0  0  0
  -16.0980  -14.4930   -8.5900 C   0  0  0  0  0
  -14.7510  -14.7220   -7.9180 C   0  0  0  0  0
  -14.7200  -16.0410   -7.1400 C   0  0  0  0  0
  -15.0350  -17.1890   -7.9910 N   0  0  0  0  0
  -14.9450  -18.4570   -7.5930 C   0  0  0  0  0
  -14.5770  -18.7380   -6.3480 N   0  0  0  0  0
  -15.2330  -19.4420   -8.4390 N   0  0  0  0  0
  -17.3700  -13.7530   -5.3250 N   0  0  0  0  0
  -17.3260  -12.7490   -4.2760 C   0  0  0  0  0
  -15.8870  -12.4860   -3.8410 C   0  0  0  0  0
  -15.0070  -13.3260   -4.0380 O   0  0  0  0  0
  -18.1640  -13.2150   -3.0830 C   0  0  0  0  0
  -17.7550  -14.5010   -2.6480 O   0  0  0  0  0
  -15.6530  -11.3180   -3.2630 N   0  0  0  0  0
  -14.3440  -10.9730   -2.7270 C   0  0  0  0  0
  -14.5200  -10.2210   -1.4160 C   0  0  0  0  0
  -13.8410   -9.2360   -1.1380 O   0  0  0  0  0
  -13.5150  -10.1560   -3.7370 C   0  0  0  0  0
  -14.1210   -8.8180   -4.1630 C   0  0  0  0  0
  -15.2690   -8.9980   -5.1610 C   0  0  0  0  0
  -15.8120   -7.6690   -5.6990 C   0  0  0  0  0
  -15.9660   -6.6490   -4.6290 N   0  3  0  0  0
  -15.4430  -10.7300   -0.6130 N   0  0  0  0  0
  -15.8080  -10.1200    0.6590 C   0  0  0  0  0
  -14.6050   -9.9730    1.5870 C   0  0  0  0  0
  -14.2750   -8.8700    2.0170 O   0  0  0  0  0
  -16.9010  -10.9460    1.3410 C   0  0  0  0  0
  -18.2550  -10.8630    0.6510 C   0  0  0  0  0
  -19.2570  -11.8310    1.2350 C   0  0  0  0  0
  -19.6530  -11.6480    2.4030 O   0  0  0  0  0
  -19.6560  -12.7800    0.5290 O   0  0  0  0  0
  -13.9560  -11.0840    1.8930 N   0  0  0  0  0
  -12.7970  -11.0650    2.7670 C   0  0  0  0  0
  -11.5160  -10.8910    1.9590 C   0  0  0  0  0
  -11.3910  -11.4180    0.8500 O   0  0  0  0  0
  -12.7450  -12.3500    3.5960 C   0  0  0  0  0
  -12.9380  -13.4960    2.7790 O   0  0  0  0  0
  -10.5810  -10.1250    2.5060 N   0  0  0  0  0
   -9.3040   -9.9260    1.8530 C   0  0  0  0  0
   -9.3040   -8.7240    0.9310 C   0  0  0  0  0
   -8.4080   -7.8820    1.0000 O   0  0  0  0  0
  -10.3150   -8.6440    0.0750 N   0  0  0  0  0
  -10.4180   -7.5660   -0.8990 C   0  0  0  0  0
  -11.3060   -6.4480   -0.3730 C   0  0  0  0  0
  -12.4850   -6.6510   -0.0830 O   0  0  0  0  0
  -10.9580   -8.0930   -2.2280 C   0  0  0  0  0
  -10.0390   -9.0700   -2.9010 C   0  0  0  0  0
  -10.0350  -10.4290   -2.7550 C   0  0  0  0  0
   -8.9880   -8.7640   -3.8290 C   0  0  0  0  0
   -9.0480  -10.9850   -3.5300 N   0  0  0  0  0
   -8.3920   -9.9850   -4.2000 C   0  0  0  0  0
   -8.4930   -7.5790   -4.3850 C   0  0  0  0  0
   -7.3290  -10.0540   -5.0980 C   0  0  0  0  0
   -7.4380   -7.6500   -5.2770 C   0  0  0  0  0
   -6.8680   -8.8800   -5.6260 C   0  0  0  0  0
  -10.7240   -5.2710   -0.2460 N   0  0  0  0  0
  -11.4520   -4.1090    0.2470 C   0  0  0  0  0
  -11.6840   -3.1210   -0.8860 C   0  0  0  0  0
  -10.7370   -2.6630   -1.5260 O   0  0  0  0  0
  -10.7150   -3.4040    1.4110 C   0  0  0  0  0
  -11.5380   -2.2330    1.9370 C   0  0  0  0  0
  -10.4190   -4.3900    2.5390 C   0  0  0  0  0
  -12.9470   -2.8000   -1.1250 N   0  0  0  0  0
  -13.3320   -1.9590   -2.2470 C   0  0  0  0  0
  -13.4300   -0.4990   -1.8210 C   0  0  0  0  0
  -14.3670   -0.1050   -1.1240 O   0  0  0  0  0
  -14.6690   -2.4380   -2.8220 C   0  0  0  0  0
  -14.6450   -3.8730   -3.3420 C   0  0  0  0  0
  -13.9240   -4.0240   -4.6660 C   0  0  0  0  0
  -12.7500   -3.6040   -4.7510 O   0  0  0  0  0
  -14.5190   -4.5370   -5.6340 O   0  0  0  0  0
  -12.4560    0.2990   -2.2370 N   0  0  0  0  0
  -12.4430    1.7210   -1.8930 C   0  0  0  0  0
  -13.1860    2.5250   -2.9510 C   0  0  0  0  0
  -13.3340    2.0770   -4.0880 O   0  0  0  0  0
  -11.0160    2.2510   -1.7360 C   0  0  0  0  0
  -10.9910    3.6900   -1.2700 C   0  0  0  0  0
  -10.1380    4.4660   -1.6760 O   0  0  0  0  0
  -11.9180    4.0480   -0.3920 N   0  0  0  0  0
  -13.6500    3.7140   -2.5810 N   0  0  0  0  0
  -14.5240    4.4770   -3.4510 C   0  0  0  0  0
  -13.9720    5.8490   -3.8150 C   0  0  0  0  0
  -14.7180    6.7000   -4.3030 O   0  0  0  0  0
  -15.8980    4.6380   -2.7960 C   0  0  0  0  0
  -16.5590    3.3290   -2.3900 C   0  0  0  0  0
  -17.8890    3.5420   -1.6990 C   0  0  0  0  0
  -18.9180    3.6680   -2.3950 O   0  0  0  0  0
  -17.9140    3.5780   -0.4510 O   0  0  0  0  0
  -12.6860    6.0800   -3.6220 N   0  0  0  0  0
  -12.1250    7.3710   -4.0430 C   0  0  0  0  0
  -11.2350    7.2380   -5.2670 C   0  0  0  0  0
  -10.5130    8.1700   -5.6140 O   0  0  0  0  0
  -11.3550    8.1360   -2.9390 C   0  0  0  0  0
  -10.1670    7.3300   -2.3890 C   0  0  0  0  0
  -12.2970    8.5410   -1.8060 C   0  0  0  0  0
   -9.4580    8.0140   -1.2250 C   0  0  0  0  0
  -11.3150    6.1010   -5.9380 N   0  0  0  0  0
  -10.5720    5.9050   -7.1760 C   0  0  0  0  0
  -11.2570    6.6620   -8.3090 C   0  0  0  0  0
  -12.2270    6.1780   -8.8970 O   0  0  0  0  0
  -10.4520    4.4160   -7.5190 C   0  0  0  0  0
   -9.6400    4.1460   -8.7640 C   0  0  0  0  0
   -8.2830    4.4310   -8.8070 C   0  0  0  0  0
  -10.2300    3.6010   -9.8950 C   0  0  0  0  0
   -7.5370    4.1830   -9.9390 C   0  0  0  0  0
   -9.4910    3.3460  -11.0330 C   0  0  0  0  0
   -8.1450    3.6390  -11.0500 C   0  0  0  0  0
   -7.4050    3.3940  -12.1850 O   0  0  0  0  0
  -10.7780    7.8690   -8.5780 N   0  0  0  0  0
  -11.3680    8.7240   -9.5800 C   0  0  0  0  0
  -10.9210    8.3470  -11.0020 C   0  0  0  0  0
  -11.3150    7.2630  -11.4870 O   0  0  0  0  0
  -11.0410   10.1990   -9.2410 C   0  0  0  0  0
   -9.5640   10.5820   -9.1250 C   0  0  0  0  0
   -8.5260    9.6930   -9.4110 C   0  0  0  0  0
   -9.2200   11.8670   -8.7240 C   0  0  0  0  0
   -7.2020   10.0780   -9.2980 C   0  0  0  0  0
   -7.9010   12.2570   -8.6080 C   0  0  0  0  0
   -6.8970   11.3600   -8.8950 C   0  0  0  0  0
   -5.5800   11.7480   -8.7700 O   0  0  0  0  0
  -10.2170    9.1450  -11.6510 O   0  0  0  0  0
  -21.6459  -15.8083  -10.8262 H   0  0  0  0  0
  -19.9836  -15.7485  -10.9264 H   0  0  0  0  0
  -20.7241  -16.9891  -10.0962 H   0  0  0  0  0
  -21.5712  -15.4874   -8.4632 H   0  0  0  0  0
  -20.7667  -14.1395   -9.3652 H   0  0  0  0  0
  -18.7089  -13.6576   -8.9558 H   0  0  0  0  0
  -17.2602  -15.5188   -7.1040 H   0  0  0  0  0
  -16.0827  -13.4893   -9.0147 H   0  0  0  0  0
  -16.2302  -15.2823   -9.3300 H   0  0  0  0  0
  -14.5751  -13.9064   -7.2166 H   0  0  0  0  0
  -13.9846  -14.7628   -8.6920 H   0  0  0  0  0
  -15.4690  -15.9876   -6.3499 H   0  0  0  0  0
  -13.7143  -16.1780   -6.7426 H   0  0  0  0  0
  -15.3420  -17.0073   -8.9466 H   0  0  0  0  0
  -14.3633  -17.9828   -5.6966 H   0  0  0  0  0
  -15.1712  -20.4126   -8.1317 H   0  0  0  0  0
  -15.5156  -19.2268   -9.3951 H   0  0  0  0  0
  -17.5319  -14.7285   -5.0750 H   0  0  0  0  0
  -17.7391  -11.8176   -4.6633 H   0  0  0  0  0
  -19.2095  -13.2643   -3.3873 H   0  0  0  0  0
  -18.0297  -12.5089   -2.2635 H   0  0  0  0  0
  -18.2938  -14.7712   -1.9008 H   0  0  0  0  0
  -16.4118  -10.6402   -3.1911 H   0  0  0  0  0
  -13.7880  -11.8913   -2.5382 H   0  0  0  0  0
  -13.4417  -10.7631   -4.6393 H   0  0  0  0  0
  -12.5700   -9.9246   -3.2455 H   0  0  0  0  0
  -13.3406   -8.2290   -4.6447 H   0  0  0  0  0
  -14.5164   -8.3253   -3.2747 H   0  0  0  0  0
  -16.0836   -9.5026   -4.6414 H   0  0  0  0  0
  -14.8853   -9.5663   -6.0083 H   0  0  0  0  0
  -16.7944   -7.8555   -6.1327 H   0  0  0  0  0
  -15.1027   -7.2857   -6.4325 H   0  0  0  0  0
  -16.3285   -5.7857   -5.0335 H   0  0  0  0  0
  -16.6161   -6.9942   -3.9229 H   0  0  0  0  0
  -15.0587   -6.4696   -4.1988 H   0  0  0  0  0
  -15.9188  -11.5862   -0.8977 H   0  0  0  0  0
  -16.1847   -9.1189    0.4492 H   0  0  0  0  0
  -17.0254  -10.5508    2.3492 H   0  0  0  0  0
  -16.5854  -11.9889    1.3127 H   0  0  0  0  0
  -18.1147  -11.1150   -0.4001 H   0  0  0  0  0
  -18.6421   -9.8531    0.7866 H   0  0  0  0  0
  -19.2306  -12.7388   -0.3306 H   0  0  0  0  0
  -14.2763  -11.9722    1.5071 H   0  0  0  0  0
  -12.8842  -10.2162    3.4452 H   0  0  0  0  0
  -13.5397  -12.3159    4.3412 H   0  0  0  0  0
  -11.7651  -12.4202    4.0682 H   0  0  0  0  0
  -12.9007  -14.2858    3.3235 H   0  0  0  0  0
  -10.7645   -9.6694    3.4000 H   0  0  0  0  0
   -9.0925  -10.8104    1.2520 H   0  0  0  0  0
   -8.5542   -9.7566    2.6258 H   0  0  0  0  0
  -11.0419   -9.3591    0.1000 H   0  0  0  0  0
   -9.4194   -7.1623   -1.0659 H   0  0  0  0  0
  -11.0755   -7.2396   -2.8959 H   0  0  0  0  0
  -11.8931   -8.6126   -2.0192 H   0  0  0  0  0
  -10.7168  -10.9899   -2.1158 H   0  0  0  0  0
   -8.9311   -6.6168   -4.1198 H   0  0  0  0  0
   -6.8809  -11.0097   -5.3699 H   0  0  0  0  0
   -7.0441   -6.7331   -5.7153 H   0  0  0  0  0
   -6.0392   -8.9023   -6.3336 H   0  0  0  0  0
   -9.7408   -5.1719   -0.4990 H   0  0  0  0  0
  -12.4075   -4.4660    0.6312 H   0  0  0  0  0
   -9.7687   -3.0204    1.0295 H   0  0  0  0  0
  -11.6994   -1.5141    1.1337 H   0  0  0  0  0
  -12.4994   -2.5991    2.2973 H   0  0  0  0  0
  -11.0014   -1.7517    2.7546 H   0  0  0  0  0
  -11.3554   -4.8036    2.9134 H   0  0  0  0  0
   -9.7903   -5.1957    2.1599 H   0  0  0  0  0
   -9.9007   -3.8720    3.3460 H   0  0  0  0  0
  -13.6727   -3.1542   -0.5019 H   0  0  0  0  0
  -12.5653   -2.0354   -3.0180 H   0  0  0  0  0
  -14.9064   -1.7924   -3.6675 H   0  0  0  0  0
  -15.3999   -2.3997   -2.0142 H   0  0  0  0  0
  -15.6786   -4.1835   -3.4945 H   0  0  0  0  0
  -14.1129   -4.4785   -2.6083 H   0  0  0  0  0
  -12.4764   -3.2483   -3.9024 H   0  0  0  0  0
  -11.7025   -0.0854   -2.8069 H   0  0  0  0  0
  -12.9480    1.8340   -0.9337 H   0  0  0  0  0
  -10.5257    2.2000   -2.7082 H   0  0  0  0  0
  -10.5079    1.6426   -0.9878 H   0  0  0  0  0
  -11.9367    5.0015   -0.0303 H   0  0  0  0  0
  -12.6124    3.3699   -0.0784 H   0  0  0  0  0
  -13.3877    4.0954   -1.6721 H   0  0  0  0  0
  -14.6034    3.9120   -4.3798 H   0  0  0  0  0
  -16.5493    5.1102   -3.5315 H   0  0  0  0  0
  -15.7517    5.2182   -1.8849 H   0  0  0  0  0
  -15.8950    2.8189   -1.6921 H   0  0  0  0  0
  -16.7389    2.7480   -3.2946 H   0  0  0  0  0
  -17.0238    3.4622   -0.1108 H   0  0  0  0  0
  -12.0920    5.3736   -3.1877 H   0  0  0  0  0
  -13.0063    7.9643   -4.2867 H   0  0  0  0  0
  -10.9477    9.0357   -3.4001 H   0  0  0  0  0
   -9.4427    7.2202   -3.1961 H   0  0  0  0  0
  -10.5558    6.3794   -2.0240 H   0  0  0  0  0
  -13.0818    9.1862   -2.2008 H   0  0  0  0  0
  -12.7442    7.6476   -1.3702 H   0  0  0  0  0
  -11.7345    9.0771   -1.0416 H   0  0  0  0  0
   -9.0751    8.9807   -1.5520 H   0  0  0  0  0
  -10.1630    8.1590   -0.4064 H   0  0  0  0  0
   -8.6309    7.3895   -0.8875 H   0  0  0  0  0
  -11.9062    5.3494   -5.5832 H   0  0  0  0  0
   -9.5631    6.2952   -7.0419 H   0  0  0  0  0
  -11.4592    4.0394   -7.6975 H   0  0  0  0  0
   -9.9453    3.9285   -6.6861 H   0  0  0  0  0
   -7.7980    4.8588   -7.9296 H   0  0  0  0  0
  -11.2952    3.3701   -9.8851 H   0  0  0  0  0
   -6.4723    4.4157   -9.9556 H   0  0  0  0  0
   -9.9696    2.9155  -11.9126 H   0  0  0  0  0
   -7.9732    3.0177  -12.8611 H   0  0  0  0  0
   -9.9659    8.2041   -8.0597 H   0  0  0  0  0
  -12.4493    8.5874   -9.5661 H   0  0  0  0  0
  -11.8403    6.7940  -10.8346 H   0  0  0  0  0
  -11.4702   10.3771   -8.2550 H   0  0  0  0  0
  -11.4337   10.7864  -10.0710 H   0  0  0  0  0
   -8.7630    8.6777   -9.7289 H   0  0  0  0  0
  -10.0094   12.5832   -8.4959 H   0  0  0  0  0
   -6.4044    9.3711   -9.5265 H   0  0  0  0  0
   -7.6556   13.2705   -8.2906 H   0  0  0  0  0
   -5.5431   12.6633   -8.4827 H   0  0  0  0  0
  1  2  1  0  0  0
  2  3  1  0  0  0
  3  4  2  0  0  0
  3  5  1  0  0  0
  5  6  1  0  0  0
  6  7  1  0  0  0
  6  9  1  0  0  0
  7  8  2  0  0  0
  7 16  1  0  0  0
  9 10  1  0  0  0
 10 11  1  0  0  0
 11 12  1  0  0  0
 12 13  1  0  0  0
 13 14  2  0  0  0
 13 15  1  0  0  0
 16 17  1  0  0  0
 17 18  1  0  0  0
 17 20  1  0  0  0
 18 19  2  0  0  0
 18 22  1  0  0  0
 20 21  1  0  0  0
 22 23  1  0  0  0
 23 24  1  0  0  0
 23 26  1  0  0  0
 24 25  2  0  0  0
 24 31  1  0  0  0
 26 27  1  0  0  0
 27 28  1  0  0  0
 28 29  1  0  0  0
 29 30  1  0  0  0
 31 32  1  0  0  0
 32 33  1  0  0  0
 32 35  1  0  0  0
 33 34  2  0  0  0
 33 40  1  0  0  0
 35 36  1  0  0  0
 36 37  1  0  0  0
 37 38  2  0  0  0
 37 39  1  0  0  0
 40 41  1  0  0  0
 41 42  1  0  0  0
 41 44  1  0  0  0
 42 43  2  0  0  0
 42 46  1  0  0  0
 44 45  1  0  0  0
 46 47  1  0  0  0
 47 48  1  0  0  0
 48 49  2  0  0  0
 48 50  1  0  0  0
 50 51  1  0  0  0
 51 52  1  0  0  0
 51 54  1  0  0  0
 52 53  2  0  0  0
 52 64  1  0  0  0
 54 55  1  0  0  0
 55 56  4  0  0  0
 55 57  4  0  0  0
 56 58  4  0  0  0
 57 59  4  0  0  0
 57 60  4  0  0  0
 58 59  4  0  0  0
 59 61  4  0  0  0
 60 62  4  0  0  0
 61 63  4  0  0  0
 62 63  4  0  0  0
 64 65  1  0  0  0
 65 66  1  0  0  0
 65 68  1  0  0  0
 66 67  2  0  0  0
 66 71  1  0  0  0
 68 69  1  0  0  0
 68 70  1  0  0  0
 71 72  1  0  0  0
 72 73  1  0  0  0
 72 75  1  0  0  0
 73 74  2  0  0  0
 73 80  1  0  0  0
 75 76  1  0  0  0
 76 77  1  0  0  0
 77 78  1  0  0  0
 77 79  2  0  0  0
 80 81  1  0  0  0
 81 82  1  0  0  0
 81 84  1  0  0  0
 82 83  2  0  0  0
 82 88  1  0  0  0
 84 85  1  0  0  0
 85 86  2  0  0  0
 85 87  1  0  0  0
 88 89  1  0  0  0
 89 90  1  0  0  0
 89 92  1  0  0  0
 90 91  2  0  0  0
 90 97  1  0  0  0
 92 93  1  0  0  0
 93 94  1  0  0  0
 94 95  2  0  0  0
 94 96  1  0  0  0
 97 98  1  0  0  0
 98 99  1  0  0  0
 98101  1  0  0  0
 99100  2  0  0  0
 99105  1  0  0  0
101102  1  0  0  0
101103  1  0  0  0
102104  1  0  0  0
105106  1  0  0  0
106107  1  0  0  0
106109  1  0  0  0
107108  2  0  0  0
107117  1  0  0  0
109110  1  0  0  0
110111  4  0  0  0
110112  4  0  0  0
111113  4  0  0  0
112114  4  0  0  0
113115  4  0  0  0
114115  4  0  0  0
115116  1  0  0  0
117118  1  0  0  0
118119  1  0  0  0
118121  1  0  0  0
119120  1  0  0  0
119129  2  0  0  0
121122  1  0  0  0
122123  4  0  0  0
122124  4  0  0  0
123125  4  0  0  0
124126  4  0  0  0
125127  4  0  0  0
126127  4  0  0  0
127128  1  0  0  0
  1130  1  0  0  0
  1131  1  0  0  0
  1132  1  0  0  0
  2133  1  0  0  0
  2134  1  0  0  0
  5135  1  0  0  0
  6136  1  0  0  0
  9137  1  0  0  0
  9138  1  0  0  0
 10139  1  0  0  0
 10140  1  0  0  0
 11141  1  0  0  0
 11142  1  0  0  0
 12143  1  0  0  0
 14144  1  0  0  0
 15145  1  0  0  0
 15146  1  0  0  0
 16147  1  0  0  0
 17148  1  0  0  0
 20149  1  0  0  0
 20150  1  0  0  0
 21151  1  0  0  0
 22152  1  0  0  0
 23153  1  0  0  0
 26154  1  0  0  0
 26155  1  0  0  0
 27156  1  0  0  0
 27157  1  0  0  0
 28158  1  0  0  0
 28159  1  0  0  0
 29160  1  0  0  0
 29161  1  0  0  0
 30162  1  0  0  0
 30163  1  0  0  0
 30164  1  0  0  0
 31165  1  0  0  0
 32166  1  0  0  0
 35167  1  0  0  0
 35168  1  0  0  0
 36169  1  0  0  0
 36170  1  0  0  0
 39171  1  0  0  0
 40172  1  0  0  0
 41173  1  0  0  0
 44174  1  0  0  0
 44175  1  0  0  0
 45176  1  0  0  0
 46177  1  0  0  0
 47178  1  0  0  0
 47179  1  0  0  0
 50180  1  0  0  0
 51181  1  0  0  0
 54182  1  0  0  0
 54183  1  0  0  0
 56184  1  0  0  0
 60185  1  0  0  0
 61186  1  0  0  0
 62187  1  0  0  0
 63188  1  0  0  0
 64189  1  0  0  0
 65190  1  0  0  0
 68191  1  0  0  0
 69192  1  0  0  0
 69193  1  0  0  0
 69194  1  0  0  0
 70195  1  0  0  0
 70196  1  0  0  0
 70197  1  0  0  0
 71198  1  0  0  0
 72199  1  0  0  0
 75200  1  0  0  0
 75201  1  0  0  0
 76202  1  0  0  0
 76203  1  0  0  0
 78204  1  0  0  0
 80205  1  0  0  0
 81206  1  0  0  0
 84207  1  0  0  0
 84208  1  0  0  0
 87209  1  0  0  0
 87210  1  0  0  0
 88211  1  0  0  0
 89212  1  0  0  0
 92213  1  0  0  0
 92214  1  0  0  0
 93215  1  0  0  0
 93216  1  0  0  0
 96217  1  0  0  0
 97218  1  0  0  0
 98219  1  0  0  0
101220  1  0  0  0
102221  1  0  0  0
102222  1  0  0  0
103223  1  0  0  0
103224  1  0  0  0
103225  1  0  0  0
104226  1  0  0  0
104227  1  0  0  0
104228  1  0  0  0
105229  1  0  0  0
106230  1  0  0  0
109231  1  0  0  0
109232  1  0  0  0
111233  1  0  0  0
112234  1  0  0  0
113235  1  0  0  0
114236  1  0  0  0
116237  1  0  0  0
117238  1  0  0  0
118239  1  0  0  0
120240  1  0  0  0
121241  1  0  0  0
121242  1  0  0  0
123243  1  0  0  0
124244  1  0  0  0
125245  1  0  0  0
126246  1  0  0  0
128247  1  0  0  0
M  END
$$$$
