### 
### Created by X-TOOL on Mon Sep 10 21:12:59 2018
### 

@<TRIPOS>MOLECULE
2k00_ligand
  245   248     1     0     0
SMALL
GAST_HUCK


@<TRIPOS>ATOM
      1 N         -20.7740  -15.9980  -10.3320 N.4       1 GLY         0.2357
      2 CA        -20.7280  -15.1930   -9.0880 C.3       1 GLY         0.0545
      3 C         -19.4570  -15.4250   -8.3010 C.2       1 GLY         0.2236
      4 O         -19.3070  -16.4570   -7.6440 O.2       1 GLY        -0.3910
      5 N         -18.5370  -14.4740   -8.3690 N.am      1 ARG        -0.2613
      6 CA        -17.2890  -14.5640   -7.6290 C.3       1 ARG         0.1312
      7 C         -17.2040  -13.4290   -6.6030 C.2       1 ARG         0.2040
      8 O         -17.0030  -12.2720   -6.9710 O.2       1 ARG        -0.3944
      9 CB        -16.0980  -14.4930   -8.5900 C.3       1 ARG        -0.0092
     10 CG        -14.7510  -14.7220   -7.9180 C.3       1 ARG        -0.0156
     11 CD        -14.7200  -16.0410   -7.1400 C.3       1 ARG         0.0627
     12 NE        -15.0350  -17.1890   -7.9910 N.pl3     1 ARG        -0.2723
     13 CZ        -14.9450  -18.4570   -7.5930 C.cat     1 ARG         0.2882
     14 NH1       -14.5770  -18.7380   -6.3480 N.pl3     1 ARG        -0.2849
     15 NH2       -15.2330  -19.4420   -8.4390 N.pl3     1 ARG        -0.2849
     16 N         -17.3700  -13.7530   -5.3250 N.am      1 SER        -0.2616
     17 CA        -17.3260  -12.7490   -4.2760 C.3       1 SER         0.1539
     18 C         -15.8870  -12.4860   -3.8410 C.2       1 SER         0.2062
     19 O         -15.0070  -13.3260   -4.0380 O.2       1 SER        -0.3943
     20 CB        -18.1640  -13.2150   -3.0830 C.3       1 SER         0.0843
     21 OG        -17.7550  -14.5010   -2.6480 O.3       1 SER        -0.3903
     22 N         -15.6530  -11.3180   -3.2630 N.am      1 LYS        -0.2637
     23 CA        -14.3440  -10.9730   -2.7270 C.3       1 LYS         0.1310
     24 C         -14.5200  -10.2210   -1.4160 C.2       1 LYS         0.2039
     25 O         -13.8410   -9.2360   -1.1380 O.2       1 LYS        -0.3944
     26 CB        -13.5150  -10.1560   -3.7370 C.3       1 LYS        -0.0122
     27 CG        -14.1210   -8.8180   -4.1630 C.3       1 LYS        -0.0440
     28 CD        -15.2690   -8.9980   -5.1610 C.3       1 LYS        -0.0124
     29 CE        -15.8120   -7.6690   -5.6990 C.3       1 LYS        -0.0354
     30 NZ        -15.9660   -6.6490   -4.6290 N.4       1 LYS         0.2185
     31 N         -15.4430  -10.7300   -0.6130 N.am      1 GLU        -0.2636
     32 CA        -15.8080  -10.1200    0.6590 C.3       1 GLU         0.1325
     33 C         -14.6050   -9.9730    1.5870 C.2       1 GLU         0.2041
     34 O         -14.2750   -8.8700    2.0170 O.2       1 GLU        -0.3944
     35 CB        -16.9010  -10.9460    1.3410 C.3       1 GLU        -0.0008
     36 CG        -18.2550  -10.8630    0.6510 C.3       1 GLU         0.0044
     37 CD        -19.2570  -11.8310    1.2350 C.2       1 GLU         0.0350
     38 OE1       -19.6530  -11.6480    2.4030 O.co2     1 GLU        -0.5690
     39 OE2       -19.6560  -12.7800    0.5290 O.co2     1 GLU        -0.5690
     40 N         -13.9560  -11.0840    1.8930 N.am      1 SER        -0.2616
     41 CA        -12.7970  -11.0650    2.7670 C.3       1 SER         0.1539
     42 C         -11.5160  -10.8910    1.9590 C.2       1 SER         0.2060
     43 O         -11.3910  -11.4180    0.8500 O.2       1 SER        -0.3943
     44 CB        -12.7450  -12.3500    3.5960 C.3       1 SER         0.0843
     45 OG        -12.9380  -13.4960    2.7790 O.3       1 SER        -0.3903
     46 N         -10.5810  -10.1250    2.5060 N.am      1 GLY        -0.2663
     47 CA         -9.3040   -9.9260    1.8530 C.3       1 GLY         0.1201
     48 C          -9.3040   -8.7240    0.9310 C.2       1 GLY         0.2008
     49 O          -8.4080   -7.8820    1.0000 O.2       1 GLY        -0.3947
     50 N         -10.3150   -8.6440    0.0750 N.am      1 TRP        -0.2629
     51 CA        -10.4180   -7.5660   -0.8990 C.3       1 TRP         0.1352
     52 C         -11.3060   -6.4480   -0.3730 C.2       1 TRP         0.2052
     53 O         -12.4850   -6.6510   -0.0830 O.2       1 TRP        -0.3942
     54 CB        -10.9580   -8.0930   -2.2280 C.3       1 TRP         0.0042
     55 CG        -10.0390   -9.0700   -2.9010 C.2       1 TRP        -0.0418
     56 CD1       -10.0350  -10.4290   -2.7550 C.2       1 TRP         0.0167
     57 CD2        -8.9880   -8.7640   -3.8290 C.ar      1 TRP        -0.0214
     58 NE1        -9.0480  -10.9850   -3.5300 N.pl3     1 TRP        -0.2890
     59 CE2        -8.3920   -9.9850   -4.2000 C.ar      1 TRP         0.0603
     60 CE3        -8.4930   -7.5790   -4.3850 C.ar      1 TRP        -0.0747
     61 CZ2        -7.3290  -10.0540   -5.0980 C.ar      1 TRP        -0.0443
     62 CZ3        -7.4380   -7.6500   -5.2770 C.ar      1 TRP        -0.0792
     63 CH2        -6.8680   -8.8800   -5.6260 C.ar      1 TRP        -0.0768
     64 N         -10.7240   -5.2710   -0.2460 N.am      1 VAL        -0.2634
     65 CA        -11.4520   -4.1090    0.2470 C.3       1 VAL         0.1333
     66 C         -11.6840   -3.1210   -0.8860 C.2       1 VAL         0.2042
     67 O         -10.7370   -2.6630   -1.5260 O.2       1 VAL        -0.3944
     68 CB        -10.7150   -3.4040    1.4110 C.3       1 VAL        -0.0063
     69 CG1       -11.5380   -2.2330    1.9370 C.3       1 VAL        -0.0584
     70 CG2       -10.4190   -4.3900    2.5390 C.3       1 VAL        -0.0584
     71 N         -12.9470   -2.8000   -1.1250 N.am      1 GLU        -0.2636
     72 CA        -13.3320   -1.9590   -2.2470 C.3       1 GLU         0.1325
     73 C         -13.4300   -0.4990   -1.8210 C.2       1 GLU         0.2041
     74 O         -14.3670   -0.1050   -1.1240 O.2       1 GLU        -0.3944
     75 CB        -14.6690   -2.4380   -2.8220 C.3       1 GLU        -0.0008
     76 CG        -14.6450   -3.8730   -3.3420 C.3       1 GLU         0.0044
     77 CD        -13.9240   -4.0240   -4.6660 C.2       1 GLU         0.0350
     78 OE1       -12.7500   -3.6040   -4.7510 O.co2     1 GLU        -0.5690
     79 OE2       -14.5190   -4.5370   -5.6340 O.co2     1 GLU        -0.5690
     80 N         -12.4560    0.2990   -2.2370 N.am      1 ASN        -0.2616
     81 CA        -12.4430    1.7210   -1.8930 C.3       1 ASN         0.1476
     82 C         -13.1860    2.5250   -2.9510 C.2       1 ASN         0.2063
     83 O         -13.3340    2.0770   -4.0880 O.2       1 ASN        -0.3942
     84 CB        -11.0160    2.2510   -1.7360 C.3       1 ASN         0.0773
     85 CG        -10.9910    3.6900   -1.2700 C.2       1 ASN         0.1780
     86 OD1       -10.1380    4.4660   -1.6760 O.2       1 ASN        -0.3970
     87 ND2       -11.9180    4.0480   -0.3920 N.am      1 ASN        -0.3007
     88 N         -13.6500    3.7140   -2.5810 N.am      1 GLU        -0.2635
     89 CA        -14.5240    4.4770   -3.4510 C.3       1 GLU         0.1325
     90 C         -13.9720    5.8490   -3.8150 C.2       1 GLU         0.2040
     91 O         -14.7180    6.7000   -4.3030 O.2       1 GLU        -0.3944
     92 CB        -15.8980    4.6380   -2.7960 C.3       1 GLU        -0.0008
     93 CG        -16.5590    3.3290   -2.3900 C.3       1 GLU         0.0044
     94 CD        -17.8890    3.5420   -1.6990 C.2       1 GLU         0.0350
     95 OE1       -18.9180    3.6680   -2.3950 O.co2     1 GLU        -0.5690
     96 OE2       -17.9140    3.5780   -0.4510 O.co2     1 GLU        -0.5690
     97 N         -12.6860    6.0800   -3.6220 N.am      1 ILE        -0.2635
     98 CA        -12.1250    7.3710   -4.0430 C.3       1 ILE         0.1335
     99 C         -11.2350    7.2380   -5.2670 C.2       1 ILE         0.2043
    100 O         -10.5130    8.1700   -5.6140 O.2       1 ILE        -0.3944
    101 CB        -11.3550    8.1360   -2.9390 C.3       1 ILE        -0.0037
    102 CG1       -10.1670    7.3300   -2.3890 C.3       1 ILE        -0.0491
    103 CG2       -12.2970    8.5410   -1.8060 C.3       1 ILE        -0.0582
    104 CD1        -9.4580    8.0140   -1.2250 C.3       1 ILE        -0.0648
    105 N         -11.3150    6.1010   -5.9380 N.am      1 TYR        -0.2621
    106 CA        -10.5720    5.9050   -7.1760 C.3       1 TYR         0.1390
    107 C         -11.2570    6.6620   -8.3090 C.2       1 TYR         0.2053
    108 O         -12.2270    6.1780   -8.8970 O.2       1 TYR        -0.3942
    109 CB        -10.4520    4.4160   -7.5190 C.3       1 TYR         0.0163
    110 CG         -9.6400    4.1460   -8.7640 C.ar      1 TYR        -0.0493
    111 CD1        -8.2830    4.4310   -8.8070 C.ar      1 TYR        -0.0685
    112 CD2       -10.2300    3.6010   -9.8950 C.ar      1 TYR        -0.0685
    113 CE1        -7.5370    4.1830   -9.9390 C.ar      1 TYR        -0.0398
    114 CE2        -9.4910    3.3460  -11.0330 C.ar      1 TYR        -0.0398
    115 CZ         -8.1450    3.6390  -11.0500 C.ar      1 TYR         0.0805
    116 OH         -7.4050    3.3940  -12.1850 O.3       1 TYR        -0.3376
    117 N         -10.7780    7.8690   -8.5780 N.am      1 TYR        -0.2678
    118 CA        -11.3680    8.7240   -9.5800 C.3       1 TYR         0.1025
    119 C         -10.9210    8.3470  -11.0020 C.2       1 TYR         0.0619
    120 O         -11.3150    7.2630  -11.4870 O.co2     1 TYR        -0.5665
    121 CB        -11.0410   10.1990   -9.2410 C.3       1 TYR         0.0108
    122 CG         -9.5640   10.5820   -9.1250 C.ar      1 TYR        -0.0499
    123 CD1        -8.5260    9.6930   -9.4110 C.ar      1 TYR        -0.0686
    124 CD2        -9.2200   11.8670   -8.7240 C.ar      1 TYR        -0.0686
    125 CE1        -7.2020   10.0780   -9.2980 C.ar      1 TYR        -0.0398
    126 CE2        -7.9010   12.2570   -8.6080 C.ar      1 TYR        -0.0398
    127 CZ         -6.8970   11.3600   -8.8950 C.ar      1 TYR         0.0805
    128 OH         -5.5800   11.7480   -8.7700 O.3       1 TYR        -0.3376
    129 OXT       -10.2170    9.1450  -11.6510 O.co2     1 TYR        -0.5665
    130 H1        -21.6353  -15.8113  -10.8213 H         1 GLY         0.2012
    131 H2        -20.7248  -16.9778  -10.1003 H         1 GLY         0.2012
    132 H3        -19.9933  -15.7522  -10.9203 H         1 GLY         0.2012
    133 H4        -21.5883  -15.4647   -8.4587 H         1 GLY         0.1061
    134 H5        -20.7900  -14.1274   -9.3536 H         1 GLY         0.1061
    135 H6        -18.7055  -13.6736   -8.9443 H         1 ARG         0.1884
    136 H7        -17.2597  -15.5267   -7.0977 H         1 ARG         0.0800
    137 H8        -16.0878  -13.4969   -9.0565 H         1 ARG         0.0313
    138 H9        -16.2329  -15.2603   -9.3666 H         1 ARG         0.0313
    139 H10       -14.5551  -13.8933   -7.2217 H         1 ARG         0.0301
    140 H11       -13.9675  -14.7455   -8.6898 H         1 ARG         0.0301
    141 H12       -15.4577  -15.9900   -6.3257 H         1 ARG         0.0689
    142 H13       -13.7145  -16.1792   -6.7158 H         1 ARG         0.0689
    143 H14       -15.3450  -17.0055   -8.9560 H         1 ARG         0.2642
    144 H15       -14.5075  -19.7185   -6.0404 H         1 ARG         0.2615
    145 H16       -14.3612  -17.9754   -5.6902 H         1 ARG         0.2615
    146 H17       -15.5184  -19.2247   -9.4045 H         1 ARG         0.2615
    147 H18       -15.1706  -20.4222   -8.1287 H         1 ARG         0.2615
    148 H19       -17.5288  -14.7094   -5.0799 H         1 SER         0.1884
    149 H20       -17.7521  -11.8124   -4.6649 H         1 SER         0.0823
    150 H21       -19.2223  -13.2553   -3.3802 H         1 SER         0.0606
    151 H22       -18.0423  -12.4998   -2.2562 H         1 SER         0.0606
    152 H23       -18.2882  -14.7684   -1.9086 H         1 SER         0.2097
    153 H24       -16.3970  -10.6535   -3.1926 H         1 LYS         0.1883
    154 H25       -13.7992  -11.9059   -2.5199 H         1 LYS         0.0800
    155 H26       -13.3820  -10.7697   -4.6401 H         1 LYS         0.0312
    156 H27       -12.5335   -9.9535   -3.2835 H         1 LYS         0.0312
    157 H28       -13.3362   -8.2061   -4.6316 H         1 LYS         0.0269
    158 H29       -14.5044   -8.3019   -3.2705 H         1 LYS         0.0269
    159 H30       -16.0884   -9.5335   -4.6592 H         1 LYS         0.0317
    160 H31       -14.9050   -9.5964   -6.0091 H         1 LYS         0.0317
    161 H32       -16.7942   -7.8488   -6.1604 H         1 LYS         0.0813
    162 H33       -15.1154   -7.2833   -6.4579 H         1 LYS         0.0813
    163 H34       -16.3242   -5.7953   -5.0277 H         1 LYS         0.1994
    164 H35       -15.0699   -6.4708   -4.2031 H         1 LYS         0.1994
    165 H36       -16.6083   -6.9890   -3.9306 H         1 LYS         0.1994
    166 H37       -15.9094  -11.5694   -0.8921 H         1 GLU         0.1883
    167 H38       -16.2066   -9.1153    0.4547 H         1 GLU         0.0801
    168 H39       -17.0154  -10.5845    2.3736 H         1 GLU         0.0330
    169 H40       -16.5826  -11.9988    1.3542 H         1 GLU         0.0330
    170 H41       -18.1225  -11.0924   -0.4166 H         1 GLU         0.0433
    171 H42       -18.6457   -9.8406    0.7606 H         1 GLU         0.0433
    172 H43       -14.2700  -11.9548    1.5147 H         1 SER         0.1884
    173 H44       -12.8919  -10.2109    3.4536 H         1 SER         0.0823
    174 H45       -13.5358  -12.3166    4.3599 H         1 SER         0.0606
    175 H46       -11.7634  -12.4207    4.0873 H         1 SER         0.0606
    176 H47       -12.9010  -14.2775    3.3178 H         1 SER         0.2097
    177 H48       -10.7609   -9.6783    3.3824 H         1 GLY         0.1881
    178 H49        -9.0662  -10.8232    1.2626 H         1 GLY         0.0763
    179 H50        -8.5330   -9.7792    2.6237 H         1 GLY         0.0763
    180 H51       -11.0277   -9.3451    0.0995 H         1 TRP         0.1884
    181 H52        -9.4112   -7.1575   -1.0707 H         1 TRP         0.0815
    182 H53       -11.1141   -7.2392   -2.9038 H         1 TRP         0.0397
    183 H54       -11.9199   -8.5923   -2.0398 H         1 TRP         0.0397
    184 H55       -10.7162  -10.9894   -2.1164 H         1 TRP         0.0795
    185 H56        -8.8348  -11.9905   -3.5973 H         1 TRP         0.2216
    186 H57        -8.9287   -6.6221   -4.1213 H         1 TRP         0.0540
    187 H58        -6.8834  -11.0044   -5.3684 H         1 TRP         0.0541
    188 H59        -7.0462   -6.7381   -5.7129 H         1 TRP         0.0510
    189 H60        -6.0437   -8.9022   -6.3297 H         1 TRP         0.0530
    190 H61        -9.7601   -5.1739   -0.4940 H         1 VAL         0.1883
    191 H62       -12.4290   -4.4515    0.6186 H         1 VAL         0.0802
    192 H63        -9.7594   -3.0144    1.0302 H         1 VAL         0.0343
    193 H64       -10.9975   -1.7464    2.7623 H         1 VAL         0.0234
    194 H65       -12.5085   -2.6011    2.3010 H         1 VAL         0.0234
    195 H66       -11.7016   -1.5067    1.1272 H         1 VAL         0.0234
    196 H67        -9.8255   -5.2288    2.1464 H         1 VAL         0.0234
    197 H68       -11.3652   -4.7713    2.9504 H         1 VAL         0.0234
    198 H69        -9.8531   -3.8802    3.3326 H         1 VAL         0.0234
    199 H70       -13.6585   -3.1473   -0.5141 H         1 GLU         0.1883
    200 H71       -12.5624   -2.0432   -3.0284 H         1 GLU         0.0801
    201 H72       -14.9452   -1.7736   -3.6540 H         1 GLU         0.0330
    202 H73       -15.4298   -2.3701   -2.0304 H         1 GLU         0.0330
    203 H74       -15.6828   -4.2145   -3.4698 H         1 GLU         0.0433
    204 H75       -14.1402   -4.5051   -2.5966 H         1 GLU         0.0433
    205 H76       -11.7172   -0.0779   -2.7958 H         1 ASN         0.1885
    206 H77       -12.9630    1.8458   -0.9317 H         1 ASN         0.0826
    207 H78       -10.5039    2.1839   -2.7072 H         1 ASN         0.0551
    208 H79       -10.4863    1.6302   -0.9984 H         1 ASN         0.0551
    209 H80       -11.9471    4.9875   -0.0507 H         1 ASN         0.1814
    210 H81       -12.5880    3.3785   -0.0712 H         1 ASN         0.1814
    211 H82       -13.3928    4.0879   -1.6899 H         1 GLU         0.1883
    212 H83       -14.6471    3.9069   -4.3837 H         1 GLU         0.0801
    213 H84       -16.5606    5.1513   -3.5084 H         1 GLU         0.0330
    214 H85       -15.7788    5.2571   -1.8946 H         1 GLU         0.0330
    215 H86       -15.8871    2.7921   -1.7043 H         1 GLU         0.0433
    216 H87       -16.7234    2.7219   -3.2924 H         1 GLU         0.0433
    217 H88       -12.1036    5.3875   -3.1963 H         1 ILE         0.1883
    218 H89       -12.9815    7.9999   -4.3273 H         1 ILE         0.0803
    219 H90       -10.9531    9.0551   -3.3904 H         1 ILE         0.0345
    220 H91        -9.4402    7.1818   -3.2013 H         1 ILE         0.0267
    221 H92       -10.5376    6.3529   -2.0458 H         1 ILE         0.0267
    222 H93       -13.1396    9.1159   -2.2176 H         1 ILE         0.0235
    223 H94       -11.7511    9.1602   -1.0789 H         1 ILE         0.0235
    224 H95       -12.6784    7.6385   -1.3059 H         1 ILE         0.0235
    225 H96        -8.6230    7.3846   -0.8835 H         1 ILE         0.0230
    226 H97       -10.1684    8.1609   -0.3982 H         1 ILE         0.0230
    227 H98        -9.0711    8.9898   -1.5537 H         1 ILE         0.0230
    228 H99       -11.8947    5.3641   -5.5901 H         1 TYR         0.1885
    229 H100       -9.5587    6.3121   -7.0435 H         1 TYR         0.0821
    230 H101      -11.4636    4.0110   -7.6690 H         1 TYR         0.0453
    231 H102       -9.9728    3.9017   -6.6729 H         1 TYR         0.0453
    232 H103       -7.8007    4.8565   -7.9344 H         1 TYR         0.0530
    233 H104      -11.2894    3.3714   -9.8852 H         1 TYR         0.0530
    234 H105       -6.4781    4.4144   -9.9555 H         1 TYR         0.0525
    235 H106       -9.9670    2.9179  -11.9078 H         1 TYR         0.0525
    236 H107       -6.5024    3.6490  -12.0343 H         1 TYR         0.2458
    237 H108       -9.9818    8.1976   -8.0699 H         1 TYR         0.1877
    238 H109      -12.4598    8.5981   -9.5340 H         1 TYR         0.0747
    239 H110      -11.5189   10.4303   -8.2776 H         1 TYR         0.0446
    240 H111      -11.4836   10.8252  -10.0296 H         1 TYR         0.0446
    241 H112       -8.7617    8.6833   -9.7272 H         1 TYR         0.0530
    242 H113      -10.0050   12.5793   -8.4971 H         1 TYR         0.0530
    243 H114       -6.4088    9.3750   -9.5252 H         1 TYR         0.0525
    244 H115       -7.6569   13.2649   -8.2924 H         1 TYR         0.0525
    245 H116       -5.4114   12.0076   -7.8719 H         1 TYR         0.2458
@<TRIPOS>BOND
     1    1    2 1  
     2    2    3 1  
     3    3    4 2  
     4    3    5 am 
     5    5    6 1  
     6    6    7 1  
     7    6    9 1  
     8    7    8 2  
     9    7   16 am 
    10    9   10 1  
    11   10   11 1  
    12   11   12 1  
    13   12   13 ar 
    14   13   14 ar 
    15   13   15 ar 
    16   16   17 1  
    17   17   18 1  
    18   17   20 1  
    19   18   19 2  
    20   18   22 am 
    21   20   21 1  
    22   22   23 1  
    23   23   24 1  
    24   23   26 1  
    25   24   25 2  
    26   24   31 am 
    27   26   27 1  
    28   27   28 1  
    29   28   29 1  
    30   29   30 1  
    31   31   32 1  
    32   32   33 1  
    33   32   35 1  
    34   33   34 2  
    35   33   40 am 
    36   35   36 1  
    37   36   37 1  
    38   37   38 ar 
    39   37   39 ar 
    40   40   41 1  
    41   41   42 1  
    42   41   44 1  
    43   42   43 2  
    44   42   46 am 
    45   44   45 1  
    46   46   47 1  
    47   47   48 1  
    48   48   49 2  
    49   48   50 am 
    50   50   51 1  
    51   51   52 1  
    52   51   54 1  
    53   52   53 2  
    54   52   64 am 
    55   54   55 1  
    56   55   56 2  
    57   55   57 1  
    58   56   58 1  
    59   57   59 ar 
    60   57   60 ar 
    61   58   59 1  
    62   59   61 ar 
    63   60   62 ar 
    64   61   63 ar 
    65   62   63 ar 
    66   64   65 1  
    67   65   66 1  
    68   65   68 1  
    69   66   67 2  
    70   66   71 am 
    71   68   69 1  
    72   68   70 1  
    73   71   72 1  
    74   72   73 1  
    75   72   75 1  
    76   73   74 2  
    77   73   80 am 
    78   75   76 1  
    79   76   77 1  
    80   77   78 ar 
    81   77   79 ar 
    82   80   81 1  
    83   81   82 1  
    84   81   84 1  
    85   82   83 2  
    86   82   88 am 
    87   84   85 1  
    88   85   86 2  
    89   85   87 am 
    90   88   89 1  
    91   89   90 1  
    92   89   92 1  
    93   90   91 2  
    94   90   97 am 
    95   92   93 1  
    96   93   94 1  
    97   94   95 ar 
    98   94   96 ar 
    99   97   98 1  
   100   98   99 1  
   101   98  101 1  
   102   99  100 2  
   103   99  105 am 
   104  101  102 1  
   105  101  103 1  
   106  102  104 1  
   107  105  106 1  
   108  106  107 1  
   109  106  109 1  
   110  107  108 2  
   111  107  117 am 
   112  109  110 1  
   113  110  111 ar 
   114  110  112 ar 
   115  111  113 ar 
   116  112  114 ar 
   117  113  115 ar 
   118  114  115 ar 
   119  115  116 1  
   120  117  118 1  
   121  118  119 1  
   122  118  121 1  
   123  119  120 ar 
   124  119  129 ar 
   125  121  122 1  
   126  122  123 ar 
   127  122  124 ar 
   128  123  125 ar 
   129  124  126 ar 
   130  125  127 ar 
   131  126  127 ar 
   132  127  128 1  
   133    1  130 1  
   134    1  131 1  
   135    1  132 1  
   136    2  133 1  
   137    2  134 1  
   138    5  135 1  
   139    6  136 1  
   140    9  137 1  
   141    9  138 1  
   142   10  139 1  
   143   10  140 1  
   144   11  141 1  
   145   11  142 1  
   146   12  143 1  
   147   14  144 1  
   148   14  145 1  
   149   15  146 1  
   150   15  147 1  
   151   16  148 1  
   152   17  149 1  
   153   20  150 1  
   154   20  151 1  
   155   21  152 1  
   156   22  153 1  
   157   23  154 1  
   158   26  155 1  
   159   26  156 1  
   160   27  157 1  
   161   27  158 1  
   162   28  159 1  
   163   28  160 1  
   164   29  161 1  
   165   29  162 1  
   166   30  163 1  
   167   30  164 1  
   168   30  165 1  
   169   31  166 1  
   170   32  167 1  
   171   35  168 1  
   172   35  169 1  
   173   36  170 1  
   174   36  171 1  
   175   40  172 1  
   176   41  173 1  
   177   44  174 1  
   178   44  175 1  
   179   45  176 1  
   180   46  177 1  
   181   47  178 1  
   182   47  179 1  
   183   50  180 1  
   184   51  181 1  
   185   54  182 1  
   186   54  183 1  
   187   56  184 1  
   188   58  185 1  
   189   60  186 1  
   190   61  187 1  
   191   62  188 1  
   192   63  189 1  
   193   64  190 1  
   194   65  191 1  
   195   68  192 1  
   196   69  193 1  
   197   69  194 1  
   198   69  195 1  
   199   70  196 1  
   200   70  197 1  
   201   70  198 1  
   202   71  199 1  
   203   72  200 1  
   204   75  201 1  
   205   75  202 1  
   206   76  203 1  
   207   76  204 1  
   208   80  205 1  
   209   81  206 1  
   210   84  207 1  
   211   84  208 1  
   212   87  209 1  
   213   87  210 1  
   214   88  211 1  
   215   89  212 1  
   216   92  213 1  
   217   92  214 1  
   218   93  215 1  
   219   93  216 1  
   220   97  217 1  
   221   98  218 1  
   222  101  219 1  
   223  102  220 1  
   224  102  221 1  
   225  103  222 1  
   226  103  223 1  
   227  103  224 1  
   228  104  225 1  
   229  104  226 1  
   230  104  227 1  
   231  105  228 1  
   232  106  229 1  
   233  109  230 1  
   234  109  231 1  
   235  111  232 1  
   236  112  233 1  
   237  113  234 1  
   238  114  235 1  
   239  116  236 1  
   240  117  237 1  
   241  118  238 1  
   242  121  239 1  
   243  121  240 1  
   244  123  241 1  
   245  124  242 1  
   246  125  243 1  
   247  126  244 1  
   248  128  245 1  
@<TRIPOS>SUBSTRUCTURE
     1 GLY         1

