2f6j_ligand
  -I-interpret- 

113112  0  0  0  0  0  0  0  0999 V2000
   30.2620    9.5050   63.9810 N   0  3  0  0  0
   30.6030    9.7840   62.5540 C   0  0  0  0  0
   32.0110   10.3430   62.4440 C   0  0  0  0  0
   32.4920   11.0160   63.3560 O   0  0  0  0  0
   29.6030   10.7720   61.9580 C   0  0  0  0  0
   32.6680   10.0570   61.3260 N   0  0  0  0  0
   34.0250   10.5340   61.0830 C   0  0  0  0  0
   33.9350   11.9420   60.5080 C   0  0  0  0  0
   33.1210   12.2060   59.6240 O   0  0  0  0  0
   34.7370    9.5910   60.1100 C   0  0  0  0  0
   34.8740    8.1710   60.6600 C   0  0  0  0  0
   35.3450    7.1710   59.6090 C   0  0  0  0  0
   34.4160    7.0740   58.4890 N   0  0  0  0  0
   34.6000    7.6600   57.3100 C   0  0  0  0  0
   35.6840    8.3860   57.0910 N   0  0  0  0  0
   33.6930    7.5290   56.3520 N   0  0  0  0  0
   34.7710   12.8420   61.0140 N   0  0  0  0  0
   34.7470   14.2300   60.5700 C   0  0  0  0  0
   36.1320   14.8680   60.5340 C   0  0  0  0  0
   37.1040   14.3050   61.0320 O   0  0  0  0  0
   33.8890   15.0820   61.5240 C   0  0  0  0  0
   34.4720   15.0430   62.8340 O   0  0  0  0  0
   32.4630   14.5500   61.6040 C   0  0  0  0  0
   36.2010   16.0480   59.9250 N   0  0  0  0  0
   37.4280   16.8320   59.8520 C   0  0  0  0  0
   37.9410   16.9320   58.4080 C   0  0  0  0  0
   38.5070   15.6300   57.8370 C   0  0  0  0  0
   39.1270   15.8470   56.4620 C   0  0  0  0  0
   39.6020   14.5320   55.8350 C   0  0  0  0  0
   40.2360   14.7320   54.4910 N   0  3  0  0  0
   37.0460   18.2230   60.3650 C   0  0  0  0  0
   36.1100   18.8350   59.8480 O   0  0  0  0  0
   41.4760   15.5660   54.5590 C   0  0  0  0  0
   40.6760   13.4520   53.8710 C   0  0  0  0  0
   39.2950   15.3890   53.5290 C   0  0  0  0  0
   37.7440   18.7020   61.3950 N   0  0  0  0  0
   37.4740   20.0250   61.9750 C   0  0  0  0  0
   38.4580   21.0990   61.5190 C   0  0  0  0  0
   39.4540   20.8160   60.8580 O   0  0  0  0  0
   37.5170   19.9770   63.5070 C   0  0  0  0  0
   36.3840   19.2220   64.1650 C   0  0  0  0  0
   36.3960   17.7440   63.8400 C   0  0  0  0  0
   37.4510   17.1080   63.8090 O   0  0  0  0  0
   35.2150   17.1820   63.6140 N   0  0  0  0  0
   38.1650   22.3360   61.9030 N   0  0  0  0  0
   39.0010   23.4810   61.5700 C   0  0  0  0  0
   40.4250   23.3030   62.0890 C   0  0  0  0  0
   40.6390   22.4370   62.9690 O   0  0  0  0  0
   38.4350   24.7710   62.1880 C   0  0  0  0  0
   39.3140   25.8610   61.8910 O   0  0  0  0  0
   38.3020   24.6230   63.7050 C   0  0  0  0  0
   41.4181   24.0514   61.6172 O   0  0  0  0  0
   29.3147    9.1308   64.0361 H   0  0  0  0  0
   30.9203    8.8242   64.3598 H   0  0  0  0  0
   30.3189   10.3701   64.5183 H   0  0  0  0  0
   30.5536    8.8482   61.9973 H   0  0  0  0  0
   29.6591   11.7156   62.5007 H   0  0  0  0  0
   29.8424   10.9405   60.9080 H   0  0  0  0  0
   28.5962   10.3627   62.0413 H   0  0  0  0  0
   32.2098    9.4864   60.6155 H   0  0  0  0  0
   34.5987   10.5547   62.0096 H   0  0  0  0  0
   35.7398    9.9819   59.9379 H   0  0  0  0  0
   34.1435    9.5409   59.1971 H   0  0  0  0  0
   33.8912    7.8518   61.0068 H   0  0  0  0  0
   35.6179    8.1925   61.4564 H   0  0  0  0  0
   35.4139    6.1902   60.0796 H   0  0  0  0  0
   36.3071    7.5096   59.2245 H   0  0  0  0  0
   33.5694    6.5201   58.6188 H   0  0  0  0  0
   36.3808    8.4971   57.8276 H   0  0  0  0  0
   33.8328    7.9868   55.4513 H   0  0  0  0  0
   32.8554    6.9704   56.5156 H   0  0  0  0  0
   35.4424   12.5562   61.7267 H   0  0  0  0  0
   34.3353   14.2086   59.5610 H   0  0  0  0  0
   33.8584   16.1030   61.1435 H   0  0  0  0  0
   33.9422   15.5723   63.4347 H   0  0  0  0  0
   32.0112   14.5747   60.6124 H   0  0  0  0  0
   32.4794   13.5240   61.9718 H   0  0  0  0  0
   31.8821   15.1721   62.2849 H   0  0  0  0  0
   35.3577   16.4214   59.4894 H   0  0  0  0  0
   38.2252   16.3729   60.4366 H   0  0  0  0  0
   38.7551   17.6568   58.4107 H   0  0  0  0  0
   37.0879   17.2056   57.7871 H   0  0  0  0  0
   37.6922   14.9126   57.7393 H   0  0  0  0  0
   39.2815   15.2648   58.5115 H   0  0  0  0  0
   39.9903   16.5025   56.5761 H   0  0  0  0  0
   38.3693   16.2821   55.8104 H   0  0  0  0  0
   38.7319   13.8887   55.7038 H   0  0  0  0  0
   40.3491   14.0945   56.4972 H   0  0  0  0  0
   41.2302   16.5479   54.9635 H   0  0  0  0  0
   42.2057   15.0778   55.2049 H   0  0  0  0  0
   41.8924   15.6779   53.5579 H   0  0  0  0  0
   41.4073   12.9685   54.5187 H   0  0  0  0  0
   39.8142   12.7973   53.7417 H   0  0  0  0  0
   41.1275   13.6563   52.9002 H   0  0  0  0  0
   38.4110   14.7639   53.4032 H   0  0  0  0  0
   39.0002   16.3632   53.9191 H   0  0  0  0  0
   39.7913   15.5165   52.5670 H   0  0  0  0  0
   38.4898   18.1315   61.7935 H   0  0  0  0  0
   36.4782   20.2900   61.6196 H   0  0  0  0  0
   37.4456   21.0083   63.8526 H   0  0  0  0  0
   38.4357   19.4558   63.7762 H   0  0  0  0  0
   35.4469   19.6373   63.7942 H   0  0  0  0  0
   36.4958   19.3270   65.2442 H   0  0  0  0  0
   35.1561   16.1855   63.4045 H   0  0  0  0  0
   34.3663   17.7466   63.6498 H   0  0  0  0  0
   37.3203   22.4904   62.4534 H   0  0  0  0  0
   39.0109   23.5531   60.4824 H   0  0  0  0  0
   37.4482   24.9626   61.7666 H   0  0  0  0  0
   38.9631   26.6675   62.2756 H   0  0  0  0  0
   37.6288   23.7960   63.9304 H   0  0  0  0  0
   39.2827   24.4229   64.1366 H   0  0  0  0  0
   37.9001   25.5451   64.1249 H   0  0  0  0  0
   41.0750   24.6561   60.9552 H   0  0  0  0  0
  2  1  1  0  0  0
  2  5  1  0  0  0
  3  2  1  0  0  0
  3  4  2  0  0  0
  7  6  1  0  0  0
  7 10  1  0  0  0
  8  7  1  0  0  0
  8  9  2  0  0  0
 10 11  1  0  0  0
 11 12  1  0  0  0
 12 13  1  0  0  0
 13 14  1  0  0  0
 14 16  1  0  0  0
 14 15  2  0  0  0
  6  3  1  0  0  0
 18 17  1  0  0  0
 18 21  1  0  0  0
 19 18  1  0  0  0
 19 20  2  0  0  0
 21 23  1  0  0  0
 21 22  1  0  0  0
 17  8  1  0  0  0
 36 37  1  0  0  0
 37 40  1  0  0  0
 37 38  1  0  0  0
 38 39  2  0  0  0
 40 41  1  0  0  0
 41 42  1  0  0  0
 42 44  1  0  0  0
 42 43  2  0  0  0
 45 46  1  0  0  0
 46 49  1  0  0  0
 46 47  1  0  0  0
 47 48  2  0  0  0
 49 51  1  0  0  0
 49 50  1  0  0  0
 38 45  1  0  0  0
 25 24  1  0  0  0
 25 26  1  0  0  0
 31 25  1  0  0  0
 26 27  1  0  0  0
 27 28  1  0  0  0
 28 29  1  0  0  0
 29 30  1  0  0  0
 30 33  1  0  0  0
 30 34  1  0  0  0
 30 35  1  0  0  0
 31 32  2  0  0  0
 24 19  1  0  0  0
 31 36  1  0  0  0
 47 52  1  0  0  0
  1 53  1  0  0  0
  1 54  1  0  0  0
  1 55  1  0  0  0
  2 56  1  0  0  0
  5 57  1  0  0  0
  5 58  1  0  0  0
  5 59  1  0  0  0
  6 60  1  0  0  0
  7 61  1  0  0  0
 10 62  1  0  0  0
 10 63  1  0  0  0
 11 64  1  0  0  0
 11 65  1  0  0  0
 12 66  1  0  0  0
 12 67  1  0  0  0
 13 68  1  0  0  0
 15 69  1  0  0  0
 16 70  1  0  0  0
 16 71  1  0  0  0
 17 72  1  0  0  0
 18 73  1  0  0  0
 21 74  1  0  0  0
 22 75  1  0  0  0
 23 76  1  0  0  0
 23 77  1  0  0  0
 23 78  1  0  0  0
 24 79  1  0  0  0
 25 80  1  0  0  0
 26 81  1  0  0  0
 26 82  1  0  0  0
 27 83  1  0  0  0
 27 84  1  0  0  0
 28 85  1  0  0  0
 28 86  1  0  0  0
 29 87  1  0  0  0
 29 88  1  0  0  0
 33 89  1  0  0  0
 33 90  1  0  0  0
 33 91  1  0  0  0
 34 92  1  0  0  0
 34 93  1  0  0  0
 34 94  1  0  0  0
 35 95  1  0  0  0
 35 96  1  0  0  0
 35 97  1  0  0  0
 36 98  1  0  0  0
 37 99  1  0  0  0
 40100  1  0  0  0
 40101  1  0  0  0
 41102  1  0  0  0
 41103  1  0  0  0
 44104  1  0  0  0
 44105  1  0  0  0
 45106  1  0  0  0
 46107  1  0  0  0
 49108  1  0  0  0
 50109  1  0  0  0
 51110  1  0  0  0
 51111  1  0  0  0
 51112  1  0  0  0
 52113  1  0  0  0
M  END
$$$$
