### 
### Created by X-TOOL on Mon Sep 10 21:12:54 2018
### 

@<TRIPOS>MOLECULE
2f6j_ligand
  114   113     1     0     0
SMALL
GAST_HUCK


@<TRIPOS>ATOM
      1 N          30.2620    9.5050   63.9810 N.4       1 ALA         0.2377
      2 CA         30.6030    9.7840   62.5540 C.3       1 ALA         0.0621
      3 C          32.0110   10.3430   62.4440 C.2       1 ALA         0.2264
      4 O          32.4920   11.0160   63.3560 O.2       1 ALA        -0.3907
      5 CB         29.6030   10.7720   61.9580 C.3       1 ALA        -0.0040
      6 N          32.6680   10.0570   61.3260 N.am      1 ARG        -0.2610
      7 CA         34.0250   10.5340   61.0830 C.3       1 ARG         0.1312
      8 C          33.9350   11.9420   60.5080 C.2       1 ARG         0.2040
      9 O          33.1210   12.2060   59.6240 O.2       1 ARG        -0.3944
     10 CB         34.7370    9.5910   60.1100 C.3       1 ARG        -0.0092
     11 CG         34.8740    8.1710   60.6600 C.3       1 ARG        -0.0156
     12 CD         35.3450    7.1710   59.6090 C.3       1 ARG         0.0627
     13 NE         34.4160    7.0740   58.4890 N.pl3     1 ARG        -0.2723
     14 CZ         34.6000    7.6600   57.3100 C.cat     1 ARG         0.2882
     15 NH1        35.6840    8.3860   57.0910 N.pl3     1 ARG        -0.2849
     16 NH2        33.6930    7.5290   56.3520 N.pl3     1 ARG        -0.2849
     17 N          34.7710   12.8420   61.0140 N.am      1 THR        -0.2613
     18 CA         34.7470   14.2300   60.5700 C.3       1 THR         0.1565
     19 C          36.1320   14.8680   60.5340 C.2       1 THR         0.2065
     20 O          37.1040   14.3050   61.0320 O.2       1 THR        -0.3943
     21 CB         33.8890   15.0820   61.5240 C.3       1 THR         0.0924
     22 OG1        34.4720   15.0430   62.8340 O.3       1 THR        -0.3874
     23 CG2        32.4630   14.5500   61.6040 C.3       1 THR        -0.0346
     24 N          36.2010   16.0480   59.9250 N.am      1 M3L        -0.2637
     25 CA         37.4280   16.8320   59.8520 C.3       1 M3L         0.1310
     26 CB         37.9410   16.9320   58.4080 C.3       1 M3L        -0.0122
     27 CG         38.5070   15.6300   57.8370 C.3       1 M3L        -0.0440
     28 CD         39.1270   15.8470   56.4620 C.3       1 M3L        -0.0123
     29 CE         39.6020   14.5320   55.8350 C.3       1 M3L        -0.0309
     30 NZ         40.2360   14.7320   54.4910 N.4       1 M3L         0.2369
     31 C          37.0460   18.2230   60.3650 C.2       1 M3L         0.2039
     32 O          36.1100   18.8350   59.8480 O.2       1 M3L        -0.3944
     33 CM1        41.4760   15.5660   54.5590 C.3       1 M3L        -0.0418
     34 CM2        40.6760   13.4520   53.8710 C.3       1 M3L        -0.0418
     35 CM3        39.2950   15.3890   53.5290 C.3       1 M3L        -0.0418
     36 N          37.7440   18.7020   61.3950 N.am      1 GLN        -0.2636
     37 CA         37.4740   20.0250   61.9750 C.3       1 GLN         0.1330
     38 C          38.4580   21.0990   61.5190 C.2       1 GLN         0.2042
     39 O          39.4540   20.8160   60.8580 O.2       1 GLN        -0.3944
     40 CB         37.5170   19.9770   63.5070 C.3       1 GLN         0.0045
     41 CG         36.3840   19.2220   64.1650 C.3       1 GLN         0.0412
     42 CD         36.3960   17.7440   63.8400 C.2       1 GLN         0.1737
     43 OE1        37.4510   17.1080   63.8090 O.2       1 GLN        -0.3973
     44 NE2        35.2150   17.1820   63.6140 N.am      1 GLN        -0.3009
     45 N          38.1650   22.3360   61.9030 N.am      1 THR        -0.2602
     46 CA         39.0010   23.4810   61.5700 C.3       1 THR         0.1677
     47 C          40.4250   23.3030   62.0890 C.2       1 THR         0.2597
     48 O          40.6390   22.4370   62.9690 O.2       1 THR        -0.3679
     49 CB         38.4350   24.7710   62.1880 C.3       1 THR         0.0937
     50 OG1        39.3140   25.8610   61.8910 O.3       1 THR        -0.3873
     51 CG2        38.3020   24.6230   63.7050 C.3       1 THR        -0.0344
     52 O1         41.4181   24.0514   61.6172 O.3       1 THR        -0.2909
     53 H1         29.3259    9.1352   64.0366 H         1 ALA         0.2015
     54 H2         30.3179   10.3593   64.5131 H         1 ALA         0.2015
     55 H3         30.9119    8.8322   64.3564 H         1 ALA         0.2015
     56 H4         30.5513    8.8421   61.9882 H         1 ALA         0.1095
     57 H5         29.8642   10.9695   60.9079 H         1 ALA         0.0310
     58 H6         29.6339   11.7131   62.5267 H         1 ALA         0.0310
     59 H7         28.5905   10.3452   62.0099 H         1 ALA         0.0310
     60 H8         32.2188    9.4976   60.6294 H         1 ARG         0.1884
     61 H9         34.5829   10.5612   62.0306 H         1 ARG         0.0800
     62 H10        35.7424    9.9883   59.9067 H         1 ARG         0.0313
     63 H11        34.1618    9.5517   59.1732 H         1 ARG         0.0313
     64 H12        33.8944    7.8456   61.0401 H         1 ARG         0.0301
     65 H13        35.6019    8.1826   61.4847 H         1 ARG         0.0301
     66 H14        35.4391    6.1807   60.0786 H         1 ARG         0.0689
     67 H15        36.3263    7.4914   59.2291 H         1 ARG         0.0689
     68 H16        33.5611    6.5147   58.6201 H         1 ARG         0.2642
     69 H17        35.8244    8.8391   56.1767 H         1 ARG         0.2615
     70 H18        36.3876    8.4982   57.8348 H         1 ARG         0.2615
     71 H19        32.8472    6.9649   56.5172 H         1 ARG         0.2615
     72 H20        33.8341    7.9913   55.4425 H         1 ARG         0.2615
     73 H21        35.4292   12.5618   61.7128 H         1 THR         0.1884
     74 H22        34.3132   14.2612   59.5596 H         1 THR         0.0826
     75 H23        33.8674   16.1199   61.1603 H         1 THR         0.0639
     76 H24        35.3618   15.3732   62.7933 H         1 THR         0.2101
     77 H25        31.8757   15.1771   62.2909 H         1 THR         0.0257
     78 H26        32.4782   13.5146   61.9751 H         1 THR         0.0257
     79 H27        32.0059   14.5744   60.6038 H         1 THR         0.0257
     80 H28        35.3742   16.4141   59.4979 H         1 M3L         0.1883
     81 H29        38.2066   16.3844   60.4871 H         1 M3L         0.0800
     82 H30        38.7353   17.6923   58.3788 H         1 M3L         0.0312
     83 H31        37.1045   17.2509   57.7688 H         1 M3L         0.0312
     84 H32        37.6939   14.8942   57.7505 H         1 M3L         0.0269
     85 H33        39.2784   15.2454   58.5204 H         1 M3L         0.0269
     86 H34        39.9880   16.5241   56.5630 H         1 M3L         0.0317
     87 H35        38.3759   16.3049   55.8015 H         1 M3L         0.0317
     88 H36        38.7364   13.8630   55.7205 H         1 M3L         0.0815
     89 H37        40.3386   14.0669   56.5066 H         1 M3L         0.0815
     90 H38        41.8972   15.6797   53.5492 H         1 M3L         0.0778
     91 H39        42.2133   15.0743   55.2106 H         1 M3L         0.0778
     92 H40        41.2293   16.5573   54.9671 H         1 M3L         0.0778
     93 H41        39.8155   12.7725   53.7827 H         1 M3L         0.0778
     94 H42        41.4481   12.9858   54.5008 H         1 M3L         0.0778
     95 H43        41.0895   13.6518   52.8715 H         1 M3L         0.0778
     96 H44        38.9453   16.3425   53.9515 H         1 M3L         0.0778
     97 H45        38.4332   14.7291   53.3504 H         1 M3L         0.0778
     98 H46        39.8152   15.5781   52.5784 H         1 M3L         0.0778
     99 H47        38.4752   18.1427   61.7856 H         1 GLN         0.1883
    100 H48        36.4642   20.3263   61.6594 H         1 GLN         0.0801
    101 H49        37.4965   21.0118   63.8796 H         1 GLN         0.0337
    102 H50        38.4616   19.4986   63.8051 H         1 GLN         0.0337
    103 H51        35.4306   19.6495   63.8211 H         1 GLN         0.0504
    104 H52        36.4679   19.3426   65.2551 H         1 GLN         0.0504
    105 H53        35.1586   16.2081   63.3943 H         1 GLN         0.1814
    106 H54        34.3816   17.7325   63.6634 H         1 GLN         0.1814
    107 H55        37.3368   22.4874   62.4426 H         1 THR         0.1885
    108 H56        39.0279   23.5859   60.4754 H         1 THR         0.0843
    109 H57        37.4435   24.9736   61.7570 H         1 THR         0.0641
    110 H58        40.1683   25.6895   62.2694 H         1 THR         0.2101
    111 H59        37.8965   25.5530   64.1300 H         1 THR         0.0257
    112 H60        39.2911   24.4210   64.1419 H         1 THR         0.0257
    113 H61        37.6227   23.7886   63.9339 H         1 THR         0.0257
    114 H62        41.0785   24.6498   60.9621 H         1 THR         0.2540
@<TRIPOS>BOND
     1    2    1 1  
     2    2    5 1  
     3    3    2 1  
     4    3    4 2  
     5    7    6 1  
     6    7   10 1  
     7    8    7 1  
     8    8    9 2  
     9   10   11 1  
    10   11   12 1  
    11   12   13 1  
    12   13   14 ar 
    13   14   16 ar 
    14   14   15 ar 
    15    6    3 am 
    16   18   17 1  
    17   18   21 1  
    18   19   18 1  
    19   19   20 2  
    20   21   23 1  
    21   21   22 1  
    22   17    8 am 
    23   36   37 1  
    24   37   40 1  
    25   37   38 1  
    26   38   39 2  
    27   40   41 1  
    28   41   42 1  
    29   42   44 am 
    30   42   43 2  
    31   45   46 1  
    32   46   49 1  
    33   46   47 1  
    34   47   48 2  
    35   49   51 1  
    36   49   50 1  
    37   38   45 am 
    38   25   24 1  
    39   25   26 1  
    40   31   25 1  
    41   26   27 1  
    42   27   28 1  
    43   28   29 1  
    44   29   30 1  
    45   30   33 1  
    46   30   34 1  
    47   30   35 1  
    48   31   32 2  
    49   24   19 am 
    50   31   36 am 
    51   47   52 1  
    52    1   53 1  
    53    1   54 1  
    54    1   55 1  
    55    2   56 1  
    56    5   57 1  
    57    5   58 1  
    58    5   59 1  
    59    6   60 1  
    60    7   61 1  
    61   10   62 1  
    62   10   63 1  
    63   11   64 1  
    64   11   65 1  
    65   12   66 1  
    66   12   67 1  
    67   13   68 1  
    68   15   69 1  
    69   15   70 1  
    70   16   71 1  
    71   16   72 1  
    72   17   73 1  
    73   18   74 1  
    74   21   75 1  
    75   22   76 1  
    76   23   77 1  
    77   23   78 1  
    78   23   79 1  
    79   24   80 1  
    80   25   81 1  
    81   26   82 1  
    82   26   83 1  
    83   27   84 1  
    84   27   85 1  
    85   28   86 1  
    86   28   87 1  
    87   29   88 1  
    88   29   89 1  
    89   33   90 1  
    90   33   91 1  
    91   33   92 1  
    92   34   93 1  
    93   34   94 1  
    94   34   95 1  
    95   35   96 1  
    96   35   97 1  
    97   35   98 1  
    98   36   99 1  
    99   37  100 1  
   100   40  101 1  
   101   40  102 1  
   102   41  103 1  
   103   41  104 1  
   104   44  105 1  
   105   44  106 1  
   106   45  107 1  
   107   46  108 1  
   108   49  109 1  
   109   50  110 1  
   110   51  111 1  
   111   51  112 1  
   112   51  113 1  
   113   52  114 1  
@<TRIPOS>SUBSTRUCTURE
     1 ALA         1

