3gwu_ligand
  -I-interpret- 

 38 40  0  0  0  0  0  0  0  0999 V2000
   29.1850   25.6670   20.9190 Cl  0  0  0  0  0
   28.3210   24.3370   21.7520 C   0  0  0  0  0
   27.9210   23.2600   20.9910 C   0  0  0  0  0
   28.3030   23.2900   19.2480 Cl  0  0  0  0  0
   28.0540   24.3680   23.1210 C   0  0  0  0  0
   27.3770   23.2940   23.7040 C   0  0  0  0  0
   26.9760   22.1970   22.9280 C   0  0  0  0  0
   27.2470   22.1830   21.5630 C   0  0  0  0  0
   26.2490   21.0360   23.5120 C   0  0  0  0  0
   27.0520   20.2860   24.5290 C   0  0  0  0  0
   28.4180   20.0890   24.2980 C   0  0  0  0  0
   29.2060   19.3810   25.2020 C   0  0  0  0  0
   28.6320   18.8660   26.3580 C   0  0  0  0  0
   27.2720   19.0520   26.5970 C   0  0  0  0  0
   26.4740   19.7550   25.6930 C   0  0  0  0  0
   25.0260   19.9110   26.0190 C   0  0  0  0  0
   24.8540   20.8810   27.0950 N   0  3  0  0  0
   23.5360   21.1370   27.6580 C   0  0  0  0  0
   24.2260   20.3160   24.7800 C   0  0  0  0  0
   24.8970   21.4840   24.0700 C   0  0  0  0  0
   28.3690   25.2177   23.7268 H   0  0  0  0  0
   27.1585   23.3089   24.7718 H   0  0  0  0  0
   26.9354   21.3387   20.9481 H   0  0  0  0  0
   26.0744   20.3267   22.7030 H   0  0  0  0  0
   28.8730   20.4966   23.3952 H   0  0  0  0  0
   30.2674   19.2316   25.0038 H   0  0  0  0  0
   29.2435   18.3185   27.0752 H   0  0  0  0  0
   26.8248   18.6427   27.5029 H   0  0  0  0  0
   24.6421   18.9489   26.3583 H   0  0  0  0  0
   25.1244   21.7707   26.6758 H   0  0  0  0  0
   25.3867   20.4902   27.8721 H   0  0  0  0  0
   22.8717   21.5005   26.8739 H   0  0  0  0  0
   23.1354   20.2136   28.0762 H   0  0  0  0  0
   23.6176   21.8879   28.4439 H   0  0  0  0  0
   23.2246   20.6169   25.0879 H   0  0  0  0  0
   24.1769   19.4677   24.0973 H   0  0  0  0  0
   24.2620   21.8241   23.2520 H   0  0  0  0  0
   25.0490   22.2992   24.7774 H   0  0  0  0  0
  1  2  1  0  0  0
  2  3  4  0  0  0
  2  5  4  0  0  0
  3  4  1  0  0  0
  3  8  4  0  0  0
  5  6  4  0  0  0
  6  7  4  0  0  0
  7  8  4  0  0  0
  7  9  1  0  0  0
  9 10  1  0  0  0
  9 20  1  0  0  0
 10 11  4  0  0  0
 10 15  4  0  0  0
 11 12  4  0  0  0
 12 13  4  0  0  0
 13 14  4  0  0  0
 14 15  4  0  0  0
 15 16  1  0  0  0
 16 17  1  0  0  0
 16 19  1  0  0  0
 17 18  1  0  0  0
 19 20  1  0  0  0
  5 21  1  0  0  0
  6 22  1  0  0  0
  8 23  1  0  0  0
  9 24  1  0  0  0
 11 25  1  0  0  0
 12 26  1  0  0  0
 13 27  1  0  0  0
 14 28  1  0  0  0
 16 29  1  0  0  0
 17 30  1  0  0  0
 17 31  1  0  0  0
 18 32  1  0  0  0
 18 33  1  0  0  0
 18 34  1  0  0  0
 19 35  1  0  0  0
 19 36  1  0  0  0
 20 37  1  0  0  0
 20 38  1  0  0  0
M  END
$$$$
