### 
### Created by X-TOOL on Mon Sep 10 21:12:49 2018
### 

@<TRIPOS>MOLECULE
1gzv_ligand
   23    22     1     0     0
SMALL
GAST_HUCK


@<TRIPOS>ATOM
      1 O1A        45.8360   30.7640   46.6180 O.co2     1 PA5        -0.5663
      2 C1         45.6520   31.1040   47.7770 C.2       1 PA5         0.0660
      3 O1         45.2830   30.2860   48.5850 O.co2     1 PA5        -0.5663
      4 C2         45.8440   32.5050   48.2360 C.3       1 PA5         0.1355
      5 O2         46.1920   33.2270   47.0900 O.3       1 PA5        -0.3750
      6 C3         44.4950   33.0690   48.6280 C.3       1 PA5         0.1209
      7 O3         43.8620   33.4050   47.4050 O.3       1 PA5        -0.3848
      8 C4         44.5980   34.3550   49.4420 C.3       1 PA5         0.1126
      9 O4         45.4640   34.1680   50.5490 O.3       1 PA5        -0.3864
     10 C5         43.2380   34.8270   49.9570 C.3       1 PA5         0.1069
     11 O5         42.6810   33.8480   50.8520 O.3       1 PA5        -0.2734
     12 P          41.1920   34.0940   51.4230 P.3       1 PA5         0.2008
     13 O1P        40.9980   33.1050   52.5160 O.co2     1 PA5        -0.5537
     14 O2P        41.1710   35.5070   51.9680 O.co2     1 PA5        -0.5537
     15 O3P        40.3450   33.6960   50.2390 O.co2     1 PA5        -0.5537
     16 H1         46.5875   32.5837   49.0428 H         1 PA5         0.0791
     17 H2         45.4914   33.1627   46.4517 H         1 PA5         0.2125
     18 H3         43.9175   32.3181   49.1871 H         1 PA5         0.0665
     19 H4         44.3883   34.0471   46.9433 H         1 PA5         0.2102
     20 H5         45.0153   35.1388   48.7927 H         1 PA5         0.0648
     21 H6         45.1229   33.4758   51.1031 H         1 PA5         0.2100
     22 H7         42.5565   34.9708   49.1056 H         1 PA5         0.0639
     23 H8         43.3624   35.7799   50.4922 H         1 PA5         0.0639
@<TRIPOS>BOND
     1    1    2 ar 
     2    2    3 ar 
     3    2    4 1  
     4    4    5 1  
     5    4    6 1  
     6    6    7 1  
     7    6    8 1  
     8    8    9 1  
     9    8   10 1  
    10   10   11 1  
    11   11   12 1  
    12   12   13 ar 
    13   12   14 ar 
    14   12   15 ar 
    15    4   16 1  
    16    5   17 1  
    17    6   18 1  
    18    7   19 1  
    19    8   20 1  
    20    9   21 1  
    21   10   22 1  
    22   10   23 1  
@<TRIPOS>SUBSTRUCTURE
     1 PA5         1

