1gzv_ligand
  -I-interpret- 

 26 25  0  0  0  0  0  0  0  0999 V2000
   45.8360   30.7640   46.6180 O   0  0  0  0  0
   45.6520   31.1040   47.7770 C   0  0  0  0  0
   45.2830   30.2860   48.5850 O   0  0  0  0  0
   45.8440   32.5050   48.2360 C   0  0  0  0  0
   46.1920   33.2270   47.0900 O   0  0  0  0  0
   44.4950   33.0690   48.6280 C   0  0  0  0  0
   43.8620   33.4050   47.4050 O   0  0  0  0  0
   44.5980   34.3550   49.4420 C   0  0  0  0  0
   45.4640   34.1680   50.5490 O   0  0  0  0  0
   43.2380   34.8270   49.9570 C   0  0  0  0  0
   42.6810   33.8480   50.8520 O   0  0  0  0  0
   41.1920   34.0940   51.4230 P   0  0  0  0  0
   40.9980   33.1050   52.5160 O   0  0  0  0  0
   41.1710   35.5070   51.9680 O   0  0  0  0  0
   40.3450   33.6960   50.2390 O   0  0  0  0  0
   46.1248   31.5224   46.1052 H   0  0  0  0  0
   46.5667   32.5551   49.0504 H   0  0  0  0  0
   47.0468   32.9276   46.7718 H   0  0  0  0  0
   43.9649   32.3366   49.2368 H   0  0  0  0  0
   43.7786   32.6176   46.8623 H   0  0  0  0  0
   44.9948   35.1184   48.7728 H   0  0  0  0  0
   46.3218   33.8713   50.2363 H   0  0  0  0  0
   42.5634   34.9637   49.1118 H   0  0  0  0  0
   43.3651   35.7686   50.4912 H   0  0  0  0  0
   41.2977   36.1286   51.2475 H   0  0  0  0  0
   40.4676   34.3325   49.5309 H   0  0  0  0  0
  1  2  1  0  0  0
  2  3  2  0  0  0
  2  4  1  0  0  0
  4  5  1  0  0  0
  4  6  1  0  0  0
  6  7  1  0  0  0
  6  8  1  0  0  0
  8  9  1  0  0  0
  8 10  1  0  0  0
 10 11  1  0  0  0
 11 12  1  0  0  0
 12 13  2  0  0  0
 12 14  1  0  0  0
 12 15  1  0  0  0
  1 16  1  0  0  0
  4 17  1  0  0  0
  5 18  1  0  0  0
  6 19  1  0  0  0
  7 20  1  0  0  0
  8 21  1  0  0  0
  9 22  1  0  0  0
 10 23  1  0  0  0
 10 24  1  0  0  0
 14 25  1  0  0  0
 15 26  1  0  0  0
M  END
$$$$
