### 
### Created by X-TOOL on Mon Sep 10 21:13:08 2018
### 

@<TRIPOS>MOLECULE
3t8s_ligand
   33    33     1     0     0
SMALL
GAST_HUCK


@<TRIPOS>ATOM
      1 C1        -37.8860   -5.8440   26.0430 C.3       1 I3P         0.1460
      2 C2        -36.5920   -6.4210   26.6520 C.3       1 I3P         0.1168
      3 C3        -35.3340   -6.0540   25.8660 C.3       1 I3P         0.1172
      4 C4        -35.2600   -4.5640   25.5350 C.3       1 I3P         0.1503
      5 C5        -36.5350   -4.0720   24.8440 C.3       1 I3P         0.1506
      6 C6        -37.7960   -4.3550   25.6590 C.3       1 I3P         0.1215
      7 O1        -38.9620   -6.0780   26.9700 O.3       1 I3P        -0.2676
      8 O2        -36.4530   -6.0340   28.0350 O.3       1 I3P        -0.3861
      9 O3        -34.1840   -6.4800   26.6240 O.3       1 I3P        -0.3861
     10 O4        -34.1510   -4.3460   24.6660 O.3       1 I3P        -0.2672
     11 O5        -36.4180   -2.6630   24.6490 O.3       1 I3P        -0.2672
     12 O6        -38.9470   -3.9470   24.8900 O.3       1 I3P        -0.3858
     13 P1        -40.3850   -6.7460   26.5360 P.3       1 I3P         0.2013
     14 O11       -41.2960   -5.5530   26.2840 O.co2     1 I3P        -0.5537
     15 O12       -40.7750   -7.6260   27.7080 O.co2     1 I3P        -0.5537
     16 O13       -40.1310   -7.5600   25.2840 O.co2     1 I3P        -0.5537
     17 P4        -32.6260   -4.5020   25.1610 P.3       1 I3P         0.2013
     18 O41       -32.5800   -3.9240   26.5810 O.co2     1 I3P        -0.5537
     19 O42       -32.4340   -5.9950   25.0440 O.co2     1 I3P        -0.5537
     20 O43       -31.8610   -3.6940   24.1260 O.co2     1 I3P        -0.5537
     21 P5        -35.9860   -2.0540   23.2020 P.3       1 I3P         0.2013
     22 O51       -36.1760   -0.5640   23.4190 O.co2     1 I3P        -0.5537
     23 O52       -34.5140   -2.3930   23.0000 O.co2     1 I3P        -0.5537
     24 O53       -36.9320   -2.7280   22.2080 O.co2     1 I3P        -0.5537
     25 H1        -38.0984   -6.4032   25.1199 H         1 I3P         0.0703
     26 H2        -36.6838   -7.5167   26.6217 H         1 I3P         0.0650
     27 H3        -35.3492   -6.6065   24.9150 H         1 I3P         0.0650
     28 H4        -35.1162   -3.9965   26.4663 H         1 I3P         0.0706
     29 H5        -36.6261   -4.5731   23.8690 H         1 I3P         0.0706
     30 H6        -37.7600   -3.7612   26.5842 H         1 I3P         0.0654
     31 H7        -37.2420   -6.2686   28.5092 H         1 I3P         0.2100
     32 H8        -33.3959   -6.3211   26.1178 H         1 I3P         0.2100
     33 H9        -39.7370   -4.1191   25.3889 H         1 I3P         0.2100
@<TRIPOS>BOND
     1    1    2 1  
     2    1    6 1  
     3    1    7 1  
     4    2    3 1  
     5    2    8 1  
     6    3    4 1  
     7    3    9 1  
     8    4    5 1  
     9    4   10 1  
    10    5    6 1  
    11    5   11 1  
    12    6   12 1  
    13    7   13 1  
    14   10   17 1  
    15   11   21 1  
    16   13   14 ar 
    17   13   15 ar 
    18   13   16 ar 
    19   17   18 ar 
    20   17   19 ar 
    21   17   20 ar 
    22   21   22 ar 
    23   21   23 ar 
    24   21   24 ar 
    25    1   25 1  
    26    2   26 1  
    27    3   27 1  
    28    4   28 1  
    29    5   29 1  
    30    6   30 1  
    31    8   31 1  
    32    9   32 1  
    33   12   33 1  
@<TRIPOS>SUBSTRUCTURE
     1 I3P         1

