3t8s_ligand
  -I-interpret- 

 39 39  0  0  0  0  0  0  0  0999 V2000
  -37.8860   -5.8440   26.0430 C   0  0  0  0  0
  -36.5920   -6.4210   26.6520 C   0  0  0  0  0
  -35.3340   -6.0540   25.8660 C   0  0  0  0  0
  -35.2600   -4.5640   25.5350 C   0  0  0  0  0
  -36.5350   -4.0720   24.8440 C   0  0  0  0  0
  -37.7960   -4.3550   25.6590 C   0  0  0  0  0
  -38.9620   -6.0780   26.9700 O   0  0  0  0  0
  -36.4530   -6.0340   28.0350 O   0  0  0  0  0
  -34.1840   -6.4800   26.6240 O   0  0  0  0  0
  -34.1510   -4.3460   24.6660 O   0  0  0  0  0
  -36.4180   -2.6630   24.6490 O   0  0  0  0  0
  -38.9470   -3.9470   24.8900 O   0  0  0  0  0
  -40.3850   -6.7460   26.5360 P   0  0  0  0  0
  -41.2960   -5.5530   26.2840 O   0  0  0  0  0
  -40.7750   -7.6260   27.7080 O   0  0  0  0  0
  -40.1310   -7.5600   25.2840 O   0  0  0  0  0
  -32.6260   -4.5020   25.1610 P   0  0  0  0  0
  -32.5800   -3.9240   26.5810 O   0  0  0  0  0
  -32.4340   -5.9950   25.0440 O   0  0  0  0  0
  -31.8610   -3.6940   24.1260 O   0  0  0  0  0
  -35.9860   -2.0540   23.2020 P   0  0  0  0  0
  -36.1760   -0.5640   23.4190 O   0  0  0  0  0
  -34.5140   -2.3930   23.0000 O   0  0  0  0  0
  -36.9320   -2.7280   22.2080 O   0  0  0  0  0
  -38.0653   -6.3581   25.0988 H   0  0  0  0  0
  -36.6909   -7.5048   26.5915 H   0  0  0  0  0
  -35.3607   -6.5670   24.9046 H   0  0  0  0  0
  -35.1461   -4.0108   26.4673 H   0  0  0  0  0
  -36.6344   -4.6073   23.8997 H   0  0  0  0  0
  -37.7611   -3.7874   26.5889 H   0  0  0  0  0
  -37.2504   -6.2711   28.5142 H   0  0  0  0  0
  -34.2584   -7.4176   26.8165 H   0  0  0  0  0
  -39.7453   -4.1209   25.3941 H   0  0  0  0  0
  -41.4255   -5.0717   27.1045 H   0  0  0  0  0
  -40.9277   -7.0780   28.4813 H   0  0  0  0  0
  -32.7120   -2.9739   26.5430 H   0  0  0  0  0
  -32.0310   -2.7590   24.2621 H   0  0  0  0  0
  -34.4202   -3.3388   22.8651 H   0  0  0  0  0
  -36.7215   -3.6629   22.1511 H   0  0  0  0  0
  1  2  1  0  0  0
  1  6  1  0  0  0
  1  7  1  0  0  0
  2  3  1  0  0  0
  2  8  1  0  0  0
  3  4  1  0  0  0
  3  9  1  0  0  0
  4  5  1  0  0  0
  4 10  1  0  0  0
  5  6  1  0  0  0
  5 11  1  0  0  0
  6 12  1  0  0  0
  7 13  1  0  0  0
 10 17  1  0  0  0
 11 21  1  0  0  0
 13 14  1  0  0  0
 13 15  1  0  0  0
 13 16  2  0  0  0
 17 18  1  0  0  0
 17 19  2  0  0  0
 17 20  1  0  0  0
 21 22  2  0  0  0
 21 23  1  0  0  0
 21 24  1  0  0  0
  1 25  1  0  0  0
  2 26  1  0  0  0
  3 27  1  0  0  0
  4 28  1  0  0  0
  5 29  1  0  0  0
  6 30  1  0  0  0
  8 31  1  0  0  0
  9 32  1  0  0  0
 12 33  1  0  0  0
 14 34  1  0  0  0
 15 35  1  0  0  0
 18 36  1  0  0  0
 20 37  1  0  0  0
 23 38  1  0  0  0
 24 39  1  0  0  0
M  END
$$$$
