4kij_ligand
  -I-interpret- 

 30 31  0  0  0  0  0  0  0  0999 V2000
  -28.2990  -17.3430   53.0300 O   0  0  0  0  0
  -28.7300  -18.0880   54.1120 C   0  0  0  0  0
  -29.2640  -19.3810   53.9090 C   0  0  0  0  0
  -29.3630  -19.8730   52.6480 O   0  0  0  0  0
  -29.6780  -20.1590   54.9780 C   0  0  0  0  0
  -29.5740  -19.6400   56.2560 C   0  0  0  0  0
  -29.9940  -20.3880   57.3300 C   0  0  0  0  0
  -29.3230  -20.3850   58.3750 O   0  0  0  0  0
  -31.0410  -21.0590   57.2680 O   0  0  0  0  0
  -29.0590  -18.3650   56.4840 C   0  0  0  0  0
  -28.6510  -17.5580   55.4240 C   0  0  0  0  0
  -28.0960  -16.3010   55.6520 O   0  0  0  0  0
  -28.7120  -15.0560   55.7960 C   0  0  0  0  0
  -28.9340  -14.4260   57.0400 C   0  0  0  0  0
  -29.0370  -14.3480   54.6540 C   0  0  0  0  0
  -29.6100  -13.0830   54.7560 C   0  0  0  0  0
  -29.8480  -12.4800   55.9840 C   0  0  0  0  0
  -29.5110  -13.1440   57.1470 C   0  0  0  0  0
  -29.7980  -12.5350   58.3210 N   0  0  0  0  0
  -30.3590  -11.0320   58.3680 O   0  0  0  0  0
  -29.7420  -13.2630   59.5920 O   0  0  0  0  0
  -27.9673  -16.4963   53.3377 H   0  0  0  0  0
  -29.7419  -20.7545   52.6785 H   0  0  0  0  0
  -30.0776  -21.1600   54.8153 H   0  0  0  0  0
  -31.4364  -20.9535   56.3996 H   0  0  0  0  0
  -28.9743  -17.9942   57.5055 H   0  0  0  0  0
  -28.6486  -14.9505   57.9519 H   0  0  0  0  0
  -28.8444  -14.7806   53.6722 H   0  0  0  0  0
  -29.8799  -12.5500   53.8443 H   0  0  0  0  0
  -30.2982  -11.4884   56.0297 H   0  0  0  0  0
  1  2  1  0  0  0
  2  3  4  0  0  0
  2 11  4  0  0  0
  3  4  1  0  0  0
  3  5  4  0  0  0
  5  6  4  0  0  0
  6  7  1  0  0  0
  6 10  4  0  0  0
  7  8  2  0  0  0
  7  9  1  0  0  0
 10 11  4  0  0  0
 11 12  1  0  0  0
 12 13  1  0  0  0
 13 14  4  0  0  0
 13 15  4  0  0  0
 14 18  4  0  0  0
 15 16  4  0  0  0
 16 17  4  0  0  0
 17 18  4  0  0  0
 18 19  1  0  0  0
 19 20  2  0  0  0
 19 21  2  0  0  0
  1 22  1  0  0  0
  4 23  1  0  0  0
  5 24  1  0  0  0
  9 25  1  0  0  0
 10 26  1  0  0  0
 14 27  1  0  0  0
 15 28  1  0  0  0
 16 29  1  0  0  0
 17 30  1  0  0  0
M  END
$$$$
