3pz4_ligand
  -I-interpret- 

 67 71  0  0  0  0  0  0  0  0999 V2000
   50.9050  -51.1910    5.1060 C   0  0  0  0  0
   52.0640  -51.6440    2.2590 N   0  0  0  0  0
   50.3420  -52.9800    0.4590 O   0  0  0  0  0
   50.4420  -51.7140    1.3070 S   0  0  0  0  0
   51.5220  -52.3400    4.6190 C   0  0  0  0  0
   51.1800  -49.9790    4.6000 N   0  0  0  0  0
   50.3480  -50.5290    0.3730 O   0  0  0  0  0
   51.3130  -53.5590    5.2040 C   0  0  0  0  0
   51.4840  -47.6490    7.9130 N   0  0  0  0  0
   45.6770  -51.5490    4.6630 O   0  0  0  0  0
   50.4790  -53.6520    6.2950 C   0  0  0  0  0
   50.0400  -47.0670    6.4660 N   0  0  0  0  0
   49.8760  -52.4970    6.8140 C   0  0  0  0  0
   50.2220  -56.0290    7.2730 N   0  0  0  0  0
   50.0910  -51.2620    6.2380 C   0  0  0  0  0
   52.4260  -52.4760    3.4400 C   0  0  0  0  0
   52.4770  -50.2250    2.4970 C   0  0  0  0  0
   52.4920  -49.7650    3.9600 C   0  0  0  0  0
   50.3190  -48.8340    4.7020 C   0  0  0  0  0
   50.6540  -48.1530    6.0180 C   0  0  0  0  0
   51.5570  -48.5120    6.9160 C   0  0  0  0  0
   50.5390  -46.7430    7.6390 C   0  0  0  0  0
   48.9190  -46.3650    5.7270 C   0  0  0  0  0
   53.8100  -49.9640    1.7690 C   0  0  0  0  0
   57.4560  -51.8270    3.1850 C   0  0  0  0  0
   56.6160  -52.4980    2.2950 C   0  0  0  0  0
   55.4410  -51.9050    1.8340 C   0  0  0  0  0
   55.0750  -50.6440    2.2810 C   0  0  0  0  0
   55.9150  -49.9620    3.1510 C   0  0  0  0  0
   57.1090  -50.5440    3.6100 C   0  0  0  0  0
   46.7760  -51.6000    3.8610 C   0  0  0  0  0
   47.3970  -52.8140    3.6150 C   0  0  0  0  0
   48.5140  -52.8770    2.8050 C   0  0  0  0  0
   49.0200  -51.6850    2.2890 C   0  0  0  0  0
   48.4020  -50.4620    2.5180 C   0  0  0  0  0
   47.2780  -50.4160    3.3250 C   0  0  0  0  0
   46.0560  -50.9100    5.9570 C   0  0  0  0  0
   50.2930  -54.9620    6.8600 C   0  0  0  0  0
   51.8029  -54.4491    4.8093 H   0  0  0  0  0
   49.2272  -52.5764    7.6863 H   0  0  0  0  0
   49.6366  -50.3639    6.6564 H   0  0  0  0  0
   53.4125  -52.1444    3.7640 H   0  0  0  0  0
   52.3649  -53.5159    3.1190 H   0  0  0  0  0
   51.6922  -49.5977    2.0743 H   0  0  0  0  0
   53.2410  -50.3449    4.4994 H   0  0  0  0  0
   52.7230  -48.7001    3.9876 H   0  0  0  0  0
   49.2709  -49.1320    4.6743 H   0  0  0  0  0
   50.4733  -48.1556    3.8629 H   0  0  0  0  0
   52.2353  -49.3623    6.8459 H   0  0  0  0  0
   50.2410  -45.9017    8.2647 H   0  0  0  0  0
   49.2791  -46.0341    4.7528 H   0  0  0  0  0
   48.0860  -47.0551    5.5927 H   0  0  0  0  0
   48.5883  -45.5025    6.3057 H   0  0  0  0  0
   53.9942  -48.8968    1.8929 H   0  0  0  0  0
   53.6643  -50.3604    0.7642 H   0  0  0  0  0
   58.3709  -52.2989    3.5433 H   0  0  0  0  0
   56.8820  -53.4991    1.9557 H   0  0  0  0  0
   54.8087  -52.4337    1.1207 H   0  0  0  0  0
   55.6442  -48.9598    3.4831 H   0  0  0  0  0
   57.7592  -49.9972    4.2929 H   0  0  0  0  0
   47.0014  -53.7252    4.0636 H   0  0  0  0  0
   48.9866  -53.8321    2.5757 H   0  0  0  0  0
   48.7968  -49.5509    2.0684 H   0  0  0  0  0
   46.7913  -49.4643    3.5386 H   0  0  0  0  0
   46.8373  -51.4995    6.4367 H   0  0  0  0  0
   46.4239  -49.9014    5.7687 H   0  0  0  0  0
   45.1826  -50.8640    6.6075 H   0  0  0  0  0
  5  1  4  0  0  0
  6  1  1  0  0  0
  1 15  4  0  0  0
  4  2  1  0  0  0
  2 16  1  0  0  0
  2 17  1  0  0  0
  4  3  2  0  0  0
  4  7  2  0  0  0
 34  4  1  0  0  0
  5  8  4  0  0  0
 16  5  1  0  0  0
 18  6  1  0  0  0
  6 19  1  0  0  0
  8 11  4  0  0  0
 21  9  4  0  0  0
  9 22  4  0  0  0
 31 10  1  0  0  0
 10 37  1  0  0  0
 11 13  4  0  0  0
 11 38  1  0  0  0
 20 12  4  0  0  0
 12 22  4  0  0  0
 12 23  1  0  0  0
 15 13  4  0  0  0
 38 14  3  0  0  0
 17 18  1  0  0  0
 17 24  1  0  0  0
 19 20  1  0  0  0
 20 21  4  0  0  0
 24 28  1  0  0  0
 26 25  4  0  0  0
 30 25  4  0  0  0
 27 26  4  0  0  0
 28 27  4  0  0  0
 28 29  4  0  0  0
 29 30  4  0  0  0
 32 31  4  0  0  0
 31 36  4  0  0  0
 33 32  4  0  0  0
 33 34  4  0  0  0
 34 35  4  0  0  0
 35 36  4  0  0  0
  8 39  1  0  0  0
 13 40  1  0  0  0
 15 41  1  0  0  0
 16 42  1  0  0  0
 16 43  1  0  0  0
 17 44  1  0  0  0
 18 45  1  0  0  0
 18 46  1  0  0  0
 19 47  1  0  0  0
 19 48  1  0  0  0
 21 49  1  0  0  0
 22 50  1  0  0  0
 23 51  1  0  0  0
 23 52  1  0  0  0
 23 53  1  0  0  0
 24 54  1  0  0  0
 24 55  1  0  0  0
 25 56  1  0  0  0
 26 57  1  0  0  0
 27 58  1  0  0  0
 29 59  1  0  0  0
 30 60  1  0  0  0
 32 61  1  0  0  0
 33 62  1  0  0  0
 35 63  1  0  0  0
 36 64  1  0  0  0
 37 65  1  0  0  0
 37 66  1  0  0  0
 37 67  1  0  0  0
M  END
$$$$
