6f22_ligand
  -I-interpret- 

 36 39  0  0  0  0  0  0  0  0999 V2000
    3.1420   -9.2260  -16.5010 C   0  0  0  0  0
    1.7840   -9.4570  -16.8220 C   0  0  0  0  0
    1.2490   -8.6550  -17.8520 C   0  0  0  0  0
   -1.6910   -9.8540  -16.7580 C   0  0  0  0  0
   -2.3320  -11.0030  -16.2640 C   0  0  0  0  0
   -3.1000  -10.9430  -15.0910 C   0  0  0  0  0
   -3.2170   -9.7190  -14.4170 C   0  0  0  0  0
   -2.5760   -8.5720  -14.9060 C   0  0  0  0  0
   -1.8100   -8.6300  -16.0790 C   0  0  0  0  0
   -1.8450  -10.2330  -19.1920 C   0  0  0  0  0
   -1.6570   -8.0840  -20.0690 C   0  0  0  0  0
   -0.6550   -7.6220  -19.0030 C   0  0  0  0  0
    1.3720  -10.5010  -15.9320 C   0  0  0  0  0
    3.9780   -8.3320  -17.0780 N   0  0  0  0  0
    2.0830   -7.7140  -18.4690 C   0  0  0  0  0
   -0.0660   -8.7600  -18.3050 N   0  0  0  0  0
    2.3460  -10.8770  -15.1450 N   0  0  0  0  0
    3.4150   -7.5920  -18.0510 C   0  0  0  0  0
   -0.8710   -9.9510  -18.0290 C   0  0  0  0  0
    3.4070  -10.1140  -15.4850 N   0  0  0  0  0
   -2.5440   -9.0380  -19.5010 O   0  0  0  0  0
   -2.2318  -11.9488  -16.7965 H   0  0  0  0  0
   -3.5980  -11.8344  -14.7096 H   0  0  0  0  0
   -3.8113   -9.6588  -13.5052 H   0  0  0  0  0
   -2.6739   -7.6279  -14.3702 H   0  0  0  0  0
   -1.3134   -7.7372  -16.4590 H   0  0  0  0  0
   -2.5518  -11.0106  -18.9023 H   0  0  0  0  0
   -1.2892  -10.5729  -20.0658 H   0  0  0  0  0
   -1.1194   -8.5374  -20.9017 H   0  0  0  0  0
   -2.2262   -7.2271  -20.4293 H   0  0  0  0  0
   -1.1805   -7.0020  -18.2766 H   0  0  0  0  0
    0.1424   -7.0636  -19.4934 H   0  0  0  0  0
    0.3698  -10.9293  -15.9132 H   0  0  0  0  0
    1.6987   -7.0810  -19.2688 H   0  0  0  0  0
    4.0372   -6.8474  -18.5475 H   0  0  0  0  0
   -0.1483  -10.7580  -17.9085 H   0  0  0  0  0
  2  1  4  0  0  0
  1 14  4  0  0  0
  1 20  4  0  0  0
  3  2  4  0  0  0
  2 13  4  0  0  0
  3 15  4  0  0  0
 16  3  1  0  0  0
  4  5  4  0  0  0
  4  9  4  0  0  0
 19  4  1  0  0  0
  5  6  4  0  0  0
  6  7  4  0  0  0
  8  7  4  0  0  0
  9  8  4  0  0  0
 10 19  1  0  0  0
 21 10  1  0  0  0
 12 11  1  0  0  0
 11 21  1  0  0  0
 12 16  1  0  0  0
 13 17  4  0  0  0
 14 18  4  0  0  0
 15 18  4  0  0  0
 16 19  1  0  0  0
 17 20  4  0  0  0
  5 22  1  0  0  0
  6 23  1  0  0  0
  7 24  1  0  0  0
  8 25  1  0  0  0
  9 26  1  0  0  0
 10 27  1  0  0  0
 10 28  1  0  0  0
 11 29  1  0  0  0
 11 30  1  0  0  0
 12 31  1  0  0  0
 12 32  1  0  0  0
 13 33  1  0  0  0
 15 34  1  0  0  0
 18 35  1  0  0  0
 19 36  1  0  0  0
M  END
$$$$
