3fh5_ligand
  -I-interpret- 

 42 44  0  0  0  0  0  0  0  0999 V2000
   24.3950   -2.0670   -2.0270 C   0  0  0  0  0
   23.9350   -2.8640   -3.0830 C   0  0  0  0  0
   23.6910   -2.3030   -4.3390 C   0  0  0  0  0
   23.8970   -0.9370   -4.5260 C   0  0  0  0  0
   24.3560   -0.1410   -3.4790 C   0  0  0  0  0
   24.6140   -0.6960   -2.2150 C   0  0  0  0  0
   25.0970    0.1980   -1.0710 C   0  0  0  0  0
   26.5030   -0.1370   -0.5410 C   0  0  0  0  0
   26.6720   -0.6300    0.7550 C   0  0  0  0  0
   27.9540   -0.9140    1.2530 C   0  0  0  0  0
   27.6150    0.0910   -1.3530 C   0  0  0  0  0
   28.8870   -0.1970   -0.8590 C   0  0  0  0  0
   29.0690   -0.7040    0.4320 C   0  0  0  0  0
   30.3560   -0.9740    0.8340 O   0  0  0  0  0
   30.5630   -1.8210    2.0050 C   0  0  0  0  0
   31.8900   -2.5840    1.8320 C   0  0  0  0  0
   31.9690   -3.4260    0.5540 C   0  0  0  0  0
   33.4780   -3.7040    0.4740 C   0  0  0  0  0
   34.1210   -2.5540    1.2500 C   0  0  0  0  0
   33.0190   -1.6570    1.6630 N   0  3  0  0  0
   24.5839   -2.5166   -1.0522 H   0  0  0  0  0
   23.7663   -3.9290   -2.9238 H   0  0  0  0  0
   23.3436   -2.9261   -5.1631 H   0  0  0  0  0
   23.6974   -0.4883   -5.4991 H   0  0  0  0  0
   24.5167    0.9246   -3.6426 H   0  0  0  0  0
   24.4035    0.0547   -0.2424 H   0  0  0  0  0
   25.1391    1.2154   -1.4600 H   0  0  0  0  0
   25.7993   -0.7961    1.3866 H   0  0  0  0  0
   28.0798   -1.2936    2.2670 H   0  0  0  0  0
   27.4909    0.4890   -2.3601 H   0  0  0  0  0
   29.7573   -0.0235   -1.4919 H   0  0  0  0  0
   29.7388   -2.5276    2.1020 H   0  0  0  0  0
   30.6028   -1.2069    2.9046 H   0  0  0  0  0
   31.9352   -3.2018    2.7289 H   0  0  0  0  0
   31.5668   -2.9262   -0.3272 H   0  0  0  0  0
   31.3569   -4.3274    0.5830 H   0  0  0  0  0
   33.8310   -3.7493   -0.5563 H   0  0  0  0  0
   33.7372   -4.6757    0.8944 H   0  0  0  0  0
   34.8451   -2.0232    0.6319 H   0  0  0  0  0
   34.6670   -2.9258    2.1170 H   0  0  0  0  0
   33.2315   -1.1316    2.5110 H   0  0  0  0  0
   32.8299   -0.9211    0.9824 H   0  0  0  0  0
  1  2  4  0  0  0
  1  6  4  0  0  0
  2  3  4  0  0  0
  3  4  4  0  0  0
  4  5  4  0  0  0
  5  6  4  0  0  0
  6  7  1  0  0  0
  7  8  1  0  0  0
  8  9  4  0  0  0
  8 11  4  0  0  0
  9 10  4  0  0  0
 10 13  4  0  0  0
 11 12  4  0  0  0
 12 13  4  0  0  0
 13 14  1  0  0  0
 14 15  1  0  0  0
 15 16  1  0  0  0
 16 17  1  0  0  0
 16 20  1  0  0  0
 17 18  1  0  0  0
 18 19  1  0  0  0
 19 20  1  0  0  0
  1 21  1  0  0  0
  2 22  1  0  0  0
  3 23  1  0  0  0
  4 24  1  0  0  0
  5 25  1  0  0  0
  7 26  1  0  0  0
  7 27  1  0  0  0
  9 28  1  0  0  0
 10 29  1  0  0  0
 11 30  1  0  0  0
 12 31  1  0  0  0
 15 32  1  0  0  0
 15 33  1  0  0  0
 16 34  1  0  0  0
 17 35  1  0  0  0
 17 36  1  0  0  0
 18 37  1  0  0  0
 18 38  1  0  0  0
 19 39  1  0  0  0
 19 40  1  0  0  0
 20 41  1  0  0  0
 20 42  1  0  0  0
M  END
$$$$
