6b96_ligand
  -I-interpret- 

 32 35  0  0  0  0  0  0  0  0999 V2000
   32.0300   -6.0630   13.0840 C   0  0  0  0  0
   30.8890   -5.6990   12.2890 C   0  0  0  0  0
   34.0390   -7.0920   13.2630 N   0  0  0  0  0
   30.1010   -3.3540   14.6180 C   0  0  0  0  0
   30.4850   -1.6480   16.2870 C   0  0  0  0  0
   31.0970   -1.2350   14.0140 C   0  0  0  0  0
   30.6410   -2.4980   13.6620 C   0  0  0  0  0
   31.4680    0.5830   15.7110 C   0  0  0  0  0
   29.4200   -5.8470   15.2380 C   0  0  0  0  0
   28.2060   -5.0970   14.8120 C   0  0  0  0  0
   31.6990   -7.0520    8.7980 Cl  0  0  0  0  0
   31.8070   -6.7310   10.4900 C   0  0  0  0  0
   32.8970   -7.1880   11.0720 N   0  0  0  0  0
   33.0610   -6.8710   12.3650 C   0  0  0  0  0
   33.7860   -6.5240   14.4770 N   0  0  0  0  0
   32.6160   -5.9250   14.3630 C   0  0  0  0  0
   30.8060   -6.0290   10.9900 N   0  0  0  0  0
   29.8130   -5.0820   12.8370 N   0  0  0  0  0
   29.5560   -4.7180   14.2350 C   0  0  0  0  0
   31.0180   -0.7920   15.3310 C   0  0  0  0  0
   32.4980    1.0190   14.9770 F   0  0  0  0  0
   30.4870    1.4920   15.6090 F   0  0  0  0  0
   31.8950    0.6560   16.9680 F   0  0  0  0  0
   30.0410   -2.9110   15.9380 C   0  0  0  0  0
   30.4159   -1.3205   17.3243 H   0  0  0  0  0
   31.5216   -0.5831   13.2506 H   0  0  0  0  0
   30.7066   -2.8237   12.6239 H   0  0  0  0  0
   29.8779   -6.6348   15.8361 H   0  0  0  0  0
   27.1295   -4.9369   14.8716 H   0  0  0  0  0
   32.1455   -5.3754   15.1783 H   0  0  0  0  0
   29.0729   -4.8343   12.1803 H   0  0  0  0  0
   29.6381   -3.5697   16.7073 H   0  0  0  0  0
  2  1  4  0  0  0
  1 14  4  0  0  0
  1 16  4  0  0  0
  2 17  4  0  0  0
 18  2  1  0  0  0
 14  3  4  0  0  0
 15  3  4  0  0  0
  4  7  4  0  0  0
 19  4  1  0  0  0
  4 24  4  0  0  0
  5 20  4  0  0  0
 24  5  4  0  0  0
  7  6  4  0  0  0
  6 20  4  0  0  0
 20  8  1  0  0  0
  8 21  1  0  0  0
  8 22  1  0  0  0
  8 23  1  0  0  0
 10  9  2  0  0  0
 19  9  1  0  0  0
 19 10  1  0  0  0
 12 11  1  0  0  0
 12 13  4  0  0  0
 17 12  4  0  0  0
 14 13  4  0  0  0
 16 15  4  0  0  0
 18 19  1  0  0  0
  5 25  1  0  0  0
  6 26  1  0  0  0
  7 27  1  0  0  0
  9 28  1  0  0  0
 10 29  1  0  0  0
 16 30  1  0  0  0
 18 31  1  0  0  0
 24 32  1  0  0  0
M  END
$$$$
