3r2f_ligand
  -I-interpret- 

 98101  0  0  0  0  0  0  0  0999 V2000
   -1.7920   16.8700   23.2250 C   0  0  0  0  0
   -2.3480   17.8930   23.9940 C   0  0  0  0  0
   -1.0820   15.8250   23.8450 C   0  0  0  0  0
   -2.1880   17.8570   25.3810 C   0  0  0  0  0
   -0.9200   15.7950   25.2350 C   0  0  0  0  0
   -3.7950   11.9610   31.9070 C   0  0  0  0  0
   -1.8750   12.0170   33.3160 C   0  0  0  0  0
   -2.0710   10.2990   31.6070 C   0  0  0  0  0
   -1.4800   16.8200   25.9940 C   0  0  0  0  0
   -3.1020   12.5650   32.9520 C   0  0  0  0  0
   -3.2870   10.8510   31.2450 C   0  0  0  0  0
   -1.3580   10.8950   32.6460 C   0  0  0  0  0
    0.2400   15.2190   30.2150 C   0  0  0  0  0
    2.7730   14.4240   28.6010 C   0  0  0  0  0
   -3.2670   15.4180   30.5080 C   0  0  0  0  0
    0.2650   12.8850   29.6180 C   0  0  0  0  0
   -6.4190   16.8730   31.7920 C   0  0  0  0  0
   -1.1540   13.4480   29.7390 C   0  0  0  0  0
   -6.7200   19.0660   32.6350 C   0  0  0  0  0
   -7.4850   17.9630   31.9120 C   0  0  0  0  0
   -5.2630   17.2690   32.7340 C   0  0  0  0  0
    1.0450   13.9600   30.3850 C   0  0  0  0  0
    4.2390   14.4280   28.2350 C   0  0  0  0  0
  -10.8650   16.3310   34.3490 C   0  0  0  0  0
    1.6100   13.0330   34.1350 C   0  0  0  0  0
    2.8280   11.9770   32.2710 C   0  0  0  0  0
   -1.3250   16.8250   27.4930 C   0  0  0  0  0
   -3.6760   13.7790   33.6670 C   0  0  0  0  0
    0.9070   13.5280   31.8510 C   0  0  0  0  0
  -10.2990   15.9020   32.9890 C   0  0  0  0  0
   -2.4400   16.0320   28.1820 C   0  0  0  0  0
   -9.7550   17.0940   32.1840 C   0  0  0  0  0
   -2.1010   15.8590   29.6590 C   0  0  0  0  0
   -4.6920   16.1000   33.5630 C   0  0  0  0  0
    2.1350   13.2600   32.7120 C   0  0  0  0  0
   -4.1870   14.8960   32.7320 C   0  0  0  0  0
   -5.8810   18.3070   33.6160 N   0  3  0  0  0
   -1.0140   14.9080   29.8650 N   0  0  0  0  0
    2.4150   14.0410   29.8450 N   0  0  0  0  0
   -3.1040   15.3290   31.8450 N   0  0  0  0  0
    0.6510   16.3400   30.4160 O   0  0  0  0  0
    1.9920   14.7770   27.7310 O   0  0  0  0  0
   -4.3410   15.1440   30.0030 O   0  0  0  0  0
   -5.6910   15.6880   34.5010 O   0  0  0  0  0
   -8.5240   17.5260   32.7910 O   0  0  0  0  0
   -3.9870   10.2990   30.2530 F   0  0  0  0  0
   -0.1650   10.3730   32.9950 F   0  0  0  0  0
   -1.9079   16.8803   22.1412 H   0  0  0  0  0
   -2.8978   18.7063   23.5204 H   0  0  0  0  0
   -0.6531   15.0295   23.2355 H   0  0  0  0  0
   -2.6210   18.6481   25.9932 H   0  0  0  0  0
   -0.3672   14.9865   25.7135 H   0  0  0  0  0
   -4.7586   12.3686   31.6012 H   0  0  0  0  0
   -1.3075   12.4644   34.1320 H   0  0  0  0  0
   -1.6806    9.4207   31.0929 H   0  0  0  0  0
    0.6018   12.7297   28.5930 H   0  0  0  0  0
    0.3839   11.8756   30.0117 H   0  0  0  0  0
   -6.0675   16.7882   30.7637 H   0  0  0  0  0
   -6.8274   15.9012   32.0692 H   0  0  0  0  0
   -1.6681   13.0288   30.6039 H   0  0  0  0  0
   -1.7535   13.1869   28.8669 H   0  0  0  0  0
   -7.3773   19.7917   33.1140 H   0  0  0  0  0
   -6.1265   19.6813   31.9588 H   0  0  0  0  0
   -7.9308   18.2417   30.9572 H   0  0  0  0  0
   -4.3982   17.6188   32.1702 H   0  0  0  0  0
    4.4042   13.7536   27.3948 H   0  0  0  0  0
    4.5399   15.4380   27.9565 H   0  0  0  0  0
    4.8267   14.0954   29.0906 H   0  0  0  0  0
  -10.0781   16.8054   34.9353 H   0  0  0  0  0
  -11.6810   17.0371   34.1951 H   0  0  0  0  0
  -11.2366   15.4542   34.8794 H   0  0  0  0  0
    0.9066   12.2003   34.1329 H   0  0  0  0  0
    2.4451   12.8032   34.7967 H   0  0  0  0  0
    1.1064   13.9348   34.4833 H   0  0  0  0  0
    3.6510   11.7578   32.9513 H   0  0  0  0  0
    2.1124   11.1549   32.2875 H   0  0  0  0  0
    3.2147   12.1035   31.2598 H   0  0  0  0  0
   -1.3740   17.8573   27.8394 H   0  0  0  0  0
   -0.3705   16.3605   27.7406 H   0  0  0  0  0
   -2.8696   14.2075   34.2622 H   0  0  0  0  0
   -4.5328   13.4316   34.2443 H   0  0  0  0  0
    0.4088   12.5602   31.7945 H   0  0  0  0  0
    0.4286   14.3807   32.3328 H   0  0  0  0  0
  -11.1051   15.4449   32.4151 H   0  0  0  0  0
   -9.4764   15.2095   33.1672 H   0  0  0  0  0
   -2.5330   15.0525   27.7129 H   0  0  0  0  0
   -3.3826   16.5709   28.0858 H   0  0  0  0  0
  -10.4792   17.9087   32.1873 H   0  0  0  0  0
   -9.5777   16.7970   31.1503 H   0  0  0  0  0
   -1.8003   16.8574   29.9766 H   0  0  0  0  0
   -3.7993   16.4707   34.0669 H   0  0  0  0  0
    2.8401   14.0879   32.6375 H   0  0  0  0  0
   -5.0126   14.5077   32.1356 H   0  0  0  0  0
   -6.4124   17.9187   34.3952 H   0  0  0  0  0
   -5.1995   18.8862   34.1065 H   0  0  0  0  0
    3.1713   13.7803   30.4778 H   0  0  0  0  0
   -2.1996   15.5705   32.2501 H   0  0  0  0  0
   -5.3532   14.9596   35.0272 H   0  0  0  0  0
  2  1  4  0  0  0
  3  1  4  0  0  0
  4  2  4  0  0  0
  5  3  4  0  0  0
  9  4  4  0  0  0
  9  5  4  0  0  0
 10  6  4  0  0  0
  6 11  4  0  0  0
 10  7  4  0  0  0
  7 12  4  0  0  0
 11  8  4  0  0  0
 12  8  4  0  0  0
 27  9  1  0  0  0
 28 10  1  0  0  0
 11 46  1  0  0  0
 12 47  1  0  0  0
 13 22  1  0  0  0
 38 13  1  0  0  0
 13 41  2  0  0  0
 14 23  1  0  0  0
 39 14  1  0  0  0
 14 42  2  0  0  0
 15 33  1  0  0  0
 40 15  1  0  0  0
 15 43  2  0  0  0
 18 16  1  0  0  0
 16 22  1  0  0  0
 17 20  1  0  0  0
 21 17  1  0  0  0
 38 18  1  0  0  0
 19 20  1  0  0  0
 37 19  1  0  0  0
 20 45  1  0  0  0
 34 21  1  0  0  0
 21 37  1  0  0  0
 22 29  1  0  0  0
 22 39  1  0  0  0
 30 24  1  0  0  0
 35 25  1  0  0  0
 35 26  1  0  0  0
 31 27  1  0  0  0
 36 28  1  0  0  0
 29 35  1  0  0  0
 32 30  1  0  0  0
 33 31  1  0  0  0
 45 32  1  0  0  0
 33 38  1  0  0  0
 36 34  1  0  0  0
 34 44  1  0  0  0
 36 40  1  0  0  0
  1 48  1  0  0  0
  2 49  1  0  0  0
  3 50  1  0  0  0
  4 51  1  0  0  0
  5 52  1  0  0  0
  6 53  1  0  0  0
  7 54  1  0  0  0
  8 55  1  0  0  0
 16 56  1  0  0  0
 16 57  1  0  0  0
 17 58  1  0  0  0
 17 59  1  0  0  0
 18 60  1  0  0  0
 18 61  1  0  0  0
 19 62  1  0  0  0
 19 63  1  0  0  0
 20 64  1  0  0  0
 21 65  1  0  0  0
 23 66  1  0  0  0
 23 67  1  0  0  0
 23 68  1  0  0  0
 24 69  1  0  0  0
 24 70  1  0  0  0
 24 71  1  0  0  0
 25 72  1  0  0  0
 25 73  1  0  0  0
 25 74  1  0  0  0
 26 75  1  0  0  0
 26 76  1  0  0  0
 26 77  1  0  0  0
 27 78  1  0  0  0
 27 79  1  0  0  0
 28 80  1  0  0  0
 28 81  1  0  0  0
 29 82  1  0  0  0
 29 83  1  0  0  0
 30 84  1  0  0  0
 30 85  1  0  0  0
 31 86  1  0  0  0
 31 87  1  0  0  0
 32 88  1  0  0  0
 32 89  1  0  0  0
 33 90  1  0  0  0
 34 91  1  0  0  0
 35 92  1  0  0  0
 36 93  1  0  0  0
 37 94  1  0  0  0
 37 95  1  0  0  0
 39 96  1  0  0  0
 40 97  1  0  0  0
 44 98  1  0  0  0
M  END
$$$$
