### 
### Created by X-TOOL on Wed Jan  1 15:39:38 2020
### 

@<TRIPOS>MOLECULE
5xjm_ligand
  143   145     1     0     0
SMALL
GAST_HUCK


@<TRIPOS>ATOM
      1 N          72.5540   21.0470   18.1690 N.4       1 SAR         0.2418
      2 CA         71.5100   22.0590   18.2060 C.3       1 SAR         0.0560
      3 C          70.0730   21.5890   17.8560 C.2       1 SAR         0.2237
      4 O          69.8720   20.3920   17.4930 O.2       1 SAR        -0.3910
      5 CN         72.7080   20.3250   19.4090 C.3       1 SAR        -0.0431
      6 N          69.1060   22.4950   17.9560 N.am      1 ARG        -0.2613
      7 CA         67.7190   22.1710   17.6390 C.3       1 ARG         0.1312
      8 C          66.9580   23.3870   17.1260 C.2       1 ARG         0.2039
      9 O          67.0230   24.4670   17.7120 O.2       1 ARG        -0.3944
     10 CB         67.0080   21.5940   18.8660 C.3       1 ARG        -0.0092
     11 CG         66.9850   20.0770   18.9070 C.3       1 ARG        -0.0156
     12 CD         66.3030   19.5570   20.1630 C.3       1 ARG         0.0627
     13 NE         64.9710   20.1260   20.3540 N.pl3     1 ARG        -0.2723
     14 CZ         63.8770   19.7020   19.7290 C.cat     1 ARG         0.2882
     15 NH1        62.7070   20.2770   19.9730 N.pl3     1 ARG        -0.2849
     16 NH2        63.9500   18.7090   18.8530 N.pl3     1 ARG        -0.2849
     17 N          66.2370   23.2020   16.0210 N.am      1 VAL        -0.2635
     18 CA         65.3820   24.2360   15.4570 C.3       1 VAL         0.1333
     19 C          64.0410   23.6110   15.1010 C.2       1 VAL         0.2043
     20 O          63.9150   22.3940   14.9520 O.2       1 VAL        -0.3944
     21 CB         66.0070   24.9100   14.2170 C.3       1 VAL        -0.0063
     22 CG1        67.2230   25.7280   14.6120 C.3       1 VAL        -0.0584
     23 CG2        66.3720   23.8660   13.1720 C.3       1 VAL        -0.0584
     24 N          63.0310   24.4650   14.9570 N.am      1 TYR        -0.2621
     25 CA         61.6830   24.0230   14.6140 C.3       1 TYR         0.1390
     26 C          61.5170   24.0730   13.0980 C.2       1 TYR         0.2057
     27 O          61.4390   25.1560   12.5080 O.2       1 TYR        -0.3942
     28 CB         60.6390   24.8860   15.3170 C.3       1 TYR         0.0163
     29 CG         59.2830   24.2280   15.4440 C.ar      1 TYR        -0.0493
     30 CD1        58.3100   24.4040   14.4700 C.ar      1 TYR        -0.0685
     31 CD2        58.9770   23.4300   16.5400 C.ar      1 TYR        -0.0685
     32 CE1        57.0680   23.8060   14.5820 C.ar      1 TYR        -0.0398
     33 CE2        57.7360   22.8270   16.6610 C.ar      1 TYR        -0.0398
     34 CZ         56.7860   23.0180   15.6790 C.ar      1 TYR         0.0805
     35 OH         55.5510   22.4220   15.7920 O.3       1 TYR        -0.3376
     36 N          61.4520   22.8990   12.4730 N.am      1 ILE        -0.2633
     37 CA         61.3730   22.7970   11.0250 C.3       1 ILE         0.1335
     38 C          59.9630   22.4750   10.5370 C.2       1 ILE         0.2043
     39 O          59.6180   22.8340    9.4050 O.2       1 ILE        -0.3944
     40 CB         62.3820   21.7490   10.5060 C.3       1 ILE        -0.0037
     41 CG1        63.7700   22.0250   11.0910 C.3       1 ILE        -0.0491
     42 CG2        62.4500   21.7370    8.9870 C.3       1 ILE        -0.0582
     43 CD1        64.8360   21.0730   10.6160 C.3       1 ILE        -0.0648
     44 N          59.1290   21.8430   11.3610 N.am      1 HIS        -0.2625
     45 CA         57.8200   21.3970   10.9040 C.3       1 HIS         0.1371
     46 C          56.9470   22.5870   10.5000 C.2       1 HIS         0.2079
     47 O          57.1030   23.6910   11.0330 O.2       1 HIS        -0.3940
     48 CB         57.1350   20.5830   11.9990 C.3       1 HIS         0.0145
     49 CG         57.9610   19.4380   12.4950 C.2       1 HIS        -0.0027
     50 ND1        58.2230   18.3220   11.7290 N.2       1 HIS        -0.3252
     51 CD2        58.6030   19.2470   13.6710 C.2       1 HIS         0.0291
     52 CE1        58.9850   17.4890   12.4160 C.2       1 HIS         0.0907
     53 NE2        59.2300   18.0260   13.5970 N.pl3     1 HIS        -0.2752
     54 N          56.0170   22.3890    9.5560 N.am      1 PRO        -0.2497
     55 CA         55.1860   23.5200    9.1040 C.3       1 PRO         0.1337
     56 C          54.3030   24.1060   10.1930 C.2       1 PRO         0.2036
     57 O          54.0890   25.3250   10.2230 O.2       1 PRO        -0.3944
     58 CB         54.3500   22.9100    7.9660 C.3       1 PRO        -0.0104
     59 CG         55.1210   21.7170    7.5120 C.3       1 PRO        -0.0281
     60 CD         55.7730   21.1750    8.7550 C.3       1 PRO         0.0369
     61 N          53.7760   23.2740   11.0850 N.am      1 ILE        -0.2692
     62 CA         52.9470   23.7610   12.1800 C.3       1 ILE         0.0969
     63 C          53.5920   23.4080   13.5160 C.2       1 ILE         0.0604
     64 O          53.4850   24.1500   14.4930 O.co2     1 ILE        -0.5666
     65 CB         51.5220   23.1950   12.0930 C.3       1 ILE        -0.0092
     66 CG1        50.9520   23.3980   10.6890 C.3       1 ILE        -0.0497
     67 CG2        50.6220   23.8630   13.1160 C.3       1 ILE        -0.0588
     68 CD1        49.5500   22.8620   10.5180 C.3       1 ILE        -0.0649
     69 OXT        54.2430   22.3710   13.6490 O.co2     1 ILE        -0.5666
     70 H1         73.4285   21.4999   17.9541 H         1 SAR         0.2029
     71 H2         72.3304   20.3858   17.4418 H         1 SAR         0.2029
     72 H3         71.7857   22.8490   17.4920 H         1 SAR         0.1062
     73 H4         71.4859   22.4764   19.2234 H         1 SAR         0.1062
     74 H5         73.5118   19.5815   19.3030 H         1 SAR         0.0777
     75 H6         71.7657   19.8136   19.6550 H         1 SAR         0.0777
     76 H7         72.9640   21.0294   20.2141 H         1 SAR         0.0777
     77 H8         69.3344   23.4213   18.2558 H         1 ARG         0.1884
     78 H9         67.7201   21.4076   16.8470 H         1 ARG         0.0800
     79 H10        65.9693   21.9562   18.8666 H         1 ARG         0.0313
     80 H11        67.5234   21.9570   19.7674 H         1 ARG         0.0313
     81 H12        68.0196   19.7043   18.8832 H         1 ARG         0.0301
     82 H13        66.4409   19.7051   18.0263 H         1 ARG         0.0301
     83 H14        66.9242   19.8139   21.0336 H         1 ARG         0.0689
     84 H15        66.2117   18.4634   20.0876 H         1 ARG         0.0689
     85 H16        64.8730   20.9079   21.0172 H         1 ARG         0.2642
     86 H17        61.8601   19.9475   19.4881 H         1 ARG         0.2615
     87 H18        62.6452   21.0530   20.6474 H         1 ARG         0.2615
     88 H19        64.8558   18.2586   18.6594 H         1 ARG         0.2615
     89 H20        63.1009   18.3882   18.3662 H         1 ARG         0.2615
     90 H21        66.2853   22.3159   15.5600 H         1 VAL         0.1883
     91 H22        65.2219   25.0104   16.2216 H         1 VAL         0.0802
     92 H23        65.2612   25.5900   13.7796 H         1 VAL         0.0343
     93 H24        67.6540   26.1999   13.7167 H         1 VAL         0.0234
     94 H25        67.9723   25.0702   15.0765 H         1 VAL         0.0234
     95 H26        66.9239   26.5068   15.3289 H         1 VAL         0.0234
     96 H27        65.4758   23.2876   12.9030 H         1 VAL         0.0234
     97 H28        67.1361   23.1889   13.5814 H         1 VAL         0.0234
     98 H29        66.7678   24.3667   12.2761 H         1 VAL         0.0234
     99 H30        63.2010   25.4417   15.0881 H         1 TYR         0.1885
    100 H31        61.5544   22.9830   14.9484 H         1 TYR         0.0821
    101 H32        60.5191   25.8184   14.7458 H         1 TYR         0.0453
    102 H33        61.0063   25.1195   16.3272 H         1 TYR         0.0453
    103 H34        58.5275   25.0213   13.6059 H         1 TYR         0.0530
    104 H35        59.7217   23.2771   17.3127 H         1 TYR         0.0530
    105 H36        56.3199   23.9556   13.8119 H         1 TYR         0.0525
    106 H37        57.5124   22.2084   17.5226 H         1 TYR         0.0525
    107 H38        55.0194   22.6524   15.0392 H         1 TYR         0.2458
    108 H39        61.4577   22.0602   13.0174 H         1 ILE         0.1883
    109 H40        61.6535   23.7749   10.6066 H         1 ILE         0.0803
    110 H41        62.0508   20.7558   10.8433 H         1 ILE         0.0345
    111 H42        63.7043   21.9518   12.1866 H         1 ILE         0.0267
    112 H43        64.0674   23.0457   10.8089 H         1 ILE         0.0267
    113 H44        61.4489   21.5381    8.5767 H         1 ILE         0.0235
    114 H45        63.1443   20.9501    8.6572 H         1 ILE         0.0235
    115 H46        62.8058   22.7140    8.6281 H         1 ILE         0.0235
    116 H47        65.7975   21.3381   11.0799 H         1 ILE         0.0230
    117 H48        64.9261   21.1398    9.5217 H         1 ILE         0.0230
    118 H49        64.5630   20.0458   10.8994 H         1 ILE         0.0230
    119 H50        59.4055   21.6723   12.3067 H         1 HIS         0.1885
    120 H51        57.9588   20.7531   10.0230 H         1 HIS         0.0817
    121 H52        56.1916   20.1840   11.5981 H         1 HIS         0.0420
    122 H53        56.9201   21.2504   12.8465 H         1 HIS         0.0420
    123 H54        58.6197   19.9322   14.5173 H         1 HIS         0.0729
    124 H55        59.3490   16.5237   12.0673 H         1 HIS         0.1199
    125 H56        59.7988   17.5992   14.3421 H         1 HIS         0.2361
    126 H57        55.8297   24.3229    8.7153 H         1 PRO         0.0802
    127 H58        54.2342   23.6307    7.1431 H         1 PRO         0.0313
    128 H59        53.3574   22.6109    8.3338 H         1 PRO         0.0313
    129 H60        55.8816   22.0074    6.7723 H         1 PRO         0.0287
    130 H61        54.4479   20.9672    7.0708 H         1 PRO         0.0287
    131 H62        55.1025   20.4809    9.2828 H         1 PRO         0.0524
    132 H63        56.7165   20.6627    8.5156 H         1 PRO         0.0524
    133 H64        53.9520   22.2930   11.0031 H         1 ILE         0.1875
    134 H65        52.8843   24.8566   12.1045 H         1 ILE         0.0729
    135 H66        51.5592   22.1166   12.3065 H         1 ILE         0.0338
    136 H67        51.6091   22.8864    9.9704 H         1 ILE         0.0267
    137 H68        50.9401   24.4763   10.4718 H         1 ILE         0.0267
    138 H69        51.0377   23.7132   14.1234 H         1 ILE         0.0234
    139 H70        49.6165   23.4199   13.0647 H         1 ILE         0.0234
    140 H71        50.5595   24.9401   12.9016 H         1 ILE         0.0234
    141 H72        49.2109   23.0443    9.4876 H         1 ILE         0.0230
    142 H73        48.8746   23.3706   11.2216 H         1 ILE         0.0230
    143 H74        49.5436   21.7808   10.7202 H         1 ILE         0.0230
@<TRIPOS>BOND
     1    1    2 1  
     2    1    5 1  
     3    2    3 1  
     4    3    4 2  
     5    3    6 am 
     6    6    7 1  
     7    7    8 1  
     8    7   10 1  
     9    8    9 2  
    10    8   17 am 
    11   10   11 1  
    12   11   12 1  
    13   12   13 1  
    14   13   14 ar 
    15   14   15 ar 
    16   14   16 ar 
    17   17   18 1  
    18   18   19 1  
    19   18   21 1  
    20   19   20 2  
    21   19   24 am 
    22   21   22 1  
    23   21   23 1  
    24   24   25 1  
    25   25   26 1  
    26   25   28 1  
    27   26   27 2  
    28   26   36 am 
    29   28   29 1  
    30   29   30 ar 
    31   29   31 ar 
    32   30   32 ar 
    33   31   33 ar 
    34   32   34 ar 
    35   33   34 ar 
    36   34   35 1  
    37   36   37 1  
    38   37   38 1  
    39   37   40 1  
    40   38   39 2  
    41   38   44 am 
    42   40   41 1  
    43   40   42 1  
    44   41   43 1  
    45   44   45 1  
    46   45   46 1  
    47   45   48 1  
    48   46   47 2  
    49   46   54 am 
    50   48   49 1  
    51   49   50 1  
    52   49   51 2  
    53   50   52 2  
    54   51   53 1  
    55   52   53 1  
    56   54   55 1  
    57   54   60 1  
    58   55   56 1  
    59   55   58 1  
    60   56   57 2  
    61   56   61 am 
    62   58   59 1  
    63   59   60 1  
    64   61   62 1  
    65   62   63 1  
    66   62   65 1  
    67   63   64 ar 
    68   63   69 ar 
    69   65   66 1  
    70   65   67 1  
    71   66   68 1  
    72    1   70 1  
    73    1   71 1  
    74    2   72 1  
    75    2   73 1  
    76    5   74 1  
    77    5   75 1  
    78    5   76 1  
    79    6   77 1  
    80    7   78 1  
    81   10   79 1  
    82   10   80 1  
    83   11   81 1  
    84   11   82 1  
    85   12   83 1  
    86   12   84 1  
    87   13   85 1  
    88   15   86 1  
    89   15   87 1  
    90   16   88 1  
    91   16   89 1  
    92   17   90 1  
    93   18   91 1  
    94   21   92 1  
    95   22   93 1  
    96   22   94 1  
    97   22   95 1  
    98   23   96 1  
    99   23   97 1  
   100   23   98 1  
   101   24   99 1  
   102   25  100 1  
   103   28  101 1  
   104   28  102 1  
   105   30  103 1  
   106   31  104 1  
   107   32  105 1  
   108   33  106 1  
   109   35  107 1  
   110   36  108 1  
   111   37  109 1  
   112   40  110 1  
   113   41  111 1  
   114   41  112 1  
   115   42  113 1  
   116   42  114 1  
   117   42  115 1  
   118   43  116 1  
   119   43  117 1  
   120   43  118 1  
   121   44  119 1  
   122   45  120 1  
   123   48  121 1  
   124   48  122 1  
   125   51  123 1  
   126   52  124 1  
   127   53  125 1  
   128   55  126 1  
   129   58  127 1  
   130   58  128 1  
   131   59  129 1  
   132   59  130 1  
   133   60  131 1  
   134   60  132 1  
   135   61  133 1  
   136   62  134 1  
   137   65  135 1  
   138   66  136 1  
   139   66  137 1  
   140   67  138 1  
   141   67  139 1  
   142   67  140 1  
   143   68  141 1  
   144   68  142 1  
   145   68  143 1  
@<TRIPOS>SUBSTRUCTURE
     1 SAR         1

