5xjm_ligand
  -I-interpret- 

142144  0  0  0  0  0  0  0  0999 V2000
   72.5540   21.0470   18.1690 N   0  3  0  0  0
   71.5100   22.0590   18.2060 C   0  0  0  0  0
   70.0730   21.5890   17.8560 C   0  0  0  0  0
   69.8720   20.3920   17.4930 O   0  0  0  0  0
   72.7080   20.3250   19.4090 C   0  0  0  0  0
   69.1060   22.4950   17.9560 N   0  0  0  0  0
   67.7190   22.1710   17.6390 C   0  0  0  0  0
   66.9580   23.3870   17.1260 C   0  0  0  0  0
   67.0230   24.4670   17.7120 O   0  0  0  0  0
   67.0080   21.5940   18.8660 C   0  0  0  0  0
   66.9850   20.0770   18.9070 C   0  0  0  0  0
   66.3030   19.5570   20.1630 C   0  0  0  0  0
   64.9710   20.1260   20.3540 N   0  0  0  0  0
   63.8770   19.7020   19.7290 C   0  0  0  0  0
   62.7070   20.2770   19.9730 N   0  0  0  0  0
   63.9500   18.7090   18.8530 N   0  0  0  0  0
   66.2370   23.2020   16.0210 N   0  0  0  0  0
   65.3820   24.2360   15.4570 C   0  0  0  0  0
   64.0410   23.6110   15.1010 C   0  0  0  0  0
   63.9150   22.3940   14.9520 O   0  0  0  0  0
   66.0070   24.9100   14.2170 C   0  0  0  0  0
   67.2230   25.7280   14.6120 C   0  0  0  0  0
   66.3720   23.8660   13.1720 C   0  0  0  0  0
   63.0310   24.4650   14.9570 N   0  0  0  0  0
   61.6830   24.0230   14.6140 C   0  0  0  0  0
   61.5170   24.0730   13.0980 C   0  0  0  0  0
   61.4390   25.1560   12.5080 O   0  0  0  0  0
   60.6390   24.8860   15.3170 C   0  0  0  0  0
   59.2830   24.2280   15.4440 C   0  0  0  0  0
   58.3100   24.4040   14.4700 C   0  0  0  0  0
   58.9770   23.4300   16.5400 C   0  0  0  0  0
   57.0680   23.8060   14.5820 C   0  0  0  0  0
   57.7360   22.8270   16.6610 C   0  0  0  0  0
   56.7860   23.0180   15.6790 C   0  0  0  0  0
   55.5510   22.4220   15.7920 O   0  0  0  0  0
   61.4520   22.8990   12.4730 N   0  0  0  0  0
   61.3730   22.7970   11.0250 C   0  0  0  0  0
   59.9630   22.4750   10.5370 C   0  0  0  0  0
   59.6180   22.8340    9.4050 O   0  0  0  0  0
   62.3820   21.7490   10.5060 C   0  0  0  0  0
   63.7700   22.0250   11.0910 C   0  0  0  0  0
   62.4500   21.7370    8.9870 C   0  0  0  0  0
   64.8360   21.0730   10.6160 C   0  0  0  0  0
   59.1290   21.8430   11.3610 N   0  0  0  0  0
   57.8200   21.3970   10.9040 C   0  0  0  0  0
   56.9470   22.5870   10.5000 C   0  0  0  0  0
   57.1030   23.6910   11.0330 O   0  0  0  0  0
   57.1350   20.5830   11.9990 C   0  0  0  0  0
   57.9610   19.4380   12.4950 C   0  0  0  0  0
   58.2230   18.3220   11.7290 N   0  0  0  0  0
   58.6030   19.2470   13.6710 C   0  0  0  0  0
   58.9850   17.4890   12.4160 C   0  0  0  0  0
   59.2300   18.0260   13.5970 N   0  0  0  0  0
   56.0170   22.3890    9.5560 N   0  0  0  0  0
   55.1860   23.5200    9.1040 C   0  0  0  0  0
   54.3030   24.1060   10.1930 C   0  0  0  0  0
   54.0890   25.3250   10.2230 O   0  0  0  0  0
   54.3500   22.9100    7.9660 C   0  0  0  0  0
   55.1210   21.7170    7.5120 C   0  0  0  0  0
   55.7730   21.1750    8.7550 C   0  0  0  0  0
   53.7760   23.2740   11.0850 N   0  0  0  0  0
   52.9470   23.7610   12.1800 C   0  0  0  0  0
   53.5920   23.4080   13.5160 C   0  0  0  0  0
   53.4850   24.1500   14.4930 O   0  0  0  0  0
   51.5220   23.1950   12.0930 C   0  0  0  0  0
   50.9520   23.3980   10.6890 C   0  0  0  0  0
   50.6220   23.8630   13.1160 C   0  0  0  0  0
   49.5500   22.8620   10.5180 C   0  0  0  0  0
   54.2430   22.3710   13.6490 O   0  0  0  0  0
   73.4355   21.5255   17.9837 H   0  0  0  0  0
   72.2958   20.3691   17.4519 H   0  0  0  0  0
   71.7783   22.7957   17.4487 H   0  0  0  0  0
   71.4686   22.4109   19.2368 H   0  0  0  0  0
   72.9616   21.0241   20.2059 H   0  0  0  0  0
   71.7737   19.8188   19.6517 H   0  0  0  0  0
   73.5046   19.5887   19.3027 H   0  0  0  0  0
   69.3390   23.4398   18.2618 H   0  0  0  0  0
   67.7346   21.4231   16.8462 H   0  0  0  0  0
   65.9727   21.9329   18.8298 H   0  0  0  0  0
   67.5537   21.9337   19.7463 H   0  0  0  0  0
   68.0142   19.7182   18.9021 H   0  0  0  0  0
   66.4280   19.7190   18.0411 H   0  0  0  0  0
   66.9151   19.8400   21.0193 H   0  0  0  0  0
   66.1958   18.4768   20.0643 H   0  0  0  0  0
   64.8740   20.9003   21.0108 H   0  0  0  0  0
   61.8695   19.9550   19.4879 H   0  0  0  0  0
   62.6447   21.0412   20.6457 H   0  0  0  0  0
   64.8482   18.2673   18.6564 H   0  0  0  0  0
   66.2863   22.2982   15.5508 H   0  0  0  0  0
   65.2545   25.0211   16.2023 H   0  0  0  0  0
   65.2710   25.5855   13.7810 H   0  0  0  0  0
   66.9253   26.4992   15.3224 H   0  0  0  0  0
   67.9647   25.0751   15.0722 H   0  0  0  0  0
   67.6492   26.1950   13.7241 H   0  0  0  0  0
   67.0914   23.1654   13.5960 H   0  0  0  0  0
   65.4740   23.3277   12.8689 H   0  0  0  0  0
   66.8112   24.3596   12.3051 H   0  0  0  0  0
   63.2044   25.4612   15.0907 H   0  0  0  0  0
   61.5343   22.9977   14.9529 H   0  0  0  0  0
   60.5069   25.7868   14.7177 H   0  0  0  0  0
   61.0026   25.0757   16.3269 H   0  0  0  0  0
   58.5287   25.0247   13.6011 H   0  0  0  0  0
   59.7258   23.2762   17.3170 H   0  0  0  0  0
   56.3158   23.9564   13.8077 H   0  0  0  0  0
   57.5112   22.2049   17.5274 H   0  0  0  0  0
   55.5160   21.9124   16.6048 H   0  0  0  0  0
   61.4578   22.0434   13.0283 H   0  0  0  0  0
   61.6310   23.7750   10.6187 H   0  0  0  0  0
   62.0381   20.7668   10.8303 H   0  0  0  0  0
   63.6934   21.9109   12.1723 H   0  0  0  0  0
   64.0631   23.0245   10.7699 H   0  0  0  0  0
   61.4667   21.4969    8.5825 H   0  0  0  0  0
   62.7610   22.7191    8.6307 H   0  0  0  0  0
   63.1709   20.9864    8.6628 H   0  0  0  0  0
   64.5643   20.0556   10.8974 H   0  0  0  0  0
   64.9243   21.1401    9.5317 H   0  0  0  0  0
   65.7882   21.3367   11.0764 H   0  0  0  0  0
   59.4110   21.6689   12.3257 H   0  0  0  0  0
   57.9579   20.7663   10.0257 H   0  0  0  0  0
   56.2200   20.1684   11.5759 H   0  0  0  0  0
   56.9593   21.2504   12.8426 H   0  0  0  0  0
   58.6197   19.9328   14.5180 H   0  0  0  0  0
   59.3493   16.5228   12.0669 H   0  0  0  0  0
   55.7974   24.3679    8.7952 H   0  0  0  0  0
   54.1946   23.6213    7.1549 H   0  0  0  0  0
   53.3495   22.6384    8.3026 H   0  0  0  0  0
   55.8573   21.9784    6.7520 H   0  0  0  0  0
   54.4759   20.9762    7.0396 H   0  0  0  0  0
   55.1529   20.4437    9.2734 H   0  0  0  0  0
   56.6851   20.6164    8.5450 H   0  0  0  0  0
   53.9555   22.2734   11.0015 H   0  0  0  0  0
   52.8727   24.8456   12.1011 H   0  0  0  0  0
   51.5652   22.1268   12.3058 H   0  0  0  0  0
   51.5946   22.8558    9.9953 H   0  0  0  0  0
   50.9146   24.4717   10.5050 H   0  0  0  0  0
   51.0150   23.6827   14.1166 H   0  0  0  0  0
   50.5901   24.9356   12.9246 H   0  0  0  0  0
   49.6167   23.4489   13.0390 H   0  0  0  0  0
   49.5450   21.7906   10.7186 H   0  0  0  0  0
   48.8818   23.3667   11.2158 H   0  0  0  0  0
   49.2152   23.0433    9.4967 H   0  0  0  0  0
   54.2474   21.8886   12.8190 H   0  0  0  0  0
  1  2  1  0  0  0
  1  5  1  0  0  0
  2  3  1  0  0  0
  3  4  2  0  0  0
  3  6  1  0  0  0
  6  7  1  0  0  0
  7  8  1  0  0  0
  7 10  1  0  0  0
  8  9  2  0  0  0
  8 17  1  0  0  0
 10 11  1  0  0  0
 11 12  1  0  0  0
 12 13  1  0  0  0
 13 14  1  0  0  0
 14 15  1  0  0  0
 14 16  2  0  0  0
 17 18  1  0  0  0
 18 19  1  0  0  0
 18 21  1  0  0  0
 19 20  2  0  0  0
 19 24  1  0  0  0
 21 22  1  0  0  0
 21 23  1  0  0  0
 24 25  1  0  0  0
 25 26  1  0  0  0
 25 28  1  0  0  0
 26 27  2  0  0  0
 26 36  1  0  0  0
 28 29  1  0  0  0
 29 30  4  0  0  0
 29 31  4  0  0  0
 30 32  4  0  0  0
 31 33  4  0  0  0
 32 34  4  0  0  0
 33 34  4  0  0  0
 34 35  1  0  0  0
 36 37  1  0  0  0
 37 38  1  0  0  0
 37 40  1  0  0  0
 38 39  2  0  0  0
 38 44  1  0  0  0
 40 41  1  0  0  0
 40 42  1  0  0  0
 41 43  1  0  0  0
 44 45  1  0  0  0
 45 46  1  0  0  0
 45 48  1  0  0  0
 46 47  2  0  0  0
 46 54  1  0  0  0
 48 49  1  0  0  0
 49 50  4  0  0  0
 49 51  4  0  0  0
 50 52  4  0  0  0
 51 53  4  0  0  0
 52 53  4  0  0  0
 54 55  1  0  0  0
 54 60  1  0  0  0
 55 56  1  0  0  0
 55 58  1  0  0  0
 56 57  2  0  0  0
 56 61  1  0  0  0
 58 59  1  0  0  0
 59 60  1  0  0  0
 61 62  1  0  0  0
 62 63  1  0  0  0
 62 65  1  0  0  0
 63 64  2  0  0  0
 63 69  1  0  0  0
 65 66  1  0  0  0
 65 67  1  0  0  0
 66 68  1  0  0  0
  1 70  1  0  0  0
  1 71  1  0  0  0
  2 72  1  0  0  0
  2 73  1  0  0  0
  5 74  1  0  0  0
  5 75  1  0  0  0
  5 76  1  0  0  0
  6 77  1  0  0  0
  7 78  1  0  0  0
 10 79  1  0  0  0
 10 80  1  0  0  0
 11 81  1  0  0  0
 11 82  1  0  0  0
 12 83  1  0  0  0
 12 84  1  0  0  0
 13 85  1  0  0  0
 15 86  1  0  0  0
 15 87  1  0  0  0
 16 88  1  0  0  0
 17 89  1  0  0  0
 18 90  1  0  0  0
 21 91  1  0  0  0
 22 92  1  0  0  0
 22 93  1  0  0  0
 22 94  1  0  0  0
 23 95  1  0  0  0
 23 96  1  0  0  0
 23 97  1  0  0  0
 24 98  1  0  0  0
 25 99  1  0  0  0
 28100  1  0  0  0
 28101  1  0  0  0
 30102  1  0  0  0
 31103  1  0  0  0
 32104  1  0  0  0
 33105  1  0  0  0
 35106  1  0  0  0
 36107  1  0  0  0
 37108  1  0  0  0
 40109  1  0  0  0
 41110  1  0  0  0
 41111  1  0  0  0
 42112  1  0  0  0
 42113  1  0  0  0
 42114  1  0  0  0
 43115  1  0  0  0
 43116  1  0  0  0
 43117  1  0  0  0
 44118  1  0  0  0
 45119  1  0  0  0
 48120  1  0  0  0
 48121  1  0  0  0
 51122  1  0  0  0
 52123  1  0  0  0
 55124  1  0  0  0
 58125  1  0  0  0
 58126  1  0  0  0
 59127  1  0  0  0
 59128  1  0  0  0
 60129  1  0  0  0
 60130  1  0  0  0
 61131  1  0  0  0
 62132  1  0  0  0
 65133  1  0  0  0
 66134  1  0  0  0
 66135  1  0  0  0
 67136  1  0  0  0
 67137  1  0  0  0
 67138  1  0  0  0
 68139  1  0  0  0
 68140  1  0  0  0
 68141  1  0  0  0
 69142  1  0  0  0
M  END
$$$$
