### 
### Created by X-TOOL on Fri Nov 18 12:35:06 2016
### 

@<TRIPOS>MOLECULE
1ggn_ligand
   25    25     1     0     0
SMALL
GAST_HUCK


@<TRIPOS>ATOM
      1 N1         24.6320   25.6900   30.2140 N.ar      1 GLS        -0.3257
      2 C2         23.5270   24.9430   30.4570 C.ar      1 GLS         0.0389
      3 C2A        22.5530   25.4660   31.5080 C.3       1 GLS        -0.0224
      4 C3         23.3380   23.7360   29.7930 C.ar      1 GLS         0.1114
      5 O3         22.1620   23.0090   29.9720 O.3       1 GLS        -0.3349
      6 C4         24.2910   23.3140   28.8620 C.ar      1 GLS         0.0004
      7 C4A        23.9960   22.0190   28.0180 C.3       1 GLS        -0.0301
      8 C5         25.4310   24.1170   28.6270 C.ar      1 GLS         0.0004
      9 C6         25.5790   25.2880   29.3280 C.ar      1 GLS        -0.0132
     10 C5A        26.4410   23.8520   27.4590 C.3       1 GLS         0.1103
     11 O4P        26.0030   24.6310   26.3340 O.3       1 GLS        -0.2651
     12 P          26.9870   24.7950   25.0860 P.3       1 GLS         0.2035
     13 O1P        26.0700   25.3540   24.0790 O.co2     1 GLS        -0.5536
     14 O2P        28.1100   25.9100   25.5490 O.co2     1 GLS        -0.5536
     15 O3P        27.7660   23.5030   24.8520 O.co2     1 GLS        -0.5536
     16 H1         21.7080   24.7683   31.6042 H         1 GLS         0.0382
     17 H2         22.1794   26.4543   31.2021 H         1 GLS         0.0382
     18 H3         23.0691   25.5524   32.4755 H         1 GLS         0.0382
     19 H4         22.1980   22.2168   29.4489 H         1 GLS         0.2454
     20 H5         23.0631   21.5556   28.3715 H         1 GLS         0.0375
     21 H6         24.8265   21.3074   28.1359 H         1 GLS         0.0375
     22 H7         23.8921   22.2888   26.9567 H         1 GLS         0.0375
     23 H8         26.4613   25.8982   29.1725 H         1 GLS         0.0621
     24 H9         26.4445   22.7832   27.1989 H         1 GLS         0.0762
     25 H10        27.4535   24.1597   27.7591 H         1 GLS         0.0762
@<TRIPOS>BOND
     1    1    2 ar 
     2    1    9 ar 
     3    2    3 1  
     4    2    4 ar 
     5    4    5 1  
     6    4    6 ar 
     7    6    7 1  
     8    6    8 ar 
     9    8    9 ar 
    10    8   10 1  
    11   10   11 1  
    12   11   12 1  
    13   12   13 ar 
    14   12   14 ar 
    15   12   15 ar 
    16    3   16 1  
    17    3   17 1  
    18    3   18 1  
    19    5   19 1  
    20    7   20 1  
    21    7   21 1  
    22    7   22 1  
    23    9   23 1  
    24   10   24 1  
    25   10   25 1  
@<TRIPOS>SUBSTRUCTURE
     1 GLS         1

