1ggn_ligand
  -I-interpret- 

 27 27  0  0  0  0  0  0  0  0999 V2000
   24.6320   25.6900   30.2140 N   0  0  0  0  0
   23.5270   24.9430   30.4570 C   0  0  0  0  0
   22.5530   25.4660   31.5080 C   0  0  0  0  0
   23.3380   23.7360   29.7930 C   0  0  0  0  0
   22.1620   23.0090   29.9720 O   0  0  0  0  0
   24.2910   23.3140   28.8620 C   0  0  0  0  0
   23.9960   22.0190   28.0180 C   0  0  0  0  0
   25.4310   24.1170   28.6270 C   0  0  0  0  0
   25.5790   25.2880   29.3280 C   0  0  0  0  0
   26.4410   23.8520   27.4590 C   0  0  0  0  0
   26.0030   24.6310   26.3340 O   0  0  0  0  0
   26.9870   24.7950   25.0860 P   0  0  0  0  0
   26.0700   25.3540   24.0790 O   0  0  0  0  0
   28.1100   25.9100   25.5490 O   0  0  0  0  0
   27.7660   23.5030   24.8520 O   0  0  0  0  0
   23.0656   25.5512   32.4662 H   0  0  0  0  0
   22.1836   26.4453   31.2038 H   0  0  0  0  0
   21.7162   24.7739   31.6024 H   0  0  0  0  0
   22.1984   22.2085   29.4434 H   0  0  0  0  0
   23.8681   21.1703   28.6899 H   0  0  0  0  0
   23.0851   22.1649   27.4375 H   0  0  0  0  0
   24.8312   21.8280   27.3441 H   0  0  0  0  0
   26.4662   25.9016   29.1716 H   0  0  0  0  0
   26.4657   22.7921   27.2058 H   0  0  0  0  0
   27.4513   24.1365   27.7530 H   0  0  0  0  0
   28.6940   25.5213   26.2043 H   0  0  0  0  0
   28.3039   23.3108   25.6236 H   0  0  0  0  0
  1  2  4  0  0  0
  1  9  4  0  0  0
  2  3  1  0  0  0
  2  4  4  0  0  0
  4  5  1  0  0  0
  4  6  4  0  0  0
  6  7  1  0  0  0
  6  8  4  0  0  0
  8  9  4  0  0  0
  8 10  1  0  0  0
 10 11  1  0  0  0
 11 12  1  0  0  0
 12 13  2  0  0  0
 12 14  1  0  0  0
 12 15  1  0  0  0
  3 16  1  0  0  0
  3 17  1  0  0  0
  3 18  1  0  0  0
  5 19  1  0  0  0
  7 20  1  0  0  0
  7 21  1  0  0  0
  7 22  1  0  0  0
  9 23  1  0  0  0
 10 24  1  0  0  0
 10 25  1  0  0  0
 14 26  1  0  0  0
 15 27  1  0  0  0
M  END
$$$$
