4igq_ligand
  -I-interpret- 

 66 65  0  0  0  0  0  0  0  0999 V2000
   33.0250   -6.6710  -14.0900 N   0  3  0  0  0
   32.0240   -5.9490  -14.8720 C   0  0  0  0  0
   32.5300   -5.2970  -16.1460 C   0  0  0  0  0
   33.7340   -5.2540  -16.4190 O   0  0  0  0  0
   31.3730   -4.7990  -14.0710 C   0  0  0  0  0
   32.3880   -3.9470  -13.5240 O   0  0  0  0  0
   30.5470   -5.3360  -12.9700 C   0  0  0  0  0
   31.8500   -4.9150  -17.1320 N   0  0  0  0  0
   31.9490   -4.6430  -18.5370 C   0  0  0  0  0
   31.6830   -3.1560  -18.7460 C   0  0  0  0  0
   32.2960   -2.2900  -17.7110 C   0  0  0  0  0
   31.3900   -1.3800  -16.9380 C   0  0  0  0  0
   31.4070    0.1140  -17.3860 C   0  0  0  0  0
   30.8400    0.3400  -18.7370 N   0  3  0  0  0
   33.3360   -5.1160  -18.8560 C   0  0  0  0  0
   33.6330   -6.2960  -18.7520 O   0  0  0  0  0
   29.7810   -0.5410  -19.1380 C   0  0  0  0  0
   30.2460    1.6850  -18.8080 C   0  0  0  0  0
   31.9530    0.2300  -19.7300 C   0  0  0  0  0
   34.4150   -4.2300  -19.0150 N   0  0  0  0  0
   35.3430   -5.1380  -19.5980 C   0  0  0  0  0
   35.7330   -6.3950  -18.8030 C   0  0  0  0  0
   36.5121   -6.3318  -17.8148 O   0  0  0  0  0
   36.6020   -4.3480  -19.9750 C   0  0  0  0  0
   37.6460   -5.1510  -20.7470 C   0  0  0  0  0
   38.7940   -4.2980  -21.2480 C   0  0  0  0  0
   38.7770   -3.0750  -21.1020 O   0  0  0  0  0
   39.7980   -4.9340  -21.8460 N   0  0  0  0  0
   35.2633   -7.5124  -19.1471 O   0  0  0  0  0
   33.4252   -7.4174  -14.6584 H   0  0  0  0  0
   33.7623   -6.0262  -13.8054 H   0  0  0  0  0
   32.5839   -7.0716  -13.2622 H   0  0  0  0  0
   31.3239   -6.7457  -15.1232 H   0  0  0  0  0
   30.7383   -4.2275  -14.7482 H   0  0  0  0  0
   32.9273   -3.5957  -14.2362 H   0  0  0  0  0
   31.1782   -5.9072  -12.2892 H   0  0  0  0  0
   30.0821   -4.5108  -12.4304 H   0  0  0  0  0
   29.7734   -5.9847  -13.3809 H   0  0  0  0  0
   30.8936   -4.7359  -16.8260 H   0  0  0  0  0
   31.2349   -5.1357  -19.1969 H   0  0  0  0  0
   30.6042   -3.0079  -18.6978 H   0  0  0  0  0
   32.1209   -2.8781  -19.7047 H   0  0  0  0  0
   32.9800   -1.6330  -18.2482 H   0  0  0  0  0
   32.7216   -2.9719  -16.9748 H   0  0  0  0  0
   31.7350   -1.4001  -15.9042 H   0  0  0  0  0
   30.3742   -1.7421  -17.0965 H   0  0  0  0  0
   32.4488    0.4334  -17.4131 H   0  0  0  0  0
   30.7940    0.6725  -16.6786 H   0  0  0  0  0
   30.1436   -1.5689  -19.1327 H   0  0  0  0  0
   28.9472   -0.4449  -18.4425 H   0  0  0  0  0
   29.4505   -0.2762  -20.1423 H   0  0  0  0  0
   29.4537    1.7706  -18.0643 H   0  0  0  0  0
   31.0150    2.4314  -18.6090 H   0  0  0  0  0
   29.8309    1.8454  -19.8030 H   0  0  0  0  0
   32.7111    0.9814  -19.5089 H   0  0  0  0  0
   32.3960   -0.7640  -19.6686 H   0  0  0  0  0
   31.5602    0.3928  -20.7336 H   0  0  0  0  0
   34.5053   -3.2407  -18.7838 H   0  0  0  0  0
   34.8127   -5.5591  -20.4522 H   0  0  0  0  0
   37.0696   -4.0295  -19.0433 H   0  0  0  0  0
   36.2840   -3.5316  -20.6235 H   0  0  0  0  0
   37.1537   -5.5896  -21.6149 H   0  0  0  0  0
   38.0580   -5.8992  -20.0699 H   0  0  0  0  0
   40.5942   -4.4068  -22.2046 H   0  0  0  0  0
   39.7715   -5.9488  -21.9459 H   0  0  0  0  0
   34.6918   -7.3969  -19.9097 H   0  0  0  0  0
  1  2  1  0  0  0
  2  3  1  0  0  0
  2  5  1  0  0  0
  3  4  2  0  0  0
  3  8  1  0  0  0
  5  6  1  0  0  0
  5  7  1  0  0  0
  8  9  1  0  0  0
  9 10  1  0  0  0
  9 15  1  0  0  0
 10 11  1  0  0  0
 11 12  1  0  0  0
 12 13  1  0  0  0
 13 14  1  0  0  0
 14 17  1  0  0  0
 14 18  1  0  0  0
 14 19  1  0  0  0
 15 16  2  0  0  0
 15 20  1  0  0  0
 20 21  1  0  0  0
 21 22  1  0  0  0
 21 24  1  0  0  0
 22 23  2  0  0  0
 24 25  1  0  0  0
 25 26  1  0  0  0
 26 27  2  0  0  0
 26 28  1  0  0  0
 22 29  1  0  0  0
  1 30  1  0  0  0
  1 31  1  0  0  0
  1 32  1  0  0  0
  2 33  1  0  0  0
  5 34  1  0  0  0
  6 35  1  0  0  0
  7 36  1  0  0  0
  7 37  1  0  0  0
  7 38  1  0  0  0
  8 39  1  0  0  0
  9 40  1  0  0  0
 10 41  1  0  0  0
 10 42  1  0  0  0
 11 43  1  0  0  0
 11 44  1  0  0  0
 12 45  1  0  0  0
 12 46  1  0  0  0
 13 47  1  0  0  0
 13 48  1  0  0  0
 17 49  1  0  0  0
 17 50  1  0  0  0
 17 51  1  0  0  0
 18 52  1  0  0  0
 18 53  1  0  0  0
 18 54  1  0  0  0
 19 55  1  0  0  0
 19 56  1  0  0  0
 19 57  1  0  0  0
 20 58  1  0  0  0
 21 59  1  0  0  0
 24 60  1  0  0  0
 24 61  1  0  0  0
 25 62  1  0  0  0
 25 63  1  0  0  0
 28 64  1  0  0  0
 28 65  1  0  0  0
 29 66  1  0  0  0
M  END
$$$$
