1ttv_ligand
  -I-interpret- 

 55 58  0  0  0  0  0  0  0  0999 V2000
    0.6440  -11.1960   -5.4440 C   0  0  0  0  0
    1.4240  -10.4670   -4.6570 N   0  0  0  0  0
    0.9760   -9.0420   -4.7240 C   0  0  0  0  0
    0.3060   -9.0460   -6.1420 C   0  0  0  0  0
   -0.0990  -10.4510   -6.2610 N   0  0  0  0  0
    0.0450   -8.6670   -3.5810 C   0  0  0  0  0
   -0.1620   -7.3100   -3.2830 C   0  0  0  0  0
   -1.0920   -6.9200   -2.3140 C   0  0  0  0  0
   -1.8440   -7.8730   -1.6480 C   0  0  0  0  0
   -1.6230   -9.2170   -1.8970 C   0  0  0  0  0
   -0.6870   -9.6190   -2.8480 C   0  0  0  0  0
   -3.0400   -7.3960   -0.5130 Cl  0  0  0  0  0
   -0.5060   -6.7760   -6.8770 C   0  0  0  0  0
   -1.5120   -5.8680   -7.2050 C   0  0  0  0  0
   -2.8440   -6.2600   -7.1470 C   0  0  0  0  0
   -3.1760   -7.5540   -6.7660 C   0  0  0  0  0
   -2.1670   -8.4790   -6.4940 C   0  0  0  0  0
   -0.8130   -8.1000   -6.5120 C   0  0  0  0  0
   -4.0870   -5.1490   -7.5540 Cl  0  0  0  0  0
    0.6430  -14.9250   -4.6430 C   0  0  0  0  0
    0.9600  -13.5570   -4.5360 C   0  0  0  0  0
    0.4930  -12.6590   -5.5200 C   0  0  0  0  0
   -0.2700  -13.1740   -6.5940 C   0  0  0  0  0
   -0.5780  -14.5280   -6.6860 C   0  0  0  0  0
   -0.1260  -15.4060   -5.7020 C   0  0  0  0  0
    1.7060  -13.0230   -3.4890 O   0  0  0  0  0
    1.8230  -13.7690   -2.2520 C   0  0  0  0  0
    2.3360  -12.8770   -1.1200 C   0  0  0  0  0
    0.4270  -14.2710   -1.9010 C   0  0  0  0  0
   -0.4060  -16.7630   -5.6500 O   0  0  0  0  0
   -0.8740  -17.3610   -6.8650 C   0  0  0  0  0
    1.7585   -8.2919   -4.6098 H   0  0  0  0  0
    1.0287   -8.6423   -6.8511 H   0  0  0  0  0
   -0.8347  -10.8026   -6.8737 H   0  0  0  0  0
    0.4105   -6.5499   -3.8147 H   0  0  0  0  0
   -1.2252   -5.8632   -2.0825 H   0  0  0  0  0
   -2.1867   -9.9681   -1.3437 H   0  0  0  0  0
   -0.5204  -10.6814   -3.0257 H   0  0  0  0  0
    0.5353   -6.4551   -6.9037 H   0  0  0  0  0
   -1.2542   -4.8527   -7.5063 H   0  0  0  0  0
   -4.2225   -7.8463   -6.6797 H   0  0  0  0  0
   -2.4325   -9.5109   -6.2641 H   0  0  0  0  0
    1.0050  -15.6196   -3.8850 H   0  0  0  0  0
   -0.6253  -12.4939   -7.3682 H   0  0  0  0  0
   -1.1693  -14.8999   -7.5227 H   0  0  0  0  0
    2.5292  -14.5899   -2.3766 H   0  0  0  0  0
    3.3171  -12.4833   -1.3855 H   0  0  0  0  0
    1.6412  -12.0513   -0.9665 H   0  0  0  0  0
    2.4139  -13.4630   -0.2042 H   0  0  0  0  0
   -0.2430  -13.4203   -1.7767 H   0  0  0  0  0
    0.0596  -14.9102   -2.7038 H   0  0  0  0  0
    0.4698  -14.8402   -0.9724 H   0  0  0  0  0
   -1.7990  -16.8748   -7.1750 H   0  0  0  0  0
   -0.1198  -17.2392   -7.6424 H   0  0  0  0  0
   -1.0580  -18.4224   -6.6987 H   0  0  0  0  0
  1  2  2  0  0  0
  1  5  1  0  0  0
 22  1  1  0  0  0
  2  3  1  0  0  0
  4  3  1  0  0  0
  3  6  1  0  0  0
  5  4  1  0  0  0
  4 18  1  0  0  0
  6  7  4  0  0  0
  6 11  4  0  0  0
  7  8  4  0  0  0
  8  9  4  0  0  0
 10  9  4  0  0  0
  9 12  1  0  0  0
 11 10  4  0  0  0
 13 14  4  0  0  0
 18 13  4  0  0  0
 14 15  4  0  0  0
 16 15  4  0  0  0
 15 19  1  0  0  0
 17 16  4  0  0  0
 18 17  4  0  0  0
 21 20  4  0  0  0
 20 25  4  0  0  0
 21 22  4  0  0  0
 21 26  1  0  0  0
 22 23  4  0  0  0
 23 24  4  0  0  0
 24 25  4  0  0  0
 25 30  1  0  0  0
 26 27  1  0  0  0
 27 28  1  0  0  0
 27 29  1  0  0  0
 30 31  1  0  0  0
  3 32  1  0  0  0
  4 33  1  0  0  0
  5 34  1  0  0  0
  7 35  1  0  0  0
  8 36  1  0  0  0
 10 37  1  0  0  0
 11 38  1  0  0  0
 13 39  1  0  0  0
 14 40  1  0  0  0
 16 41  1  0  0  0
 17 42  1  0  0  0
 20 43  1  0  0  0
 23 44  1  0  0  0
 24 45  1  0  0  0
 27 46  1  0  0  0
 28 47  1  0  0  0
 28 48  1  0  0  0
 28 49  1  0  0  0
 29 50  1  0  0  0
 29 51  1  0  0  0
 29 52  1  0  0  0
 31 53  1  0  0  0
 31 54  1  0  0  0
 31 55  1  0  0  0
M  END
$$$$
