1xot_ligand
  -I-interpret- 

 67 70  0  0  0  0  0  0  0  0999 V2000
   40.1680    3.9210   60.8780 C   0  0  0  0  0
   39.1890    3.4360   61.8960 C   0  0  0  0  0
   39.9370    2.9220   62.9740 O   0  0  0  0  0
   39.2930    2.0460   63.8060 C   0  0  0  0  0
   37.9070    2.0690   64.0660 C   0  0  0  0  0
   37.3160    1.1330   64.9280 C   0  0  0  0  0
   38.1140    0.1530   65.5400 C   0  0  0  0  0
   39.4720    0.1560   65.2840 C   0  0  0  0  0
   40.0420    1.1030   64.4390 C   0  0  0  0  0
   37.5210   -0.9690   66.5300 S   0  0  0  0  0
   36.5030   -1.6860   65.7930 O   0  0  0  0  0
   38.5830   -1.8640   66.9070 O   0  0  0  0  0
   35.4290    0.9610   72.2450 C   0  0  0  0  0
   36.9890   -0.2210   67.7610 N   0  0  0  0  0
   37.9340    0.6440   68.4500 C   0  0  0  0  0
   37.4370    0.8250   69.8810 C   0  0  0  0  0
   36.0310    1.2230   69.8580 N   0  3  0  0  0
   35.1170    0.3160   69.1820 C   0  0  0  0  0
   35.6040    0.2450   67.7350 C   0  0  0  0  0
   35.5060    1.9050   71.0480 C   0  0  0  0  0
   41.4810    0.9330   64.2310 C   0  0  0  0  0
   42.1820    1.4620   63.0410 N   0  0  0  0  0
   43.5220    1.6070   63.1030 C   0  0  0  0  0
   44.1550    1.4270   64.4410 C   0  0  0  0  0
   43.5260    1.0870   65.5370 N   0  3  0  0  0
   42.1670    0.9170   65.5050 N   0  0  0  0  0
   44.2130    1.9020   62.1510 O   0  0  0  0  0
   45.4970    1.5370   64.8320 C   0  0  0  0  0
   45.5340    1.2560   66.1870 N   0  0  0  0  0
   44.2740    0.9590   66.6170 C   0  0  0  0  0
   46.7010    1.9070   64.0010 C   0  0  0  0  0
   43.8200    0.5560   67.9880 C   0  0  0  0  0
   43.8940    1.7390   68.9190 C   0  0  0  0  0
   43.9420    1.2670   70.3500 C   0  0  0  0  0
   40.7937    4.6972   61.3185 H   0  0  0  0  0
   40.7933    3.0898   60.5523 H   0  0  0  0  0
   39.6290    4.3287   60.0228 H   0  0  0  0  0
   38.5422    2.6670   61.4737 H   0  0  0  0  0
   38.5426    4.2486   62.2276 H   0  0  0  0  0
   37.2847    2.8264   63.5894 H   0  0  0  0  0
   36.2438    1.1663   65.1215 H   0  0  0  0  0
   40.1072   -0.5961   65.7519 H   0  0  0  0  0
   34.7701    0.1263   72.0060 H   0  0  0  0  0
   36.4260    0.5845   72.4739 H   0  0  0  0  0
   35.0362    1.5005   73.1068 H   0  0  0  0  0
   38.0025    1.6085   67.9469 H   0  0  0  0  0
   38.9287    0.1983   68.4470 H   0  0  0  0  0
   38.0262    1.5964   70.3768 H   0  0  0  0  0
   37.5413   -0.1139   70.4247 H   0  0  0  0  0
   36.0742    2.0045   69.2040 H   0  0  0  0  0
   34.0881    0.6712   69.2392 H   0  0  0  0  0
   35.1136   -0.6684   69.6501 H   0  0  0  0  0
   34.9824   -0.4382   67.1563 H   0  0  0  0  0
   35.5400    1.2251   67.2624 H   0  0  0  0  0
   36.1764    2.7270   71.2989 H   0  0  0  0  0
   34.5009    2.2633   70.8255 H   0  0  0  0  0
   41.6666    1.7104   62.1966 H   0  0  0  0  0
   46.8168    1.1871   63.1907 H   0  0  0  0  0
   46.5611    2.9048   63.5851 H   0  0  0  0  0
   47.5918    1.8954   64.6290 H   0  0  0  0  0
   44.4660   -0.2381   68.3625 H   0  0  0  0  0
   42.7905    0.2016   67.9369 H   0  0  0  0  0
   43.0117    2.3630   68.7767 H   0  0  0  0  0
   44.7951    2.3118   68.7000 H   0  0  0  0  0
   43.0434    0.6912   70.5716 H   0  0  0  0  0
   44.8218    0.6401   70.4952 H   0  0  0  0  0
   43.9953    2.1296   71.0142 H   0  0  0  0  0
  2  1  1  0  0  0
  3  2  1  0  0  0
  4  3  1  0  0  0
  5  4  4  0  0  0
  9  4  4  0  0  0
  6  5  4  0  0  0
  7  6  4  0  0  0
  7  8  4  0  0  0
 10  7  1  0  0  0
  8  9  4  0  0  0
  9 21  1  0  0  0
 10 11  2  0  0  0
 10 12  2  0  0  0
 14 10  1  0  0  0
 20 13  1  0  0  0
 15 14  1  0  0  0
 14 19  1  0  0  0
 16 15  1  0  0  0
 17 16  1  0  0  0
 17 18  1  0  0  0
 17 20  1  0  0  0
 18 19  1  0  0  0
 21 22  1  0  0  0
 21 26  2  0  0  0
 22 23  1  0  0  0
 23 24  1  0  0  0
 23 27  2  0  0  0
 24 25  4  0  0  0
 24 28  4  0  0  0
 25 26  1  0  0  0
 25 30  4  0  0  0
 28 29  4  0  0  0
 28 31  1  0  0  0
 29 30  4  0  0  0
 30 32  1  0  0  0
 32 33  1  0  0  0
 33 34  1  0  0  0
  1 35  1  0  0  0
  1 36  1  0  0  0
  1 37  1  0  0  0
  2 38  1  0  0  0
  2 39  1  0  0  0
  5 40  1  0  0  0
  6 41  1  0  0  0
  8 42  1  0  0  0
 13 43  1  0  0  0
 13 44  1  0  0  0
 13 45  1  0  0  0
 15 46  1  0  0  0
 15 47  1  0  0  0
 16 48  1  0  0  0
 16 49  1  0  0  0
 17 50  1  0  0  0
 18 51  1  0  0  0
 18 52  1  0  0  0
 19 53  1  0  0  0
 19 54  1  0  0  0
 20 55  1  0  0  0
 20 56  1  0  0  0
 22 57  1  0  0  0
 31 58  1  0  0  0
 31 59  1  0  0  0
 31 60  1  0  0  0
 32 61  1  0  0  0
 32 62  1  0  0  0
 33 63  1  0  0  0
 33 64  1  0  0  0
 34 65  1  0  0  0
 34 66  1  0  0  0
 34 67  1  0  0  0
M  END
$$$$
