2vte_ligand
  -I-interpret- 

 53 55  0  0  0  0  0  0  0  0999 V2000
  -11.3970   -1.6930   21.5350 N   0  0  0  0  0
  -12.5220   -1.5440   21.5940 C   0  0  0  0  0
  -13.7770   -1.4300   21.7460 C   0  0  0  0  0
  -14.2780   -1.2990   23.0500 C   0  0  0  0  0
  -15.6530   -1.1550   23.2590 C   0  0  0  0  0
  -14.6200   -1.4380   20.6420 C   0  0  0  0  0
  -15.9990   -1.3070   20.8660 C   0  0  0  0  0
  -16.5200   -1.1550   22.1650 C   0  0  0  0  0
  -18.0040   -0.9880   22.4060 C   0  0  0  0  0
  -18.7580   -1.2920   21.2150 O   0  0  0  0  0
  -18.3290   -0.6290   18.9150 C   0  0  0  0  0
  -19.0120   -0.4290   20.1540 C   0  0  0  0  0
  -19.9810    0.5860   20.3050 C   0  0  0  0  0
  -18.5780    0.2140   17.8180 C   0  0  0  0  0
  -19.5460    1.2460   17.9680 C   0  0  0  0  0
  -20.2500    1.4360   19.2100 C   0  0  0  0  0
  -21.1900    2.4590   19.3640 C   0  0  0  0  0
  -19.7970    2.0820   16.8720 C   0  0  0  0  0
  -20.7420    3.1010   17.0380 C   0  0  0  0  0
  -21.4440    3.2890   18.2670 C   0  0  0  0  0
  -22.5340    4.4690   18.3270 S   0  0  0  0  0
  -22.3690    5.3400   17.1820 O   0  0  0  0  0
  -22.4130    5.3210   19.4760 O   0  0  0  0  0
  -24.0440    3.8210   18.3060 N   0  0  0  0  0
  -24.7800    3.7800   19.5940 C   0  0  0  0  0
  -25.4260    5.1040   20.0100 C   0  0  0  0  0
  -25.5800    5.3820   21.2040 O   0  0  0  0  0
  -25.8250    5.9550   19.1920 O   0  0  0  0  0
  -25.7530    2.5960   19.5580 C   0  0  0  0  0
  -26.9310    2.6900   20.5170 C   0  0  0  0  0
  -27.6770    1.3730   20.5610 C   0  0  0  0  0
  -28.4880    1.2340   21.5150 O   0  0  0  0  0
  -27.5310    0.4950   19.6520 O   0  0  0  0  0
  -13.5955   -1.3095   23.8998 H   0  0  0  0  0
  -16.0454   -1.0435   24.2698 H   0  0  0  0  0
  -14.2224   -1.5428   19.6325 H   0  0  0  0  0
  -16.6813   -1.3233   20.0162 H   0  0  0  0  0
  -18.1983    0.0467   22.6885 H   0  0  0  0  0
  -18.3091   -1.6726   23.1975 H   0  0  0  0  0
  -17.6091   -1.4418   18.8197 H   0  0  0  0  0
  -20.5116    0.7113   21.2489 H   0  0  0  0  0
  -18.0437    0.0806   16.8774 H   0  0  0  0  0
  -21.7097    2.6057   20.3108 H   0  0  0  0  0
  -19.2755    1.9439   15.9249 H   0  0  0  0  0
  -20.9483    3.7714   16.2037 H   0  0  0  0  0
  -24.4574    3.4626   17.4452 H   0  0  0  0  0
  -24.0560    3.6249   20.3939 H   0  0  0  0  0
  -25.6590    5.6421   18.2997 H   0  0  0  0  0
  -25.1822    1.7150   19.8514 H   0  0  0  0  0
  -26.1719    2.5678   18.5521 H   0  0  0  0  0
  -27.6084    3.4721   20.1740 H   0  0  0  0  0
  -26.5603    2.9233   21.5152 H   0  0  0  0  0
  -26.8689    0.7932   19.0240 H   0  0  0  0  0
  1  2  3  0  0  0
  2  3  1  0  0  0
  3  4  4  0  0  0
  3  6  4  0  0  0
  4  5  4  0  0  0
  5  8  4  0  0  0
  6  7  4  0  0  0
  7  8  4  0  0  0
  8  9  1  0  0  0
  9 10  1  0  0  0
 10 12  1  0  0  0
 12 11  4  0  0  0
 11 14  4  0  0  0
 12 13  4  0  0  0
 13 16  4  0  0  0
 14 15  4  0  0  0
 15 16  4  0  0  0
 15 18  4  0  0  0
 16 17  4  0  0  0
 17 20  4  0  0  0
 18 19  4  0  0  0
 19 20  4  0  0  0
 20 21  1  0  0  0
 21 22  2  0  0  0
 21 23  2  0  0  0
 21 24  1  0  0  0
 24 25  1  0  0  0
 25 26  1  0  0  0
 25 29  1  0  0  0
 26 27  2  0  0  0
 26 28  1  0  0  0
 29 30  1  0  0  0
 30 31  1  0  0  0
 31 32  2  0  0  0
 31 33  1  0  0  0
  4 34  1  0  0  0
  5 35  1  0  0  0
  6 36  1  0  0  0
  7 37  1  0  0  0
  9 38  1  0  0  0
  9 39  1  0  0  0
 11 40  1  0  0  0
 13 41  1  0  0  0
 14 42  1  0  0  0
 17 43  1  0  0  0
 18 44  1  0  0  0
 19 45  1  0  0  0
 24 46  1  0  0  0
 25 47  1  0  0  0
 28 48  1  0  0  0
 29 49  1  0  0  0
 29 50  1  0  0  0
 30 51  1  0  0  0
 30 52  1  0  0  0
 33 53  1  0  0  0
M  END
$$$$
