5mjn_ligand
  -I-interpret- 

 30 31  0  0  0  0  0  0  0  0999 V2000
   -1.2990   11.4440   13.9460 Cl  0  0  0  0  0
   -1.8430    9.7980   13.5210 C   0  0  0  0  0
   -2.4250    9.2970   12.3150 C   0  0  0  0  0
   -2.7900    7.9110   12.3330 C   0  0  0  0  0
   -1.5780    9.0900   14.6920 C   0  0  0  0  0
   -2.0100    7.8140   14.7180 C   0  0  0  0  0
   -2.4120    7.1680   13.5890 C   0  0  0  0  0
   -2.9470    5.7880   13.6210 C   0  0  0  0  0
   -4.8300    5.6810   13.7200 S   0  0  0  0  0
   -4.8130    4.2420   14.6770 C   0  0  0  0  0
   -3.7110    3.4140   14.7600 C   0  0  0  0  0
   -3.8830    2.3210   15.5810 C   0  0  0  0  0
   -6.1530    3.5350   15.4390 S   0  0  0  0  0
   -5.3500    2.1760   15.8120 C   0  0  0  0  0
   -6.0660    0.9290   16.8580 S   0  0  0  0  0
   -5.4650    1.0860   18.1170 O   0  0  0  0  0
   -7.4470    1.0810   16.7120 O   0  0  0  0  0
   -5.6570   -0.4980   16.1470 N   0  0  0  0  0
   -2.5809    9.9275   11.4396 H   0  0  0  0  0
   -3.3029    7.4299   11.5002 H   0  0  0  0  0
   -1.0537    9.5407   15.5346 H   0  0  0  0  0
   -2.0384    7.2839   15.6700 H   0  0  0  0  0
   -2.5526    5.3135   14.5195 H   0  0  0  0  0
   -2.6486    5.3082   12.6889 H   0  0  0  0  0
   -2.7835    3.6087   14.2215 H   0  0  0  0  0
   -3.3558    2.4606   16.5247 H   0  0  0  0  0
   -3.4747    1.4226   15.1180 H   0  0  0  0  0
   -5.6396    1.3834   15.1220 H   0  0  0  0  0
   -5.0322   -1.1461   16.6266 H   0  0  0  0  0
   -6.0283   -0.7342   15.2268 H   0  0  0  0  0
  1  2  1  0  0  0
  2  3  4  0  0  0
  2  5  4  0  0  0
  3  4  4  0  0  0
  4  7  4  0  0  0
  5  6  4  0  0  0
  6  7  4  0  0  0
  7  8  1  0  0  0
  8  9  1  0  0  0
  9 10  1  0  0  0
 10 11  2  0  0  0
 10 13  1  0  0  0
 11 12  1  0  0  0
 12 14  1  0  0  0
 13 14  1  0  0  0
 14 15  1  0  0  0
 15 16  2  0  0  0
 15 17  2  0  0  0
 15 18  1  0  0  0
  3 19  1  0  0  0
  4 20  1  0  0  0
  5 21  1  0  0  0
  6 22  1  0  0  0
  8 23  1  0  0  0
  8 24  1  0  0  0
 11 25  1  0  0  0
 12 26  1  0  0  0
 12 27  1  0  0  0
 14 28  1  0  0  0
 18 29  1  0  0  0
 18 30  1  0  0  0
M  END
$$$$
