### 
### Created by X-TOOL on Mon Sep 10 21:13:30 2018
### 

@<TRIPOS>MOLECULE
5mjn_ligand
   29    30     1     0     0
SMALL
GAST_HUCK


@<TRIPOS>ATOM
      1 CL         -1.2990   11.4440   13.9460 Cl        1 7O8        -0.0771
      2 C17        -1.8430    9.7980   13.5210 C.ar      1 7O8         0.0330
      3 C16        -2.4250    9.2970   12.3150 C.ar      1 7O8        -0.0546
      4 C15        -2.7900    7.9110   12.3330 C.ar      1 7O8        -0.0587
      5 C18        -1.5780    9.0900   14.6920 C.ar      1 7O8        -0.0546
      6 C19        -2.0100    7.8140   14.7180 C.ar      1 7O8        -0.0587
      7 C14        -2.4120    7.1680   13.5890 C.ar      1 7O8        -0.0306
      8 C13        -2.9470    5.7880   13.6210 C.3       1 7O8         0.0416
      9 S12        -4.8300    5.6810   13.7200 S.3       1 7O8        -0.0791
     10 C10        -4.8130    4.2420   14.6770 C.2       1 7O8         0.0635
     11 C9         -3.7110    3.4140   14.7600 C.2       1 7O8        -0.0642
     12 C8         -3.8830    2.3210   15.5810 C.3       1 7O8        -0.0034
     13 S11        -6.1530    3.5350   15.4390 S.3       1 7O8        -0.0489
     14 C7         -5.3500    2.1760   15.8120 C.2       1 7O8         0.1117
     15 S1         -6.0660    0.9290   16.8580 S.o2      1 7O8         0.0488
     16 O2         -5.4650    1.0860   18.1170 O.2       1 7O8        -0.1578
     17 O3         -7.4470    1.0810   16.7120 O.2       1 7O8        -0.1578
     18 N4         -5.6570   -0.4980   16.1470 N.am      1 7O8        -0.2669
     19 H1         -2.5800    9.9240   11.4444 H         1 7O8         0.0606
     20 H2         -3.3001    7.4325   11.5048 H         1 7O8         0.0558
     21 H3         -1.0566    9.5382   15.5300 H         1 7O8         0.0606
     22 H4         -2.0383    7.2868   15.6647 H         1 7O8         0.0558
     23 H5         -2.5271    5.2769   14.4998 H         1 7O8         0.0565
     24 H6         -2.6211    5.2717   12.7060 H         1 7O8         0.0565
     25 H7         -2.7843    3.6085   14.2220 H         1 7O8         0.0369
     26 H8         -3.3640    2.4815   16.5375 H         1 7O8         0.0528
     27 H9         -3.4859    1.4174   15.0954 H         1 7O8         0.0528
     28 H10        -5.9498   -1.3624   16.5559 H         1 7O8         0.1628
     29 H11        -5.1157   -0.5006   15.3061 H         1 7O8         0.1628
@<TRIPOS>BOND
     1    1    2 1  
     2    2    3 ar 
     3    2    5 ar 
     4    3    4 ar 
     5    4    7 ar 
     6    5    6 ar 
     7    6    7 ar 
     8    7    8 1  
     9    8    9 1  
    10    9   10 1  
    11   10   11 2  
    12   10   13 1  
    13   11   12 1  
    14   12   14 1  
    15   13   14 1  
    16   14   15 1  
    17   15   16 2  
    18   15   17 2  
    19   15   18 am 
    20    3   19 1  
    21    4   20 1  
    22    5   21 1  
    23    6   22 1  
    24    8   23 1  
    25    8   24 1  
    26   11   25 1  
    27   12   26 1  
    28   12   27 1  
    29   18   28 1  
    30   18   29 1  
@<TRIPOS>SUBSTRUCTURE
     1 7O8         1

