1b05_ligand
  -I-interpret- 

 59 58  0  0  0  0  0  0  0  0999 V2000
    6.8840   16.6990   15.2850 N   0  3  0  0  0
    6.4780   18.0080   14.6520 C   0  0  0  0  0
    5.2150   18.5430   15.3210 C   0  0  0  0  0
    4.4280   17.7430   15.8270 O   0  0  0  0  0
    6.2090   17.8530   13.1460 C   0  0  0  0  0
    5.1900   16.7820   12.7410 C   0  0  0  0  0
    5.0660   16.6830   11.1980 C   0  0  0  0  0
    6.4390   16.2680   10.5920 C   0  0  0  0  0
    6.5980   14.8130   10.9630 N   0  3  0  0  0
    5.0800   19.8290   15.4610 N   0  0  0  0  0
    3.9580   20.4790   16.1210 C   0  0  0  0  0
    2.6430   20.3630   15.3690 C   0  0  0  0  0
    2.5790   20.7100   14.1850 O   0  0  0  0  0
    4.2210   21.9740   16.3740 C   0  0  0  0  0
    5.6110   22.1720   17.6070 S   0  0  0  0  0
    1.5780   20.0200   16.1000 N   0  0  0  0  0
    0.2730   19.9130   15.4830 C   0  0  0  0  0
   -0.7590   20.7790   16.2460 C   0  0  0  0  0
   -1.7750   21.1190   15.6230 O   0  0  0  0  0
   -0.3500   18.5300   15.3100 C   0  0  0  0  0
   -1.3710   18.6380   14.1520 C   0  0  0  0  0
   -1.9940   17.3240   13.7850 C   0  0  0  0  0
   -2.7310   17.3200   12.4390 C   0  0  0  0  0
   -3.7120   18.4370   12.3970 N   0  3  0  0  0
   -0.5180   21.2430   17.3380 O   0  0  0  0  0
    7.0532   16.8422   16.2806 H   0  0  0  0  0
    6.1365   16.0163   15.1607 H   0  0  0  0  0
    7.7357   16.3572   14.8399 H   0  0  0  0  0
    7.3054   18.7042   14.7893 H   0  0  0  0  0
    7.1567   17.5528   12.6991 H   0  0  0  0  0
    5.7952   18.8050   12.8134 H   0  0  0  0  0
    4.2176   17.0530   13.1521 H   0  0  0  0  0
    5.5249   15.8189   13.1262 H   0  0  0  0  0
    4.7687   17.6510   10.7947 H   0  0  0  0  0
    4.3150   15.9359   10.9412 H   0  0  0  0  0
    7.2553   16.8778   10.9792 H   0  0  0  0  0
    6.4691   16.4180    9.5128 H   0  0  0  0  0
    7.4842   14.4649   10.5970 H   0  0  0  0  0
    6.5879   14.7193   11.9786 H   0  0  0  0  0
    5.8290   14.2754   10.5631 H   0  0  0  0  0
    5.8145   20.4256   15.0802 H   0  0  0  0  0
    3.8660   19.9399   17.0639 H   0  0  0  0  0
    3.3177   22.4367   16.7717 H   0  0  0  0  0
    4.4997   22.4547   15.4363 H   0  0  0  0  0
    5.8317   23.4662   17.8199 H   0  0  0  0  0
    1.6853   19.8328   17.0969 H   0  0  0  0  0
    0.4903   20.2553   14.4712 H   0  0  0  0  0
   -1.8044   20.6548   14.7832 H   0  0  0  0  0
   -0.8405   18.2093   16.2291 H   0  0  0  0  0
    0.4148   17.7872   15.0830 H   0  0  0  0  0
   -0.8371   19.0054   13.2756 H   0  0  0  0  0
   -2.1712   19.3017   14.4795 H   0  0  0  0  0
   -2.7333   17.0970   14.5531 H   0  0  0  0  0
   -1.1840   16.5989   13.7062 H   0  0  0  0  0
   -3.2581   16.3734   12.3201 H   0  0  0  0  0
   -2.0084   17.4451   11.6326 H   0  0  0  0  0
   -4.1976   18.4279   11.5001 H   0  0  0  0  0
   -4.3881   18.3227   13.1522 H   0  0  0  0  0
   -3.2208   19.3238   12.5101 H   0  0  0  0  0
  3  2  1  0  0  0
  2  5  1  0  0  0
  2  1  1  0  0  0
  5  6  1  0  0  0
  6  7  1  0  0  0
  7  8  1  0  0  0
  8  9  1  0  0  0
  3  4  2  0  0  0
 12 11  1  0  0  0
 11 14  1  0  0  0
 11 10  1  0  0  0
 14 15  1  0  0  0
 12 13  2  0  0  0
 17 18  1  0  0  0
 17 20  1  0  0  0
 16 17  1  0  0  0
 20 21  1  0  0  0
 21 22  1  0  0  0
 22 23  1  0  0  0
 23 24  1  0  0  0
 18 25  2  0  0  0
 18 19  1  0  0  0
 10  3  1  0  0  0
 12 16  1  0  0  0
  1 26  1  0  0  0
  1 27  1  0  0  0
  1 28  1  0  0  0
  2 29  1  0  0  0
  5 30  1  0  0  0
  5 31  1  0  0  0
  6 32  1  0  0  0
  6 33  1  0  0  0
  7 34  1  0  0  0
  7 35  1  0  0  0
  8 36  1  0  0  0
  8 37  1  0  0  0
  9 38  1  0  0  0
  9 39  1  0  0  0
  9 40  1  0  0  0
 10 41  1  0  0  0
 11 42  1  0  0  0
 14 43  1  0  0  0
 14 44  1  0  0  0
 15 45  1  0  0  0
 16 46  1  0  0  0
 17 47  1  0  0  0
 19 48  1  0  0  0
 20 49  1  0  0  0
 20 50  1  0  0  0
 21 51  1  0  0  0
 21 52  1  0  0  0
 22 53  1  0  0  0
 22 54  1  0  0  0
 23 55  1  0  0  0
 23 56  1  0  0  0
 24 57  1  0  0  0
 24 58  1  0  0  0
 24 59  1  0  0  0
M  END
$$$$
