3kr1_ligand
  -I-interpret- 

 16 17  0  0  0  0  0  0  0  0999 V2000
   26.7490   40.4510   14.3880 Cl  0  0  0  0  0
   27.1720   42.1020   14.8750 C   0  0  0  0  0
   27.1810   43.1150   13.9350 C   0  0  0  0  0
   27.5120   44.4180   14.3020 C   0  0  0  0  0
   27.8360   44.6910   15.6300 C   0  0  0  0  0
   27.8350   43.6710   16.5760 C   0  0  0  0  0
   27.5020   42.3620   16.1940 C   0  0  0  0  0
   28.2030   45.8580   16.2880 N   0  0  0  0  0
   28.4240   45.5790   17.6130 C   0  0  0  0  0
   28.2010   44.2400   17.8040 N   0  0  0  0  0
   28.8220   46.5340   18.5990 N   0  0  0  0  0
   26.9272   42.8931   12.8984 H   0  0  0  0  0
   27.5175   45.2151   13.5586 H   0  0  0  0  0
   27.5032   41.5574   16.9294 H   0  0  0  0  0
   28.9631   47.5095   18.3365 H   0  0  0  0  0
   28.9650   46.2401   19.5652 H   0  0  0  0  0
  1  2  1  0  0  0
  2  3  4  0  0  0
  2  7  4  0  0  0
  3  4  4  0  0  0
  4  5  4  0  0  0
  5  6  4  0  0  0
  5  8  4  0  0  0
  6  7  4  0  0  0
  6 10  4  0  0  0
  8  9  4  0  0  0
  9 10  4  0  0  0
  9 11  1  0  0  0
  3 12  1  0  0  0
  4 13  1  0  0  0
  7 14  1  0  0  0
 11 15  1  0  0  0
 11 16  1  0  0  0
M  END
$$$$
