5nkb_ligand
  -I-interpret- 

 63 67  0  0  0  0  0  0  0  0999 V2000
  -82.4110  -14.9390    3.1250 C   0  0  0  0  0
  -81.3620  -15.2430    2.0420 C   0  0  0  0  0
  -80.0650  -15.0920    2.6570 O   0  0  0  0  0
  -79.9200  -16.2520    3.5230 C   0  0  0  0  0
  -80.8520  -16.0780    4.7320 C   0  0  0  0  0
  -82.2220  -15.7070    4.3300 N   0  0  0  0  0
  -83.2520  -15.8450    5.2300 C   0  0  0  0  0
  -84.5900  -15.8400    4.8130 C   0  0  0  0  0
  -82.9780  -15.9410    6.5810 C   0  0  0  0  0
  -83.9730  -16.0250    7.5480 C   0  0  0  0  0
  -83.6980  -16.1330    8.8710 N   0  0  0  0  0
  -82.5860  -16.9670    9.3000 C   0  0  0  0  0
  -82.1930  -16.7360   10.7190 C   0  0  0  0  0
  -83.3670  -16.6890   11.5500 O   0  0  0  0  0
  -84.2020  -15.5440   11.2320 C   0  0  0  0  0
  -84.7150  -15.6510    9.8020 C   0  0  0  0  0
  -85.2900  -16.0350    7.1360 C   0  0  0  0  0
  -85.6140  -15.9600    5.7840 C   0  0  0  0  0
  -86.8730  -15.9510    5.2490 N   0  0  0  0  0
  -87.9550  -16.4670    5.8530 C   0  0  0  0  0
  -88.0610  -17.2710    7.3730 S   0  0  0  0  0
  -89.2100  -16.3300    5.3730 N   0  0  0  0  0
  -90.1570  -16.8870    6.1770 C   0  0  0  0  0
  -89.7420  -17.4600    7.3440 C   0  0  0  0  0
  -90.4390  -18.0950    8.3590 C   0  0  0  0  0
  -89.8640  -18.2510    9.4410 O   0  0  0  0  0
  -91.7280  -18.5030    8.1990 N   0  0  0  0  0
  -92.4270  -19.1110    9.2530 C   0  0  0  0  0
  -92.9570  -18.3600   10.2960 C   0  0  0  0  0
  -92.7400  -16.6350   10.4100 Cl  0  0  0  0  0
  -93.6650  -19.0270   11.3090 C   0  0  0  0  0
  -93.8440  -20.4130   11.2860 C   0  0  0  0  0
  -93.3510  -21.1800   10.2110 C   0  0  0  0  0
  -92.6340  -20.4910    9.2120 C   0  0  0  0  0
  -92.1230  -21.2200    8.1200 C   0  0  0  0  0
  -83.3892  -15.1968    2.7190 H   0  0  0  0  0
  -82.3191  -13.8850    3.3872 H   0  0  0  0  0
  -81.4704  -14.5619    1.1980 H   0  0  0  0  0
  -81.4897  -16.2536    1.6541 H   0  0  0  0  0
  -78.8868  -16.3382    3.8593 H   0  0  0  0  0
  -80.1834  -17.1584    2.9778 H   0  0  0  0  0
  -80.4530  -15.2780    5.3557 H   0  0  0  0  0
  -80.8999  -17.0287    5.2631 H   0  0  0  0  0
  -84.8391  -15.7451    3.7561 H   0  0  0  0  0
  -81.9365  -15.9513    6.9023 H   0  0  0  0  0
  -81.7277  -16.7206    8.6750 H   0  0  0  0  0
  -82.8985  -18.0072    9.2087 H   0  0  0  0  0
  -81.6601  -15.7882   10.7951 H   0  0  0  0  0
  -81.5493  -17.5505   11.0513 H   0  0  0  0  0
  -83.6128  -14.6326   11.3333 H   0  0  0  0  0
  -85.0507  -15.5195   11.9155 H   0  0  0  0  0
  -85.5390  -16.3645    9.7953 H   0  0  0  0  0
  -85.0171  -14.6544    9.4801 H   0  0  0  0  0
  -86.0859  -16.1024    7.8777 H   0  0  0  0  0
  -86.9977  -15.5242    4.3310 H   0  0  0  0  0
  -91.2107  -16.8757    5.8981 H   0  0  0  0  0
  -92.1918  -18.3649    7.3011 H   0  0  0  0  0
  -94.0850  -18.4500   12.1329 H   0  0  0  0  0
  -94.3687  -20.9044   12.1054 H   0  0  0  0  0
  -93.5165  -22.2559   10.1549 H   0  0  0  0  0
  -92.5650  -20.8462    7.1964 H   0  0  0  0  0
  -91.0402  -21.1011    8.0802 H   0  0  0  0  0
  -92.3698  -22.2747    8.2415 H   0  0  0  0  0
  1  2  1  0  0  0
  1  6  1  0  0  0
  2  3  1  0  0  0
  3  4  1  0  0  0
  4  5  1  0  0  0
  5  6  1  0  0  0
  6  7  1  0  0  0
  7  8  4  0  0  0
  7  9  4  0  0  0
  8 18  4  0  0  0
  9 10  4  0  0  0
 10 11  1  0  0  0
 10 17  4  0  0  0
 11 12  1  0  0  0
 11 16  1  0  0  0
 12 13  1  0  0  0
 13 14  1  0  0  0
 14 15  1  0  0  0
 15 16  1  0  0  0
 17 18  4  0  0  0
 18 19  1  0  0  0
 19 20  1  0  0  0
 20 21  4  0  0  0
 20 22  4  0  0  0
 21 24  4  0  0  0
 22 23  4  0  0  0
 23 24  4  0  0  0
 24 25  1  0  0  0
 25 26  2  0  0  0
 25 27  1  0  0  0
 27 28  1  0  0  0
 28 29  4  0  0  0
 28 34  4  0  0  0
 29 30  1  0  0  0
 29 31  4  0  0  0
 31 32  4  0  0  0
 32 33  4  0  0  0
 33 34  4  0  0  0
 34 35  1  0  0  0
  1 36  1  0  0  0
  1 37  1  0  0  0
  2 38  1  0  0  0
  2 39  1  0  0  0
  4 40  1  0  0  0
  4 41  1  0  0  0
  5 42  1  0  0  0
  5 43  1  0  0  0
  8 44  1  0  0  0
  9 45  1  0  0  0
 12 46  1  0  0  0
 12 47  1  0  0  0
 13 48  1  0  0  0
 13 49  1  0  0  0
 15 50  1  0  0  0
 15 51  1  0  0  0
 16 52  1  0  0  0
 16 53  1  0  0  0
 17 54  1  0  0  0
 19 55  1  0  0  0
 23 56  1  0  0  0
 27 57  1  0  0  0
 31 58  1  0  0  0
 32 59  1  0  0  0
 33 60  1  0  0  0
 35 61  1  0  0  0
 35 62  1  0  0  0
 35 63  1  0  0  0
M  END
$$$$
