4lop_ligand
  -I-interpret- 

 45 48  0  0  0  0  0  0  0  0999 V2000
    3.6130   -8.5220   35.7490 C   0  0  0  0  0
    2.3570   -7.8370   36.0810 C   0  0  0  0  0
    2.0270   -6.9600   34.9470 N   0  3  0  0  0
    3.1540   -6.7520   34.0070 C   0  0  0  0  0
    4.4620   -6.4720   34.7700 C   0  0  0  0  0
    4.6440   -7.4810   35.8640 C   0  0  0  0  0
    9.2600   -9.2130   38.4250 C   0  0  0  0  0
   10.4990   -9.4660   39.0230 C   0  0  0  0  0
   11.6410   -9.4900   38.2550 C   0  0  0  0  0
   11.5500   -9.2870   36.8630 C   0  0  0  0  0
   10.3210   -9.0350   36.2810 C   0  0  0  0  0
    9.1710   -8.9460   37.0420 C   0  0  0  0  0
   12.8810   -9.7430   38.7840 F   0  0  0  0  0
    7.8510   -6.2390   38.2070 C   0  0  0  0  0
    6.7780   -7.0450   37.8300 C   0  0  0  0  0
    5.5910   -6.8360   38.4640 N   0  0  0  0  0
    5.4280   -5.8700   39.4050 C   0  0  0  0  0
    6.4540   -5.0810   39.7880 N   0  0  0  0  0
    7.6960   -5.2670   39.2000 C   0  0  0  0  0
    4.2530   -5.6760   39.9720 N   0  0  0  0  0
    5.9840   -8.1490   35.8800 N   0  0  0  0  0
    6.4210   -9.0730   34.9870 C   0  0  0  0  0
    7.6530   -9.4520   35.3230 N   0  0  0  0  0
    7.9900   -8.7370   36.4330 C   0  0  0  0  0
    6.9250   -7.9810   36.8320 C   0  0  0  0  0
    3.5866   -8.9613   34.7518 H   0  0  0  0  0
    3.8069   -9.3632   36.4145 H   0  0  0  0  0
    2.4671   -7.2557   36.9965 H   0  0  0  0  0
    1.5592   -8.5597   36.2522 H   0  0  0  0  0
    1.7765   -6.0482   35.3294 H   0  0  0  0  0
    1.2731   -7.4069   34.4252 H   0  0  0  0  0
    2.9278   -5.8947   33.3730 H   0  0  0  0  0
    3.2832   -7.6546   33.4097 H   0  0  0  0  0
    4.4158   -5.4743   35.2066 H   0  0  0  0  0
    5.3017   -6.5380   34.0782 H   0  0  0  0  0
    4.5600   -6.9192   36.7943 H   0  0  0  0  0
    8.3551   -9.2221   39.0326 H   0  0  0  0  0
   10.5601   -9.6440   40.0966 H   0  0  0  0  0
   12.4475   -9.3286   36.2459 H   0  0  0  0  0
   10.2582   -8.9040   35.2007 H   0  0  0  0  0
    8.8194   -6.3676   37.7234 H   0  0  0  0  0
    8.5461   -4.6593   39.5100 H   0  0  0  0  0
    3.4562   -6.2540   39.7049 H   0  0  0  0  0
    4.1412   -4.9479   40.6776 H   0  0  0  0  0
    5.8552   -9.4449   34.1328 H   0  0  0  0  0
  1  2  1  0  0  0
  6  1  1  0  0  0
  2  3  1  0  0  0
  4  3  1  0  0  0
  5  4  1  0  0  0
  6  5  1  0  0  0
 21  6  1  0  0  0
  7  8  4  0  0  0
 12  7  4  0  0  0
  8  9  4  0  0  0
 10  9  4  0  0  0
  9 13  1  0  0  0
 11 10  4  0  0  0
 12 11  4  0  0  0
 24 12  1  0  0  0
 15 14  4  0  0  0
 14 19  4  0  0  0
 15 16  4  0  0  0
 25 15  1  0  0  0
 16 17  4  0  0  0
 17 18  4  0  0  0
 17 20  1  0  0  0
 19 18  4  0  0  0
 22 21  4  0  0  0
 21 25  4  0  0  0
 23 22  4  0  0  0
 23 24  4  0  0  0
 24 25  4  0  0  0
  1 26  1  0  0  0
  1 27  1  0  0  0
  2 28  1  0  0  0
  2 29  1  0  0  0
  3 30  1  0  0  0
  3 31  1  0  0  0
  4 32  1  0  0  0
  4 33  1  0  0  0
  5 34  1  0  0  0
  5 35  1  0  0  0
  6 36  1  0  0  0
  7 37  1  0  0  0
  8 38  1  0  0  0
 10 39  1  0  0  0
 11 40  1  0  0  0
 14 41  1  0  0  0
 19 42  1  0  0  0
 20 43  1  0  0  0
 20 44  1  0  0  0
 22 45  1  0  0  0
M  END
$$$$
