3kr2_ligand
  -I-interpret- 

 16 17  0  0  0  0  0  0  0  0999 V2000
   29.0000   46.5510   18.4670 N   0  0  0  0  0
   27.3990   41.0790   14.2740 F   0  0  0  0  0
   27.7130   43.3800   13.7710 C   0  0  0  0  0
   27.9980   44.6720   14.1860 C   0  0  0  0  0
   27.9410   42.5890   16.0300 C   0  0  0  0  0
   28.5130   44.3980   17.6280 N   0  0  0  0  0
   28.5580   46.0280   16.1880 N   0  0  0  0  0
   27.6790   42.3370   14.6870 C   0  0  0  0  0
   28.7100   45.7080   17.4790 C   0  0  0  0  0
   28.2310   43.8810   16.4380 C   0  0  0  0  0
   28.2560   44.9220   15.5230 C   0  0  0  0  0
   29.0862   46.2060   19.4230 H   0  0  0  0  0
   29.1361   47.5422   18.2683 H   0  0  0  0  0
   27.5142   43.1816   12.7178 H   0  0  0  0  0
   28.0188   45.4872   13.4627 H   0  0  0  0  0
   27.9183   41.7761   16.7558 H   0  0  0  0  0
  9  1  1  0  0  0
  8  2  1  0  0  0
  3  4  4  0  0  0
  8  3  4  0  0  0
  4 11  4  0  0  0
  5  8  4  0  0  0
 10  5  4  0  0  0
  6  9  4  0  0  0
  6 10  4  0  0  0
  9  7  4  0  0  0
  7 11  4  0  0  0
 10 11  4  0  0  0
  1 12  1  0  0  0
  1 13  1  0  0  0
  3 14  1  0  0  0
  4 15  1  0  0  0
  5 16  1  0  0  0
M  END
$$$$
