2ybk_ligand
  -I-interpret- 

 18 17  0  0  0  0  0  0  0  0999 V2000
  -24.0610  -21.5210    4.3850 C   0  0  0  0  0
  -23.2290  -21.6140    3.4560 O   0  0  0  0  0
  -25.5210  -21.8220    4.0420 C   0  0  0  0  0
  -23.8090  -21.2040    5.5670 O   0  0  0  0  0
  -26.4130  -21.4370    5.2240 C   0  0  0  0  0
  -25.9060  -21.0700    2.8890 O   0  0  0  0  0
  -27.8590  -21.8770    4.9860 C   0  0  0  0  0
  -29.9500  -21.2640    5.9310 O   0  0  0  0  0
  -28.7480  -21.5070    6.1750 C   0  0  0  0  0
  -28.2050  -21.4750    7.3000 O   0  0  0  0  0
  -23.6798  -21.8727    2.6489 H   0  0  0  0  0
  -25.6325  -22.8862    3.8344 H   0  0  0  0  0
  -26.3918  -20.3534    5.3397 H   0  0  0  0  0
  -26.0396  -21.9329    6.1199 H   0  0  0  0  0
  -25.3455  -21.3126    2.1483 H   0  0  0  0  0
  -27.8785  -22.9593    4.8585 H   0  0  0  0  0
  -28.2363  -21.3717    4.0969 H   0  0  0  0  0
  -30.1097  -21.3588    4.9891 H   0  0  0  0  0
  1  2  1  0  0  0
  1  3  1  0  0  0
  1  4  2  0  0  0
  3  5  1  0  0  0
  3  6  1  0  0  0
  5  7  1  0  0  0
  7  9  1  0  0  0
  9  8  1  0  0  0
  9 10  2  0  0  0
  2 11  1  0  0  0
  3 12  1  0  0  0
  5 13  1  0  0  0
  5 14  1  0  0  0
  6 15  1  0  0  0
  7 16  1  0  0  0
  7 17  1  0  0  0
  8 18  1  0  0  0
M  END
$$$$
