3chq_ligand
  -I-interpret- 

 45 46  0  0  0  0  0  0  0  0999 V2000
    8.1650   38.3260   72.1190 C   0  0  0  0  0
    8.8530   37.7620   73.2080 C   0  0  0  0  0
    9.0680   36.3750   73.2630 C   0  0  0  0  0
    8.5960   35.5500   72.2280 C   0  0  0  0  0
    7.9100   36.1130   71.1390 C   0  0  0  0  0
    7.6940   37.4990   71.0780 C   0  0  0  0  0
    7.0270   38.0450   69.9710 C   0  0  0  0  0
    6.7690   39.4780   69.8650 O   0  0  0  0  0
    7.6750   40.1960   69.0960 C   0  0  0  0  0
    8.7890   39.5920   68.4610 C   0  0  0  0  0
    9.6850   40.3750   67.7080 C   0  0  0  0  0
    7.4770   41.5780   68.9540 C   0  0  0  0  0
    8.3700   42.3580   68.1990 C   0  0  0  0  0
    9.4830   41.7690   67.5750 C   0  0  0  0  0
   10.3820   42.5930   66.9750 N   0  0  0  0  0
   11.5730   42.2220   66.4620 C   0  0  0  0  0
   12.0710   41.0950   66.5570 O   0  0  0  0  0
   12.3620   43.3750   65.8280 C   0  0  0  0  0
   13.8740   43.1050   65.8300 C   0  0  0  0  0
   14.3560   42.3320   64.5840 C   0  0  0  0  0
   15.7790   41.8500   64.8450 C   0  0  0  0  0
   16.7070   42.4790   64.3010 O   0  0  0  0  0
   15.9050   40.8690   65.6020 O   0  0  0  0  0
   13.5010   41.1600   64.3220 N   0  3  0  0  0
    7.9957   39.4020   72.0793 H   0  0  0  0  0
    9.2199   38.4019   74.0105 H   0  0  0  0  0
    9.6007   35.9389   74.1081 H   0  0  0  0  0
    8.7621   34.4736   72.2701 H   0  0  0  0  0
    7.5438   35.4710   70.3378 H   0  0  0  0  0
    6.0312   37.6050   70.0247 H   0  0  0  0  0
    7.6972   37.8393   69.1364 H   0  0  0  0  0
    8.9526   38.5185   68.5558 H   0  0  0  0  0
   10.5404   39.9037   67.2241 H   0  0  0  0  0
    6.6211   42.0519   69.4346 H   0  0  0  0  0
    8.1977   43.4294   68.0966 H   0  0  0  0  0
   10.1339   43.5800   66.9065 H   0  0  0  0  0
   12.1755   44.2772   66.4106 H   0  0  0  0  0
   12.0360   43.4836   64.7936 H   0  0  0  0  0
   14.0991   42.4947   66.7046 H   0  0  0  0  0
   14.3815   44.0696   65.8367 H   0  0  0  0  0
   14.3117   42.9922   63.7178 H   0  0  0  0  0
   16.3416   43.1895   63.7687 H   0  0  0  0  0
   13.8423   40.6697   63.4952 H   0  0  0  0  0
   13.5294   40.5333   65.1263 H   0  0  0  0  0
   12.5419   41.4689   64.1638 H   0  0  0  0  0
  1  2  4  0  0  0
  1  6  4  0  0  0
  2  3  4  0  0  0
  3  4  4  0  0  0
  4  5  4  0  0  0
  5  6  4  0  0  0
  6  7  1  0  0  0
  7  8  1  0  0  0
  8  9  1  0  0  0
  9 10  4  0  0  0
  9 12  4  0  0  0
 10 11  4  0  0  0
 11 14  4  0  0  0
 12 13  4  0  0  0
 13 14  4  0  0  0
 14 15  1  0  0  0
 15 16  1  0  0  0
 16 17  2  0  0  0
 16 18  1  0  0  0
 18 19  1  0  0  0
 19 20  1  0  0  0
 20 21  1  0  0  0
 20 24  1  0  0  0
 21 22  1  0  0  0
 21 23  2  0  0  0
  1 25  1  0  0  0
  2 26  1  0  0  0
  3 27  1  0  0  0
  4 28  1  0  0  0
  5 29  1  0  0  0
  7 30  1  0  0  0
  7 31  1  0  0  0
 10 32  1  0  0  0
 11 33  1  0  0  0
 12 34  1  0  0  0
 13 35  1  0  0  0
 15 36  1  0  0  0
 18 37  1  0  0  0
 18 38  1  0  0  0
 19 39  1  0  0  0
 19 40  1  0  0  0
 20 41  1  0  0  0
 22 42  1  0  0  0
 24 43  1  0  0  0
 24 44  1  0  0  0
 24 45  1  0  0  0
M  END
$$$$
