3v5t_ligand
  -I-interpret- 

 62 65  0  0  0  0  0  0  0  0999 V2000
   21.1110   16.9650   61.2170 C   0  0  0  0  0
   19.7030   16.7740   60.6300 C   0  0  0  0  0
   19.5110   15.3400   60.1290 C   0  0  0  0  0
   18.5750   17.1380   61.6100 C   0  0  0  0  0
   18.4600   18.6100   61.7950 N   0  3  0  0  0
   19.4370   19.1390   62.7620 C   0  0  0  0  0
   17.1090   18.9440   62.2650 C   0  0  0  0  0
   18.7040   16.3580   62.9470 C   0  0  0  0  0
   17.5540   15.4570   63.1680 N   0  0  0  0  0
   16.3970   15.8350   63.4000 N   0  0  0  0  0
   17.6530   14.1390   63.1270 C   0  0  0  0  0
   18.6930   13.3180   62.9030 N   0  0  0  0  0
   18.5000   12.0150   62.9430 C   0  0  0  0  0
   17.2910   11.4890   63.1740 N   0  0  0  0  0
   16.2160   12.2580   63.3980 C   0  0  0  0  0
   15.0510   11.6610   63.6280 N   0  0  0  0  0
   16.3750   13.6470   63.3830 C   0  0  0  0  0
   15.5880   14.7960   63.5590 C   0  0  0  0  0
   14.2300   14.8410   63.8520 C   0  0  0  0  0
   13.7110   14.1780   64.9640 C   0  0  0  0  0
   13.3690   15.5820   63.0640 C   0  0  0  0  0
   12.0040   15.6470   63.3520 C   0  0  0  0  0
   11.4870   14.9700   64.4390 C   0  0  0  0  0
   10.1440   15.0360   64.7140 C   0  0  0  0  0
   12.3500   14.2480   65.2680 C   0  0  0  0  0
   11.8380   13.5800   66.3640 C   0  0  0  0  0
   10.4870   13.6340   66.6380 C   0  0  0  0  0
    9.6260   14.3550   65.8130 C   0  0  0  0  0
    8.2770   14.3800   66.1000 O   0  0  0  0  0
    7.5090   15.0100   65.0530 C   0  0  0  0  0
    6.0440   14.5590   65.2760 C   0  0  0  0  0
   21.2472   18.0091   61.4989 H   0  0  0  0  0
   21.2254   16.3319   62.0968 H   0  0  0  0  0
   21.8552   16.6890   60.4699 H   0  0  0  0  0
   19.6341   17.4698   59.7938 H   0  0  0  0  0
   19.5332   14.6545   60.9762 H   0  0  0  0  0
   18.5504   15.2598   59.6201 H   0  0  0  0  0
   20.3132   15.0884   59.4353 H   0  0  0  0  0
   17.6320   16.8186   61.1662 H   0  0  0  0  0
   18.6505   19.0381   60.8890 H   0  0  0  0  0
   19.3252   20.2208   62.8346 H   0  0  0  0  0
   19.2606   18.6879   63.7385 H   0  0  0  0  0
   20.4456   18.8984   62.4260 H   0  0  0  0  0
   16.9446   18.4939   63.2440 H   0  0  0  0  0
   17.0092   20.0268   62.3402 H   0  0  0  0  0
   16.3742   18.5583   61.5584 H   0  0  0  0  0
   18.7366   17.0794   63.7634 H   0  0  0  0  0
   19.6103   15.7539   62.9058 H   0  0  0  0  0
   19.3472   11.3480   62.7838 H   0  0  0  0  0
   14.9915   10.6427   63.6309 H   0  0  0  0  0
   14.2164   12.2211   63.8016 H   0  0  0  0  0
   14.3762   13.5980   65.6037 H   0  0  0  0  0
   13.7619   16.1243   62.2040 H   0  0  0  0  0
   11.3431   16.2353   62.7154 H   0  0  0  0  0
    9.4838   15.6205   64.0733 H   0  0  0  0  0
   12.5025   13.0096   67.0130 H   0  0  0  0  0
   10.0900   13.1086   67.5066 H   0  0  0  0  0
    7.8684   14.7177   64.0664 H   0  0  0  0  0
    7.6004   16.0955   65.0920 H   0  0  0  0  0
    5.9858   13.4725   65.2112 H   0  0  0  0  0
    5.7113   14.8838   66.2618 H   0  0  0  0  0
    5.4077   15.0045   64.5113 H   0  0  0  0  0
  1  2  1  0  0  0
  2  3  1  0  0  0
  2  4  1  0  0  0
  4  5  1  0  0  0
  4  8  1  0  0  0
  5  6  1  0  0  0
  5  7  1  0  0  0
  8  9  1  0  0  0
  9 10  4  0  0  0
  9 11  4  0  0  0
 10 18  4  0  0  0
 11 12  4  0  0  0
 11 17  4  0  0  0
 12 13  4  0  0  0
 13 14  4  0  0  0
 14 15  4  0  0  0
 15 16  1  0  0  0
 15 17  4  0  0  0
 17 18  4  0  0  0
 18 19  1  0  0  0
 19 20  4  0  0  0
 19 21  4  0  0  0
 20 25  4  0  0  0
 21 22  4  0  0  0
 22 23  4  0  0  0
 23 24  4  0  0  0
 23 25  4  0  0  0
 24 28  4  0  0  0
 25 26  4  0  0  0
 26 27  4  0  0  0
 27 28  4  0  0  0
 28 29  1  0  0  0
 29 30  1  0  0  0
 30 31  1  0  0  0
  1 32  1  0  0  0
  1 33  1  0  0  0
  1 34  1  0  0  0
  2 35  1  0  0  0
  3 36  1  0  0  0
  3 37  1  0  0  0
  3 38  1  0  0  0
  4 39  1  0  0  0
  5 40  1  0  0  0
  6 41  1  0  0  0
  6 42  1  0  0  0
  6 43  1  0  0  0
  7 44  1  0  0  0
  7 45  1  0  0  0
  7 46  1  0  0  0
  8 47  1  0  0  0
  8 48  1  0  0  0
 13 49  1  0  0  0
 16 50  1  0  0  0
 16 51  1  0  0  0
 20 52  1  0  0  0
 21 53  1  0  0  0
 22 54  1  0  0  0
 24 55  1  0  0  0
 26 56  1  0  0  0
 27 57  1  0  0  0
 30 58  1  0  0  0
 30 59  1  0  0  0
 31 60  1  0  0  0
 31 61  1  0  0  0
 31 62  1  0  0  0
M  END
$$$$
