2yq6_ligand
  -I-interpret- 

294297  0  0  0  0  0  0  0  0999 V2000
   15.7140    6.9030   -0.0300 N   0  3  0  0  0
   16.6400    7.0540   -1.1450 C   0  0  0  0  0
   15.9060    6.9110   -2.4730 C   0  0  0  0  0
   14.7880    7.3930   -2.6250 O   0  0  0  0  0
   17.7620    6.0200   -1.0490 C   0  0  0  0  0
   16.5530    6.2480   -3.4280 N   0  0  0  0  0
   15.9800    6.0040   -4.7500 C   0  0  0  0  0
   14.5820    5.4060   -4.6550 C   0  0  0  0  0
   13.6520    5.8540   -5.3230 O   0  0  0  0  0
   16.8780    5.0420   -5.5700 C   0  0  0  0  0
   18.1590    5.7490   -5.9980 C   0  0  0  0  0
   16.1380    4.5260   -6.7970 C   0  0  0  0  0
   19.1460    4.8480   -6.7210 C   0  0  0  0  0
   14.4420    4.4060   -3.7940 N   0  0  0  0  0
   13.1940    3.6750   -3.6560 C   0  0  0  0  0
   12.0950    4.5500   -3.0710 C   0  0  0  0  0
   10.9440    4.4890   -3.5020 O   0  0  0  0  0
   13.4120    2.4460   -2.7910 C   0  0  0  0  0
   12.4550    5.3630   -2.0830 N   0  0  0  0  0
   11.4860    6.2470   -1.4440 C   0  0  0  0  0
   10.9580    7.2980   -2.4120 C   0  0  0  0  0
    9.7750    7.6380   -2.3790 O   0  0  0  0  0
   12.0970    6.9230   -0.2140 C   0  0  0  0  0
   12.3950    5.9650    0.9290 C   0  0  0  0  0
   11.1860    5.1330    1.3220 C   0  0  0  0  0
   11.2930    3.9220    1.5260 O   0  0  0  0  0
   10.0280    5.7790    1.4290 N   0  0  0  0  0
   11.8370    7.8170   -3.2680 N   0  0  0  0  0
   11.4460    8.8370   -4.2400 C   0  0  0  0  0
   10.5690    8.2290   -5.3320 C   0  0  0  0  0
    9.5790    8.8240   -5.7710 O   0  0  0  0  0
   12.6800    9.4820   -4.8680 C   0  0  0  0  0
   12.3520   10.6610   -5.7720 C   0  0  0  0  0
   12.0420   11.9230   -4.9910 C   0  0  0  0  0
   12.8530   12.2950   -4.1170 O   0  0  0  0  0
   10.9880   12.5420   -5.2500 O   0  0  0  0  0
   10.9470    7.0360   -5.7730 N   0  0  0  0  0
   10.1660    6.2890   -6.7480 C   0  0  0  0  0
    8.7560    6.0110   -6.2280 C   0  0  0  0  0
    7.7690    6.1730   -6.9410 O   0  0  0  0  0
   10.8800    4.9730   -7.0490 C   0  0  0  0  0
   10.4480    4.1780   -8.2710 C   0  0  0  0  0
   10.5180    5.0560   -9.5370 C   0  0  0  0  0
   11.3340    2.9540   -8.4090 C   0  0  0  0  0
    8.6850    5.5840   -4.9720 N   0  0  0  0  0
    7.4160    5.3350   -4.3010 C   0  0  0  0  0
    6.5340    6.5820   -4.2390 C   0  0  0  0  0
    5.3570    6.5360   -4.6110 O   0  0  0  0  0
    7.6840    4.8100   -2.8860 C   0  0  0  0  0
    6.4240    4.4380   -2.1370 C   0  0  0  0  0
    6.5760    4.6420   -0.6260 C   0  0  0  0  0
    7.6610    3.8650   -0.0360 N   0  0  0  0  0
    7.5860    2.5680    0.2430 C   0  0  0  0  0
    6.4840    1.8850   -0.0390 N   0  0  0  0  0
    8.6220    1.9440    0.7870 N   0  0  0  0  0
    5.7630    9.3360   -5.0360 C   0  0  0  0  0
    7.1110    7.6960   -3.7880 N   0  0  0  0  0
    4.5800    9.6530   -5.0970 O   0  0  0  0  0
    6.4060    8.9760   -3.7000 C   0  0  0  0  0
    7.3910   10.0860   -3.3400 C   0  0  0  0  0
    6.7320   12.3220   -4.4070 C   0  0  0  0  0
    5.9590   13.6030   -4.1830 C   0  0  0  0  0
    6.7040   11.4430   -3.1540 C   0  0  0  0  0
    5.3380    8.8860   -2.6080 C   0  0  0  0  0
    6.5380    9.3010   -6.1170 N   0  0  0  0  0
    5.9680    9.7160   -7.3910 C   0  0  0  0  0
    4.9840    8.6640   -7.9340 C   0  0  0  0  0
    4.0240    9.0030   -8.6020 O   0  0  0  0  0
    7.0380   10.1240   -8.4280 C   0  0  0  0  0
    8.0690    9.0220   -8.6680 C   0  0  0  0  0
    7.7590   11.3960   -7.9730 C   0  0  0  0  0
    9.0840    9.3860   -9.7820 C   0  0  0  0  0
    5.2190    7.3950   -7.6250 N   0  0  0  0  0
    4.2680    6.3570   -7.9930 C   0  0  0  0  0
    2.9210    6.6110   -7.3510 C   0  0  0  0  0
    1.8660    6.4450   -7.9740 O   0  0  0  0  0
    2.9450    7.0250   -6.0890 N   0  0  0  0  0
    1.7130    7.3060   -5.3650 C   0  0  0  0  0
    1.0190    8.5710   -5.8540 C   0  0  0  0  0
   -0.2020    8.5700   -6.0240 O   0  0  0  0  0
    1.9650    7.3540   -3.8590 C   0  0  0  0  0
    2.2520    5.9810   -3.2820 C   0  0  0  0  0
    2.0110    4.9830   -3.9920 O   0  0  0  0  0
    2.7070    5.8900   -2.1240 O   0  0  0  0  0
    0.5540   10.5430   -7.9720 C   0  0  0  0  0
    1.7970    9.6310   -6.0840 N   0  0  0  0  0
   -0.5690   10.9870   -8.2080 O   0  0  0  0  0
    1.2680   10.8700   -6.6600 C   0  0  0  0  0
    2.4170   11.8290   -6.9530 C   0  0  0  0  0
    4.2820   13.2470   -6.0580 C   0  0  0  0  0
    4.8720   13.9690   -4.8690 C   0  0  0  0  0
    3.0380   12.4350   -5.6950 C   0  0  0  0  0
    0.2800   11.5190   -5.6970 C   0  0  0  0  0
    1.2050    9.7320   -8.7990 N   0  0  0  0  0
    0.7010    9.3470  -10.1190 C   0  0  0  0  0
   -0.5690    8.5110   -9.9730 C   0  0  0  0  0
   -1.5700    8.7300  -10.6720 O   0  0  0  0  0
    1.7910    8.5290  -10.8240 C   0  0  0  0  0
    1.5310    8.2470  -12.2820 C   0  0  0  0  0
    1.4110    9.2800  -13.1950 C   0  0  0  0  0
    1.4810    6.9440  -12.7460 C   0  0  0  0  0
    1.2190    9.0070  -14.5510 C   0  0  0  0  0
    1.2870    6.6710  -14.1030 C   0  0  0  0  0
    1.1460    7.7050  -14.9940 C   0  0  0  0  0
   -0.5310    7.5550   -9.0510 N   0  0  0  0  0
   -1.6820    6.7080   -8.7940 C   0  0  0  0  0
   -2.9010    7.5160   -8.3600 C   0  0  0  0  0
   -4.0300    7.2450   -8.7850 O   0  0  0  0  0
   -1.3530    5.6610   -7.7230 C   0  0  0  0  0
   -2.4600    4.6560   -7.5410 C   0  0  0  0  0
   -2.7690    3.8930   -8.4590 O   0  0  0  0  0
   -3.0540    4.6200   -6.3400 N   0  0  0  0  0
   -2.6810    8.5030   -7.4980 N   0  0  0  0  0
   -3.8020    9.2860   -6.9740 C   0  0  0  0  0
   -4.4700   10.0760   -8.0940 C   0  0  0  0  0
   -5.6810   10.2580   -8.1010 O   0  0  0  0  0
   -3.3350   10.2230   -5.8730 C   0  0  0  0  0
   -3.6790   10.5210   -9.0570 N   0  0  0  0  0
   -4.2200   11.3570  -10.1290 C   0  0  0  0  0
   -5.1850   10.5830  -11.0320 C   0  0  0  0  0
   -6.2570   11.0800  -11.3750 O   0  0  0  0  0
   -3.0920   11.9660  -10.9560 C   0  0  0  0  0
   -3.5580   12.9710  -11.9830 C   0  0  0  0  0
   -3.6580   14.3200  -11.6660 C   0  0  0  0  0
   -3.8880   12.5720  -13.2700 C   0  0  0  0  0
   -4.0750   15.2430  -12.6020 C   0  0  0  0  0
   -4.3130   13.4880  -14.2100 C   0  0  0  0  0
   -4.3990   14.8170  -13.8720 C   0  0  0  0  0
   -4.8120   15.7280  -14.8150 O   0  0  0  0  0
   -4.8060    9.3630  -11.4040 N   0  0  0  0  0
   -5.6070    8.5560  -12.3290 C   0  0  0  0  0
   -6.5310    7.5330  -11.6900 C   0  0  0  0  0
   -7.6110    7.2570  -12.2160 O   0  0  0  0  0
   -4.6900    7.8440  -13.3220 C   0  0  0  0  0
   -4.1530    8.7890  -14.3590 C   0  0  0  0  0
   -4.9980    9.3500  -15.3080 C   0  0  0  0  0
   -2.8110    9.1430  -14.3830 C   0  0  0  0  0
   -4.5260   10.2310  -16.2600 C   0  0  0  0  0
   -2.3270   10.0330  -15.3470 C   0  0  0  0  0
   -3.1920   10.5610  -16.2810 C   0  0  0  0  0
   -2.7420   11.4420  -17.2380 O   0  0  0  0  0
   -6.1060    6.9570  -10.5690 N   0  0  0  0  0
   -6.8580    5.8680   -9.9470 C   0  0  0  0  0
   -7.5420    6.2750   -8.6460 C   0  0  0  0  0
   -7.1380    7.2340   -7.9910 O   0  0  0  0  0
   -5.9490    4.6640   -9.7160 C   0  0  0  0  0
   -8.5850    5.5380   -8.2770 N   0  0  0  0  0
   14.9726    7.5991   -0.1087 H   0  0  0  0  0
   15.3076    5.9677   -0.0514 H   0  0  0  0  0
   16.2160    7.0369    0.8478 H   0  0  0  0  0
   17.0773    8.0512   -1.0955 H   0  0  0  0  0
   17.3379    5.0182   -1.1173 H   0  0  0  0  0
   18.4671    6.1739   -1.8659 H   0  0  0  0  0
   18.2781    6.1332   -0.0956 H   0  0  0  0  0
   17.4890    5.8949   -3.2289 H   0  0  0  0  0
   15.9188    6.9704   -5.2505 H   0  0  0  0  0
   17.1338    4.1936   -4.9353 H   0  0  0  0  0
   18.6496    6.1077   -5.0932 H   0  0  0  0  0
   17.8763    6.5421   -6.6902 H   0  0  0  0  0
   15.2434    3.9893   -6.4812 H   0  0  0  0  0
   15.8542    5.3674   -7.4291 H   0  0  0  0  0
   16.7886    3.8533   -7.3558 H   0  0  0  0  0
   19.4335    4.0261   -6.0653 H   0  0  0  0  0
   18.6796    4.4496   -7.6220 H   0  0  0  0  0
   20.0305    5.4242   -6.9926 H   0  0  0  0  0
   15.2359    4.1421   -3.2105 H   0  0  0  0  0
   12.8699    3.3642   -4.6492 H   0  0  0  0  0
   14.1580    1.8026   -3.2575 H   0  0  0  0  0
   13.7612    2.7542   -1.8055 H   0  0  0  0  0
   12.4726    1.9022   -2.6913 H   0  0  0  0  0
   13.4246    5.3690   -1.7663 H   0  0  0  0  0
   10.6450    5.6301   -1.1273 H   0  0  0  0  0
   11.3711    7.6493    0.1517 H   0  0  0  0  0
   13.0444    7.3647   -0.5231 H   0  0  0  0  0
   12.6914    6.5569    1.7949 H   0  0  0  0  0
   13.1795    5.2834    0.6003 H   0  0  0  0  0
    9.1827    5.2709    1.6891 H   0  0  0  0  0
    9.9854    6.7824    1.2509 H   0  0  0  0  0
   12.8047    7.4955   -3.2448 H   0  0  0  0  0
   10.8760    9.6034   -3.7148 H   0  0  0  0  0
   13.1706    8.7252   -5.4802 H   0  0  0  0  0
   13.3050    9.8544   -4.0563 H   0  0  0  0  0
   11.4690   10.4015   -6.3560 H   0  0  0  0  0
   13.2229   10.8579   -6.3972 H   0  0  0  0  0
   10.5144   12.0865   -5.9499 H   0  0  0  0  0
   11.8123    6.6295   -5.4175 H   0  0  0  0  0
   10.0748    6.8825   -7.6577 H   0  0  0  0  0
   10.6619    4.3286   -6.1974 H   0  0  0  0  0
   11.9174    5.2481   -7.2394 H   0  0  0  0  0
    9.4142    3.8549   -8.1486 H   0  0  0  0  0
    9.8564    5.9143   -9.4194 H   0  0  0  0  0
   11.5415    5.4017   -9.6817 H   0  0  0  0  0
   10.2053    4.4704  -10.4015 H   0  0  0  0  0
   12.3711    3.2689   -8.5247 H   0  0  0  0  0
   11.2382    2.3353   -7.5168 H   0  0  0  0  0
   11.0270    2.3816   -9.2843 H   0  0  0  0  0
    9.5515    5.4245   -4.4581 H   0  0  0  0  0
    6.8736    4.5899   -4.8830 H   0  0  0  0  0
    8.1764    5.6059   -2.3272 H   0  0  0  0  0
    8.2903    3.9089   -2.9784 H   0  0  0  0  0
    6.2162    3.3838   -2.3203 H   0  0  0  0  0
    5.6156    5.0789   -2.4887 H   0  0  0  0  0
    5.6480    4.3141   -0.1577 H   0  0  0  0  0
    6.8017    5.6954   -0.4602 H   0  0  0  0  0
    8.5336    4.3488    0.1760 H   0  0  0  0  0
    6.4374    0.8862    0.1627 H   0  0  0  0  0
    5.6835    2.3587   -0.4575 H   0  0  0  0  0
    9.4779    2.4597    0.9918 H   0  0  0  0  0
    8.0860    7.6547   -3.4914 H   0  0  0  0  0
    8.1052   10.1801   -4.1580 H   0  0  0  0  0
    7.8686    9.8190   -2.3973 H   0  0  0  0  0
    7.7676   12.5724   -4.6372 H   0  0  0  0  0
    6.2733   11.7745   -5.2304 H   0  0  0  0  0
    6.3150   14.2775   -3.4043 H   0  0  0  0  0
    7.2409   11.9759   -2.3693 H   0  0  0  0  0
    5.6585   11.2495   -2.9142 H   0  0  0  0  0
    4.8336    9.8478   -2.5147 H   0  0  0  0  0
    4.6119    8.1178   -2.8741 H   0  0  0  0  0
    5.8103    8.6285   -1.6600 H   0  0  0  0  0
    7.5078    8.9910   -6.0548 H   0  0  0  0  0
    5.3950   10.6232   -7.1991 H   0  0  0  0  0
    6.5139   10.3029   -9.3668 H   0  0  0  0  0
    7.5343    8.1255   -8.9818 H   0  0  0  0  0
    8.6256    8.8765   -7.7422 H   0  0  0  0  0
    7.0357   12.2048   -7.8693 H   0  0  0  0  0
    8.2429   11.2143   -7.0133 H   0  0  0  0  0
    8.5099   11.6712   -8.7136 H   0  0  0  0  0
    8.5501    9.5546  -10.7172 H   0  0  0  0  0
    9.6212   10.2917   -9.5005 H   0  0  0  0  0
    9.7917    8.5668   -9.9087 H   0  0  0  0  0
    6.0727    7.1454   -7.1258 H   0  0  0  0  0
    4.6464    5.3949   -7.6477 H   0  0  0  0  0
    4.1472    6.3587   -9.0763 H   0  0  0  0  0
    3.8418    7.1482   -5.6189 H   0  0  0  0  0
    1.0293    6.4826   -5.5715 H   0  0  0  0  0
    1.0681    7.7435   -3.3774 H   0  0  0  0  0
    2.8354    7.9854   -3.6808 H   0  0  0  0  0
    1.6692    5.2711   -4.8416 H   0  0  0  0  0
    2.7888    9.5769   -5.8520 H   0  0  0  0  0
    2.0166   12.6489   -7.5493 H   0  0  0  0  0
    3.1957   11.2623   -7.4634 H   0  0  0  0  0
    5.0345   12.5560   -6.4380 H   0  0  0  0  0
    3.9906   13.9959   -6.7944 H   0  0  0  0  0
    4.3626   14.8745   -4.5394 H   0  0  0  0  0
    3.3223   11.6318   -5.0152 H   0  0  0  0  0
    2.3100   13.0917   -5.2188 H   0  0  0  0  0
   -0.1084   12.4359   -6.1402 H   0  0  0  0  0
   -0.5426   10.8305   -5.5038 H   0  0  0  0  0
    0.7872   11.7529   -4.7610 H   0  0  0  0  0
    2.1047    9.3572   -8.4981 H   0  0  0  0  0
    0.4587   10.2350  -10.7028 H   0  0  0  0  0
    1.8368    7.5639  -10.3195 H   0  0  0  0  0
    2.7075    9.1169  -10.7752 H   0  0  0  0  0
    1.4667   10.3136  -12.8534 H   0  0  0  0  0
    1.5946    6.1188  -12.0430 H   0  0  0  0  0
    1.1265    9.8280  -15.2620 H   0  0  0  0  0
    1.2478    5.6393  -14.4526 H   0  0  0  0  0
    0.9765    7.4963  -16.0503 H   0  0  0  0  0
    0.3239    7.4133   -8.5130 H   0  0  0  0  0
   -1.9242    6.2075   -9.7315 H   0  0  0  0  0
   -1.2116    6.1814   -6.7757 H   0  0  0  0  0
   -0.4594    5.1237   -8.0407 H   0  0  0  0  0
   -3.7937    3.9419   -6.1570 H   0  0  0  0  0
   -2.7663    5.2707   -5.6090 H   0  0  0  0  0
   -1.7288    8.7158   -7.2005 H   0  0  0  0  0
   -4.5320    8.5958   -6.5511 H   0  0  0  0  0
   -2.9020    9.6395   -5.0605 H   0  0  0  0  0
   -2.5844   10.9051   -6.2723 H   0  0  0  0  0
   -4.1847   10.7942   -5.4991 H   0  0  0  0  0
   -2.6879   10.2802   -9.0519 H   0  0  0  0  0
   -4.7872   12.1591   -9.6566 H   0  0  0  0  0
   -2.6102   11.1510  -11.4961 H   0  0  0  0  0
   -2.4316   12.4910  -10.2658 H   0  0  0  0  0
   -3.4026   14.6545  -10.6605 H   0  0  0  0  0
   -3.8104   11.5195  -13.5425 H   0  0  0  0  0
   -4.1476   16.2986  -12.3400 H   0  0  0  0  0
   -4.5789   13.1594  -15.2147 H   0  0  0  0  0
   -4.9971   15.2720  -15.6393 H   0  0  0  0  0
   -3.9355    8.9794  -11.0359 H   0  0  0  0  0
   -6.2642    9.2744  -12.8190 H   0  0  0  0  0
   -5.2672    7.0704  -13.8285 H   0  0  0  0  0
   -3.8482    7.4239  -12.7716 H   0  0  0  0  0
   -6.0563    9.0890  -15.3008 H   0  0  0  0  0
   -2.1284    8.7236  -13.6439 H   0  0  0  0  0
   -5.2083   10.6631  -16.9920 H   0  0  0  0  0
   -1.2722   10.3074  -15.3596 H   0  0  0  0  0
   -1.7976   11.5757  -17.1295 H   0  0  0  0  0
   -5.2410    7.2803  -10.1359 H   0  0  0  0  0
   -7.6530    5.6003  -10.6430 H   0  0  0  0  0
   -5.5503    4.3228  -10.6714 H   0  0  0  0  0
   -5.1274    4.9512   -9.0598 H   0  0  0  0  0
   -6.5223    3.8612   -9.2525 H   0  0  0  0  0
   -9.0871    5.7591   -7.4171 H   0  0  0  0  0
   -8.8832    4.7514   -8.8538 H   0  0  0  0  0
  2  1  1  0  0  0
  3  2  1  0  0  0
  2  5  1  0  0  0
  3  4  2  0  0  0
  6  3  1  0  0  0
  7  6  1  0  0  0
  8  7  1  0  0  0
  7 10  1  0  0  0
  8  9  2  0  0  0
 14  8  1  0  0  0
 10 11  1  0  0  0
 10 12  1  0  0  0
 11 13  1  0  0  0
 15 14  1  0  0  0
 16 15  1  0  0  0
 15 18  1  0  0  0
 16 17  2  0  0  0
 19 16  1  0  0  0
 20 19  1  0  0  0
 21 20  1  0  0  0
 20 23  1  0  0  0
 21 22  2  0  0  0
 28 21  1  0  0  0
 23 24  1  0  0  0
 24 25  1  0  0  0
 25 26  2  0  0  0
 25 27  1  0  0  0
 29 28  1  0  0  0
 30 29  1  0  0  0
 29 32  1  0  0  0
 30 31  2  0  0  0
 37 30  1  0  0  0
 32 33  1  0  0  0
 33 34  1  0  0  0
 34 35  2  0  0  0
 34 36  1  0  0  0
 38 37  1  0  0  0
 39 38  1  0  0  0
 38 41  1  0  0  0
 39 40  2  0  0  0
 45 39  1  0  0  0
 41 42  1  0  0  0
 42 43  1  0  0  0
 42 44  1  0  0  0
 46 45  1  0  0  0
 47 46  1  0  0  0
 46 49  1  0  0  0
 47 48  2  0  0  0
 57 47  1  0  0  0
 49 50  1  0  0  0
 50 51  1  0  0  0
 51 52  1  0  0  0
 52 53  1  0  0  0
 53 54  1  0  0  0
 53 55  2  0  0  0
 56 58  2  0  0  0
 56 59  1  0  0  0
 65 56  1  0  0  0
 59 57  1  0  0  0
 59 60  1  0  0  0
 59 64  1  0  0  0
 60 63  1  0  0  0
 61 62  1  0  0  0
 63 61  1  0  0  0
 62 91  2  0  0  0
 66 65  1  0  0  0
 67 66  1  0  0  0
 66 69  1  0  0  0
 67 68  2  0  0  0
 73 67  1  0  0  0
 69 70  1  0  0  0
 69 71  1  0  0  0
 70 72  1  0  0  0
 74 73  1  0  0  0
 75 74  1  0  0  0
 75 76  2  0  0  0
 77 75  1  0  0  0
 78 77  1  0  0  0
 79 78  1  0  0  0
 78 81  1  0  0  0
 79 80  2  0  0  0
 86 79  1  0  0  0
 81 82  1  0  0  0
 82 83  1  0  0  0
 82 84  2  0  0  0
 85 87  2  0  0  0
 88 85  1  0  0  0
 85 94  1  0  0  0
 86 88  1  0  0  0
 88 89  1  0  0  0
 88 93  1  0  0  0
 89 92  1  0  0  0
 91 90  1  0  0  0
 90 92  1  0  0  0
 94 95  1  0  0  0
 95 96  1  0  0  0
 95 98  1  0  0  0
 96 97  2  0  0  0
 96105  1  0  0  0
 98 99  1  0  0  0
 99100  4  0  0  0
 99101  4  0  0  0
100102  4  0  0  0
101103  4  0  0  0
102104  4  0  0  0
103104  4  0  0  0
105106  1  0  0  0
106107  1  0  0  0
106109  1  0  0  0
107108  2  0  0  0
107113  1  0  0  0
109110  1  0  0  0
110111  2  0  0  0
110112  1  0  0  0
113114  1  0  0  0
114115  1  0  0  0
114117  1  0  0  0
115116  2  0  0  0
115118  1  0  0  0
118119  1  0  0  0
119120  1  0  0  0
119122  1  0  0  0
120121  2  0  0  0
120130  1  0  0  0
122123  1  0  0  0
123124  4  0  0  0
123125  4  0  0  0
124126  4  0  0  0
125127  4  0  0  0
126128  4  0  0  0
127128  4  0  0  0
128129  1  0  0  0
130131  1  0  0  0
131132  1  0  0  0
131134  1  0  0  0
132133  2  0  0  0
132142  1  0  0  0
134135  1  0  0  0
135136  4  0  0  0
135137  4  0  0  0
136138  4  0  0  0
137139  4  0  0  0
138140  4  0  0  0
139140  4  0  0  0
140141  1  0  0  0
142143  1  0  0  0
143144  1  0  0  0
143146  1  0  0  0
144145  2  0  0  0
144147  1  0  0  0
  1148  1  0  0  0
  1149  1  0  0  0
  1150  1  0  0  0
  2151  1  0  0  0
  5152  1  0  0  0
  5153  1  0  0  0
  5154  1  0  0  0
  6155  1  0  0  0
  7156  1  0  0  0
 10157  1  0  0  0
 11158  1  0  0  0
 11159  1  0  0  0
 12160  1  0  0  0
 12161  1  0  0  0
 12162  1  0  0  0
 13163  1  0  0  0
 13164  1  0  0  0
 13165  1  0  0  0
 14166  1  0  0  0
 15167  1  0  0  0
 18168  1  0  0  0
 18169  1  0  0  0
 18170  1  0  0  0
 19171  1  0  0  0
 20172  1  0  0  0
 23173  1  0  0  0
 23174  1  0  0  0
 24175  1  0  0  0
 24176  1  0  0  0
 27177  1  0  0  0
 27178  1  0  0  0
 28179  1  0  0  0
 29180  1  0  0  0
 32181  1  0  0  0
 32182  1  0  0  0
 33183  1  0  0  0
 33184  1  0  0  0
 36185  1  0  0  0
 37186  1  0  0  0
 38187  1  0  0  0
 41188  1  0  0  0
 41189  1  0  0  0
 42190  1  0  0  0
 43191  1  0  0  0
 43192  1  0  0  0
 43193  1  0  0  0
 44194  1  0  0  0
 44195  1  0  0  0
 44196  1  0  0  0
 45197  1  0  0  0
 46198  1  0  0  0
 49199  1  0  0  0
 49200  1  0  0  0
 50201  1  0  0  0
 50202  1  0  0  0
 51203  1  0  0  0
 51204  1  0  0  0
 52205  1  0  0  0
 54206  1  0  0  0
 54207  1  0  0  0
 55208  1  0  0  0
 57209  1  0  0  0
 60210  1  0  0  0
 60211  1  0  0  0
 61212  1  0  0  0
 61213  1  0  0  0
 62214  1  0  0  0
 63215  1  0  0  0
 63216  1  0  0  0
 64217  1  0  0  0
 64218  1  0  0  0
 64219  1  0  0  0
 65220  1  0  0  0
 66221  1  0  0  0
 69222  1  0  0  0
 70223  1  0  0  0
 70224  1  0  0  0
 71225  1  0  0  0
 71226  1  0  0  0
 71227  1  0  0  0
 72228  1  0  0  0
 72229  1  0  0  0
 72230  1  0  0  0
 73231  1  0  0  0
 74232  1  0  0  0
 74233  1  0  0  0
 77234  1  0  0  0
 78235  1  0  0  0
 81236  1  0  0  0
 81237  1  0  0  0
 83238  1  0  0  0
 86239  1  0  0  0
 89240  1  0  0  0
 89241  1  0  0  0
 90242  1  0  0  0
 90243  1  0  0  0
 91244  1  0  0  0
 92245  1  0  0  0
 92246  1  0  0  0
 93247  1  0  0  0
 93248  1  0  0  0
 93249  1  0  0  0
 94250  1  0  0  0
 95251  1  0  0  0
 98252  1  0  0  0
 98253  1  0  0  0
100254  1  0  0  0
101255  1  0  0  0
102256  1  0  0  0
103257  1  0  0  0
104258  1  0  0  0
105259  1  0  0  0
106260  1  0  0  0
109261  1  0  0  0
109262  1  0  0  0
112263  1  0  0  0
112264  1  0  0  0
113265  1  0  0  0
114266  1  0  0  0
117267  1  0  0  0
117268  1  0  0  0
117269  1  0  0  0
118270  1  0  0  0
119271  1  0  0  0
122272  1  0  0  0
122273  1  0  0  0
124274  1  0  0  0
125275  1  0  0  0
126276  1  0  0  0
127277  1  0  0  0
129278  1  0  0  0
130279  1  0  0  0
131280  1  0  0  0
134281  1  0  0  0
134282  1  0  0  0
136283  1  0  0  0
137284  1  0  0  0
138285  1  0  0  0
139286  1  0  0  0
141287  1  0  0  0
142288  1  0  0  0
143289  1  0  0  0
146290  1  0  0  0
146291  1  0  0  0
146292  1  0  0  0
147293  1  0  0  0
147294  1  0  0  0
M  END
$$$$
