### 
### Created by X-TOOL on Mon Sep 10 21:13:09 2018
### 

@<TRIPOS>MOLECULE
2yq6_ligand
  293   296     1     0     0
SMALL
GAST_HUCK


@<TRIPOS>ATOM
      1 N          15.7140    6.9030   -0.0300 N.4       1 TRP         0.2377
      2 CA         16.6400    7.0540   -1.1450 C.3       1 TRP         0.0621
      3 C          15.9060    6.9110   -2.4730 C.2       1 TRP         0.2264
      4 O          14.7880    7.3930   -2.6250 O.2       1 TRP        -0.3907
      5 CB         17.7620    6.0200   -1.0490 C.3       1 TRP        -0.0040
      6 N          16.5530    6.2480   -3.4280 N.am      1 ILE        -0.2608
      7 CA         15.9800    6.0040   -4.7500 C.3       1 ILE         0.1336
      8 C          14.5820    5.4060   -4.6550 C.2       1 ILE         0.2042
      9 O          13.6520    5.8540   -5.3230 O.2       1 ILE        -0.3944
     10 CB         16.8780    5.0420   -5.5700 C.3       1 ILE        -0.0037
     11 CG1        18.1590    5.7490   -5.9980 C.3       1 ILE        -0.0491
     12 CG2        16.1380    4.5260   -6.7970 C.3       1 ILE        -0.0582
     13 CD1        19.1460    4.8480   -6.7210 C.3       1 ILE        -0.0648
     14 N          14.4420    4.4060   -3.7940 N.am      1 ALA        -0.2640
     15 CA         13.1940    3.6750   -3.6560 C.3       1 ALA         0.1282
     16 C          12.0950    4.5500   -3.0710 C.2       1 ALA         0.2036
     17 O          10.9440    4.4890   -3.5020 O.2       1 ALA        -0.3944
     18 CB         13.4120    2.4460   -2.7910 C.3       1 ALA        -0.0244
     19 N          12.4550    5.3630   -2.0830 N.am      1 GLN        -0.2636
     20 CA         11.4860    6.2470   -1.4440 C.3       1 GLN         0.1330
     21 C          10.9580    7.2980   -2.4120 C.2       1 GLN         0.2040
     22 O           9.7750    7.6380   -2.3790 O.2       1 GLN        -0.3944
     23 CB         12.0970    6.9230   -0.2140 C.3       1 GLN         0.0045
     24 CG         12.3950    5.9650    0.9290 C.3       1 GLN         0.0412
     25 CD         11.1860    5.1330    1.3220 C.2       1 GLN         0.1737
     26 OE1        11.2930    3.9220    1.5260 O.2       1 GLN        -0.3973
     27 NE2        10.0280    5.7790    1.4290 N.am      1 GLN        -0.3009
     28 N          11.8370    7.8170   -3.2680 N.am      1 GLU        -0.2636
     29 CA         11.4460    8.8370   -4.2400 C.3       1 GLU         0.1325
     30 C          10.5690    8.2290   -5.3320 C.2       1 GLU         0.2040
     31 O           9.5790    8.8240   -5.7710 O.2       1 GLU        -0.3944
     32 CB         12.6800    9.4820   -4.8680 C.3       1 GLU        -0.0008
     33 CG         12.3520   10.6610   -5.7720 C.3       1 GLU         0.0044
     34 CD         12.0420   11.9230   -4.9910 C.2       1 GLU         0.0350
     35 OE1        12.8530   12.2950   -4.1170 O.co2     1 GLU        -0.5690
     36 OE2        10.9880   12.5420   -5.2500 O.co2     1 GLU        -0.5690
     37 N          10.9470    7.0360   -5.7730 N.am      1 LEU        -0.2637
     38 CA         10.1660    6.2890   -6.7480 C.3       1 LEU         0.1312
     39 C           8.7560    6.0110   -6.2280 C.2       1 LEU         0.2039
     40 O           7.7690    6.1730   -6.9410 O.2       1 LEU        -0.3944
     41 CB         10.8800    4.9730   -7.0490 C.3       1 LEU        -0.0101
     42 CG         10.4480    4.1780   -8.2710 C.3       1 LEU        -0.0425
     43 CD1        10.5180    5.0560   -9.5370 C.3       1 LEU        -0.0625
     44 CD2        11.3340    2.9540   -8.4090 C.3       1 LEU        -0.0625
     45 N           8.6850    5.5840   -4.9720 N.am      1 ARG        -0.2637
     46 CA          7.4160    5.3350   -4.3010 C.3       1 ARG         0.1308
     47 C           6.5340    6.5820   -4.2390 C.2       1 ARG         0.2010
     48 O           5.3570    6.5360   -4.6110 O.2       1 ARG        -0.3947
     49 CB          7.6840    4.8100   -2.8860 C.3       1 ARG        -0.0092
     50 CG          6.4240    4.4380   -2.1370 C.3       1 ARG        -0.0156
     51 CD          6.5760    4.6420   -0.6260 C.3       1 ARG         0.0627
     52 NE          7.6610    3.8650   -0.0360 N.pl3     1 ARG        -0.2723
     53 CZ          7.5860    2.5680    0.2430 C.cat     1 ARG         0.2882
     54 NH1         6.4840    1.8850   -0.0390 N.pl3     1 ARG        -0.2849
     55 NH2         8.6220    1.9440    0.7870 N.pl3     1 ARG        -0.2849
     56 C           5.7630    9.3360   -5.0360 C.2       1 MK8         0.2263
     57 N           7.1110    7.6960   -3.7880 N.am      1 MK8        -0.2743
     58 O           4.5800    9.6530   -5.0970 O.2       1 MK8        -0.3419
     59 CA          6.4060    8.9760   -3.7000 C.3       1 MK8         0.1304
     60 CB          7.3910   10.0860   -3.3400 C.3       1 MK8        -0.0186
     61 CD          6.7320   12.3220   -4.4070 C.3       1 MK8        -0.0365
     62 CE          5.9590   13.6030   -4.1830 C.2       1 MK8        -0.0987
     63 CG          6.7040   11.4430   -3.1540 C.3       1 MK8        -0.0449
     64 CB1         5.3380    8.8860   -2.6080 C.3       1 MK8        -0.0320
     65 N           6.5380    9.3010   -6.1170 N.am      1 ILE        -0.2626
     66 CA          5.9680    9.7160   -7.3910 C.3       1 ILE         0.1336
     67 C           4.9840    8.6640   -7.9340 C.2       1 ILE         0.2041
     68 O           4.0240    9.0030   -8.6020 O.2       1 ILE        -0.3944
     69 CB          7.0380   10.1240   -8.4280 C.3       1 ILE        -0.0035
     70 CG1         8.0690    9.0220   -8.6680 C.3       1 ILE        -0.0491
     71 CG2         7.7590   11.3960   -7.9730 C.3       1 ILE        -0.0582
     72 CD1         9.0840    9.3860   -9.7820 C.3       1 ILE        -0.0648
     73 N           5.2190    7.3950   -7.6250 N.am      1 GLY        -0.2664
     74 CA          4.2680    6.3570   -7.9930 C.3       1 GLY         0.1201
     75 C           2.9210    6.6110   -7.3510 C.2       1 GLY         0.2008
     76 O           1.8660    6.4450   -7.9740 O.2       1 GLY        -0.3947
     77 N           2.9450    7.0250   -6.0890 N.am      1 ASP        -0.2624
     78 CA          1.7130    7.3060   -5.3650 C.3       1 ASP         0.1420
     79 C           1.0190    8.5710   -5.8540 C.2       1 ASP         0.2027
     80 O          -0.2020    8.5700   -6.0240 O.2       1 ASP        -0.3946
     81 CB          1.9650    7.3540   -3.8590 C.3       1 ASP         0.0406
     82 CG          2.2520    5.9810   -3.2820 C.2       1 ASP         0.0393
     83 OD1         2.0110    4.9830   -3.9920 O.co2     1 ASP        -0.5688
     84 OD2         2.7070    5.8900   -2.1240 O.co2     1 ASP        -0.5688
     85 C           0.5540   10.5430   -7.9720 C.2       1 MK8         0.2265
     86 N           1.7970    9.6310   -6.0840 N.am      1 MK8        -0.2742
     87 O          -0.5690   10.9870   -8.2080 O.2       1 MK8        -0.3419
     88 CA          1.2680   10.8700   -6.6600 C.3       1 MK8         0.1304
     89 CB          2.4170   11.8290   -6.9530 C.3       1 MK8        -0.0186
     90 CD          4.2820   13.2470   -6.0580 C.3       1 MK8        -0.0365
     91 CE          4.8720   13.9690   -4.8690 C.2       1 MK8        -0.0987
     92 CG          3.0380   12.4350   -5.6950 C.3       1 MK8        -0.0449
     93 CB1         0.2800   11.5190   -5.6970 C.3       1 MK8        -0.0320
     94 N           1.2050    9.7320   -8.7990 N.am      1 PHE        -0.2611
     95 CA          0.7010    9.3470  -10.1190 C.3       1 PHE         0.1406
     96 C          -0.5690    8.5110   -9.9730 C.2       1 PHE         0.2062
     97 O          -1.5700    8.7300  -10.6720 O.2       1 PHE        -0.3942
     98 CB          1.7910    8.5290  -10.8240 C.3       1 PHE         0.0216
     99 CG          1.5310    8.2470  -12.2820 C.ar      1 PHE        -0.0385
    100 CD1         1.4110    9.2800  -13.1950 C.ar      1 PHE        -0.0601
    101 CD2         1.4810    6.9440  -12.7460 C.ar      1 PHE        -0.0601
    102 CE1         1.2190    9.0070  -14.5510 C.ar      1 PHE        -0.0686
    103 CE2         1.2870    6.6710  -14.1030 C.ar      1 PHE        -0.0686
    104 CZ          1.1460    7.7050  -14.9940 C.ar      1 PHE        -0.0687
    105 N          -0.5310    7.5550   -9.0510 N.am      1 ASN        -0.2614
    106 CA         -1.6820    6.7080   -8.7940 C.3       1 ASN         0.1476
    107 C          -2.9010    7.5160   -8.3600 C.2       1 ASN         0.2062
    108 O          -4.0300    7.2450   -8.7850 O.2       1 ASN        -0.3942
    109 CB         -1.3530    5.6610   -7.7230 C.3       1 ASN         0.0773
    110 CG         -2.4600    4.6560   -7.5410 C.2       1 ASN         0.1780
    111 OD1        -2.7690    3.8930   -8.4590 O.2       1 ASN        -0.3970
    112 ND2        -3.0540    4.6200   -6.3400 N.am      1 ASN        -0.3007
    113 N          -2.6810    8.5030   -7.4980 N.am      1 ALA        -0.2639
    114 CA         -3.8020    9.2860   -6.9740 C.3       1 ALA         0.1282
    115 C          -4.4700   10.0760   -8.0940 C.2       1 ALA         0.2037
    116 O          -5.6810   10.2580   -8.1010 O.2       1 ALA        -0.3944
    117 CB         -3.3350   10.2230   -5.8730 C.3       1 ALA        -0.0244
    118 N          -3.6790   10.5210   -9.0570 N.am      1 TYR        -0.2621
    119 CA         -4.2200   11.3570  -10.1290 C.3       1 TYR         0.1390
    120 C          -5.1850   10.5830  -11.0320 C.2       1 TYR         0.2058
    121 O          -6.2570   11.0800  -11.3750 O.2       1 TYR        -0.3942
    122 CB         -3.0920   11.9660  -10.9560 C.3       1 TYR         0.0163
    123 CG         -3.5580   12.9710  -11.9830 C.ar      1 TYR        -0.0493
    124 CD1        -3.6580   14.3200  -11.6660 C.ar      1 TYR        -0.0685
    125 CD2        -3.8880   12.5720  -13.2700 C.ar      1 TYR        -0.0685
    126 CE1        -4.0750   15.2430  -12.6020 C.ar      1 TYR        -0.0398
    127 CE2        -4.3130   13.4880  -14.2100 C.ar      1 TYR        -0.0398
    128 CZ         -4.3990   14.8170  -13.8720 C.ar      1 TYR         0.0805
    129 OH         -4.8120   15.7280  -14.8150 O.3       1 TYR        -0.3376
    130 N          -4.8060    9.3630  -11.4040 N.am      1 TYR        -0.2620
    131 CA         -5.6070    8.5560  -12.3290 C.3       1 TYR         0.1390
    132 C          -6.5310    7.5330  -11.6900 C.2       1 TYR         0.2057
    133 O          -7.6110    7.2570  -12.2160 O.2       1 TYR        -0.3942
    134 CB         -4.6900    7.8440  -13.3220 C.3       1 TYR         0.0163
    135 CG         -4.1530    8.7890  -14.3590 C.ar      1 TYR        -0.0493
    136 CD1        -4.9980    9.3500  -15.3080 C.ar      1 TYR        -0.0685
    137 CD2        -2.8110    9.1430  -14.3830 C.ar      1 TYR        -0.0685
    138 CE1        -4.5260   10.2310  -16.2600 C.ar      1 TYR        -0.0398
    139 CE2        -2.3270   10.0330  -15.3470 C.ar      1 TYR        -0.0398
    140 CZ         -3.1920   10.5610  -16.2810 C.ar      1 TYR         0.0805
    141 OH         -2.7420   11.4420  -17.2380 O.3       1 TYR        -0.3376
    142 N          -6.1060    6.9570  -10.5690 N.am      1 ALA        -0.2639
    143 CA         -6.8580    5.8680   -9.9470 C.3       1 ALA         0.1279
    144 C          -7.5420    6.2750   -8.6460 C.2       1 ALA         0.1989
    145 O          -7.1380    7.2340   -7.9910 O.2       1 ALA        -0.3947
    146 CB         -5.9490    4.6640   -9.7160 C.3       1 ALA        -0.0244
    147 N          -8.5850    5.5380   -8.2770 N.am      1 NH2        -0.2990
    148 H          14.9726    7.5991   -0.1087 H         1 TRP         0.2015
    149 H          15.3076    5.9677   -0.0514 H         1 TRP         0.2015
    150 H          16.2160    7.0369    0.8478 H         1 TRP         0.2015
    151 H          17.0773    8.0512   -1.0955 H         1 TRP         0.1095
    152 H          17.3379    5.0182   -1.1173 H         1 TRP         0.0310
    153 H          18.4671    6.1739   -1.8659 H         1 TRP         0.0310
    154 H          18.2781    6.1332   -0.0956 H         1 TRP         0.0310
    155 H          17.4890    5.8949   -3.2289 H         1 ILE         0.1885
    156 H          15.9188    6.9704   -5.2505 H         1 ILE         0.0803
    157 H          17.1338    4.1936   -4.9353 H         1 ILE         0.0345
    158 H          18.6496    6.1077   -5.0932 H         1 ILE         0.0267
    159 H          17.8763    6.5421   -6.6902 H         1 ILE         0.0267
    160 H          15.2434    3.9893   -6.4812 H         1 ILE         0.0235
    161 H          15.8542    5.3674   -7.4291 H         1 ILE         0.0235
    162 H          16.7886    3.8533   -7.3558 H         1 ILE         0.0235
    163 H          19.4335    4.0261   -6.0653 H         1 ILE         0.0230
    164 H          18.6796    4.4496   -7.6220 H         1 ILE         0.0230
    165 H          20.0305    5.4242   -6.9926 H         1 ILE         0.0230
    166 H          15.2359    4.1421   -3.2105 H         1 ALA         0.1883
    167 H          12.8699    3.3642   -4.6492 H         1 ALA         0.0797
    168 H          14.1580    1.8026   -3.2575 H         1 ALA         0.0277
    169 H          13.7612    2.7542   -1.8055 H         1 ALA         0.0277
    170 H          12.4726    1.9022   -2.6913 H         1 ALA         0.0277
    171 H          13.4246    5.3690   -1.7663 H         1 GLN         0.1883
    172 H          10.6450    5.6301   -1.1273 H         1 GLN         0.0801
    173 H          11.3711    7.6493    0.1517 H         1 GLN         0.0337
    174 H          13.0444    7.3647   -0.5231 H         1 GLN         0.0337
    175 H          12.6914    6.5569    1.7949 H         1 GLN         0.0504
    176 H          13.1795    5.2834    0.6003 H         1 GLN         0.0504
    177 H           9.1827    5.2709    1.6891 H         1 GLN         0.1814
    178 H           9.9854    6.7824    1.2509 H         1 GLN         0.1814
    179 H          12.8047    7.4955   -3.2448 H         1 GLU         0.1883
    180 H          10.8760    9.6034   -3.7148 H         1 GLU         0.0801
    181 H          13.1706    8.7252   -5.4802 H         1 GLU         0.0330
    182 H          13.3050    9.8544   -4.0563 H         1 GLU         0.0330
    183 H          11.4690   10.4015   -6.3560 H         1 GLU         0.0433
    184 H          13.2229   10.8579   -6.3972 H         1 GLU         0.0433
    185 H          11.8123    6.6295   -5.4175 H         1 LEU         0.1883
    186 H          10.0748    6.8825   -7.6577 H         1 LEU         0.0800
    187 H          10.6619    4.3286   -6.1974 H         1 LEU         0.0315
    188 H          11.9174    5.2481   -7.2394 H         1 LEU         0.0315
    189 H           9.4142    3.8549   -8.1486 H         1 LEU         0.0298
    190 H           9.8564    5.9143   -9.4194 H         1 LEU         0.0232
    191 H          11.5415    5.4017   -9.6817 H         1 LEU         0.0232
    192 H          10.2053    4.4704  -10.4015 H         1 LEU         0.0232
    193 H          12.3711    3.2689   -8.5247 H         1 LEU         0.0232
    194 H          11.2382    2.3353   -7.5168 H         1 LEU         0.0232
    195 H          11.0270    2.3816   -9.2843 H         1 LEU         0.0232
    196 H           9.5515    5.4245   -4.4581 H         1 ARG         0.1883
    197 H           6.8736    4.5899   -4.8830 H         1 ARG         0.0800
    198 H           8.1764    5.6059   -2.3272 H         1 ARG         0.0313
    199 H           8.2903    3.9089   -2.9784 H         1 ARG         0.0313
    200 H           6.2162    3.3838   -2.3203 H         1 ARG         0.0301
    201 H           5.6156    5.0789   -2.4887 H         1 ARG         0.0301
    202 H           5.6480    4.3141   -0.1577 H         1 ARG         0.0689
    203 H           6.8017    5.6954   -0.4602 H         1 ARG         0.0689
    204 H           8.5336    4.3488    0.1760 H         1 ARG         0.2642
    205 H           5.6892    2.3554   -0.4720 H         1 ARG         0.2615
    206 H           6.4316    0.8896    0.1772 H         1 ARG         0.2615
    207 H           9.4779    2.4597    0.9918 H         1 ARG         0.2615
    208 H           8.5630    0.9484    1.0006 H         1 ARG         0.2615
    209 H           8.0860    7.6547   -3.4914 H         1 MK8         0.1839
    210 H           8.1052   10.1801   -4.1580 H         1 MK8         0.0279
    211 H           7.8686    9.8190   -2.3973 H         1 MK8         0.0279
    212 H           7.7676   12.5724   -4.6372 H         1 MK8         0.0388
    213 H           6.2733   11.7745   -5.2304 H         1 MK8         0.0388
    214 H           6.3150   14.2775   -3.4043 H         1 MK8         0.0450
    215 H           7.2409   11.9759   -2.3693 H         1 MK8         0.0284
    216 H           5.6585   11.2495   -2.9142 H         1 MK8         0.0284
    217 H           4.8336    9.8478   -2.5147 H         1 MK8         0.0242
    218 H           4.6119    8.1178   -2.8741 H         1 MK8         0.0242
    219 H           5.8103    8.6285   -1.6600 H         1 MK8         0.0242
    220 H           7.5078    8.9910   -6.0548 H         1 ILE         0.1889
    221 H           5.3950   10.6232   -7.1991 H         1 ILE         0.0805
    222 H           6.5139   10.3029   -9.3668 H         1 ILE         0.0345
    223 H           7.5343    8.1255   -8.9818 H         1 ILE         0.0267
    224 H           8.6256    8.8765   -7.7422 H         1 ILE         0.0267
    225 H           7.0357   12.2048   -7.8693 H         1 ILE         0.0235
    226 H           8.2429   11.2143   -7.0133 H         1 ILE         0.0235
    227 H           8.5099   11.6712   -8.7136 H         1 ILE         0.0235
    228 H           8.5501    9.5546  -10.7172 H         1 ILE         0.0230
    229 H           9.6212   10.2917   -9.5005 H         1 ILE         0.0230
    230 H           9.7917    8.5668   -9.9087 H         1 ILE         0.0230
    231 H           6.0727    7.1454   -7.1258 H         1 GLY         0.1881
    232 H           4.6464    5.3949   -7.6477 H         1 GLY         0.0763
    233 H           4.1472    6.3587   -9.0763 H         1 GLY         0.0763
    234 H           3.8418    7.1482   -5.6189 H         1 ASP         0.1884
    235 H           1.0293    6.4826   -5.5715 H         1 ASP         0.0819
    236 H           1.0681    7.7435   -3.3774 H         1 ASP         0.0478
    237 H           2.8354    7.9854   -3.6808 H         1 ASP         0.0478
    238 H           2.7888    9.5769   -5.8520 H         1 MK8         0.1839
    239 H           2.0166   12.6489   -7.5493 H         1 MK8         0.0279
    240 H           3.1957   11.2623   -7.4634 H         1 MK8         0.0279
    241 H           5.0345   12.5560   -6.4380 H         1 MK8         0.0388
    242 H           3.9906   13.9959   -6.7944 H         1 MK8         0.0388
    243 H           4.3626   14.8745   -4.5394 H         1 MK8         0.0450
    244 H           3.3223   11.6318   -5.0152 H         1 MK8         0.0284
    245 H           2.3100   13.0917   -5.2188 H         1 MK8         0.0284
    246 H          -0.1084   12.4359   -6.1402 H         1 MK8         0.0242
    247 H          -0.5426   10.8305   -5.5038 H         1 MK8         0.0242
    248 H           0.7872   11.7529   -4.7610 H         1 MK8         0.0242
    249 H           2.1047    9.3572   -8.4981 H         1 PHE         0.1891
    250 H           0.4587   10.2350  -10.7028 H         1 PHE         0.0825
    251 H           1.8368    7.5639  -10.3195 H         1 PHE         0.0474
    252 H           2.7075    9.1169  -10.7752 H         1 PHE         0.0474
    253 H           1.4667   10.3136  -12.8534 H         1 PHE         0.0557
    254 H           1.5946    6.1188  -12.0430 H         1 PHE         0.0557
    255 H           1.1265    9.8280  -15.2620 H         1 PHE         0.0599
    256 H           1.2478    5.6393  -14.4526 H         1 PHE         0.0599
    257 H           0.9765    7.4963  -16.0503 H         1 PHE         0.0559
    258 H           0.3239    7.4133   -8.5130 H         1 ASN         0.1885
    259 H          -1.9242    6.2075   -9.7315 H         1 ASN         0.0826
    260 H          -1.2116    6.1814   -6.7757 H         1 ASN         0.0551
    261 H          -0.4594    5.1237   -8.0407 H         1 ASN         0.0551
    262 H          -3.7937    3.9419   -6.1570 H         1 ASN         0.1814
    263 H          -2.7663    5.2707   -5.6090 H         1 ASN         0.1814
    264 H          -1.7288    8.7158   -7.2005 H         1 ALA         0.1883
    265 H          -4.5320    8.5958   -6.5511 H         1 ALA         0.0797
    266 H          -2.9020    9.6395   -5.0605 H         1 ALA         0.0277
    267 H          -2.5844   10.9051   -6.2723 H         1 ALA         0.0277
    268 H          -4.1847   10.7942   -5.4991 H         1 ALA         0.0277
    269 H          -2.6879   10.2802   -9.0519 H         1 TYR         0.1885
    270 H          -4.7872   12.1591   -9.6566 H         1 TYR         0.0821
    271 H          -2.6102   11.1510  -11.4961 H         1 TYR         0.0453
    272 H          -2.4316   12.4910  -10.2658 H         1 TYR         0.0453
    273 H          -3.4026   14.6545  -10.6605 H         1 TYR         0.0530
    274 H          -3.8104   11.5195  -13.5425 H         1 TYR         0.0530
    275 H          -4.1476   16.2986  -12.3400 H         1 TYR         0.0525
    276 H          -4.5789   13.1594  -15.2147 H         1 TYR         0.0525
    277 H          -4.8195   16.6065  -14.4279 H         1 TYR         0.2458
    278 H          -3.9355    8.9794  -11.0359 H         1 TYR         0.1885
    279 H          -6.2642    9.2744  -12.8190 H         1 TYR         0.0821
    280 H          -5.2672    7.0704  -13.8285 H         1 TYR         0.0453
    281 H          -3.8482    7.4239  -12.7716 H         1 TYR         0.0453
    282 H          -6.0563    9.0890  -15.3008 H         1 TYR         0.0530
    283 H          -2.1284    8.7236  -13.6439 H         1 TYR         0.0530
    284 H          -5.2083   10.6631  -16.9920 H         1 TYR         0.0525
    285 H          -1.2722   10.3074  -15.3596 H         1 TYR         0.0525
    286 H          -2.0663   11.0163  -17.7708 H         1 TYR         0.2458
    287 H          -5.2410    7.2803  -10.1359 H         1 ALA         0.1883
    288 H          -7.6530    5.6003  -10.6430 H         1 ALA         0.0797
    289 H          -5.5503    4.3228  -10.6714 H         1 ALA         0.0277
    290 H          -5.1274    4.9512   -9.0598 H         1 ALA         0.0277
    291 H          -6.5223    3.8612   -9.2525 H         1 ALA         0.0277
    292 H          -9.0871    5.7591   -7.4171 H         1 NH2         0.1815
    293 H          -8.8832    4.7514   -8.8538 H         1 NH2         0.1815
@<TRIPOS>BOND
     1    2    1 1  
     2    3    2 1  
     3    2    5 1  
     4    3    4 2  
     5    6    3 am 
     6    7    6 1  
     7    8    7 1  
     8    7   10 1  
     9    8    9 2  
    10   14    8 am 
    11   10   11 1  
    12   10   12 1  
    13   11   13 1  
    14   15   14 1  
    15   16   15 1  
    16   15   18 1  
    17   16   17 2  
    18   19   16 am 
    19   20   19 1  
    20   21   20 1  
    21   20   23 1  
    22   21   22 2  
    23   28   21 am 
    24   23   24 1  
    25   24   25 1  
    26   25   26 2  
    27   25   27 am 
    28   29   28 1  
    29   30   29 1  
    30   29   32 1  
    31   30   31 2  
    32   37   30 am 
    33   32   33 1  
    34   33   34 1  
    35   34   35 ar 
    36   34   36 ar 
    37   38   37 1  
    38   39   38 1  
    39   38   41 1  
    40   39   40 2  
    41   45   39 am 
    42   41   42 1  
    43   42   43 1  
    44   42   44 1  
    45   46   45 1  
    46   47   46 1  
    47   46   49 1  
    48   47   48 2  
    49   57   47 am 
    50   49   50 1  
    51   50   51 1  
    52   51   52 1  
    53   52   53 ar 
    54   53   54 ar 
    55   53   55 ar 
    56   56   58 2  
    57   56   59 1  
    58   65   56 am 
    59   59   57 1  
    60   59   60 1  
    61   59   64 1  
    62   60   63 1  
    63   61   62 1  
    64   63   61 1  
    65   62   91 2  
    66   66   65 1  
    67   67   66 1  
    68   66   69 1  
    69   67   68 2  
    70   73   67 am 
    71   69   70 1  
    72   69   71 1  
    73   70   72 1  
    74   74   73 1  
    75   75   74 1  
    76   75   76 2  
    77   77   75 am 
    78   78   77 1  
    79   79   78 1  
    80   78   81 1  
    81   79   80 2  
    82   86   79 am 
    83   81   82 1  
    84   82   83 ar 
    85   82   84 ar 
    86   85   87 2  
    87   88   85 1  
    88   85   94 am 
    89   86   88 1  
    90   88   89 1  
    91   88   93 1  
    92   89   92 1  
    93   91   90 1  
    94   90   92 1  
    95   94   95 1  
    96   95   96 1  
    97   95   98 1  
    98   96   97 2  
    99   96  105 am 
   100   98   99 1  
   101   99  100 ar 
   102   99  101 ar 
   103  100  102 ar 
   104  101  103 ar 
   105  102  104 ar 
   106  103  104 ar 
   107  105  106 1  
   108  106  107 1  
   109  106  109 1  
   110  107  108 2  
   111  107  113 am 
   112  109  110 1  
   113  110  111 2  
   114  110  112 am 
   115  113  114 1  
   116  114  115 1  
   117  114  117 1  
   118  115  116 2  
   119  115  118 am 
   120  118  119 1  
   121  119  120 1  
   122  119  122 1  
   123  120  121 2  
   124  120  130 am 
   125  122  123 1  
   126  123  124 ar 
   127  123  125 ar 
   128  124  126 ar 
   129  125  127 ar 
   130  126  128 ar 
   131  127  128 ar 
   132  128  129 1  
   133  130  131 1  
   134  131  132 1  
   135  131  134 1  
   136  132  133 2  
   137  132  142 am 
   138  134  135 1  
   139  135  136 ar 
   140  135  137 ar 
   141  136  138 ar 
   142  137  139 ar 
   143  138  140 ar 
   144  139  140 ar 
   145  140  141 1  
   146  142  143 1  
   147  143  144 1  
   148  143  146 1  
   149  144  145 2  
   150  144  147 am 
   151    1  148 1  
   152    1  149 1  
   153    1  150 1  
   154    2  151 1  
   155    5  152 1  
   156    5  153 1  
   157    5  154 1  
   158    6  155 1  
   159    7  156 1  
   160   10  157 1  
   161   11  158 1  
   162   11  159 1  
   163   12  160 1  
   164   12  161 1  
   165   12  162 1  
   166   13  163 1  
   167   13  164 1  
   168   13  165 1  
   169   14  166 1  
   170   15  167 1  
   171   18  168 1  
   172   18  169 1  
   173   18  170 1  
   174   19  171 1  
   175   20  172 1  
   176   23  173 1  
   177   23  174 1  
   178   24  175 1  
   179   24  176 1  
   180   27  177 1  
   181   27  178 1  
   182   28  179 1  
   183   29  180 1  
   184   32  181 1  
   185   32  182 1  
   186   33  183 1  
   187   33  184 1  
   188   37  185 1  
   189   38  186 1  
   190   41  187 1  
   191   41  188 1  
   192   42  189 1  
   193   43  190 1  
   194   43  191 1  
   195   43  192 1  
   196   44  193 1  
   197   44  194 1  
   198   44  195 1  
   199   45  196 1  
   200   46  197 1  
   201   49  198 1  
   202   49  199 1  
   203   50  200 1  
   204   50  201 1  
   205   51  202 1  
   206   51  203 1  
   207   52  204 1  
   208   54  205 1  
   209   54  206 1  
   210   55  207 1  
   211   55  208 1  
   212   57  209 1  
   213   60  210 1  
   214   60  211 1  
   215   61  212 1  
   216   61  213 1  
   217   62  214 1  
   218   63  215 1  
   219   63  216 1  
   220   64  217 1  
   221   64  218 1  
   222   64  219 1  
   223   65  220 1  
   224   66  221 1  
   225   69  222 1  
   226   70  223 1  
   227   70  224 1  
   228   71  225 1  
   229   71  226 1  
   230   71  227 1  
   231   72  228 1  
   232   72  229 1  
   233   72  230 1  
   234   73  231 1  
   235   74  232 1  
   236   74  233 1  
   237   77  234 1  
   238   78  235 1  
   239   81  236 1  
   240   81  237 1  
   241   86  238 1  
   242   89  239 1  
   243   89  240 1  
   244   90  241 1  
   245   90  242 1  
   246   91  243 1  
   247   92  244 1  
   248   92  245 1  
   249   93  246 1  
   250   93  247 1  
   251   93  248 1  
   252   94  249 1  
   253   95  250 1  
   254   98  251 1  
   255   98  252 1  
   256  100  253 1  
   257  101  254 1  
   258  102  255 1  
   259  103  256 1  
   260  104  257 1  
   261  105  258 1  
   262  106  259 1  
   263  109  260 1  
   264  109  261 1  
   265  112  262 1  
   266  112  263 1  
   267  113  264 1  
   268  114  265 1  
   269  117  266 1  
   270  117  267 1  
   271  117  268 1  
   272  118  269 1  
   273  119  270 1  
   274  122  271 1  
   275  122  272 1  
   276  124  273 1  
   277  125  274 1  
   278  126  275 1  
   279  127  276 1  
   280  129  277 1  
   281  130  278 1  
   282  131  279 1  
   283  134  280 1  
   284  134  281 1  
   285  136  282 1  
   286  137  283 1  
   287  138  284 1  
   288  139  285 1  
   289  141  286 1  
   290  142  287 1  
   291  143  288 1  
   292  146  289 1  
   293  146  290 1  
   294  146  291 1  
   295  147  292 1  
   296  147  293 1  
@<TRIPOS>SUBSTRUCTURE
     1 TRP         1

