2wxo_ligand
  -I-interpret- 

 51 54  0  0  0  0  0  0  0  0999 V2000
   -7.5640    4.0520   27.5910 C   0  0  0  0  0
   -6.2560    3.4840   27.4510 O   0  0  0  0  0
   -6.1360    2.4880   26.5310 C   0  0  0  0  0
   -7.1620    2.1520   25.6350 C   0  0  0  0  0
   -4.9130    1.8030   26.5050 C   0  0  0  0  0
   -4.7100    0.7750   25.5730 C   0  0  0  0  0
   -3.5200    0.0980   25.5300 O   0  0  0  0  0
   -3.5840   -1.1230   24.7280 C   0  0  0  0  0
   -5.7340    0.4440   24.6840 C   0  0  0  0  0
   -6.9550    1.1210   24.7050 C   0  0  0  0  0
   -7.8420    0.7120   23.7990 N   0  0  0  0  0
   -9.1350    1.0590   23.6740 C   0  0  0  0  0
   -9.7420    1.9390   24.5120 N   0  0  0  0  0
  -11.0500    2.2330   24.3620 C   0  0  0  0  0
  -11.6910    3.1200   25.2240 C   0  0  0  0  0
  -13.0420    3.4370   25.0460 C   0  0  0  0  0
  -13.7580    2.8620   24.0050 C   0  0  0  0  0
  -13.1290    1.9600   23.1390 C   0  0  0  0  0
  -11.7750    1.6560   23.3280 C   0  0  0  0  0
  -11.1610    0.8080   22.4940 N   0  0  0  0  0
   -9.8770    0.4930   22.6270 C   0  0  0  0  0
   -9.3400   -0.3710   21.7620 N   0  0  0  0  0
  -10.2620   -1.1940   20.6460 S   0  0  0  0  0
   -9.3680   -1.9230   19.7110 O   0  0  0  0  0
  -11.1650   -0.2160   19.8920 O   0  0  0  0  0
  -11.2530   -2.3360   21.5280 C   0  0  0  0  0
  -12.6140   -2.4320   21.2520 C   0  0  0  0  0
  -13.3940   -3.3340   21.9640 C   0  0  0  0  0
  -12.7940   -4.1360   22.9450 C   0  0  0  0  0
  -13.5550   -5.0060   23.6260 F   0  0  0  0  0
  -11.4260   -4.0570   23.2190 C   0  0  0  0  0
  -10.6560   -3.1410   22.5020 C   0  0  0  0  0
   -7.8774    4.4784   26.6381 H   0  0  0  0  0
   -8.2663    3.2742   27.8910 H   0  0  0  0  0
   -7.5398    4.8339   28.3500 H   0  0  0  0  0
   -8.1115    2.6868   25.6608 H   0  0  0  0  0
   -4.1225    2.0686   27.2069 H   0  0  0  0  0
   -4.3318   -1.7945   25.1499 H   0  0  0  0  0
   -3.8579   -0.8695   23.7039 H   0  0  0  0  0
   -2.6098   -1.6119   24.7345 H   0  0  0  0  0
   -5.5778   -0.3567   23.9611 H   0  0  0  0  0
   -7.4939    0.0471   23.1082 H   0  0  0  0  0
  -11.1345    3.5715   26.0453 H   0  0  0  0  0
  -13.5322    4.1352   25.7245 H   0  0  0  0  0
  -14.8091    3.1127   23.8621 H   0  0  0  0  0
  -13.6879    1.4984   22.3249 H   0  0  0  0  0
   -8.3331   -0.5320   21.7856 H   0  0  0  0  0
  -13.0641   -1.8041   20.4830 H   0  0  0  0  0
  -14.4619   -3.4175   21.7621 H   0  0  0  0  0
  -10.9711   -4.6964   23.9755 H   0  0  0  0  0
   -9.5880   -3.0531   22.7016 H   0  0  0  0  0
  1  2  1  0  0  0
  2  3  1  0  0  0
  3  4  4  0  0  0
  3  5  4  0  0  0
  4 10  4  0  0  0
  5  6  4  0  0  0
  6  7  1  0  0  0
  6  9  4  0  0  0
  7  8  1  0  0  0
  9 10  4  0  0  0
 10 11  1  0  0  0
 11 12  1  0  0  0
 12 13  4  0  0  0
 12 21  4  0  0  0
 13 14  4  0  0  0
 14 15  4  0  0  0
 14 19  4  0  0  0
 15 16  4  0  0  0
 16 17  4  0  0  0
 17 18  4  0  0  0
 18 19  4  0  0  0
 19 20  4  0  0  0
 20 21  4  0  0  0
 21 22  1  0  0  0
 22 23  1  0  0  0
 23 24  2  0  0  0
 23 25  2  0  0  0
 23 26  1  0  0  0
 26 27  4  0  0  0
 26 32  4  0  0  0
 27 28  4  0  0  0
 28 29  4  0  0  0
 29 30  1  0  0  0
 29 31  4  0  0  0
 31 32  4  0  0  0
  1 33  1  0  0  0
  1 34  1  0  0  0
  1 35  1  0  0  0
  4 36  1  0  0  0
  5 37  1  0  0  0
  8 38  1  0  0  0
  8 39  1  0  0  0
  8 40  1  0  0  0
  9 41  1  0  0  0
 11 42  1  0  0  0
 15 43  1  0  0  0
 16 44  1  0  0  0
 17 45  1  0  0  0
 18 46  1  0  0  0
 22 47  1  0  0  0
 27 48  1  0  0  0
 28 49  1  0  0  0
 31 50  1  0  0  0
 32 51  1  0  0  0
M  END
$$$$
