6hb5_ligand
  -I-interpret- 

 57 59  0  0  0  0  0  0  0  0999 V2000
  -51.8770    3.2480  -42.0570 N   0  3  0  0  0
  -52.6110    2.8560  -43.2740 C   0  0  0  0  0
  -52.6700    1.3100  -43.4190 C   0  0  0  0  0
  -51.3270    0.6260  -43.4180 C   0  0  0  0  0
  -50.3950    0.8860  -44.4210 C   0  0  0  0  0
  -49.1740    0.2310  -44.4490 C   0  0  0  0  0
  -48.8590   -0.6870  -43.4550 C   0  0  0  0  0
  -47.6440   -1.3070  -43.4810 O   0  0  0  0  0
  -49.7780   -0.9550  -42.4470 C   0  0  0  0  0
  -51.0020   -0.3020  -42.4360 C   0  0  0  0  0
  -54.0490    3.2140  -42.9800 C   0  0  0  0  0
  -54.5870    3.4030  -41.8930 O   0  0  0  0  0
  -54.8020    3.1990  -44.0950 N   0  0  0  0  0
  -56.3740    3.3760  -44.2810 S   0  0  0  0  0
  -56.9030    4.4610  -43.5320 O   0  0  0  0  0
  -56.8980    2.0630  -44.1410 O   0  0  0  0  0
  -56.4710    3.7300  -45.8270 O   0  0  0  0  0
  -55.8790    2.8170  -46.8090 C   0  0  0  0  0
  -55.2670    3.6860  -47.8810 C   0  0  0  0  0
  -56.2800    4.5250  -48.4840 O   0  0  0  0  0
  -55.8450    5.8790  -48.4620 C   0  0  0  0  0
  -54.8920    5.9800  -47.2760 C   0  0  0  0  0
  -53.9640    7.0390  -47.4490 O   0  0  0  0  0
  -54.1730    4.6380  -47.3740 C   0  0  0  0  0
  -53.1060    4.7200  -48.3040 O   0  0  0  0  0
  -57.0210    6.7560  -48.3050 N   0  0  0  0  0
  -57.8960    6.5910  -47.2500 C   0  0  0  0  0
  -58.9260    7.4380  -47.0560 C   0  0  0  0  0
  -59.0770    8.5140  -47.9810 C   0  0  0  0  0
  -60.1120    9.3520  -47.8780 N   0  0  0  0  0
  -58.2240    8.6850  -49.0100 N   0  0  0  0  0
  -57.1890    7.8150  -49.2070 C   0  0  0  0  0
  -56.4530    7.8830  -50.1940 O   0  0  0  0  0
  -50.8863    3.0365  -42.1760 H   0  0  0  0  0
  -51.9955    4.2484  -41.8973 H   0  0  0  0  0
  -52.2431    2.7293  -41.2587 H   0  0  0  0  0
  -52.1483    3.3188  -44.1457 H   0  0  0  0  0
  -53.1329    1.0991  -44.3830 H   0  0  0  0  0
  -53.2198    0.9312  -42.5574 H   0  0  0  0  0
  -50.6301    1.6160  -45.1956 H   0  0  0  0  0
  -48.4625    0.4356  -45.2490 H   0  0  0  0  0
  -47.5763   -1.9073  -42.7349 H   0  0  0  0  0
  -49.5373   -1.6769  -41.6666 H   0  0  0  0  0
  -51.7196   -0.5202  -41.6451 H   0  0  0  0  0
  -54.2827    3.0504  -44.9602 H   0  0  0  0  0
  -56.6324    2.1500  -47.2280 H   0  0  0  0  0
  -55.1272    2.1776  -46.3463 H   0  0  0  0  0
  -54.8230    2.9818  -48.5846 H   0  0  0  0  0
  -55.3409    6.1862  -49.3783 H   0  0  0  0  0
  -55.3859    6.1768  -46.3245 H   0  0  0  0  0
  -53.3790    7.0777  -46.6888 H   0  0  0  0  0
  -53.7325    4.3130  -46.4314 H   0  0  0  0  0
  -52.4352    5.3188  -47.9677 H   0  0  0  0  0
  -57.7509    5.7594  -46.5605 H   0  0  0  0  0
  -59.6177    7.3062  -46.2239 H   0  0  0  0  0
  -60.7995    9.2245  -47.1353 H   0  0  0  0  0
  -58.3521    9.4709  -49.6475 H   0  0  0  0  0
  1  2  1  0  0  0
  2  3  1  0  0  0
  2 11  1  0  0  0
  3  4  1  0  0  0
  4  5  4  0  0  0
  4 10  4  0  0  0
  5  6  4  0  0  0
  6  7  4  0  0  0
  7  8  1  0  0  0
  7  9  4  0  0  0
  9 10  4  0  0  0
 11 12  2  0  0  0
 11 13  1  0  0  0
 13 14  1  0  0  0
 14 15  2  0  0  0
 14 16  2  0  0  0
 14 17  1  0  0  0
 17 18  1  0  0  0
 18 19  1  0  0  0
 19 20  1  0  0  0
 19 24  1  0  0  0
 20 21  1  0  0  0
 21 22  1  0  0  0
 21 26  1  0  0  0
 22 23  1  0  0  0
 22 24  1  0  0  0
 24 25  1  0  0  0
 26 27  1  0  0  0
 26 32  1  0  0  0
 27 28  2  0  0  0
 28 29  1  0  0  0
 29 30  2  0  0  0
 29 31  1  0  0  0
 31 32  1  0  0  0
 32 33  2  0  0  0
  1 34  1  0  0  0
  1 35  1  0  0  0
  1 36  1  0  0  0
  2 37  1  0  0  0
  3 38  1  0  0  0
  3 39  1  0  0  0
  5 40  1  0  0  0
  6 41  1  0  0  0
  8 42  1  0  0  0
  9 43  1  0  0  0
 10 44  1  0  0  0
 13 45  1  0  0  0
 18 46  1  0  0  0
 18 47  1  0  0  0
 19 48  1  0  0  0
 21 49  1  0  0  0
 22 50  1  0  0  0
 23 51  1  0  0  0
 24 52  1  0  0  0
 25 53  1  0  0  0
 27 54  1  0  0  0
 28 55  1  0  0  0
 30 56  1  0  0  0
 31 57  1  0  0  0
M  END
$$$$
