### 
### Created by X-TOOL on Mon Aug  2 16:13:47 2021
### 

@<TRIPOS>MOLECULE
6hb5_ligand
   57    59     1     0     0
SMALL
GAST_HUCK


@<TRIPOS>ATOM
      1 N         -51.8770    3.2480  -42.0570 N.4       1 YSC         0.2393
      2 CA        -52.6110    2.8560  -43.2740 C.3       1 YSC         0.0745
      3 CB        -52.6700    1.3100  -43.4190 C.3       1 YSC         0.0366
      4 CG        -51.3270    0.6260  -43.4180 C.ar      1 YSC        -0.0460
      5 CD2       -50.3950    0.8860  -44.4210 C.ar      1 YSC        -0.0684
      6 CE2       -49.1740    0.2310  -44.4490 C.ar      1 YSC        -0.0398
      7 CZ        -48.8590   -0.6870  -43.4550 C.ar      1 YSC         0.0805
      8 OH        -47.6440   -1.3070  -43.4810 O.3       1 YSC        -0.3376
      9 CE1       -49.7780   -0.9550  -42.4470 C.ar      1 YSC        -0.0398
     10 CD1       -51.0020   -0.3020  -42.4360 C.ar      1 YSC        -0.0684
     11 C         -54.0490    3.2140  -42.9800 C.2       1 YSC         0.2478
     12 O         -54.5870    3.4030  -41.8930 O.2       1 YSC        -0.3890
     13 NAT       -54.8020    3.1990  -44.0950 N.am      1 YSC        -0.1293
     14 SBI       -56.3740    3.3760  -44.2810 S.o2      1 YSC         0.1859
     15 OAD       -56.9030    4.4610  -43.5320 O.2       1 YSC        -0.1218
     16 OAE       -56.8980    2.0630  -44.1410 O.2       1 YSC        -0.1218
     17 O5'       -56.4710    3.7300  -45.8270 O.3       1 YSC        -0.2161
     18 C5'       -55.8790    2.8170  -46.8090 C.3       1 YSC         0.1073
     19 C4'       -55.2670    3.6860  -47.8810 C.3       1 YSC         0.1162
     20 O4'       -56.2800    4.5250  -48.4840 O.3       1 YSC        -0.3356
     21 C1'       -55.8450    5.8790  -48.4620 C.3       1 YSC         0.2109
     22 C2'       -54.8920    5.9800  -47.2760 C.3       1 YSC         0.1399
     23 O2'       -53.9640    7.0390  -47.4490 O.3       1 YSC        -0.3835
     24 C3'       -54.1730    4.6380  -47.3740 C.3       1 YSC         0.1148
     25 O3'       -53.1060    4.7200  -48.3040 O.3       1 YSC        -0.3864
     26 N1        -57.0210    6.7560  -48.3050 N.am      1 YSC        -0.1467
     27 C6        -57.8960    6.5910  -47.2500 C.2       1 YSC         0.0739
     28 C5        -58.9260    7.4380  -47.0560 C.2       1 YSC         0.0019
     29 C4        -59.0770    8.5140  -47.9810 C.2       1 YSC         0.0853
     30 N4        -60.1120    9.3520  -47.8780 N.2       1 YSC        -0.4291
     31 N3        -58.2240    8.6850  -49.0100 N.am      1 YSC        -0.1924
     32 C2        -57.1890    7.8150  -49.2070 C.2       1 YSC         0.3488
     33 O2        -56.4530    7.8830  -50.1940 O.2       1 YSC        -0.3777
     34 H1        -50.8977    3.0394  -42.1734 H         1 YSC         0.2017
     35 H2        -52.2380    2.7360  -41.2673 H         1 YSC         0.2017
     36 H3        -51.9934    4.2366  -41.8982 H         1 YSC         0.2017
     37 H4        -52.2079    3.3451  -44.1730 H         1 YSC         0.1120
     38 H5        -53.1742    1.0737  -44.3677 H         1 YSC         0.0486
     39 H6        -53.2592    0.9094  -42.5809 H         1 YSC         0.0486
     40 H7        -50.6288    1.6119  -45.1913 H         1 YSC         0.0530
     41 H8        -48.4664    0.4345  -45.2446 H         1 YSC         0.0525
     42 H9        -47.5770   -1.9010  -42.7427 H         1 YSC         0.2458
     43 H10       -49.5387   -1.6730  -41.6709 H         1 YSC         0.0525
     44 H11       -51.7157   -0.5190  -41.6495 H         1 YSC         0.0530
     45 H12       -54.2929    3.0533  -44.9433 H         1 YSC         0.2167
     46 H13       -56.6547    2.1681  -47.2417 H         1 YSC         0.0611
     47 H14       -55.1049    2.1965  -46.3339 H         1 YSC         0.0611
     48 H15       -54.8332    3.0251  -48.6458 H         1 YSC         0.0648
     49 H16       -55.3188    6.1352  -49.3934 H         1 YSC         0.1013
     50 H17       -55.4296    6.0974  -46.3236 H         1 YSC         0.0677
     51 H18       -54.4342    7.8605  -47.5303 H         1 YSC         0.2101
     52 H19       -53.7898    4.3173  -46.3941 H         1 YSC         0.0648
     53 H20       -52.6671    3.8791  -48.3556 H         1 YSC         0.2100
     54 H21       -57.7510    5.7601  -46.5611 H         1 YSC         0.1288
     55 H22       -59.6170    7.3063  -46.2247 H         1 YSC         0.0330
     56 H23       -60.2137   10.1104  -48.5342 H         1 YSC         0.0340
     57 H24       -58.3496    9.4555  -49.6350 H         1 YSC         0.2412
@<TRIPOS>BOND
     1    1    2 1  
     2    2    3 1  
     3    2   11 1  
     4    3    4 1  
     5    4    5 ar 
     6    4   10 ar 
     7    5    6 ar 
     8    6    7 ar 
     9    7    8 1  
    10    7    9 ar 
    11    9   10 ar 
    12   11   12 2  
    13   11   13 am 
    14   13   14 am 
    15   14   15 2  
    16   14   16 2  
    17   14   17 1  
    18   17   18 1  
    19   18   19 1  
    20   19   20 1  
    21   19   24 1  
    22   20   21 1  
    23   21   22 1  
    24   21   26 1  
    25   22   23 1  
    26   22   24 1  
    27   24   25 1  
    28   26   27 1  
    29   26   32 am 
    30   27   28 2  
    31   28   29 1  
    32   29   30 2  
    33   29   31 1  
    34   31   32 am 
    35   32   33 2  
    36    1   34 1  
    37    1   35 1  
    38    1   36 1  
    39    2   37 1  
    40    3   38 1  
    41    3   39 1  
    42    5   40 1  
    43    6   41 1  
    44    8   42 1  
    45    9   43 1  
    46   10   44 1  
    47   13   45 1  
    48   18   46 1  
    49   18   47 1  
    50   19   48 1  
    51   21   49 1  
    52   22   50 1  
    53   23   51 1  
    54   24   52 1  
    55   25   53 1  
    56   27   54 1  
    57   28   55 1  
    58   30   56 1  
    59   31   57 1  
@<TRIPOS>SUBSTRUCTURE
     1 YSC         1

