1dva_ligand
  -I-interpret- 

286291  0  0  0  0  0  0  0  0999 V2000
   47.2550    4.8120    3.8300 C   0  0  0  0  0
   47.9640    5.7440    3.4400 O   0  0  0  0  0
   47.8340    3.5310    4.3900 C   0  0  0  0  0
   45.9370    4.8220    3.8110 N   0  0  0  0  0
   45.1180    5.8910    3.2890 C   0  0  0  0  0
   44.4320    4.9670    2.3130 C   0  0  0  0  0
   45.0820    4.0910    1.7460 O   0  0  0  0  0
   45.9410    6.9360    2.5410 C   0  0  0  0  0
   43.1340    5.1210    2.1260 N   0  0  0  0  0
   42.4260    4.2290    1.2410 C   0  0  0  0  0
   42.7640    4.5360   -0.2150 C   0  0  0  0  0
   42.8720    3.6280   -1.0390 O   0  0  0  0  0
   40.9170    4.3310    1.5150 C   0  0  0  0  0
   40.3850    3.7580    2.8450 C   0  0  0  0  0
   39.2960    2.7640    2.5760 C   0  0  0  0  0
   41.4810    3.0550    3.6020 C   0  0  0  0  0
   42.9720    5.8110   -0.5250 N   0  0  0  0  0
   43.2960    6.2140   -1.8970 C   0  0  0  0  0
   44.4970    5.4110   -2.4140 C   0  0  0  0  0
   44.5230    4.9970   -3.5700 O   0  0  0  0  0
   43.5590    7.7460   -1.9490 C   0  0  0  0  0
   43.8870    8.5820   -3.5630 S   0  0  0  0  0
   45.4800    5.1790   -1.5570 N   0  0  0  0  0
   46.6540    4.4340   -1.9560 C   0  0  0  0  0
   46.3130    3.1160   -2.6570 C   0  0  0  0  0
   47.0900    2.6310   -3.4770 O   0  0  0  0  0
   47.5060    4.1340   -0.7280 C   0  0  0  0  0
   48.1340    5.3750   -0.1380 C   0  0  0  0  0
   47.9500    6.4670   -0.7210 O   0  0  0  0  0
   48.8140    5.2550    0.9100 O   0  0  0  0  0
   45.1440    2.5510   -2.3580 N   0  0  0  0  0
   44.7280    1.2620   -2.9230 C   0  0  0  0  0
   44.0200    1.3180   -4.2780 C   0  0  0  0  0
   42.9270    1.8820   -4.4110 O   0  0  0  0  0
   43.8530    0.5410   -1.8980 C   0  0  0  0  0
   43.4480   -0.8360   -2.3430 C   0  0  0  0  0
   43.2360   -1.0150   -3.5630 O   0  0  0  0  0
   43.3340   -1.7310   -1.4710 O   0  0  0  0  0
   44.6130    0.6770   -5.2900 N   0  0  0  0  0
   44.0710    0.6440   -6.6480 C   0  0  0  0  0
   42.6500    0.1330   -6.8430 C   0  0  0  0  0
   41.9460    0.5620   -7.7660 O   0  0  0  0  0
   45.0650   -0.2100   -7.4180 C   0  0  0  0  0
   46.3300   -0.1910   -6.6220 C   0  0  0  0  0
   45.8740   -0.0800   -5.1850 C   0  0  0  0  0
   42.1870   -0.7610   -5.9900 N   0  0  0  0  0
   40.8410   -1.2680   -6.2360 C   0  0  0  0  0
   39.7480   -0.4530   -5.5680 C   0  0  0  0  0
   38.6470   -0.9580   -5.3280 O   0  0  0  0  0
   40.7490   -2.7740   -5.8950 C   0  0  0  0  0
   40.5940   -3.1270   -4.4370 C   0  0  0  0  0
   41.6380   -4.1430   -3.9580 C   0  0  0  0  0
   41.9110   -3.8870   -2.5400 N   0  0  0  0  0
   41.7620   -4.7700   -1.5500 C   0  0  0  0  0
   41.3250   -5.9990   -1.7990 N   0  0  0  0  0
   41.9990   -4.4030   -0.2900 N   0  0  0  0  0
   40.0510    0.8220   -5.3050 N   0  0  0  0  0
   39.0780    1.6770   -4.6380 C   0  0  0  0  0
   38.4300    2.7920   -5.4310 C   0  0  0  0  0
   39.0410    3.4100   -6.3080 O   0  0  0  0  0
   39.6480    2.3720   -3.4200 C   0  0  0  0  0
   38.5240    3.0220   -2.6290 C   0  0  0  0  0
   40.3950    1.3870   -2.5580 C   0  0  0  0  0
   37.1850    3.0730   -5.0760 N   0  0  0  0  0
   36.4610    4.1420   -5.7020 C   0  0  0  0  0
   37.3770    5.3230   -5.5730 C   0  0  0  0  0
   37.8480    5.6010   -4.4780 O   0  0  0  0  0
   35.2040    4.4430   -4.9360 C   0  0  0  0  0
   34.5020    5.6290   -5.4870 C   0  0  0  0  0
   35.0140    6.2220   -6.4700 O   0  0  0  0  0
   33.4410    5.9640   -4.9430 O   0  0  0  0  0
   37.5990    6.0440   -6.6610 N   0  0  0  0  0
   38.5230    7.1620   -6.5990 C   0  0  0  0  0
   38.0290    8.3620   -5.7980 C   0  0  0  0  0
   38.7550    9.3380   -5.5710 O   0  0  0  0  0
   38.9110    7.5420   -8.0150 C   0  0  0  0  0
   39.5750    6.3670   -8.7450 C   0  0  0  0  0
   41.0770    6.2270   -8.4020 C   0  0  0  0  0
   41.3310    6.1320   -6.9630 N   0  0  0  0  0
   42.3080    5.4090   -6.4140 C   0  0  0  0  0
   43.1380    4.7080   -7.1770 N   0  0  0  0  0
   42.4570    5.3700   -5.1010 N   0  0  0  0  0
   36.7960    8.2460   -5.3300 N   0  0  0  0  0
   36.1280    9.2670   -4.5270 C   0  0  0  0  0
   36.7920    9.3580   -3.1770 C   0  0  0  0  0
   36.7290   10.3750   -2.4860 O   0  0  0  0  0
   34.6850    8.8340   -4.3370 C   0  0  0  0  0
   33.8180    9.6330   -3.4320 C   0  0  0  0  0
   32.9910   10.6520   -3.8040 C   0  0  0  0  0
   33.4670    9.3100   -2.0830 C   0  0  0  0  0
   32.1320   10.9670   -2.7870 N   0  0  0  0  0
   32.3950   10.1570   -1.7150 C   0  0  0  0  0
   33.9370    8.3760   -1.1520 C   0  0  0  0  0
   31.7890   10.1080   -0.4430 C   0  0  0  0  0
   33.3330    8.3250    0.1210 C   0  0  0  0  0
   32.2670    9.1870    0.4550 C   0  0  0  0  0
   37.4300    8.2690   -2.8060 N   0  0  0  0  0
   38.0510    8.2140   -1.5280 C   0  0  0  0  0
   39.3460    8.9910   -1.5010 C   0  0  0  0  0
   40.0780    8.9490   -0.5030 O   0  0  0  0  0
   38.2480    6.7450   -1.1570 C   0  0  0  0  0
   37.0210    6.1630   -0.5160 C   0  0  0  0  0
   35.9610    5.7340   -1.2830 C   0  0  0  0  0
   36.8750    6.1420    0.8840 C   0  0  0  0  0
   34.7980    5.3090   -0.6840 C   0  0  0  0  0
   35.7080    5.7150    1.4730 C   0  0  0  0  0
   34.6970    5.3100    0.6770 C   0  0  0  0  0
   33.5580    4.8580    1.2220 O   0  0  0  0  0
   39.6340    9.7090   -2.5860 N   0  0  0  0  0
   40.8820   10.4720   -2.6640 C   0  0  0  0  0
   40.7130   11.8990   -2.2490 C   0  0  0  0  0
   41.6680   12.5520   -1.8680 O   0  0  0  0  0
   41.4620   10.4320   -4.0680 C   0  0  0  0  0
   42.0840    8.7890   -4.5130 S   0  0  0  0  0
   39.4890   12.3850   -2.3240 N   0  0  0  0  0
   39.2310   13.7500   -1.9250 C   0  0  0  0  0
   39.5610   13.9130   -0.4510 C   0  0  0  0  0
   39.7280   15.0230    0.0270 O   0  0  0  0  0
   37.7630   14.1110   -2.1360 C   0  0  0  0  0
   36.9090   13.8150   -0.9160 C   0  0  0  0  0
   35.4380   14.0040   -1.1670 C   0  0  0  0  0
   34.8800   15.0830   -0.9440 O   0  0  0  0  0
   34.7910   12.9510   -1.6290 N   0  0  0  0  0
   39.6680   12.8240    0.2870 N   0  0  0  0  0
   39.9200   12.9930    1.7000 C   0  0  0  0  0
   41.3340   12.7400    2.0870 C   0  0  0  0  0
   41.6090   12.5860    3.2640 O   0  0  0  0  0
   39.0150   12.0870    2.5310 C   0  0  0  0  0
   37.6260   11.8950    1.9540 C   0  0  0  0  0
   37.3750   10.9220    0.9920 C   0  0  0  0  0
   36.5650   12.6560    2.4090 C   0  0  0  0  0
   36.1110   10.7140    0.5120 C   0  0  0  0  0
   35.2820   12.4470    1.9190 C   0  0  0  0  0
   35.0600   11.4760    0.9770 C   0  0  0  0  0
   42.2490   12.7260    1.1240 N   0  0  0  0  0
   43.6460   12.4590    1.4630 C   0  0  0  0  0
   44.5600   13.6580    1.5570 C   0  0  0  0  0
   44.7880   14.2250    2.6410 O   0  0  0  0  0
   44.3110   11.5350    0.4650 C   0  0  0  0  0
   45.2630   10.6060    1.2140 C   0  0  0  0  0
   43.2630   10.7920   -0.3380 C   0  0  0  0  0
   45.1200   13.9990    0.4000 N   0  0  0  0  0
   46.0360   15.1120    0.2550 C   0  0  0  0  0
   45.1060   16.2920    0.2320 C   0  0  0  0  0
   43.9420   16.0590   -0.1750 O   0  0  0  0  0
   46.7780   14.9960   -1.0730 C   0  0  0  0  0
   48.1900   15.5280   -1.0620 C   0  0  0  0  0
   48.7430   15.7440   -2.4720 C   0  0  0  0  0
   47.9480   15.6340   -3.4360 O   0  0  0  0  0
   49.9640   16.0210   -2.6180 O   0  0  0  0  0
   45.5220   17.4020    0.6340 N   0  0  0  0  0
   48.4600    3.0560    3.6346 H   0  0  0  0  0
   48.4348    3.7597    5.2703 H   0  0  0  0  0
   47.0228    2.8578    4.6671 H   0  0  0  0  0
   45.4566    4.0088    4.1962 H   0  0  0  0  0
   44.5325    6.4909    3.9857 H   0  0  0  0  0
   46.6953    6.4359    1.9336 H   0  0  0  0  0
   45.2842    7.5215    1.8976 H   0  0  0  0  0
   46.4293    7.5944    3.2594 H   0  0  0  0  0
   42.6334    5.8688    2.6062 H   0  0  0  0  0
   42.7383    3.2018    1.4292 H   0  0  0  0  0
   40.4395    3.7406    0.7330 H   0  0  0  0  0
   40.7002    5.3986    1.5516 H   0  0  0  0  0
   40.0052    4.5909    3.4367 H   0  0  0  0  0
   38.4807    3.2551    2.0448 H   0  0  0  0  0
   39.6905    1.9508    1.9668 H   0  0  0  0  0
   38.9276    2.3658    3.5214 H   0  0  0  0  0
   41.8710    2.2362    2.9973 H   0  0  0  0  0
   42.2820    3.7617    3.8190 H   0  0  0  0  0
   41.0804    2.6601    4.5356 H   0  0  0  0  0
   42.9052    6.5215    0.2037 H   0  0  0  0  0
   42.4510    5.9979   -2.5507 H   0  0  0  0  0
   44.4808    7.8808   -1.3832 H   0  0  0  0  0
   42.6279    8.1916   -1.5988 H   0  0  0  0  0
   45.4081    5.5306   -0.6022 H   0  0  0  0  0
   47.1974    5.0542   -2.6689 H   0  0  0  0  0
   48.3101    3.4645   -1.0335 H   0  0  0  0  0
   46.8581    3.6937    0.0299 H   0  0  0  0  0
   48.8216    4.3342    1.1815 H   0  0  0  0  0
   44.5160    3.0313   -1.7136 H   0  0  0  0  0
   45.6497    0.7187   -3.1313 H   0  0  0  0  0
   42.9448    1.1284   -1.7627 H   0  0  0  0  0
   44.4309    0.4382   -0.9796 H   0  0  0  0  0
   43.5459   -1.3653   -0.6091 H   0  0  0  0  0
   43.9637    1.6723   -6.9934 H   0  0  0  0  0
   45.2255    0.1809   -8.4227 H   0  0  0  0  0
   44.6949   -1.2272   -7.5459 H   0  0  0  0  0
   46.9797    0.6359   -6.9086 H   0  0  0  0  0
   46.9316   -1.0841   -6.7910 H   0  0  0  0  0
   45.7430   -1.0517   -4.7089 H   0  0  0  0  0
   46.6084    0.4122   -4.5474 H   0  0  0  0  0
   42.7429   -1.0820   -5.1973 H   0  0  0  0  0
   40.6567   -1.1529   -7.3041 H   0  0  0  0  0
   41.6948   -3.2132   -6.2125 H   0  0  0  0  0
   39.8504   -3.1409   -6.3910 H   0  0  0  0  0
   39.6083   -3.5731   -4.3043 H   0  0  0  0  0
   40.7256   -2.2139   -3.8564 H   0  0  0  0  0
   42.5540   -4.0411   -4.5399 H   0  0  0  0  0
   41.2611   -5.1573   -4.0895 H   0  0  0  0  0
   42.2427   -2.9557   -2.2890 H   0  0  0  0  0
   41.0995   -6.2763   -2.7543 H   0  0  0  0  0
   41.8444   -5.0639    0.4714 H   0  0  0  0  0
   42.3349   -3.4614   -0.0877 H   0  0  0  0  0
   40.9620    1.1958   -5.5709 H   0  0  0  0  0
   38.3182    0.9265   -4.4198 H   0  0  0  0  0
   40.3464    3.1436   -3.7439 H   0  0  0  0  0
   38.0144    3.7524   -3.2574 H   0  0  0  0  0
   37.8156    2.2570   -2.3112 H   0  0  0  0  0
   38.9391    3.5210   -1.7533 H   0  0  0  0  0
   39.7138    0.6004   -2.2335 H   0  0  0  0  0
   41.2108    0.9487   -3.1328 H   0  0  0  0  0
   40.7988    1.9021   -1.6864 H   0  0  0  0  0
   36.7341    2.5209   -4.3464 H   0  0  0  0  0
   36.1840    3.9008   -6.7283 H   0  0  0  0  0
   35.4723    4.6510   -3.9002 H   0  0  0  0  0
   34.5393    3.5824   -5.0114 H   0  0  0  0  0
   35.8315    5.7832   -6.7167 H   0  0  0  0  0
   37.1251    5.8160   -7.5350 H   0  0  0  0  0
   39.3974    6.8302   -6.0391 H   0  0  0  0  0
   39.6202    8.3685   -7.9707 H   0  0  0  0  0
   38.0090    7.8233   -8.5585 H   0  0  0  0  0
   39.4907    6.5468   -9.8168 H   0  0  0  0  0
   39.0727    5.4512   -8.4335 H   0  0  0  0  0
   41.5853    7.1182   -8.7700 H   0  0  0  0  0
   41.4379    5.3078   -8.8635 H   0  0  0  0  0
   40.7183    6.6550   -6.3372 H   0  0  0  0  0
   43.8768    4.1504   -6.7484 H   0  0  0  0  0
   43.0369    4.7270   -8.1918 H   0  0  0  0  0
   41.8221    5.8953   -4.4999 H   0  0  0  0  0
   36.2812    7.3916   -5.5432 H   0  0  0  0  0
   36.1830   10.2368   -5.0215 H   0  0  0  0  0
   34.7418    7.8466   -3.8788 H   0  0  0  0  0
   34.2282    8.9246   -5.3225 H   0  0  0  0  0
   33.0117   11.1460   -4.7754 H   0  0  0  0  0
   34.7543    7.7011   -1.4064 H   0  0  0  0  0
   30.9698   10.7780   -0.1821 H   0  0  0  0  0
   33.6951    7.6087    0.8585 H   0  0  0  0  0
   31.8149    9.1201    1.4445 H   0  0  0  0  0
   37.4791    7.4663   -3.4334 H   0  0  0  0  0
   37.4109    8.6896   -0.7849 H   0  0  0  0  0
   39.0709    6.6785   -0.4453 H   0  0  0  0  0
   38.4562    6.1859   -2.0692 H   0  0  0  0  0
   36.0439    5.7312   -2.3698 H   0  0  0  0  0
   37.7025    6.4704    1.5130 H   0  0  0  0  0
   33.9599    4.9725   -1.2943 H   0  0  0  0  0
   35.6024    5.7041    2.5578 H   0  0  0  0  0
   33.6185    4.9128    2.1785 H   0  0  0  0  0
   38.9801    9.7274   -3.3686 H   0  0  0  0  0
   41.5685    9.9931   -1.9658 H   0  0  0  0  0
   42.2977   11.1307   -4.1074 H   0  0  0  0  0
   40.6682   10.6928   -4.7680 H   0  0  0  0  0
   38.7262   11.7987   -2.6629 H   0  0  0  0  0
   39.8510   14.4079   -2.5339 H   0  0  0  0  0
   37.3853   13.5111   -2.9639 H   0  0  0  0  0
   37.7055   15.1812   -2.3346 H   0  0  0  0  0
   37.2030   14.5094   -0.1289 H   0  0  0  0  0
   37.0678   12.7712   -0.6453 H   0  0  0  0  0
   33.7900   13.0091   -1.8161 H   0  0  0  0  0
   35.2918   12.0788   -1.7990 H   0  0  0  0  0
   39.5761   11.8957   -0.1255 H   0  0  0  0  0
   39.7019   14.0409    1.9061 H   0  0  0  0  0
   38.8951   12.5600    3.5057 H   0  0  0  0  0
   39.4872   11.1052    2.5644 H   0  0  0  0  0
   38.1985   10.3157    0.6147 H   0  0  0  0  0
   36.7370   13.4275    3.1595 H   0  0  0  0  0
   35.9343    9.9445   -0.2395 H   0  0  0  0  0
   34.4531   13.0541    2.2829 H   0  0  0  0  0
   34.0530   11.3064    0.5957 H   0  0  0  0  0
   41.9791   12.9001    0.1559 H   0  0  0  0  0
   43.5396   12.0208    2.4553 H   0  0  0  0  0
   44.9004   12.1027   -0.2550 H   0  0  0  0  0
   46.0182   11.2000    1.7288 H   0  0  0  0  0
   44.7004   10.0214    1.9419 H   0  0  0  0  0
   45.7478    9.9356    0.5043 H   0  0  0  0  0
   42.6411   10.2026    0.3358 H   0  0  0  0  0
   42.6415   11.5095   -0.8738 H   0  0  0  0  0
   43.7550   10.1312   -1.0517 H   0  0  0  0  0
   44.8929   13.4485   -0.4281 H   0  0  0  0  0
   46.7952   15.1706    1.0349 H   0  0  0  0  0
   46.2225   15.5917   -1.7973 H   0  0  0  0  0
   46.8436   13.9331   -1.3054 H   0  0  0  0  0
   48.8224   14.7955   -0.5603 H   0  0  0  0  0
   48.1836   16.4909   -0.5512 H   0  0  0  0  0
   50.3880   16.0567   -1.7574 H   0  0  0  0  0
   44.8957   18.2070    0.6475 H   0  0  0  0  0
   46.4873   17.5016    0.9481 H   0  0  0  0  0
  1  2  2  0  0  0
  1  3  1  0  0  0
  1  4  1  0  0  0
  4  5  1  0  0  0
  5  6  1  0  0  0
  5  8  1  0  0  0
  6  7  2  0  0  0
  6  9  1  0  0  0
  9 10  1  0  0  0
 10 11  1  0  0  0
 10 13  1  0  0  0
 11 12  2  0  0  0
 11 17  1  0  0  0
 13 14  1  0  0  0
 14 15  1  0  0  0
 14 16  1  0  0  0
 17 18  1  0  0  0
 18 19  1  0  0  0
 18 21  1  0  0  0
 19 20  2  0  0  0
 19 23  1  0  0  0
 21 22  1  0  0  0
 22114  1  0  0  0
 23 24  1  0  0  0
 24 25  1  0  0  0
 24 27  1  0  0  0
 25 26  2  0  0  0
 25 31  1  0  0  0
 27 28  1  0  0  0
 28 29  2  0  0  0
 28 30  1  0  0  0
 31 32  1  0  0  0
 32 33  1  0  0  0
 32 35  1  0  0  0
 33 34  2  0  0  0
 33 39  1  0  0  0
 35 36  1  0  0  0
 36 37  2  0  0  0
 36 38  1  0  0  0
 39 40  1  0  0  0
 39 45  1  0  0  0
 40 41  1  0  0  0
 40 43  1  0  0  0
 41 42  2  0  0  0
 41 46  1  0  0  0
 43 44  1  0  0  0
 44 45  1  0  0  0
 46 47  1  0  0  0
 47 48  1  0  0  0
 47 50  1  0  0  0
 48 49  2  0  0  0
 48 57  1  0  0  0
 50 51  1  0  0  0
 51 52  1  0  0  0
 52 53  1  0  0  0
 53 54  1  0  0  0
 54 55  2  0  0  0
 54 56  1  0  0  0
 57 58  1  0  0  0
 58 59  1  0  0  0
 58 61  1  0  0  0
 59 60  2  0  0  0
 59 64  1  0  0  0
 61 62  1  0  0  0
 61 63  1  0  0  0
 64 65  1  0  0  0
 65 66  1  0  0  0
 65 68  1  0  0  0
 66 67  2  0  0  0
 66 72  1  0  0  0
 68 69  1  0  0  0
 69 70  1  0  0  0
 69 71  2  0  0  0
 72 73  1  0  0  0
 73 74  1  0  0  0
 73 76  1  0  0  0
 74 75  2  0  0  0
 74 83  1  0  0  0
 76 77  1  0  0  0
 77 78  1  0  0  0
 78 79  1  0  0  0
 79 80  1  0  0  0
 80 81  1  0  0  0
 80 82  2  0  0  0
 83 84  1  0  0  0
 84 85  1  0  0  0
 84 87  1  0  0  0
 85 86  2  0  0  0
 85 97  1  0  0  0
 87 88  1  0  0  0
 88 89  4  0  0  0
 88 90  4  0  0  0
 89 91  4  0  0  0
 90 92  4  0  0  0
 90 93  4  0  0  0
 91 92  4  0  0  0
 92 94  4  0  0  0
 93 95  4  0  0  0
 94 96  4  0  0  0
 95 96  4  0  0  0
 97 98  1  0  0  0
 98 99  1  0  0  0
 98101  1  0  0  0
 99100  2  0  0  0
 99109  1  0  0  0
101102  1  0  0  0
102103  4  0  0  0
102104  4  0  0  0
103105  4  0  0  0
104106  4  0  0  0
105107  4  0  0  0
106107  4  0  0  0
107108  1  0  0  0
109110  1  0  0  0
110111  1  0  0  0
110113  1  0  0  0
111112  2  0  0  0
111115  1  0  0  0
113114  1  0  0  0
115116  1  0  0  0
116117  1  0  0  0
116119  1  0  0  0
117118  2  0  0  0
117124  1  0  0  0
119120  1  0  0  0
120121  1  0  0  0
121122  2  0  0  0
121123  1  0  0  0
124125  1  0  0  0
125126  1  0  0  0
125128  1  0  0  0
126127  2  0  0  0
126135  1  0  0  0
128129  1  0  0  0
129130  4  0  0  0
129131  4  0  0  0
130132  4  0  0  0
131133  4  0  0  0
132134  4  0  0  0
133134  4  0  0  0
135136  1  0  0  0
136137  1  0  0  0
136139  1  0  0  0
137138  2  0  0  0
137142  1  0  0  0
139140  1  0  0  0
139141  1  0  0  0
142143  1  0  0  0
143144  1  0  0  0
143146  1  0  0  0
144145  2  0  0  0
144151  1  0  0  0
146147  1  0  0  0
147148  1  0  0  0
148149  2  0  0  0
148150  1  0  0  0
  3152  1  0  0  0
  3153  1  0  0  0
  3154  1  0  0  0
  4155  1  0  0  0
  5156  1  0  0  0
  8157  1  0  0  0
  8158  1  0  0  0
  8159  1  0  0  0
  9160  1  0  0  0
 10161  1  0  0  0
 13162  1  0  0  0
 13163  1  0  0  0
 14164  1  0  0  0
 15165  1  0  0  0
 15166  1  0  0  0
 15167  1  0  0  0
 16168  1  0  0  0
 16169  1  0  0  0
 16170  1  0  0  0
 17171  1  0  0  0
 18172  1  0  0  0
 21173  1  0  0  0
 21174  1  0  0  0
 23175  1  0  0  0
 24176  1  0  0  0
 27177  1  0  0  0
 27178  1  0  0  0
 30179  1  0  0  0
 31180  1  0  0  0
 32181  1  0  0  0
 35182  1  0  0  0
 35183  1  0  0  0
 38184  1  0  0  0
 40185  1  0  0  0
 43186  1  0  0  0
 43187  1  0  0  0
 44188  1  0  0  0
 44189  1  0  0  0
 45190  1  0  0  0
 45191  1  0  0  0
 46192  1  0  0  0
 47193  1  0  0  0
 50194  1  0  0  0
 50195  1  0  0  0
 51196  1  0  0  0
 51197  1  0  0  0
 52198  1  0  0  0
 52199  1  0  0  0
 53200  1  0  0  0
 55201  1  0  0  0
 56202  1  0  0  0
 56203  1  0  0  0
 57204  1  0  0  0
 58205  1  0  0  0
 61206  1  0  0  0
 62207  1  0  0  0
 62208  1  0  0  0
 62209  1  0  0  0
 63210  1  0  0  0
 63211  1  0  0  0
 63212  1  0  0  0
 64213  1  0  0  0
 65214  1  0  0  0
 68215  1  0  0  0
 68216  1  0  0  0
 70217  1  0  0  0
 72218  1  0  0  0
 73219  1  0  0  0
 76220  1  0  0  0
 76221  1  0  0  0
 77222  1  0  0  0
 77223  1  0  0  0
 78224  1  0  0  0
 78225  1  0  0  0
 79226  1  0  0  0
 81227  1  0  0  0
 81228  1  0  0  0
 82229  1  0  0  0
 83230  1  0  0  0
 84231  1  0  0  0
 87232  1  0  0  0
 87233  1  0  0  0
 89234  1  0  0  0
 93235  1  0  0  0
 94236  1  0  0  0
 95237  1  0  0  0
 96238  1  0  0  0
 97239  1  0  0  0
 98240  1  0  0  0
101241  1  0  0  0
101242  1  0  0  0
103243  1  0  0  0
104244  1  0  0  0
105245  1  0  0  0
106246  1  0  0  0
108247  1  0  0  0
109248  1  0  0  0
110249  1  0  0  0
113250  1  0  0  0
113251  1  0  0  0
115252  1  0  0  0
116253  1  0  0  0
119254  1  0  0  0
119255  1  0  0  0
120256  1  0  0  0
120257  1  0  0  0
123258  1  0  0  0
123259  1  0  0  0
124260  1  0  0  0
125261  1  0  0  0
128262  1  0  0  0
128263  1  0  0  0
130264  1  0  0  0
131265  1  0  0  0
132266  1  0  0  0
133267  1  0  0  0
134268  1  0  0  0
135269  1  0  0  0
136270  1  0  0  0
139271  1  0  0  0
140272  1  0  0  0
140273  1  0  0  0
140274  1  0  0  0
141275  1  0  0  0
141276  1  0  0  0
141277  1  0  0  0
142278  1  0  0  0
143279  1  0  0  0
146280  1  0  0  0
146281  1  0  0  0
147282  1  0  0  0
147283  1  0  0  0
150284  1  0  0  0
151285  1  0  0  0
151286  1  0  0  0
M  END
$$$$
