### 
### Created by X-TOOL on Mon Sep 10 21:12:47 2018
### 

@<TRIPOS>MOLECULE
1dva_ligand
  285   290     1     0     0
SMALL
GAST_HUCK


@<TRIPOS>ATOM
      1 C          47.2550    4.8120    3.8300 C.2       1 ACE         0.1751
      2 O          47.9640    5.7440    3.4400 O.2       1 ACE        -0.3972
      3 CH3        47.8340    3.5310    4.3900 C.3       1 ACE         0.0258
      4 N          45.9370    4.8220    3.8110 N.am      1 ALA        -0.2661
      5 CA         45.1180    5.8910    3.2890 C.3       1 ALA         0.1281
      6 C          44.4320    4.9670    2.3130 C.2       1 ALA         0.2036
      7 O          45.0820    4.0910    1.7460 O.2       1 ALA        -0.3944
      8 CB         45.9410    6.9360    2.5410 C.3       1 ALA        -0.0244
      9 N          43.1340    5.1210    2.1260 N.am      1 LEU        -0.2637
     10 CA         42.4260    4.2290    1.2410 C.3       1 LEU         0.1312
     11 C          42.7640    4.5360   -0.2150 C.2       1 LEU         0.2039
     12 O          42.8720    3.6280   -1.0390 O.2       1 LEU        -0.3944
     13 CB         40.9170    4.3310    1.5150 C.3       1 LEU        -0.0101
     14 CG         40.3850    3.7580    2.8450 C.3       1 LEU        -0.0425
     15 CD1        39.2960    2.7640    2.5760 C.3       1 LEU        -0.0625
     16 CD2        41.4810    3.0550    3.6020 C.3       1 LEU        -0.0625
     17 N          42.9720    5.8110   -0.5250 N.am      1 CYS        -0.2629
     18 CA         43.2960    6.2140   -1.8970 C.3       1 CYS         0.1406
     19 C          44.4970    5.4110   -2.4140 C.2       1 CYS         0.2048
     20 O          44.5230    4.9970   -3.5700 O.2       1 CYS        -0.3944
     21 CB         43.5590    7.7460   -1.9490 C.3       1 CYS         0.0443
     22 SG         43.8870    8.5820   -3.5630 S.3       1 CYS        -0.0882
     23 N          45.4800    5.1790   -1.5570 N.am      1 ASP        -0.2621
     24 CA         46.6540    4.4340   -1.9560 C.3       1 ASP         0.1423
     25 C          46.3130    3.1160   -2.6570 C.2       1 ASP         0.2057
     26 O          47.0900    2.6310   -3.4770 O.2       1 ASP        -0.3943
     27 CB         47.5060    4.1340   -0.7280 C.3       1 ASP         0.0406
     28 CG         48.1340    5.3750   -0.1380 C.2       1 ASP         0.0393
     29 OD1        47.9500    6.4670   -0.7210 O.co2     1 ASP        -0.5688
     30 OD2        48.8140    5.2550    0.9100 O.co2     1 ASP        -0.5688
     31 N          45.1440    2.5510   -2.3580 N.am      1 ASP        -0.2621
     32 CA         44.7280    1.2620   -2.9230 C.3       1 ASP         0.1425
     33 C          44.0200    1.3180   -4.2780 C.2       1 ASP         0.2081
     34 O          42.9270    1.8820   -4.4110 O.2       1 ASP        -0.3941
     35 CB         43.8530    0.5410   -1.8980 C.3       1 ASP         0.0406
     36 CG         43.4480   -0.8360   -2.3430 C.2       1 ASP         0.0393
     37 OD1        43.2360   -1.0150   -3.5630 O.co2     1 ASP        -0.5688
     38 OD2        43.3340   -1.7310   -1.4710 O.co2     1 ASP        -0.5688
     39 N          44.6130    0.6770   -5.2900 N.am      1 PRO        -0.2497
     40 CA         44.0710    0.6440   -6.6480 C.3       1 PRO         0.1338
     41 C          42.6500    0.1330   -6.8430 C.2       1 PRO         0.2041
     42 O          41.9460    0.5620   -7.7660 O.2       1 PRO        -0.3944
     43 CB         45.0650   -0.2100   -7.4180 C.3       1 PRO        -0.0104
     44 CG         46.3300   -0.1910   -6.6220 C.3       1 PRO        -0.0281
     45 CD         45.8740   -0.0800   -5.1850 C.3       1 PRO         0.0369
     46 N          42.1870   -0.7610   -5.9900 N.am      1 ARG        -0.2637
     47 CA         40.8410   -1.2680   -6.2360 C.3       1 ARG         0.1311
     48 C          39.7480   -0.4530   -5.5680 C.2       1 ARG         0.2039
     49 O          38.6470   -0.9580   -5.3280 O.2       1 ARG        -0.3944
     50 CB         40.7490   -2.7740   -5.8950 C.3       1 ARG        -0.0092
     51 CG         40.5940   -3.1270   -4.4370 C.3       1 ARG        -0.0156
     52 CD         41.6380   -4.1430   -3.9580 C.3       1 ARG         0.0627
     53 NE         41.9110   -3.8870   -2.5400 N.pl3     1 ARG        -0.2723
     54 CZ         41.7620   -4.7700   -1.5500 C.cat     1 ARG         0.2882
     55 NH1        41.3250   -5.9990   -1.7990 N.pl3     1 ARG        -0.2849
     56 NH2        41.9990   -4.4030   -0.2900 N.pl3     1 ARG        -0.2849
     57 N          40.0510    0.8220   -5.3050 N.am      1 VAL        -0.2635
     58 CA         39.0780    1.6770   -4.6380 C.3       1 VAL         0.1333
     59 C          38.4300    2.7920   -5.4310 C.2       1 VAL         0.2042
     60 O          39.0410    3.4100   -6.3080 O.2       1 VAL        -0.3944
     61 CB         39.6480    2.3720   -3.4200 C.3       1 VAL        -0.0063
     62 CG1        38.5240    3.0220   -2.6290 C.3       1 VAL        -0.0584
     63 CG2        40.3950    1.3870   -2.5580 C.3       1 VAL        -0.0584
     64 N          37.1850    3.0730   -5.0760 N.am      1 ASP        -0.2622
     65 CA         36.4610    4.1420   -5.7020 C.3       1 ASP         0.1423
     66 C          37.3770    5.3230   -5.5730 C.2       1 ASP         0.2056
     67 O          37.8480    5.6010   -4.4780 O.2       1 ASP        -0.3943
     68 CB         35.2040    4.4430   -4.9360 C.3       1 ASP         0.0406
     69 CG         34.5020    5.6290   -5.4870 C.2       1 ASP         0.0393
     70 OD1        35.0140    6.2220   -6.4700 O.co2     1 ASP        -0.5688
     71 OD2        33.4410    5.9640   -4.9430 O.co2     1 ASP        -0.5688
     72 N          37.5990    6.0440   -6.6610 N.am      1 ARG        -0.2636
     73 CA         38.5230    7.1620   -6.5990 C.3       1 ARG         0.1311
     74 C          38.0290    8.3620   -5.7980 C.2       1 ARG         0.2040
     75 O          38.7550    9.3380   -5.5710 O.2       1 ARG        -0.3944
     76 CB         38.9110    7.5420   -8.0150 C.3       1 ARG        -0.0092
     77 CG         39.5750    6.3670   -8.7450 C.3       1 ARG        -0.0156
     78 CD         41.0770    6.2270   -8.4020 C.3       1 ARG         0.0627
     79 NE         41.3310    6.1320   -6.9630 N.pl3     1 ARG        -0.2723
     80 CZ         42.3080    5.4090   -6.4140 C.cat     1 ARG         0.2882
     81 NH1        43.1380    4.7080   -7.1770 N.pl3     1 ARG        -0.2849
     82 NH2        42.4570    5.3700   -5.1010 N.pl3     1 ARG        -0.2849
     83 N          36.7960    8.2460   -5.3300 N.am      1 TRP        -0.2627
     84 CA         36.1280    9.2670   -4.5270 C.3       1 TRP         0.1352
     85 C          36.7920    9.3580   -3.1770 C.2       1 TRP         0.2053
     86 O          36.7290   10.3750   -2.4860 O.2       1 TRP        -0.3942
     87 CB         34.6850    8.8340   -4.3370 C.3       1 TRP         0.0042
     88 CG         33.8180    9.6330   -3.4320 C.2       1 TRP        -0.0418
     89 CD1        32.9910   10.6520   -3.8040 C.2       1 TRP         0.0167
     90 CD2        33.4670    9.3100   -2.0830 C.ar      1 TRP        -0.0214
     91 NE1        32.1320   10.9670   -2.7870 N.pl3     1 TRP        -0.2890
     92 CE2        32.3950   10.1570   -1.7150 C.ar      1 TRP         0.0603
     93 CE3        33.9370    8.3760   -1.1520 C.ar      1 TRP        -0.0747
     94 CZ2        31.7890   10.1080   -0.4430 C.ar      1 TRP        -0.0443
     95 CZ3        33.3330    8.3250    0.1210 C.ar      1 TRP        -0.0792
     96 CH2        32.2670    9.1870    0.4550 C.ar      1 TRP        -0.0768
     97 N          37.4300    8.2690   -2.8060 N.am      1 TYR        -0.2620
     98 CA         38.0510    8.2140   -1.5280 C.3       1 TYR         0.1390
     99 C          39.3460    8.9910   -1.5010 C.2       1 TYR         0.2058
    100 O          40.0780    8.9490   -0.5030 O.2       1 TYR        -0.3942
    101 CB         38.2480    6.7450   -1.1570 C.3       1 TYR         0.0163
    102 CG         37.0210    6.1630   -0.5160 C.ar      1 TYR        -0.0493
    103 CD1        35.9610    5.7340   -1.2830 C.ar      1 TYR        -0.0685
    104 CD2        36.8750    6.1420    0.8840 C.ar      1 TYR        -0.0685
    105 CE1        34.7980    5.3090   -0.6840 C.ar      1 TYR        -0.0398
    106 CE2        35.7080    5.7150    1.4730 C.ar      1 TYR        -0.0398
    107 CZ         34.6970    5.3100    0.6770 C.ar      1 TYR         0.0805
    108 OH         33.5580    4.8580    1.2220 O.3       1 TYR        -0.3376
    109 N          39.6340    9.7090   -2.5860 N.am      1 CYS        -0.2628
    110 CA         40.8820   10.4720   -2.6640 C.3       1 CYS         0.1406
    111 C          40.7130   11.8990   -2.2490 C.2       1 CYS         0.2047
    112 O          41.6680   12.5520   -1.8680 O.2       1 CYS        -0.3944
    113 CB         41.4620   10.4320   -4.0680 C.3       1 CYS         0.0443
    114 SG         42.0840    8.7890   -4.5130 S.3       1 CYS        -0.0882
    115 N          39.4890   12.3850   -2.3240 N.am      1 GLN        -0.2636
    116 CA         39.2310   13.7500   -1.9250 C.3       1 GLN         0.1330
    117 C          39.5610   13.9130   -0.4510 C.2       1 GLN         0.2042
    118 O          39.7280   15.0230    0.0270 O.2       1 GLN        -0.3944
    119 CB         37.7630   14.1110   -2.1360 C.3       1 GLN         0.0045
    120 CG         36.9090   13.8150   -0.9160 C.3       1 GLN         0.0412
    121 CD         35.4380   14.0040   -1.1670 C.2       1 GLN         0.1737
    122 OE1        34.8800   15.0830   -0.9440 O.2       1 GLN        -0.3973
    123 NE2        34.7910   12.9510   -1.6290 N.am      1 GLN        -0.3009
    124 N          39.6680   12.8240    0.2870 N.am      1 PHE        -0.2619
    125 CA         39.9200   12.9930    1.7000 C.3       1 PHE         0.1404
    126 C          41.3340   12.7400    2.0870 C.2       1 PHE         0.2060
    127 O          41.6090   12.5860    3.2640 O.2       1 PHE        -0.3942
    128 CB         39.0150   12.0870    2.5310 C.3       1 PHE         0.0214
    129 CG         37.6260   11.8950    1.9540 C.ar      1 PHE        -0.0386
    130 CD1        37.3750   10.9220    0.9920 C.ar      1 PHE        -0.0601
    131 CD2        36.5650   12.6560    2.4090 C.ar      1 PHE        -0.0601
    132 CE1        36.1110   10.7140    0.5120 C.ar      1 PHE        -0.0686
    133 CE2        35.2820   12.4470    1.9190 C.ar      1 PHE        -0.0686
    134 CZ         35.0600   11.4760    0.9770 C.ar      1 PHE        -0.0687
    135 N          42.2490   12.7260    1.1240 N.am      1 VAL        -0.2633
    136 CA         43.6460   12.4590    1.4630 C.3       1 VAL         0.1333
    137 C          44.5600   13.6580    1.5570 C.2       1 VAL         0.2042
    138 O          44.7880   14.2250    2.6410 O.2       1 VAL        -0.3944
    139 CB         44.3110   11.5350    0.4650 C.3       1 VAL        -0.0063
    140 CG1        45.2630   10.6060    1.2140 C.3       1 VAL        -0.0584
    141 CG2        43.2630   10.7920   -0.3380 C.3       1 VAL        -0.0584
    142 N          45.1200   13.9990    0.4000 N.am      1 GLU        -0.2636
    143 CA         46.0360   15.1120    0.2550 C.3       1 GLU         0.1321
    144 C          45.1060   16.2920    0.2320 C.2       1 GLU         0.1993
    145 O          43.9420   16.0590   -0.1750 O.2       1 GLU        -0.3947
    146 CB         46.7780   14.9960   -1.0730 C.3       1 GLU        -0.0008
    147 CG         48.1900   15.5280   -1.0620 C.3       1 GLU         0.0044
    148 CD         48.7430   15.7440   -2.4720 C.2       1 GLU         0.0350
    149 OE1        47.9480   15.6340   -3.4360 O.co2     1 GLU        -0.5690
    150 OE2        49.9640   16.0210   -2.6180 O.co2     1 GLU        -0.5690
    151 N          45.5220   17.4020    0.6340 N.am      1 GLY        -0.2990
    152 H1         47.0162    2.8507    4.6700 H         1 ACE         0.0467
    153 H2         48.4406    3.7604    5.2785 H         1 ACE         0.0467
    154 H3         48.4660    3.0506    3.6286 H         1 ACE         0.0467
    155 H4         45.4660    4.0248    4.1886 H         1 ALA         0.1882
    156 H5         44.4549    6.3638    4.0284 H         1 ALA         0.0797
    157 H6         45.2750    7.7261    2.1641 H         1 ALA         0.0277
    158 H7         46.4587    6.4588    1.6959 H         1 ALA         0.0277
    159 H8         46.6824    7.3764    3.2239 H         1 ALA         0.0277
    160 H9         42.6432    5.8541    2.5967 H         1 LEU         0.1883
    161 H10        42.7459    3.1984    1.4543 H         1 LEU         0.0800
    162 H11        40.3996    3.8029    0.7005 H         1 LEU         0.0315
    163 H12        40.6504    5.3978    1.4879 H         1 LEU         0.0315
    164 H13        39.9888    4.5818    3.4569 H         1 LEU         0.0298
    165 H14        38.9234    2.3614    3.5294 H         1 LEU         0.0232
    166 H15        39.6929    1.9427    1.9613 H         1 LEU         0.0232
    167 H16        38.4725    3.2584    2.0400 H         1 LEU         0.0232
    168 H17        42.2947    3.7647    3.8124 H         1 LEU         0.0232
    169 H18        41.8684    2.2219    2.9971 H         1 LEU         0.0232
    170 H19        41.0805    2.6651    4.5494 H         1 LEU         0.0232
    171 H20        42.9065    6.5076    0.1895 H         1 CYS         0.1884
    172 H21        42.4321    5.9914   -2.5405 H         1 CYS         0.0808
    173 H22        44.4336    7.9383   -1.3102 H         1 CYS         0.0432
    174 H23        42.6736    8.2335   -1.5150 H         1 CYS         0.0432
    175 H24        45.4095    5.5237   -0.6209 H         1 ASP         0.1884
    176 H25        47.2356    5.0558   -2.6525 H         1 ASP         0.0819
    177 H26        48.3069    3.4374   -1.0167 H         1 ASP         0.0478
    178 H27        46.8693    3.6643    0.0362 H         1 ASP         0.0478
    179 H28        44.5283    3.0219   -1.7262 H         1 ASP         0.1884
    180 H29        45.6416    0.6674   -3.0704 H         1 ASP         0.0819
    181 H30        42.9441    1.1375   -1.7304 H         1 ASP         0.0478
    182 H31        44.4140    0.4548   -0.9558 H         1 ASP         0.0478
    183 H32        44.0907    1.6704   -7.0430 H         1 PRO         0.0802
    184 H33        45.2371    0.2128   -8.4188 H         1 PRO         0.0313
    185 H34        44.6899   -1.2395   -7.5144 H         1 PRO         0.0313
    186 H35        46.9511    0.6732   -6.9002 H         1 PRO         0.0287
    187 H36        46.9009   -1.1182   -6.7778 H         1 PRO         0.0287
    188 H37        45.7019   -1.0746   -4.7477 H         1 PRO         0.0524
    189 H38        46.6119    0.4648   -4.5779 H         1 PRO         0.0524
    190 H39        42.7320   -1.0757   -5.2129 H         1 ARG         0.1883
    191 H40        40.6687   -1.1790   -7.3188 H         1 ARG         0.0800
    192 H41        41.6684   -3.2556   -6.2592 H         1 ARG         0.0313
    193 H42        39.8819   -3.1857   -6.4322 H         1 ARG         0.0313
    194 H43        39.5919   -3.5536   -4.2832 H         1 ARG         0.0301
    195 H44        40.6973   -2.2089   -3.8400 H         1 ARG         0.0301
    196 H45        42.5634   -4.0290   -4.5416 H         1 ARG         0.0689
    197 H46        41.2487   -5.1641   -4.0836 H         1 ARG         0.0689
    198 H47        42.2460   -2.9465   -2.2866 H         1 ARG         0.2642
    199 H48        41.2138   -6.6722   -1.0274 H         1 ARG         0.2615
    200 H49        41.0973   -6.2790   -2.7637 H         1 ARG         0.2615
    201 H50        42.3381   -3.4521   -0.0857 H         1 ARG         0.2615
    202 H51        41.8429   -5.0704    0.4788 H         1 ARG         0.2615
    203 H52        40.9442    1.1885   -5.5657 H         1 VAL         0.1883
    204 H53        38.2729    1.0044   -4.3074 H         1 VAL         0.0802
    205 H54        40.3478    3.1534   -3.7511 H         1 VAL         0.0343
    206 H55        38.9417    3.5259   -1.7449 H         1 VAL         0.0234
    207 H56        37.8083    2.2510   -2.3076 H         1 VAL         0.0234
    208 H57        38.0089    3.7594   -3.2621 H         1 VAL         0.0234
    209 H58        41.2037    0.9262   -3.1443 H         1 VAL         0.0234
    210 H59        39.7032    0.6057   -2.2102 H         1 VAL         0.0234
    211 H60        40.8234    1.9101   -1.6904 H         1 VAL         0.0234
    212 H61        36.7430    2.5317   -4.3607 H         1 ASP         0.1884
    213 H62        36.2304    3.9119   -6.7526 H         1 ASP         0.0819
    214 H63        35.4638    4.6378   -3.8850 H         1 ASP         0.0478
    215 H64        34.5337    3.5727   -4.9928 H         1 ASP         0.0478
    216 H65        37.1344    5.8205   -7.5178 H         1 ARG         0.1883
    217 H66        39.4298    6.8028   -6.0904 H         1 ARG         0.0800
    218 H67        39.6156    8.3860   -7.9793 H         1 ARG         0.0313
    219 H68        38.0074    7.8417   -8.5661 H         1 ARG         0.0313
    220 H69        39.4742    6.5233   -9.8292 H         1 ARG         0.0301
    221 H70        39.0601    5.4380   -8.4590 H         1 ARG         0.0301
    222 H71        41.6091    7.1062   -8.7941 H         1 ARG         0.0689
    223 H72        41.4636    5.3182   -8.8865 H         1 ARG         0.0689
    224 H73        40.7123    6.6601   -6.3311 H         1 ARG         0.2642
    225 H74        43.8898    4.1523   -6.7447 H         1 ARG         0.2615
    226 H75        43.0301    4.7198   -8.2013 H         1 ARG         0.2615
    227 H76        41.8217    5.9079   -4.4944 H         1 ARG         0.2615
    228 H77        43.2084    4.8017   -4.6846 H         1 ARG         0.2615
    229 H78        36.2913    7.4084   -5.5390 H         1 TRP         0.1884
    230 H79        36.1721   10.2414   -5.0354 H         1 TRP         0.0815
    231 H80        34.7033    7.8063   -3.9453 H         1 TRP         0.0397
    232 H81        34.2109    8.8398   -5.3295 H         1 TRP         0.0397
    233 H82        33.0117   11.1456   -4.7745 H         1 TRP         0.0795
    234 H83        31.4049   11.6957   -2.8221 H         1 TRP         0.2216
    235 H84        34.7498    7.7048   -1.4050 H         1 TRP         0.0540
    236 H85        30.9743   10.7743   -0.1835 H         1 TRP         0.0541
    237 H86        33.6931    7.6126    0.8544 H         1 TRP         0.0510
    238 H87        31.8173    9.1205    1.4391 H         1 TRP         0.0530
    239 H88        37.4781    7.4820   -3.4211 H         1 TYR         0.1885
    240 H89        37.3731    8.6695   -0.7911 H         1 TYR         0.0821
    241 H90        39.0895    6.6651   -0.4531 H         1 TYR         0.0453
    242 H91        38.4777    6.1749   -2.0693 H         1 TYR         0.0453
    243 H92        36.0434    5.7312   -2.3639 H         1 TYR         0.0530
    244 H93        37.6979    6.4685    1.5095 H         1 TYR         0.0530
    245 H94        33.9645    4.9744   -1.2909 H         1 TYR         0.0525
    246 H95        35.6030    5.7041    2.5518 H         1 TYR         0.0525
    247 H96        32.9526    4.6148    0.5315 H         1 TYR         0.2458
    248 H97        38.9929    9.7271   -3.3533 H         1 CYS         0.1884
    249 H98        41.6025   10.0015   -1.9787 H         1 CYS         0.0808
    250 H99        42.2916   11.1518   -4.1280 H         1 CYS         0.0432
    251 H100       40.6763   10.7176   -4.7829 H         1 CYS         0.0432
    252 H101       38.7412   11.8102   -2.6562 H         1 GLN         0.1883
    253 H102       39.8611   14.4258   -2.5218 H         1 GLN         0.0801
    254 H103       37.3759   13.5306   -2.9864 H         1 GLN         0.0337
    255 H104       37.6932   15.1851   -2.3630 H         1 GLN         0.0337
    256 H105       37.2149   14.4890   -0.1023 H         1 GLN         0.0504
    257 H106       37.0813   12.7719   -0.6124 H         1 GLN         0.0504
    258 H107       33.8106   13.0095   -1.8172 H         1 GLN         0.1814
    259 H108       35.2810   12.0945   -1.7910 H         1 GLN         0.1814
    260 H109       39.5779   11.9139   -0.1174 H         1 PHE         0.1885
    261 H110       39.6855   14.0379    1.9512 H         1 PHE         0.0823
    262 H111       38.9137   12.5274    3.5339 H         1 PHE         0.0474
    263 H112       39.4945   11.1002    2.6105 H         1 PHE         0.0474
    264 H113       38.1940   10.3191    0.6168 H         1 PHE         0.0557
    265 H114       36.7360   13.4233    3.1554 H         1 PHE         0.0557
    266 H115       35.9353    9.9487   -0.2353 H         1 PHE         0.0599
    267 H116       34.4577   13.0508    2.2809 H         1 PHE         0.0599
    268 H117       34.0586   11.3073    0.5978 H         1 PHE         0.0559
    269 H118       41.9844   12.8967    0.1749 H         1 VAL         0.1883
    270 H119       43.6376   11.9663    2.4464 H         1 VAL         0.0802
    271 H120       44.9049   12.1408   -0.2352 H         1 VAL         0.0343
    272 H121       45.7529    9.9289    0.4988 H         1 VAL         0.0234
    273 H122       44.6964   10.0154    1.9489 H         1 VAL         0.0234
    274 H123       46.0257   11.2042    1.7339 H         1 VAL         0.0234
    275 H124       42.6126   11.5159   -0.8508 H         1 VAL         0.0234
    276 H125       42.6576   10.1690    0.3368 H         1 VAL         0.0234
    277 H126       43.7578   10.1517   -1.0831 H         1 VAL         0.0234
    278 H127       44.8973   13.4593   -0.4119 H         1 GLU         0.1883
    279 H128       46.7502   15.1695    1.0896 H         1 GLU         0.0801
    280 H129       46.2091   15.5533   -1.8318 H         1 GLU         0.0330
    281 H130       46.8161   13.9324   -1.3511 H         1 GLU         0.0330
    282 H131       48.8346   14.8082   -0.5362 H         1 GLU         0.0433
    283 H132       48.2012   16.4891   -0.5272 H         1 GLU         0.0433
    284 H133       44.9150   18.1966    0.6248 H         1 GLY         0.1815
    285 H134       46.4614   17.4942    0.9643 H         1 GLY         0.1815
@<TRIPOS>BOND
     1    1    2 2  
     2    1    3 1  
     3    1    4 am 
     4    4    5 1  
     5    5    6 1  
     6    5    8 1  
     7    6    7 2  
     8    6    9 am 
     9    9   10 1  
    10   10   11 1  
    11   10   13 1  
    12   11   12 2  
    13   11   17 am 
    14   13   14 1  
    15   14   15 1  
    16   14   16 1  
    17   17   18 1  
    18   18   19 1  
    19   18   21 1  
    20   19   20 2  
    21   19   23 am 
    22   21   22 1  
    23   22  114 1  
    24   23   24 1  
    25   24   25 1  
    26   24   27 1  
    27   25   26 2  
    28   25   31 am 
    29   27   28 1  
    30   28   29 ar 
    31   28   30 ar 
    32   31   32 1  
    33   32   33 1  
    34   32   35 1  
    35   33   34 2  
    36   33   39 am 
    37   35   36 1  
    38   36   37 ar 
    39   36   38 ar 
    40   39   40 1  
    41   39   45 1  
    42   40   41 1  
    43   40   43 1  
    44   41   42 2  
    45   41   46 am 
    46   43   44 1  
    47   44   45 1  
    48   46   47 1  
    49   47   48 1  
    50   47   50 1  
    51   48   49 2  
    52   48   57 am 
    53   50   51 1  
    54   51   52 1  
    55   52   53 1  
    56   53   54 ar 
    57   54   55 ar 
    58   54   56 ar 
    59   57   58 1  
    60   58   59 1  
    61   58   61 1  
    62   59   60 2  
    63   59   64 am 
    64   61   62 1  
    65   61   63 1  
    66   64   65 1  
    67   65   66 1  
    68   65   68 1  
    69   66   67 2  
    70   66   72 am 
    71   68   69 1  
    72   69   70 ar 
    73   69   71 ar 
    74   72   73 1  
    75   73   74 1  
    76   73   76 1  
    77   74   75 2  
    78   74   83 am 
    79   76   77 1  
    80   77   78 1  
    81   78   79 1  
    82   79   80 ar 
    83   80   81 ar 
    84   80   82 ar 
    85   83   84 1  
    86   84   85 1  
    87   84   87 1  
    88   85   86 2  
    89   85   97 am 
    90   87   88 1  
    91   88   89 2  
    92   88   90 1  
    93   89   91 1  
    94   90   92 ar 
    95   90   93 ar 
    96   91   92 1  
    97   92   94 ar 
    98   93   95 ar 
    99   94   96 ar 
   100   95   96 ar 
   101   97   98 1  
   102   98   99 1  
   103   98  101 1  
   104   99  100 2  
   105   99  109 am 
   106  101  102 1  
   107  102  103 ar 
   108  102  104 ar 
   109  103  105 ar 
   110  104  106 ar 
   111  105  107 ar 
   112  106  107 ar 
   113  107  108 1  
   114  109  110 1  
   115  110  111 1  
   116  110  113 1  
   117  111  112 2  
   118  111  115 am 
   119  113  114 1  
   120  115  116 1  
   121  116  117 1  
   122  116  119 1  
   123  117  118 2  
   124  117  124 am 
   125  119  120 1  
   126  120  121 1  
   127  121  122 2  
   128  121  123 am 
   129  124  125 1  
   130  125  126 1  
   131  125  128 1  
   132  126  127 2  
   133  126  135 am 
   134  128  129 1  
   135  129  130 ar 
   136  129  131 ar 
   137  130  132 ar 
   138  131  133 ar 
   139  132  134 ar 
   140  133  134 ar 
   141  135  136 1  
   142  136  137 1  
   143  136  139 1  
   144  137  138 2  
   145  137  142 am 
   146  139  140 1  
   147  139  141 1  
   148  142  143 1  
   149  143  144 1  
   150  143  146 1  
   151  144  145 2  
   152  144  151 am 
   153  146  147 1  
   154  147  148 1  
   155  148  149 ar 
   156  148  150 ar 
   157    3  152 1  
   158    3  153 1  
   159    3  154 1  
   160    4  155 1  
   161    5  156 1  
   162    8  157 1  
   163    8  158 1  
   164    8  159 1  
   165    9  160 1  
   166   10  161 1  
   167   13  162 1  
   168   13  163 1  
   169   14  164 1  
   170   15  165 1  
   171   15  166 1  
   172   15  167 1  
   173   16  168 1  
   174   16  169 1  
   175   16  170 1  
   176   17  171 1  
   177   18  172 1  
   178   21  173 1  
   179   21  174 1  
   180   23  175 1  
   181   24  176 1  
   182   27  177 1  
   183   27  178 1  
   184   31  179 1  
   185   32  180 1  
   186   35  181 1  
   187   35  182 1  
   188   40  183 1  
   189   43  184 1  
   190   43  185 1  
   191   44  186 1  
   192   44  187 1  
   193   45  188 1  
   194   45  189 1  
   195   46  190 1  
   196   47  191 1  
   197   50  192 1  
   198   50  193 1  
   199   51  194 1  
   200   51  195 1  
   201   52  196 1  
   202   52  197 1  
   203   53  198 1  
   204   55  199 1  
   205   55  200 1  
   206   56  201 1  
   207   56  202 1  
   208   57  203 1  
   209   58  204 1  
   210   61  205 1  
   211   62  206 1  
   212   62  207 1  
   213   62  208 1  
   214   63  209 1  
   215   63  210 1  
   216   63  211 1  
   217   64  212 1  
   218   65  213 1  
   219   68  214 1  
   220   68  215 1  
   221   72  216 1  
   222   73  217 1  
   223   76  218 1  
   224   76  219 1  
   225   77  220 1  
   226   77  221 1  
   227   78  222 1  
   228   78  223 1  
   229   79  224 1  
   230   81  225 1  
   231   81  226 1  
   232   82  227 1  
   233   82  228 1  
   234   83  229 1  
   235   84  230 1  
   236   87  231 1  
   237   87  232 1  
   238   89  233 1  
   239   91  234 1  
   240   93  235 1  
   241   94  236 1  
   242   95  237 1  
   243   96  238 1  
   244   97  239 1  
   245   98  240 1  
   246  101  241 1  
   247  101  242 1  
   248  103  243 1  
   249  104  244 1  
   250  105  245 1  
   251  106  246 1  
   252  108  247 1  
   253  109  248 1  
   254  110  249 1  
   255  113  250 1  
   256  113  251 1  
   257  115  252 1  
   258  116  253 1  
   259  119  254 1  
   260  119  255 1  
   261  120  256 1  
   262  120  257 1  
   263  123  258 1  
   264  123  259 1  
   265  124  260 1  
   266  125  261 1  
   267  128  262 1  
   268  128  263 1  
   269  130  264 1  
   270  131  265 1  
   271  132  266 1  
   272  133  267 1  
   273  134  268 1  
   274  135  269 1  
   275  136  270 1  
   276  139  271 1  
   277  140  272 1  
   278  140  273 1  
   279  140  274 1  
   280  141  275 1  
   281  141  276 1  
   282  141  277 1  
   283  142  278 1  
   284  143  279 1  
   285  146  280 1  
   286  146  281 1  
   287  147  282 1  
   288  147  283 1  
   289  151  284 1  
   290  151  285 1  
@<TRIPOS>SUBSTRUCTURE
     1 ACE         1

