4zw7_ligand
  -I-interpret- 

 47 48  0  0  0  0  0  0  0  0999 V2000
   93.2300  117.3970  128.0860 C   0  0  0  0  0
   91.8680  117.9910  127.6660 C   0  0  0  0  0
   90.9830  116.8900  127.0680 C   0  0  0  0  0
   92.0680  119.0920  126.6060 C   0  0  0  0  0
   91.1560  118.4680  128.8310 O   0  0  0  0  0
   91.5930  119.5410  129.5710 C   0  0  0  0  0
   92.7170  120.0160  129.4360 O   0  0  0  0  0
   90.7640  120.0770  130.4850 N   0  0  0  0  0
   89.3930  119.5930  130.6970 C   0  0  0  0  0
   88.5050  120.1230  129.5720 C   0  0  0  0  0
   87.5290  119.4840  129.1960 O   0  0  0  0  0
   88.9330  121.2780  129.0440 N   0  0  0  0  0
   88.1740  121.9030  127.9860 O   0  0  0  0  0
   88.9850  120.0190  131.9610 C   0  0  0  0  0
   88.8280  119.0390  132.9310 C   0  0  0  0  0
   88.4570  119.3740  134.2240 C   0  0  0  0  0
   88.7970  121.3700  132.2850 C   0  0  0  0  0
   88.4280  121.7140  133.5950 C   0  0  0  0  0
   88.2350  120.7060  134.5500 C   0  0  0  0  0
   87.9340  120.9820  135.8820 C   0  0  0  0  0
   88.8570  121.7850  136.5720 C   0  0  0  0  0
   88.6640  122.0750  137.9190 C   0  0  0  0  0
   89.5630  122.8680  138.6270 F   0  0  0  0  0
   87.5570  121.5640  138.5740 C   0  0  0  0  0
   87.3450  121.8550  139.8790 F   0  0  0  0  0
   86.6500  120.7600  137.9000 C   0  0  0  0  0
   85.6310  120.3040  138.5630 F   0  0  0  0  0
   86.8340  120.4510  136.5500 C   0  0  0  0  0
   93.8237  118.1663  128.5798 H   0  0  0  0  0
   93.0665  116.5661  128.7722 H   0  0  0  0  0
   93.7579  117.0408  127.2014 H   0  0  0  0  0
   90.8448  116.0973  127.8033 H   0  0  0  0  0
   90.0141  117.3106  126.7988 H   0  0  0  0  0
   91.4634  116.4825  126.1785 H   0  0  0  0  0
   91.0957  119.4605  126.2788 H   0  0  0  0  0
   92.6417  119.9115  127.0390 H   0  0  0  0  0
   92.6075  118.6799  125.7533 H   0  0  0  0  0
   91.1016  120.8525  131.0551 H   0  0  0  0  0
   89.3271  118.5054  130.6685 H   0  0  0  0  0
   89.7894  121.7130  129.3872 H   0  0  0  0  0
   88.6091  122.7159  127.7188 H   0  0  0  0  0
   88.9984  117.9937  132.6732 H   0  0  0  0  0
   88.3402  118.5974  134.9799 H   0  0  0  0  0
   88.9356  122.1433  131.5294 H   0  0  0  0  0
   88.2921  122.7603  133.8685 H   0  0  0  0  0
   89.7276  122.1824  136.0503 H   0  0  0  0  0
   86.1280  119.8048  136.0284 H   0  0  0  0  0
  1  2  1  0  0  0
  2  3  1  0  0  0
  2  4  1  0  0  0
  2  5  1  0  0  0
  5  6  1  0  0  0
  6  7  2  0  0  0
  6  8  1  0  0  0
  8  9  1  0  0  0
  9 10  1  0  0  0
  9 14  1  0  0  0
 10 11  2  0  0  0
 10 12  1  0  0  0
 12 13  1  0  0  0
 14 15  4  0  0  0
 14 17  4  0  0  0
 15 16  4  0  0  0
 16 19  4  0  0  0
 17 18  4  0  0  0
 18 19  4  0  0  0
 19 20  1  0  0  0
 20 21  4  0  0  0
 20 28  4  0  0  0
 21 22  4  0  0  0
 22 23  1  0  0  0
 22 24  4  0  0  0
 24 25  1  0  0  0
 24 26  4  0  0  0
 26 27  1  0  0  0
 26 28  4  0  0  0
  1 29  1  0  0  0
  1 30  1  0  0  0
  1 31  1  0  0  0
  3 32  1  0  0  0
  3 33  1  0  0  0
  3 34  1  0  0  0
  4 35  1  0  0  0
  4 36  1  0  0  0
  4 37  1  0  0  0
  8 38  1  0  0  0
  9 39  1  0  0  0
 12 40  1  0  0  0
 13 41  1  0  0  0
 15 42  1  0  0  0
 16 43  1  0  0  0
 17 44  1  0  0  0
 18 45  1  0  0  0
 21 46  1  0  0  0
 28 47  1  0  0  0
M  END
$$$$
