1o9e_ligand
  -I-interpret- 

104107  0  0  0  0  0  0  0  0999 V2000
   35.6590   49.1930   38.0610 C   0  0  0  0  0
   36.4920   50.1180   37.5040 C   0  0  0  0  0
   36.2070   51.6230   37.4270 C   0  0  0  0  0
   35.9240   52.0570   35.9870 C   0  0  0  0  0
   37.3930   52.4140   37.9720 C   0  0  0  0  0
   36.9210   53.6560   38.4990 O   0  0  0  0  0
   37.7960   54.4870   39.1150 C   0  0  0  0  0
   38.6440   54.0460   39.8750 O   0  0  0  0  0
   37.7160   55.9680   38.8690 C   0  0  0  0  0
   37.7300   49.4310   36.9420 C   0  0  0  0  0
   37.4690   47.9100   37.0180 C   0  0  0  0  0
   37.7500   47.2570   35.7690 O   0  0  0  0  0
   35.9890   47.8130   37.4870 C   0  0  0  0  0
   35.8440   46.7170   38.5520 C   0  0  0  0  0
   35.1460   47.3290   36.3110 C   0  0  0  0  0
   34.0440   47.8220   35.6870 C   0  0  0  0  0
   33.6080   47.1000   34.4270 C   0  0  0  0  0
   32.8500   45.8050   34.7500 C   0  0  0  0  0
   33.0130   44.8670   33.6860 O   0  0  0  0  0
   32.2570   43.6790   33.9150 C   0  0  0  0  0
   32.7160   48.0930   33.6660 C   0  0  0  0  0
   32.1060   49.0140   34.7470 C   0  0  0  0  0
   33.1010   49.0110   35.9180 C   0  0  0  0  0
   32.3800   49.0790   37.3340 C   0  0  0  0  0
   32.0750   47.7100   37.9640 C   0  0  0  0  0
   33.1390   49.9830   38.3780 C   0  0  0  0  0
   32.2450   50.2480   39.4560 O   0  0  0  0  0
   34.4640   49.4110   39.0190 C   0  0  0  0  0
   34.8820   50.3460   40.0340 O   0  0  0  0  0
   34.9630   49.8610   41.4040 C   0  0  0  0  0
   36.2230   49.1290   41.6190 O   0  0  0  0  0
   37.4510   49.9450   41.5300 C   0  0  0  0  0
   37.3750   51.2980   42.3260 C   0  0  0  0  0
   38.5100   52.1010   41.9930 O   0  0  0  0  0
   36.0570   52.0020   41.9240 C   0  0  0  0  0
   35.8930   53.4040   42.3160 O   0  0  0  0  0
   35.9270   53.8480   43.5980 C   0  0  0  0  0
   36.9920   54.1850   44.0910 O   0  0  0  0  0
   34.6420   53.9700   44.4010 C   0  0  0  0  0
   34.8800   51.0810   42.3540 C   0  0  0  0  0
   33.6310   51.7460   42.1640 O   0  0  0  0  0
   38.6510   49.1170   42.0000 C   0  0  0  0  0
   38.2970   48.3300   43.1690 O   0  0  0  0  0
   39.0400   47.1100   43.4980 C   0  0  0  0  0
   39.0280   46.1390   42.3090 C   0  0  0  0  0
   38.3790   46.4140   44.6960 C   0  0  0  0  0
   40.5000   47.4390   43.8450 C   0  0  0  0  0
   40.8270   48.4140   44.7290 C   0  0  0  0  0
   35.3240   51.8267   38.0327 H   0  0  0  0  0
   35.6911   53.1217   35.9689 H   0  0  0  0  0
   36.8032   51.8656   35.3718 H   0  0  0  0  0
   35.0769   51.4918   35.5983 H   0  0  0  0  0
   38.1083   52.6024   37.1714 H   0  0  0  0  0
   37.8846   51.8434   38.7599 H   0  0  0  0  0
   37.5244   56.4817   39.8111 H   0  0  0  0  0
   38.6594   56.3167   38.4489 H   0  0  0  0  0
   36.9064   56.1756   38.1693 H   0  0  0  0  0
   38.6171   49.7013   37.5148 H   0  0  0  0  0
   37.9129   49.7421   35.9135 H   0  0  0  0  0
   38.1276   47.3852   37.7101 H   0  0  0  0  0
   37.5768   46.3167   35.8547 H   0  0  0  0  0
   36.1498   45.7596   38.1302 H   0  0  0  0  0
   36.4759   46.9572   39.4071 H   0  0  0  0  0
   34.8038   46.6588   38.8723 H   0  0  0  0  0
   35.5019   46.3924   35.8818 H   0  0  0  0  0
   34.4678   46.7954   33.8302 H   0  0  0  0  0
   31.7904   46.0299   34.8713 H   0  0  0  0  0
   33.2469   45.3766   35.6703 H   0  0  0  0  0
   32.5895   43.2113   34.8417 H   0  0  0  0  0
   31.1997   43.9321   33.9933 H   0  0  0  0  0
   32.4062   42.9891   33.0844 H   0  0  0  0  0
   31.9417   47.5787   33.0967 H   0  0  0  0  0
   33.2877   48.6623   32.9330 H   0  0  0  0  0
   31.1254   48.6570   35.0617 H   0  0  0  0  0
   31.9506   50.0226   34.3640 H   0  0  0  0  0
   33.7054   49.9177   35.9456 H   0  0  0  0  0
   31.4237   49.5457   37.0978 H   0  0  0  0  0
   31.4192   47.1447   37.3018 H   0  0  0  0  0
   33.0064   47.1626   38.1091 H   0  0  0  0  0
   31.5840   47.8556   38.9262 H   0  0  0  0  0
   33.4516   50.8520   37.7990 H   0  0  0  0  0
   32.6853   50.7988   40.1074 H   0  0  0  0  0
   34.2088   48.4169   39.3862 H   0  0  0  0  0
   34.1411   49.1736   41.6042 H   0  0  0  0  0
   37.5665   50.2233   40.4825 H   0  0  0  0  0
   37.3853   51.1301   43.4029 H   0  0  0  0  0
   38.4679   52.9289   42.4771 H   0  0  0  0  0
   36.0799   52.1235   40.8410 H   0  0  0  0  0
   34.7189   53.3614   45.3020 H   0  0  0  0  0
   34.4855   55.0127   44.6776 H   0  0  0  0  0
   33.8034   53.6231   43.7972 H   0  0  0  0  0
   34.9462   50.8032   43.4059 H   0  0  0  0  0
   33.5796   52.5023   42.7530 H   0  0  0  0  0
   39.4673   49.7909   42.2598 H   0  0  0  0  0
   38.9541   48.4443   41.1977 H   0  0  0  0  0
   37.9984   45.8743   42.0681 H   0  0  0  0  0
   39.4929   46.6168   41.4466 H   0  0  0  0  0
   39.5842   45.2389   42.5710 H   0  0  0  0  0
   38.3856   47.0861   45.5541 H   0  0  0  0  0
   37.3507   46.1561   44.4427 H   0  0  0  0  0
   38.9330   45.5073   44.9388 H   0  0  0  0  0
   41.2976   46.8712   43.3659 H   0  0  0  0  0
   40.0427   48.9920   45.2177 H   0  0  0  0  0
   41.8742   48.6197   44.9508 H   0  0  0  0  0
  1  2  2  0  0  0
  1 13  1  0  0  0
  1 28  1  0  0  0
  2  3  1  0  0  0
  2 10  1  0  0  0
  3  4  1  0  0  0
  3  5  1  0  0  0
  5  6  1  0  0  0
  6  7  1  0  0  0
  7  8  2  0  0  0
  7  9  1  0  0  0
 10 11  1  0  0  0
 11 12  1  0  0  0
 11 13  1  0  0  0
 13 14  1  0  0  0
 13 15  1  0  0  0
 15 16  2  0  0  0
 16 17  1  0  0  0
 16 23  1  0  0  0
 17 18  1  0  0  0
 17 21  1  0  0  0
 18 19  1  0  0  0
 19 20  1  0  0  0
 21 22  1  0  0  0
 22 23  1  0  0  0
 23 24  1  0  0  0
 24 25  1  0  0  0
 24 26  1  0  0  0
 26 27  1  0  0  0
 26 28  1  0  0  0
 28 29  1  0  0  0
 29 30  1  0  0  0
 30 31  1  0  0  0
 30 40  1  0  0  0
 31 32  1  0  0  0
 32 33  1  0  0  0
 32 42  1  0  0  0
 33 34  1  0  0  0
 33 35  1  0  0  0
 35 36  1  0  0  0
 35 40  1  0  0  0
 36 37  1  0  0  0
 37 38  2  0  0  0
 37 39  1  0  0  0
 40 41  1  0  0  0
 42 43  1  0  0  0
 43 44  1  0  0  0
 44 45  1  0  0  0
 44 46  1  0  0  0
 44 47  1  0  0  0
 47 48  2  0  0  0
  3 49  1  0  0  0
  4 50  1  0  0  0
  4 51  1  0  0  0
  4 52  1  0  0  0
  5 53  1  0  0  0
  5 54  1  0  0  0
  9 55  1  0  0  0
  9 56  1  0  0  0
  9 57  1  0  0  0
 10 58  1  0  0  0
 10 59  1  0  0  0
 11 60  1  0  0  0
 12 61  1  0  0  0
 14 62  1  0  0  0
 14 63  1  0  0  0
 14 64  1  0  0  0
 15 65  1  0  0  0
 17 66  1  0  0  0
 18 67  1  0  0  0
 18 68  1  0  0  0
 20 69  1  0  0  0
 20 70  1  0  0  0
 20 71  1  0  0  0
 21 72  1  0  0  0
 21 73  1  0  0  0
 22 74  1  0  0  0
 22 75  1  0  0  0
 23 76  1  0  0  0
 24 77  1  0  0  0
 25 78  1  0  0  0
 25 79  1  0  0  0
 25 80  1  0  0  0
 26 81  1  0  0  0
 27 82  1  0  0  0
 28 83  1  0  0  0
 30 84  1  0  0  0
 32 85  1  0  0  0
 33 86  1  0  0  0
 34 87  1  0  0  0
 35 88  1  0  0  0
 39 89  1  0  0  0
 39 90  1  0  0  0
 39 91  1  0  0  0
 40 92  1  0  0  0
 41 93  1  0  0  0
 42 94  1  0  0  0
 42 95  1  0  0  0
 45 96  1  0  0  0
 45 97  1  0  0  0
 45 98  1  0  0  0
 46 99  1  0  0  0
 46100  1  0  0  0
 46101  1  0  0  0
 47102  1  0  0  0
 48103  1  0  0  0
 48104  1  0  0  0
M  END
$$$$
