4q15_ligand
  -I-interpret- 

 43 45  0  0  0  0  0  0  0  0999 V2000
  -22.0490    7.6440  -32.7870 O   0  0  0  0  0
  -22.3770    8.0250  -33.8740 C   0  0  0  0  0
  -22.0200    9.4490  -34.3610 C   0  0  0  0  0
  -20.9380   10.1320  -33.5220 C   0  0  0  0  0
  -21.3330   10.2290  -32.1810 N   0  3  0  0  0
  -20.2090   10.4160  -31.3130 C   0  0  0  0  0
  -18.9680   10.9120  -32.0580 C   0  0  0  0  0
  -18.5360    9.9820  -33.0560 C   0  0  0  0  0
  -19.6250    9.3290  -33.6720 C   0  0  0  0  0
  -19.3340    9.1610  -35.1570 O   0  0  0  0  0
  -23.2140    7.0210  -34.8690 C   0  0  0  0  0
  -23.9310    5.9610  -34.0380 N   0  3  0  0  0
  -25.0370    6.3120  -33.2760 C   0  0  0  0  0
  -25.4390    7.4770  -33.2740 O   0  0  0  0  0
  -25.6760    5.3600  -32.5340 C   0  0  0  0  0
  -26.8300    5.6770  -31.7280 C   0  0  0  0  0
  -23.4980    4.7190  -34.0480 C   0  0  0  0  0
  -24.0960    3.7580  -33.3290 N   0  0  0  0  0
  -25.1880    4.0690  -32.5690 C   0  0  0  0  0
  -25.8140    3.0620  -31.8220 C   0  0  0  0  0
  -26.9460    3.3770  -31.0330 C   0  0  0  0  0
  -27.8040    1.9600  -29.9950 Br  0  0  0  0  0
  -27.4440    4.6870  -30.9950 C   0  0  0  0  0
  -28.8560    5.0720  -30.0110 Cl  0  0  0  0  0
  -22.9226   10.0554  -34.2855 H   0  0  0  0  0
  -21.6366    9.3596  -35.3774 H   0  0  0  0  0
  -20.7790   11.1506  -33.8761 H   0  0  0  0  0
  -21.8017    9.3617  -31.9194 H   0  0  0  0  0
  -21.9522   11.0338  -32.0847 H   0  0  0  0  0
  -19.9681    9.4528  -30.8632 H   0  0  0  0  0
  -20.4786   11.1681  -30.5716 H   0  0  0  0  0
  -18.1621   11.0351  -31.3345 H   0  0  0  0  0
  -19.2189   11.8507  -32.5520 H   0  0  0  0  0
  -17.9130    9.2283  -32.5745 H   0  0  0  0  0
  -17.9889   10.5316  -33.8219 H   0  0  0  0  0
  -19.7509    8.3633  -33.1824 H   0  0  0  0  0
  -20.0734    8.7169  -35.5786 H   0  0  0  0  0
  -22.5238    6.5356  -35.5590 H   0  0  0  0  0
  -23.9474    7.5974  -35.4329 H   0  0  0  0  0
  -27.2141    6.6967  -31.6997 H   0  0  0  0  0
  -22.6304    4.4643  -34.6567 H   0  0  0  0  0
  -23.7387    2.8029  -33.3493 H   0  0  0  0  0
  -25.4312    2.0418  -31.8485 H   0  0  0  0  0
  1  2  2  0  0  0
  2  3  1  0  0  0
  2 11  1  0  0  0
  3  4  1  0  0  0
  4  5  1  0  0  0
  4  9  1  0  0  0
  5  6  1  0  0  0
  6  7  1  0  0  0
  7  8  1  0  0  0
  8  9  1  0  0  0
  9 10  1  0  0  0
 11 12  1  0  0  0
 12 13  1  0  0  0
 12 17  2  0  0  0
 13 14  2  0  0  0
 13 15  1  0  0  0
 15 16  4  0  0  0
 15 19  4  0  0  0
 16 23  4  0  0  0
 17 18  1  0  0  0
 18 19  1  0  0  0
 19 20  4  0  0  0
 20 21  4  0  0  0
 21 22  1  0  0  0
 21 23  4  0  0  0
 23 24  1  0  0  0
  3 25  1  0  0  0
  3 26  1  0  0  0
  4 27  1  0  0  0
  5 28  1  0  0  0
  5 29  1  0  0  0
  6 30  1  0  0  0
  6 31  1  0  0  0
  7 32  1  0  0  0
  7 33  1  0  0  0
  8 34  1  0  0  0
  8 35  1  0  0  0
  9 36  1  0  0  0
 10 37  1  0  0  0
 11 38  1  0  0  0
 11 39  1  0  0  0
 16 40  1  0  0  0
 17 41  1  0  0  0
 18 42  1  0  0  0
 20 43  1  0  0  0
M  END
$$$$
