2bve_ligand
  -I-interpret- 

 56 57  0  0  0  0  0  0  0  0999 V2000
   17.8590   37.1130   32.5300 C   0  0  0  0  0
   17.1840   36.3220   33.2010 O   0  0  0  0  0
   17.3780   37.7710   31.5780 O   0  0  0  0  0
   19.3200   37.3530   32.9260 C   0  0  0  0  0
   19.3510   38.2810   33.9730 O   0  0  0  0  0
   19.9580   36.0470   33.4070 C   0  0  0  0  0
   20.1770   35.0480   32.2650 C   0  0  0  0  0
   20.9260   33.9270   32.7230 O   0  0  0  0  0
   20.8920   35.6910   31.0670 C   0  0  0  0  0
   20.9190   34.7010   29.9990 N   0  0  0  0  0
   22.0150   34.4880   29.2770 C   0  0  0  0  0
   23.0560   35.1240   29.4070 O   0  0  0  0  0
   21.9150   33.3980   28.2480 C   0  0  0  0  0
   22.6490   32.1830   28.7540 C   0  0  0  0  0
   20.1050   36.9410   30.6540 C   0  0  0  0  0
   20.0020   37.8480   31.7750 O   0  0  0  0  0
   20.7380   37.6900   29.4630 C   0  0  0  0  0
   22.0820   38.0230   29.7610 O   0  0  0  0  0
   19.9620   38.9890   29.1780 C   0  0  0  0  0
   18.5670   38.7400   29.2430 O   0  0  0  0  0
   20.3340   39.5340   27.7920 C   0  0  0  0  0
   19.7820   40.8290   27.6030 O   0  0  0  0  0
   19.1610   39.6180   33.5930 C   0  0  0  0  0
   19.6840   40.6000   34.5920 C   0  0  0  0  0
   18.8780   41.0380   35.6440 C   0  0  0  0  0
   20.9740   41.0830   34.4870 C   0  0  0  0  0
   19.3510   41.9490   36.5730 C   0  0  0  0  0
   21.4660   41.9960   35.4080 C   0  0  0  0  0
   20.6560   42.4350   36.4580 C   0  0  0  0  0
   18.0634   38.3216   31.1924 H   0  0  0  0  0
   19.2839   35.5891   34.1309 H   0  0  0  0  0
   20.9306   36.2854   33.8375 H   0  0  0  0  0
   19.1923   34.7197   31.9323 H   0  0  0  0  0
   20.4767   33.5275   33.4714 H   0  0  0  0  0
   21.9125   35.9921   31.3037 H   0  0  0  0  0
   20.0781   34.1589   29.8005 H   0  0  0  0  0
   22.3585   33.7335   27.3105 H   0  0  0  0  0
   20.8680   33.1505   28.0729 H   0  0  0  0  0
   23.6954   32.4367   28.9235 H   0  0  0  0  0
   22.1982   31.8511   29.6893 H   0  0  0  0  0
   22.5824   31.3855   28.0140 H   0  0  0  0  0
   19.1200   36.5967   30.3388 H   0  0  0  0  0
   20.7000   37.0397   28.5891 H   0  0  0  0  0
   22.4681   38.4884   29.0154 H   0  0  0  0  0
   20.2273   39.7322   29.9299 H   0  0  0  0  0
   18.0893   39.5533   29.0645 H   0  0  0  0  0
   19.9363   38.8644   27.0294 H   0  0  0  0  0
   21.4195   39.5968   27.7155 H   0  0  0  0  0
   20.0236   41.1548   26.7329 H   0  0  0  0  0
   18.0876   39.7837   33.5006 H   0  0  0  0  0
   19.7055   39.7753   32.6619 H   0  0  0  0  0
   17.8608   40.6571   35.7355 H   0  0  0  0  0
   21.6122   40.7429   33.6714 H   0  0  0  0  0
   18.7100   42.2847   37.3882 H   0  0  0  0  0
   22.4850   42.3710   35.3124 H   0  0  0  0  0
   21.0397   43.1525   37.1833 H   0  0  0  0  0
  1  2  2  0  0  0
  1  3  1  0  0  0
  1  4  1  0  0  0
  4  5  1  0  0  0
  4  6  1  0  0  0
  4 16  1  0  0  0
  5 23  1  0  0  0
  6  7  1  0  0  0
  7  8  1  0  0  0
  7  9  1  0  0  0
  9 10  1  0  0  0
  9 15  1  0  0  0
 10 11  1  0  0  0
 11 12  2  0  0  0
 11 13  1  0  0  0
 13 14  1  0  0  0
 15 16  1  0  0  0
 15 17  1  0  0  0
 17 18  1  0  0  0
 17 19  1  0  0  0
 19 20  1  0  0  0
 19 21  1  0  0  0
 21 22  1  0  0  0
 23 24  1  0  0  0
 24 25  4  0  0  0
 24 26  4  0  0  0
 25 27  4  0  0  0
 26 28  4  0  0  0
 27 29  4  0  0  0
 28 29  4  0  0  0
  3 30  1  0  0  0
  6 31  1  0  0  0
  6 32  1  0  0  0
  7 33  1  0  0  0
  8 34  1  0  0  0
  9 35  1  0  0  0
 10 36  1  0  0  0
 13 37  1  0  0  0
 13 38  1  0  0  0
 14 39  1  0  0  0
 14 40  1  0  0  0
 14 41  1  0  0  0
 15 42  1  0  0  0
 17 43  1  0  0  0
 18 44  1  0  0  0
 19 45  1  0  0  0
 20 46  1  0  0  0
 21 47  1  0  0  0
 21 48  1  0  0  0
 22 49  1  0  0  0
 23 50  1  0  0  0
 23 51  1  0  0  0
 25 52  1  0  0  0
 26 53  1  0  0  0
 27 54  1  0  0  0
 28 55  1  0  0  0
 29 56  1  0  0  0
M  END
$$$$
