3hq5_ligand
  -I-interpret- 

 47 49  0  0  0  0  0  0  0  0999 V2000
   -1.8590  -11.0890   28.2970 Cl  0  0  0  0  0
   -3.4660   -4.1970   21.6290 C   0  0  0  0  0
   -3.1340   -4.1110   24.0250 C   0  0  0  0  0
   -3.4470   -5.0640   25.1480 C   0  0  0  0  0
   -4.0930   -6.2970   24.5670 C   0  0  0  0  0
   -4.0830   -6.0750   23.0700 C   0  0  0  0  0
   -3.6260  -10.7350   22.3250 C   0  0  0  0  0
   -2.7230  -10.8860   21.3260 C   0  0  0  0  0
   -3.4280   -9.7670   23.2620 C   0  0  0  0  0
   -2.3420   -8.9410   23.2320 C   0  0  0  0  0
   -2.1760   -7.8980   24.2740 C   0  0  0  0  0
   -3.2040   -4.9400   22.8360 N   0  3  0  0  0
   -1.4130   -9.1110   22.2230 C   0  0  0  0  0
   -0.1850   -8.2650   22.1000 C   0  0  0  0  0
   -3.5570   -8.1090   26.1970 C   0  0  0  0  0
   -4.4960   -7.6820   27.0870 C   0  0  0  0  0
   -3.3960   -7.5220   24.9300 N   0  0  0  0  0
   -4.6450   -8.2630   28.3070 C   0  0  0  0  0
   -3.8610   -9.3070   28.7030 C   0  0  0  0  0
   -4.0740   -9.8230   29.9950 C   0  0  0  0  0
   -4.2480  -10.2450   31.0510 N   0  0  0  0  0
   -2.8930   -9.7820   27.8470 C   0  0  0  0  0
   -2.7680   -9.1680   26.6150 C   0  0  0  0  0
   -1.6290  -10.0860   21.2770 C   0  0  0  0  0
    0.4690   -8.0600   23.1780 F   0  0  0  0  0
    0.7090   -8.7210   21.2870 F   0  0  0  0  0
   -0.3950   -7.0810   21.6910 F   0  0  0  0  0
   -3.3577   -4.8559   20.7675 H   0  0  0  0  0
   -4.4813   -3.8017   21.6604 H   0  0  0  0  0
   -2.7564   -3.3734   21.5496 H   0  0  0  0  0
   -2.1596   -3.6370   24.1430 H   0  0  0  0  0
   -3.8293   -3.2724   23.9871 H   0  0  0  0  0
   -4.1240   -4.5903   25.8589 H   0  0  0  0  0
   -2.5297   -5.3366   25.6699 H   0  0  0  0  0
   -5.1013   -6.4321   24.9583 H   0  0  0  0  0
   -5.0873   -5.8792   22.6943 H   0  0  0  0  0
   -3.7302   -6.9614   22.5429 H   0  0  0  0  0
   -4.5018  -11.3817   22.3780 H   0  0  0  0  0
   -2.8757  -11.6493   20.5630 H   0  0  0  0  0
   -4.1598   -9.6481   24.0610 H   0  0  0  0  0
   -1.7896   -7.0073   23.7786 H   0  0  0  0  0
   -1.5140   -8.3080   25.0367 H   0  0  0  0  0
   -2.2767   -5.3251   22.6565 H   0  0  0  0  0
   -5.1461   -6.8511   26.8131 H   0  0  0  0  0
   -5.4098   -7.8854   28.9857 H   0  0  0  0  0
   -2.0036   -9.5389   25.9322 H   0  0  0  0  0
   -0.9063  -10.2183   20.4718 H   0  0  0  0  0
 22  1  1  0  0  0
 12  2  1  0  0  0
  4  3  1  0  0  0
 12  3  1  0  0  0
  5  4  1  0  0  0
  5  6  1  0  0  0
 17  5  1  0  0  0
  6 12  1  0  0  0
  7  8  4  0  0  0
  9  7  4  0  0  0
 24  8  4  0  0  0
 10  9  4  0  0  0
 11 10  1  0  0  0
 10 13  4  0  0  0
 17 11  1  0  0  0
 13 14  1  0  0  0
 13 24  4  0  0  0
 14 25  1  0  0  0
 14 26  1  0  0  0
 14 27  1  0  0  0
 16 15  4  0  0  0
 15 17  1  0  0  0
 15 23  4  0  0  0
 18 16  4  0  0  0
 19 18  4  0  0  0
 19 20  1  0  0  0
 19 22  4  0  0  0
 20 21  3  0  0  0
 22 23  4  0  0  0
  2 28  1  0  0  0
  2 29  1  0  0  0
  2 30  1  0  0  0
  3 31  1  0  0  0
  3 32  1  0  0  0
  4 33  1  0  0  0
  4 34  1  0  0  0
  5 35  1  0  0  0
  6 36  1  0  0  0
  6 37  1  0  0  0
  7 38  1  0  0  0
  8 39  1  0  0  0
  9 40  1  0  0  0
 11 41  1  0  0  0
 11 42  1  0  0  0
 12 43  1  0  0  0
 16 44  1  0  0  0
 18 45  1  0  0  0
 23 46  1  0  0  0
 24 47  1  0  0  0
M  END
$$$$
