5uqv_ligand
  -I-interpret- 

 42 45  0  0  0  0  0  0  0  0999 V2000
   40.2110    4.2180  -77.4860 C   0  0  0  0  0
   38.1370    5.6690  -77.4640 C   0  0  0  0  0
   36.8800    3.6740  -79.3390 C   0  0  0  0  0
   37.7540    6.6790  -78.3720 C   0  0  0  0  0
   39.0690    2.3570  -79.1760 C   0  0  0  0  0
   36.8830    4.2530  -80.7630 C   0  0  0  0  0
   38.2990    3.5000  -78.8110 C   0  0  0  0  0
   40.3810    2.2440  -78.7100 C   0  0  0  0  0
   40.8860    3.1460  -77.8860 N   0  0  0  0  0
   38.8840    4.4560  -77.9330 C   0  0  0  0  0
   37.0260    7.7770  -77.9390 C   0  0  0  0  0
   36.7110    7.8930  -76.5840 C   0  0  0  0  0
   37.1100    6.9130  -75.6700 C   0  0  0  0  0
   37.8100    5.8000  -76.1030 C   0  0  0  0  0
   36.0020    8.9610  -76.1500 O   0  0  0  0  0
   40.8580    5.0970  -76.6300 N   0  0  0  0  0
   38.5540    1.3170  -80.1150 C   0  0  0  0  0
   37.5540    0.4050  -79.7120 C   0  0  0  0  0
   37.0360   -0.4970  -80.6070 C   0  0  0  0  0
   37.5100   -0.5360  -81.9280 C   0  0  0  0  0
   38.5170    0.3700  -82.3460 C   0  0  0  0  0
   39.0250    1.3030  -81.4270 C   0  0  0  0  0
   38.7860    0.0780  -83.7550 C   0  0  0  0  0
   37.9950   -0.8930  -84.1120 N   0  0  0  0  0
   37.2130   -1.3080  -83.0200 N   0  0  0  0  0
   36.3954    2.6979  -79.3616 H   0  0  0  0  0
   36.3476    4.3640  -78.6843 H   0  0  0  0  0
   38.0327    6.5954  -79.4225 H   0  0  0  0  0
   37.3740    5.2262  -80.7571 H   0  0  0  0  0
   37.4212    3.5771  -81.4275 H   0  0  0  0  0
   35.8560    4.3649  -81.1105 H   0  0  0  0  0
   40.9955    1.4023  -79.0295 H   0  0  0  0  0
   36.7038    8.5399  -78.6478 H   0  0  0  0  0
   36.8690    7.0258  -74.6130 H   0  0  0  0  0
   38.1063    5.0288  -75.3920 H   0  0  0  0  0
   35.8701    8.8921  -75.2016 H   0  0  0  0  0
   41.8150    4.9075  -76.3323 H   0  0  0  0  0
   40.3768    5.9329  -76.2982 H   0  0  0  0  0
   37.1915    0.4176  -78.6841 H   0  0  0  0  0
   36.2530   -1.1863  -80.2910 H   0  0  0  0  0
   39.7876    2.0162  -81.7398 H   0  0  0  0  0
   39.5153    0.5815  -84.3896 H   0  0  0  0  0
  1  9  4  0  0  0
 10  1  4  0  0  0
  1 16  1  0  0  0
  2  4  4  0  0  0
 10  2  1  0  0  0
  2 14  4  0  0  0
  3  6  1  0  0  0
  7  3  1  0  0  0
  4 11  4  0  0  0
  7  5  4  0  0  0
  5  8  4  0  0  0
  5 17  1  0  0  0
  7 10  4  0  0  0
  8  9  4  0  0  0
 11 12  4  0  0  0
 12 13  4  0  0  0
 12 15  1  0  0  0
 13 14  4  0  0  0
 17 18  4  0  0  0
 17 22  4  0  0  0
 18 19  4  0  0  0
 19 20  4  0  0  0
 20 21  4  0  0  0
 20 25  4  0  0  0
 21 22  4  0  0  0
 21 23  4  0  0  0
 23 24  4  0  0  0
 24 25  4  0  0  0
  3 26  1  0  0  0
  3 27  1  0  0  0
  4 28  1  0  0  0
  6 29  1  0  0  0
  6 30  1  0  0  0
  6 31  1  0  0  0
  8 32  1  0  0  0
 11 33  1  0  0  0
 13 34  1  0  0  0
 14 35  1  0  0  0
 15 36  1  0  0  0
 16 37  1  0  0  0
 16 38  1  0  0  0
 18 39  1  0  0  0
 19 40  1  0  0  0
 22 41  1  0  0  0
 23 42  1  0  0  0
M  END
$$$$
