2vd4_ligand
  -I-interpret- 

 61 63  0  0  0  0  0  0  0  0999 V2000
   69.2520   32.7850   34.1010 Cl  0  0  0  0  0
   69.4180   31.4710   35.2740 C   0  0  0  0  0
   68.2850   30.7890   35.6920 C   0  0  0  0  0
   68.4340   29.7540   36.6000 C   0  0  0  0  0
   70.6850   31.1710   35.7430 C   0  0  0  0  0
   70.8320   30.1440   36.6560 C   0  0  0  0  0
   69.7070   29.4580   37.0720 C   0  0  0  0  0
   69.8870   28.3470   38.0310 C   0  0  0  0  0
   69.9920   27.2560   37.4990 O   0  0  0  0  0
   69.9350   28.5470   39.3450 N   0  0  0  0  0
   70.2470   27.4900   40.3290 C   0  0  0  0  0
   71.3560   26.5690   39.8100 C   0  0  0  0  0
   69.6060   29.8780   39.9030 C   0  0  0  0  0
   70.8970   30.5180   40.4410 C   0  0  0  0  0
   70.6230   31.7670   41.1680 N   0  3  0  0  0
   69.5240   31.7710   42.1480 C   0  0  0  0  0
   68.2570   31.1390   41.5450 C   0  0  0  0  0
   68.5520   29.7460   41.0070 C   0  0  0  0  0
   71.8710   32.4550   41.5610 C   0  0  0  0  0
   71.6860   33.9440   41.8400 C   0  0  0  0  0
   73.0640   34.5690   41.9290 C   0  0  0  0  0
   73.7990   34.5160   43.1180 C   0  0  0  0  0
   75.0750   35.0870   43.1780 C   0  0  0  0  0
   75.6150   35.7070   42.0520 C   0  0  0  0  0
   74.8820   35.7510   40.8720 C   0  0  0  0  0
   73.6160   35.1840   40.8090 C   0  0  0  0  0
   72.1750   25.9490   40.9420 C   0  0  0  0  0
   71.3300   25.2210   41.8340 O   0  0  0  0  0
   72.0610   24.4040   42.7530 C   0  0  0  0  0
   67.2995   31.0615   35.3144 H   0  0  0  0  0
   67.5694   29.1826   36.9379 H   0  0  0  0  0
   71.5518   31.7349   35.3983 H   0  0  0  0  0
   71.8171   29.8800   37.0408 H   0  0  0  0  0
   69.3497   26.8955   40.5008 H   0  0  0  0  0
   70.5855   27.9599   41.2524 H   0  0  0  0  0
   72.0291   27.1652   39.1939 H   0  0  0  0  0
   70.8879   25.7597   39.2497 H   0  0  0  0  0
   69.1869   30.5164   39.1253 H   0  0  0  0  0
   71.5447   30.7481   39.5950 H   0  0  0  0  0
   71.3673   29.8159   41.1295 H   0  0  0  0  0
   70.1742   32.3688   40.4775 H   0  0  0  0  0
   69.3051   32.8013   42.4285 H   0  0  0  0  0
   69.8267   31.1913   43.0200 H   0  0  0  0  0
   67.9075   31.7660   40.7248 H   0  0  0  0  0
   67.4979   31.0619   42.3234 H   0  0  0  0  0
   68.9225   29.1043   41.8064 H   0  0  0  0  0
   67.6429   29.2963   40.6078 H   0  0  0  0  0
   72.5706   32.3626   40.7303 H   0  0  0  0  0
   72.2237   31.9912   42.4822 H   0  0  0  0  0
   71.1412   34.0910   42.7725 H   0  0  0  0  0
   71.1078   34.4110   41.0427 H   0  0  0  0  0
   73.3777   34.0298   43.9979 H   0  0  0  0  0
   75.6469   35.0471   44.1051 H   0  0  0  0  0
   76.6076   36.1552   42.0969 H   0  0  0  0  0
   75.3036   36.2337   39.9903 H   0  0  0  0  0
   73.0514   35.2207   39.8773 H   0  0  0  0  0
   72.6706   26.7458   41.4966 H   0  0  0  0  0
   72.9084   25.2657   40.5138 H   0  0  0  0  0
   72.6593   23.6813   42.1982 H   0  0  0  0  0
   72.7159   25.0336   43.3554 H   0  0  0  0  0
   71.3629   23.8768   43.4032 H   0  0  0  0  0
  1  2  1  0  0  0
  2  3  4  0  0  0
  2  5  4  0  0  0
  3  4  4  0  0  0
  4  7  4  0  0  0
  5  6  4  0  0  0
  6  7  4  0  0  0
  7  8  1  0  0  0
  8  9  2  0  0  0
  8 10  1  0  0  0
 10 11  1  0  0  0
 10 13  1  0  0  0
 11 12  1  0  0  0
 12 27  1  0  0  0
 13 14  1  0  0  0
 13 18  1  0  0  0
 14 15  1  0  0  0
 15 16  1  0  0  0
 15 19  1  0  0  0
 16 17  1  0  0  0
 17 18  1  0  0  0
 19 20  1  0  0  0
 20 21  1  0  0  0
 21 22  4  0  0  0
 21 26  4  0  0  0
 22 23  4  0  0  0
 23 24  4  0  0  0
 24 25  4  0  0  0
 25 26  4  0  0  0
 27 28  1  0  0  0
 28 29  1  0  0  0
  3 30  1  0  0  0
  4 31  1  0  0  0
  5 32  1  0  0  0
  6 33  1  0  0  0
 11 34  1  0  0  0
 11 35  1  0  0  0
 12 36  1  0  0  0
 12 37  1  0  0  0
 13 38  1  0  0  0
 14 39  1  0  0  0
 14 40  1  0  0  0
 15 41  1  0  0  0
 16 42  1  0  0  0
 16 43  1  0  0  0
 17 44  1  0  0  0
 17 45  1  0  0  0
 18 46  1  0  0  0
 18 47  1  0  0  0
 19 48  1  0  0  0
 19 49  1  0  0  0
 20 50  1  0  0  0
 20 51  1  0  0  0
 22 52  1  0  0  0
 23 53  1  0  0  0
 24 54  1  0  0  0
 25 55  1  0  0  0
 26 56  1  0  0  0
 27 57  1  0  0  0
 27 58  1  0  0  0
 29 59  1  0  0  0
 29 60  1  0  0  0
 29 61  1  0  0  0
M  END
$$$$
