4h38_ligand
  -I-interpret- 

 56 57  0  0  0  0  0  0  0  0999 V2000
   44.7130   27.9760   63.8040 O   0  0  0  0  0
   45.4000   26.4670   63.7260 P   0  0  0  0  0
   44.8920   25.9040   65.0990 O   0  0  0  0  0
   46.8720   26.4800   63.7980 O   0  0  0  0  0
   44.4630   25.4140   62.3870 C   0  0  0  0  0
   44.3390   24.1310   62.8120 C   0  0  0  0  0
   43.6790   23.1550   62.1260 C   0  0  0  0  0
   43.7400   21.4610   62.9880 Br  0  0  0  0  0
   43.0730   23.4490   60.9360 C   0  0  0  0  0
   43.1590   24.7450   60.4630 C   0  0  0  0  0
   43.8470   25.7300   61.1390 C   0  0  0  0  0
   43.8990   26.9990   60.6680 O   0  0  0  0  0
   43.4720   27.1230   59.3320 C   0  0  0  0  0
   43.6210   28.3980   58.8860 C   0  0  0  0  0
   43.7050   29.4380   59.7670 C   0  0  0  0  0
   43.6830   28.6360   57.5310 C   0  0  0  0  0
   43.8420   29.9110   57.0380 C   0  0  0  0  0
   43.9150   30.9760   57.9270 C   0  0  0  0  0
   43.8450   30.7220   59.2830 C   0  0  0  0  0
   43.9320   31.7510   60.1060 O   0  0  0  0  0
   43.4740   32.7870   59.2770 C   0  0  0  0  0
   44.5950   33.7400   58.9380 C   0  0  0  0  0
   45.0490   34.5060   60.1640 C   0  0  0  0  0
   44.8940   36.0060   59.8980 C   0  0  0  0  0
   45.6260   36.8770   60.9180 C   0  0  0  0  0
   44.8440   38.1630   61.0150 C   0  0  0  0  0
   45.6000   39.4350   60.6860 C   0  0  0  0  0
   45.5610   40.3470   61.9030 C   0  0  0  0  0
   43.7579   27.8946   63.7519 H   0  0  0  0  0
   43.9324   25.8774   65.0973 H   0  0  0  0  0
   44.7971   23.8634   63.7642 H   0  0  0  0  0
   42.5370   22.6827   60.3760 H   0  0  0  0  0
   42.6662   24.9966   59.5239 H   0  0  0  0  0
   42.4166   26.8559   59.2773 H   0  0  0  0  0
   44.0773   26.4634   58.7102 H   0  0  0  0  0
   43.6619   29.2555   60.8407 H   0  0  0  0  0
   43.6047   27.7995   56.8365 H   0  0  0  0  0
   43.9098   30.0830   55.9638 H   0  0  0  0  0
   44.0258   31.9964   57.5602 H   0  0  0  0  0
   42.6927   33.3368   59.8017 H   0  0  0  0  0
   43.0904   32.3537   58.3533 H   0  0  0  0  0
   44.2350   34.4520   58.1953 H   0  0  0  0  0
   45.4376   33.1650   58.5541 H   0  0  0  0  0
   46.0930   34.2756   60.3765 H   0  0  0  0  0
   44.4419   34.2197   61.0228 H   0  0  0  0  0
   43.8323   36.2447   59.9612 H   0  0  0  0  0
   45.3232   36.2137   58.9178 H   0  0  0  0  0
   46.6536   37.0655   60.6070 H   0  0  0  0  0
   45.6858   36.3805   61.8865 H   0  0  0  0  0
   44.5365   38.2535   62.0568 H   0  0  0  0  0
   44.0428   38.0873   60.2799 H   0  0  0  0  0
   45.1386   39.9324   59.8329 H   0  0  0  0  0
   46.6330   39.1988   60.4305 H   0  0  0  0  0
   44.5248   40.5814   62.1467 H   0  0  0  0  0
   46.0293   39.8429   62.7484 H   0  0  0  0  0
   46.1011   41.2678   61.6828 H   0  0  0  0  0
  1  2  1  0  0  0
  2  3  1  0  0  0
  2  4  2  0  0  0
  2  5  1  0  0  0
  5  6  4  0  0  0
  5 11  4  0  0  0
  6  7  4  0  0  0
  7  8  1  0  0  0
  7  9  4  0  0  0
  9 10  4  0  0  0
 10 11  4  0  0  0
 11 12  1  0  0  0
 12 13  1  0  0  0
 13 14  1  0  0  0
 14 15  4  0  0  0
 14 16  4  0  0  0
 15 19  4  0  0  0
 16 17  4  0  0  0
 17 18  4  0  0  0
 18 19  4  0  0  0
 19 20  1  0  0  0
 20 21  1  0  0  0
 21 22  1  0  0  0
 22 23  1  0  0  0
 23 24  1  0  0  0
 24 25  1  0  0  0
 25 26  1  0  0  0
 26 27  1  0  0  0
 27 28  1  0  0  0
  1 29  1  0  0  0
  3 30  1  0  0  0
  6 31  1  0  0  0
  9 32  1  0  0  0
 10 33  1  0  0  0
 13 34  1  0  0  0
 13 35  1  0  0  0
 15 36  1  0  0  0
 16 37  1  0  0  0
 17 38  1  0  0  0
 18 39  1  0  0  0
 21 40  1  0  0  0
 21 41  1  0  0  0
 22 42  1  0  0  0
 22 43  1  0  0  0
 23 44  1  0  0  0
 23 45  1  0  0  0
 24 46  1  0  0  0
 24 47  1  0  0  0
 25 48  1  0  0  0
 25 49  1  0  0  0
 26 50  1  0  0  0
 26 51  1  0  0  0
 27 52  1  0  0  0
 27 53  1  0  0  0
 28 54  1  0  0  0
 28 55  1  0  0  0
 28 56  1  0  0  0
M  END
$$$$
