### 
### Created by X-TOOL on Mon Sep 10 21:13:11 2018
### 

@<TRIPOS>MOLECULE
4h38_ligand
   54    55     1     0     0
SMALL
GAST_HUCK


@<TRIPOS>ATOM
      1 OAC        44.7130   27.9760   63.8040 O.co2     1 0YX        -0.5642
      2 PBB        45.4000   26.4670   63.7260 P.3       1 0YX         0.0790
      3 OAD        44.8920   25.9040   65.0990 O.co2     1 0YX        -0.5642
      4 OAB        46.8720   26.4800   63.7980 O.co2     1 0YX        -0.5642
      5 CBA        44.4630   25.4140   62.3870 C.ar      1 0YX         0.0670
      6 CAL        44.3390   24.1310   62.8120 C.ar      1 0YX        -0.0402
      7 CAW        43.6790   23.1550   62.1260 C.ar      1 0YX         0.0060
      8 BRE        43.7400   21.4610   62.9880 Br        1 0YX        -0.0589
      9 CAI        43.0730   23.4490   60.9360 C.ar      1 0YX        -0.0577
     10 CAJ        43.1590   24.7450   60.4630 C.ar      1 0YX        -0.0248
     11 CAZ        43.8470   25.7300   61.1390 C.ar      1 0YX         0.1186
     12 OAV        43.8990   26.9990   60.6680 O.3       1 0YX        -0.2991
     13 CAT        43.4720   27.1230   59.3320 C.3       1 0YX         0.1039
     14 CAX        43.6210   28.3980   58.8860 C.ar      1 0YX        -0.0215
     15 CAK        43.7050   29.4380   59.7670 C.ar      1 0YX        -0.0297
     16 CAG        43.6830   28.6360   57.5310 C.ar      1 0YX        -0.0688
     17 CAF        43.8420   29.9110   57.0380 C.ar      1 0YX        -0.0771
     18 CAH        43.9150   30.9760   57.9270 C.ar      1 0YX        -0.0401
     19 CAY        43.8450   30.7220   59.2830 C.ar      1 0YX         0.0845
     20 OAU        43.9320   31.7510   60.1060 O.3       1 0YX        -0.3198
     21 CAS        43.4740   32.7870   59.2770 C.3       1 0YX         0.0703
     22 CAR        44.5950   33.7400   58.9380 C.3       1 0YX        -0.0251
     23 CAQ        45.0490   34.5060   60.1640 C.3       1 0YX        -0.0506
     24 CAP        44.8940   36.0060   59.8980 C.3       1 0YX        -0.0530
     25 CAO        45.6260   36.8770   60.9180 C.3       1 0YX        -0.0531
     26 CAN        44.8440   38.1630   61.0150 C.3       1 0YX        -0.0533
     27 CAM        45.6000   39.4350   60.6860 C.3       1 0YX        -0.0559
     28 CAA        45.5610   40.3470   61.9030 C.3       1 0YX        -0.0653
     29 H          44.7971   23.8634   63.7642 H         1 0YX         0.0662
     30 H          42.5370   22.6827   60.3760 H         1 0YX         0.0642
     31 H          42.6662   24.9966   59.5239 H         1 0YX         0.0559
     32 H          42.4166   26.8559   59.2773 H         1 0YX         0.0781
     33 H          44.0773   26.4634   58.7102 H         1 0YX         0.0781
     34 H          43.6619   29.2555   60.8407 H         1 0YX         0.0479
     35 H          43.6047   27.7995   56.8365 H         1 0YX         0.0465
     36 H          43.9098   30.0830   55.9638 H         1 0YX         0.0572
     37 H          44.0258   31.9964   57.5602 H         1 0YX         0.0486
     38 H          42.6927   33.3368   59.8017 H         1 0YX         0.0614
     39 H          43.0904   32.3537   58.3533 H         1 0YX         0.0614
     40 H          44.2350   34.4520   58.1953 H         1 0YX         0.0291
     41 H          45.4376   33.1650   58.5541 H         1 0YX         0.0291
     42 H          46.0930   34.2756   60.3765 H         1 0YX         0.0266
     43 H          44.4419   34.2197   61.0228 H         1 0YX         0.0266
     44 H          43.8323   36.2447   59.9612 H         1 0YX         0.0265
     45 H          45.3232   36.2137   58.9178 H         1 0YX         0.0265
     46 H          46.6536   37.0655   60.6070 H         1 0YX         0.0265
     47 H          45.6858   36.3805   61.8865 H         1 0YX         0.0265
     48 H          44.5365   38.2535   62.0568 H         1 0YX         0.0265
     49 H          44.0428   38.0873   60.2799 H         1 0YX         0.0265
     50 H          45.1386   39.9324   59.8329 H         1 0YX         0.0263
     51 H          46.6330   39.1988   60.4305 H         1 0YX         0.0263
     52 H          44.5248   40.5814   62.1467 H         1 0YX         0.0230
     53 H          46.0293   39.8429   62.7484 H         1 0YX         0.0230
     54 H          46.1011   41.2678   61.6828 H         1 0YX         0.0230
@<TRIPOS>BOND
     1    1    2 ar 
     2    2    3 ar 
     3    2    4 ar 
     4    2    5 1  
     5    5    6 ar 
     6    5   11 ar 
     7    6    7 ar 
     8    7    8 1  
     9    7    9 ar 
    10    9   10 ar 
    11   10   11 ar 
    12   11   12 1  
    13   12   13 1  
    14   13   14 1  
    15   14   15 ar 
    16   14   16 ar 
    17   15   19 ar 
    18   16   17 ar 
    19   17   18 ar 
    20   18   19 ar 
    21   19   20 1  
    22   20   21 1  
    23   21   22 1  
    24   22   23 1  
    25   23   24 1  
    26   24   25 1  
    27   25   26 1  
    28   26   27 1  
    29   27   28 1  
    30    6   29 1  
    31    9   30 1  
    32   10   31 1  
    33   13   32 1  
    34   13   33 1  
    35   15   34 1  
    36   16   35 1  
    37   17   36 1  
    38   18   37 1  
    39   21   38 1  
    40   21   39 1  
    41   22   40 1  
    42   22   41 1  
    43   23   42 1  
    44   23   43 1  
    45   24   44 1  
    46   24   45 1  
    47   25   46 1  
    48   25   47 1  
    49   26   48 1  
    50   26   49 1  
    51   27   50 1  
    52   27   51 1  
    53   28   52 1  
    54   28   53 1  
    55   28   54 1  
@<TRIPOS>SUBSTRUCTURE
     1 0YX         1

