4kw6_ligand
  -I-interpret- 

 23 24  0  0  0  0  0  0  0  0999 V2000
   26.0660  -58.3250  104.1650 O   0  0  0  0  0
   25.0610  -57.8090  104.6930 N   0  0  0  0  0
   23.8470  -58.0240  104.1610 C   0  0  0  0  0
   23.7890  -58.8940  102.9300 C   0  0  0  0  0
   22.7210  -57.4390  104.7660 C   0  0  0  0  0
   21.3200  -57.5930  104.2670 C   0  0  0  0  0
   25.1880  -57.0420  105.7910 C   0  0  0  0  0
   26.4410  -56.8080  106.3510 C   0  0  0  0  0
   26.5710  -56.0140  107.4890 C   0  0  0  0  0
   25.4450  -55.4410  108.0770 C   0  0  0  0  0
   24.1880  -55.6660  107.5220 C   0  0  0  0  0
   24.0610  -56.4650  106.3840 C   0  0  0  0  0
   22.8570  -56.6770  105.8550 N   0  0  0  0  0
   24.3832  -58.4396  102.1372 H   0  0  0  0  0
   24.1881  -59.8807  103.1649 H   0  0  0  0  0
   22.7539  -58.9881  102.6016 H   0  0  0  0  0
   21.2523  -57.2024  103.2516 H   0  0  0  0  0
   21.0484  -58.6486  104.2705 H   0  0  0  0  0
   20.6415  -57.0398  104.9164 H   0  0  0  0  0
   27.3275  -57.2494  105.8957 H   0  0  0  0  0
   27.5568  -55.8406  107.9206 H   0  0  0  0  0
   25.5478  -54.8199  108.9668 H   0  0  0  0  0
   23.3036  -55.2186  107.9757 H   0  0  0  0  0
  1  2  2  0  0  0
  2  3  4  0  0  0
  2  7  4  0  0  0
  3  4  1  0  0  0
  3  5  4  0  0  0
  5  6  1  0  0  0
  5 13  4  0  0  0
  7  8  4  0  0  0
  7 12  4  0  0  0
  8  9  4  0  0  0
  9 10  4  0  0  0
 10 11  4  0  0  0
 11 12  4  0  0  0
 12 13  4  0  0  0
  4 14  1  0  0  0
  4 15  1  0  0  0
  4 16  1  0  0  0
  6 17  1  0  0  0
  6 18  1  0  0  0
  6 19  1  0  0  0
  8 20  1  0  0  0
  9 21  1  0  0  0
 10 22  1  0  0  0
 11 23  1  0  0  0
M  END
$$$$
