### 
### Created by X-TOOL on Mon Sep 10 21:13:14 2018
### 

@<TRIPOS>MOLECULE
4kw6_ligand
   23    24     1     0     0
SMALL
GAST_HUCK


@<TRIPOS>ATOM
      1 O3         26.0660  -58.3250  104.1650 O.2       1 QDO        -0.1578
      2 N3         25.0610  -57.8090  104.6930 N.ar      1 QDO        -0.0986
      3 C2         23.8470  -58.0240  104.1610 C.ar      1 QDO         0.1345
      4 C1         23.7890  -58.8940  102.9300 C.3       1 QDO         0.0082
      5 C11        22.7210  -57.4390  104.7660 C.ar      1 QDO         0.1156
      6 C12        21.3200  -57.5930  104.2670 C.3       1 QDO         0.0067
      7 C4         25.1880  -57.0420  105.7910 C.ar      1 QDO         0.1693
      8 C5         26.4410  -56.8080  106.3510 C.ar      1 QDO         0.0421
      9 C6         26.5710  -56.0140  107.4890 C.ar      1 QDO         0.0232
     10 C7         25.4450  -55.4410  108.0770 C.ar      1 QDO         0.0232
     11 C8         24.1880  -55.6660  107.5220 C.ar      1 QDO         0.0406
     12 C9         24.0610  -56.4650  106.3840 C.ar      1 QDO         0.1504
     13 N10        22.8570  -56.6770  105.8550 N.ar      1 QDO        -0.2088
     14 H1         22.7448  -58.9897  102.5975 H         1 QDO         0.0484
     15 H2         24.1915  -59.8902  103.1657 H         1 QDO         0.0484
     16 H3         24.3883  -58.4365  102.1291 H         1 QDO         0.0484
     17 H4         20.6342  -57.0351  104.9216 H         1 QDO         0.0483
     18 H5         21.0446  -58.6580  104.2700 H         1 QDO         0.0483
     19 H6         21.2503  -57.1991  103.2423 H         1 QDO         0.0483
     20 H7         27.3227  -57.2470  105.8982 H         1 QDO         0.1303
     21 H8         27.5514  -55.8416  107.9182 H         1 QDO         0.1003
     22 H9         25.5472  -54.8233  108.9619 H         1 QDO         0.1003
     23 H10        23.3085  -55.2211  107.9732 H         1 QDO         0.1303
@<TRIPOS>BOND
     1    1    2 2  
     2    2    3 ar 
     3    2    7 ar 
     4    3    4 1  
     5    3    5 ar 
     6    5    6 1  
     7    5   13 ar 
     8    7    8 ar 
     9    7   12 ar 
    10    8    9 ar 
    11    9   10 ar 
    12   10   11 ar 
    13   11   12 ar 
    14   12   13 ar 
    15    4   14 1  
    16    4   15 1  
    17    4   16 1  
    18    6   17 1  
    19    6   18 1  
    20    6   19 1  
    21    8   20 1  
    22    9   21 1  
    23   10   22 1  
    24   11   23 1  
@<TRIPOS>SUBSTRUCTURE
     1 QDO         1

