2ndo_ligand
  -I-interpret- 

 30 31  0  0  0  0  0  0  0  0999 V2000
    7.8580   -9.9300   -9.0100 O   0  0  0  0  0
    8.0120  -10.5040   -7.9120 C   0  0  0  0  0
    7.1160  -11.2600   -7.4840 O   0  0  0  0  0
    9.1870  -10.3150   -7.1900 C   0  0  0  0  0
   10.1890   -9.5040   -7.7070 C   0  0  0  0  0
   11.3790   -9.3330   -7.0050 C   0  0  0  0  0
   11.5690   -9.9710   -5.7870 C   0  0  0  0  0
   10.5700  -10.7780   -5.2630 C   0  0  0  0  0
    9.3810  -10.9440   -5.9650 C   0  0  0  0  0
    8.3800  -11.6940   -5.5060 N   0  0  0  0  0
    8.6040  -12.4500   -4.0780 S   0  0  0  0  0
    7.2700  -13.0390   -3.6120 O   0  0  0  0  0
    9.1040  -11.4560   -3.0280 O   0  0  0  0  0
    9.7620  -13.7490   -4.2830 C   0  0  0  0  0
   10.9500  -13.7530   -3.5610 C   0  0  0  0  0
   11.8590  -14.7890   -3.7320 C   0  0  0  0  0
   11.5820  -15.8240   -4.6160 C   0  0  0  0  0
   12.9500  -17.3860   -4.8740 I   0  0  0  0  0
   10.3940  -15.8210   -5.3360 C   0  0  0  0  0
    9.4840  -14.7830   -5.1690 C   0  0  0  0  0
    8.6282   -9.3885   -9.1975 H   0  0  0  0  0
   10.0436   -9.0011   -8.6630 H   0  0  0  0  0
   12.1639   -8.6962   -7.4131 H   0  0  0  0  0
   12.5036   -9.8378   -5.2421 H   0  0  0  0  0
   10.7160  -11.2793   -4.3062 H   0  0  0  0  0
    7.5084  -11.7916   -6.0268 H   0  0  0  0  0
   11.1675  -12.9450   -2.8624 H   0  0  0  0  0
   12.7932  -14.7899   -3.1705 H   0  0  0  0  0
   10.1754  -16.6316   -6.0312 H   0  0  0  0  0
    8.5516  -14.7803   -5.7336 H   0  0  0  0  0
  1  2  1  0  0  0
  2  3  2  0  0  0
  2  4  1  0  0  0
  4  5  4  0  0  0
  4  9  4  0  0  0
  5  6  4  0  0  0
  6  7  4  0  0  0
  7  8  4  0  0  0
  8  9  4  0  0  0
  9 10  1  0  0  0
 10 11  1  0  0  0
 11 12  2  0  0  0
 11 13  2  0  0  0
 11 14  1  0  0  0
 14 15  4  0  0  0
 14 20  4  0  0  0
 15 16  4  0  0  0
 16 17  4  0  0  0
 17 18  1  0  0  0
 17 19  4  0  0  0
 19 20  4  0  0  0
  1 21  1  0  0  0
  5 22  1  0  0  0
  6 23  1  0  0  0
  7 24  1  0  0  0
  8 25  1  0  0  0
 10 26  1  0  0  0
 15 27  1  0  0  0
 16 28  1  0  0  0
 19 29  1  0  0  0
 20 30  1  0  0  0
M  END
$$$$
