5xyz_ligand
  -I-interpret- 

 42 44  0  0  0  0  0  0  0  0999 V2000
   -9.5550   -9.3720  -37.4850 C   0  0  0  0  0
   -9.3520  -10.0860  -36.2970 C   0  0  0  0  0
   -9.6340   -9.4370  -35.0940 C   0  0  0  0  0
  -10.0930   -8.1250  -35.0890 C   0  0  0  0  0
  -10.2880   -7.4310  -36.2700 C   0  0  0  0  0
  -10.0170   -8.0580  -37.4740 C   0  0  0  0  0
   -9.6110  -20.4570  -34.1830 C   0  0  0  0  0
   -9.4870  -20.6640  -35.7000 C   0  0  0  0  0
   -8.1700  -19.9910  -36.0410 C   0  0  0  0  0
   -7.1190  -20.5090  -35.6460 O   0  0  0  0  0
   -8.2750  -18.8280  -36.7670 N   0  0  0  0  0
   -7.1800  -18.0860  -37.1240 C   0  0  0  0  0
   -7.2250  -16.6730  -37.0080 C   0  0  0  0  0
   -6.0210  -18.6750  -37.6370 C   0  0  0  0  0
   -4.9490  -17.8700  -37.9890 C   0  0  0  0  0
   -4.9960  -16.4930  -37.8550 C   0  0  0  0  0
   -6.1340  -15.8480  -37.3540 C   0  0  0  0  0
   -6.1680  -14.4920  -37.2580 C   0  0  0  0  0
   -7.2240  -13.7460  -36.9230 N   0  0  0  0  0
   -5.1600  -13.6430  -37.5480 N   0  0  0  0  0
   -5.5030  -12.4860  -37.4010 N   0  0  0  0  0
   -6.7810  -12.4860  -37.0160 C   0  0  0  0  0
   -7.4800  -11.3750  -36.7450 N   0  0  0  0  0
   -8.8930  -11.4030  -36.3120 C   0  0  0  0  0
   -9.2270  -10.0700  -38.9990 Cl  0  0  0  0  0
   -9.4680  -10.0180  -34.0020 F   0  0  0  0  0
  -10.3029   -7.6345  -34.1385 H   0  0  0  0  0
  -10.6505   -6.4032  -36.2525 H   0  0  0  0  0
  -10.1650   -7.5239  -38.4126 H   0  0  0  0  0
   -8.7630  -20.9252  -33.6832 H   0  0  0  0  0
   -9.6201  -19.3895  -33.9628 H   0  0  0  0  0
  -10.5376  -20.9100  -33.8303 H   0  0  0  0  0
  -10.3277  -20.2413  -36.2501 H   0  0  0  0  0
   -9.5041  -21.7169  -35.9815 H   0  0  0  0  0
   -9.2007  -18.5064  -37.0497 H   0  0  0  0  0
   -8.1377  -16.2065  -36.6372 H   0  0  0  0  0
   -5.9607  -19.7565  -37.7590 H   0  0  0  0  0
   -4.0443  -18.3338  -38.3820 H   0  0  0  0  0
   -4.1297  -15.8985  -38.1453 H   0  0  0  0  0
   -7.0170  -10.4713  -36.8417 H   0  0  0  0  0
   -9.4896  -12.0073  -36.9954 H   0  0  0  0  0
   -8.9797  -11.8486  -35.3210 H   0  0  0  0  0
  2  1  4  0  0  0
  1  6  4  0  0  0
  1 25  1  0  0  0
  2  3  4  0  0  0
 24  2  1  0  0  0
  3  4  4  0  0  0
  3 26  1  0  0  0
  4  5  4  0  0  0
  6  5  4  0  0  0
  8  7  1  0  0  0
  9  8  1  0  0  0
  9 10  2  0  0  0
 11  9  1  0  0  0
 12 11  1  0  0  0
 13 12  4  0  0  0
 12 14  4  0  0  0
 17 13  4  0  0  0
 15 14  4  0  0  0
 16 15  4  0  0  0
 17 16  4  0  0  0
 18 17  1  0  0  0
 19 18  4  0  0  0
 20 18  4  0  0  0
 22 19  4  0  0  0
 21 20  4  0  0  0
 22 21  4  0  0  0
 23 22  1  0  0  0
 23 24  1  0  0  0
  4 27  1  0  0  0
  5 28  1  0  0  0
  6 29  1  0  0  0
  7 30  1  0  0  0
  7 31  1  0  0  0
  7 32  1  0  0  0
  8 33  1  0  0  0
  8 34  1  0  0  0
 11 35  1  0  0  0
 13 36  1  0  0  0
 14 37  1  0  0  0
 15 38  1  0  0  0
 16 39  1  0  0  0
 23 40  1  0  0  0
 24 41  1  0  0  0
 24 42  1  0  0  0
M  END
$$$$
