### 
### Created by X-TOOL on Mon Sep 10 21:13:03 2018
### 

@<TRIPOS>MOLECULE
2xs8_ligand
  154   155     1     0     0
SMALL
GAST_HUCK


@<TRIPOS>ATOM
      1 N         -70.7150  -39.2870  -59.3330 N.4       1 ALA         0.2377
      2 CA        -70.9560  -38.4510  -60.5090 C.3       1 ALA         0.0621
      3 C         -70.1590  -37.1500  -60.4230 C.2       1 ALA         0.2265
      4 O         -69.7130  -36.6060  -61.4400 O.2       1 ALA        -0.3907
      5 CB        -72.4460  -38.1540  -60.6650 C.3       1 ALA        -0.0040
      6 N         -69.9970  -36.6510  -59.2000 N.am      1 TYR        -0.2594
      7 CA        -69.1560  -35.4860  -58.9470 C.3       1 TYR         0.1391
      8 C         -67.8190  -35.9010  -58.3270 C.2       1 TYR         0.2058
      9 O         -67.0100  -35.0570  -57.9350 O.2       1 TYR        -0.3942
     10 CB        -69.8820  -34.4740  -58.0560 C.3       1 TYR         0.0164
     11 CG        -71.0210  -33.7920  -58.7570 C.ar      1 TYR        -0.0493
     12 CD1       -70.8070  -32.6690  -59.5400 C.ar      1 TYR        -0.0685
     13 CD2       -72.3140  -34.2830  -58.6570 C.ar      1 TYR        -0.0685
     14 CE1       -71.8510  -32.0450  -60.1950 C.ar      1 TYR        -0.0398
     15 CE2       -73.3680  -33.6640  -59.3090 C.ar      1 TYR        -0.0398
     16 CZ        -73.1300  -32.5490  -60.0760 C.ar      1 TYR         0.0805
     17 OH        -74.1770  -31.9360  -60.7220 O.3       1 TYR        -0.3376
     18 N         -67.5960  -37.2090  -58.2420 N.am      1 ASP        -0.2620
     19 CA        -66.3070  -37.7290  -57.8020 C.3       1 ASP         0.1425
     20 C         -65.1640  -37.2520  -58.7060 C.2       1 ASP         0.2081
     21 O         -64.1160  -36.8530  -58.2100 O.2       1 ASP        -0.3941
     22 CB        -66.3330  -39.2590  -57.7180 C.3       1 ASP         0.0406
     23 CG        -67.3800  -39.7740  -56.7400 C.2       1 ASP         0.0393
     24 OD1       -67.8440  -38.9770  -55.8940 O.co2     1 ASP        -0.5688
     25 OD2       -67.7320  -40.9740  -56.8130 O.co2     1 ASP        -0.5688
     26 N         -65.3670  -37.2780  -60.0360 N.am      1 PRO        -0.2497
     27 CA        -64.3190  -36.8330  -60.9620 C.3       1 PRO         0.1338
     28 C         -63.8850  -35.3830  -60.7270 C.2       1 PRO         0.2041
     29 O         -62.7510  -35.0170  -61.0490 O.2       1 PRO        -0.3944
     30 CB        -64.9900  -36.9680  -62.3370 C.3       1 PRO        -0.0104
     31 CG        -66.4510  -36.9530  -62.0560 C.3       1 PRO        -0.0281
     32 CD        -66.5860  -37.6810  -60.7560 C.3       1 PRO         0.0369
     33 N         -64.7800  -34.5690  -60.1770 N.am      1 ALA        -0.2640
     34 CA        -64.4760  -33.1650  -59.9320 C.3       1 ALA         0.1282
     35 C         -63.8390  -32.9700  -58.5620 C.2       1 ALA         0.2036
     36 O         -62.9720  -32.1180  -58.3960 O.2       1 ALA        -0.3944
     37 CB        -65.7230  -32.3070  -60.0760 C.3       1 ALA        -0.0244
     38 N         -64.2660  -33.7560  -57.5790 N.am      1 ARG        -0.2637
     39 CA        -63.6320  -33.7100  -56.2650 C.3       1 ARG         0.1311
     40 C         -62.1660  -34.1170  -56.3530 C.2       1 ARG         0.2039
     41 O         -61.3370  -33.6720  -55.5570 O.2       1 ARG        -0.3944
     42 CB        -64.3440  -34.6250  -55.2760 C.3       1 ARG        -0.0092
     43 CG        -65.6810  -34.1240  -54.8050 C.3       1 ARG        -0.0156
     44 CD        -66.0420  -34.7950  -53.5030 C.3       1 ARG         0.0627
     45 NE        -67.4790  -34.7870  -53.2710 N.pl3     1 ARG        -0.2723
     46 CZ        -68.1420  -33.7600  -52.7560 C.cat     1 ARG         0.2882
     47 NH1       -67.4900  -32.6550  -52.4250 N.pl3     1 ARG        -0.2849
     48 NH2       -69.4560  -33.8360  -52.5790 N.pl3     1 ARG        -0.2849
     49 N         -61.8560  -34.9740  -57.3190 N.am      1 LYS        -0.2637
     50 CA        -60.4920  -35.4440  -57.5060 C.3       1 LYS         0.1310
     51 C         -59.5600  -34.2700  -57.7790 C.2       1 LYS         0.2039
     52 O         -58.4310  -34.2330  -57.2830 O.2       1 LYS        -0.3944
     53 CB        -60.4230  -36.4390  -58.6670 C.3       1 LYS        -0.0122
     54 CG        -59.0450  -37.0510  -58.8910 C.3       1 LYS        -0.0440
     55 CD        -58.7460  -37.1880  -60.3770 C.3       1 LYS        -0.0124
     56 CE        -57.6670  -38.2200  -60.6370 C.3       1 LYS        -0.0354
     57 NZ        -58.0800  -39.5740  -60.1710 N.4       1 LYS         0.2185
     58 N         -60.0450  -33.3080  -58.5600 N.am      1 LEU        -0.2637
     59 CA        -59.2220  -32.1830  -58.9970 C.3       1 LEU         0.1312
     60 C         -58.9780  -31.1500  -57.8940 C.2       1 LEU         0.2033
     61 O         -58.1450  -30.2510  -58.0460 O.2       1 LEU        -0.3944
     62 CB        -59.8240  -31.5300  -60.2420 C.3       1 LEU        -0.0101
     63 CG        -59.9360  -32.4660  -61.4490 C.3       1 LEU        -0.0425
     64 CD1       -60.4100  -31.7170  -62.6900 C.3       1 LEU        -0.0625
     65 CD2       -58.5950  -33.1500  -61.7090 C.3       1 LEU        -0.0625
     66 N         -59.7060  -31.2880  -56.7880 N.am      1 LEU        -0.2695
     67 CA        -59.4530  -30.4860  -55.5950 C.3       1 LEU         0.0946
     68 C         -58.2520  -31.0460  -54.8220 C.2       1 LEU         0.0601
     69 O         -58.3000  -31.2290  -53.6020 O.co2     1 LEU        -0.5666
     70 CB        -60.6940  -30.4380  -54.7020 C.3       1 LEU        -0.0156
     71 CG        -61.9550  -29.8170  -55.3110 C.3       1 LEU        -0.0431
     72 CD1       -63.0660  -29.7350  -54.2790 C.3       1 LEU        -0.0625
     73 CD2       -61.6640  -28.4410  -55.8730 C.3       1 LEU        -0.0625
     74 OXT       -57.1960  -31.3330  -55.3930 O.co2     1 LEU        -0.5666
     75 H1        -71.2495  -40.1381  -59.4106 H         1 ALA         0.2015
     76 H2        -70.9957  -38.7885  -58.5031 H         1 ALA         0.2015
     77 H3        -69.7338  -39.5105  -59.2750 H         1 ALA         0.2015
     78 H4        -70.6193  -39.0036  -61.3985 H         1 ALA         0.1095
     79 H5        -72.6034  -37.5253  -61.5538 H         1 ALA         0.0310
     80 H6        -72.8098  -37.6244  -59.7722 H         1 ALA         0.0310
     81 H7        -72.9979  -39.0983  -60.7815 H         1 ALA         0.0310
     82 H8        -70.4655  -37.0874  -58.4318 H         1 TYR         0.1886
     83 H9        -68.9471  -35.0011  -59.9120 H         1 TYR         0.0821
     84 H10       -69.1603  -33.7094  -57.7326 H         1 TYR         0.0453
     85 H11       -70.2770  -35.0013  -57.1751 H         1 TYR         0.0453
     86 H12       -69.8028  -32.2732  -59.6403 H         1 TYR         0.0530
     87 H13       -72.5033  -35.1666  -58.0582 H         1 TYR         0.0530
     88 H14       -71.6664  -31.1641  -60.7992 H         1 TYR         0.0525
     89 H15       -74.3740  -34.0567  -59.2147 H         1 TYR         0.0525
     90 H16       -73.8530  -31.1859  -61.2068 H         1 TYR         0.2458
     91 H17       -68.3260  -37.8480  -58.4844 H         1 ASP         0.1884
     92 H18       -66.1178  -37.3395  -56.7908 H         1 ASP         0.0819
     93 H19       -65.3431  -39.6108  -57.3919 H         1 ASP         0.0478
     94 H20       -66.5550  -39.6630  -58.7167 H         1 ASP         0.0478
     95 H21       -63.4381  -37.4875  -60.8870 H         1 PRO         0.0802
     96 H22       -64.6986  -37.9133  -62.8182 H         1 PRO         0.0313
     97 H23       -64.7127  -36.1250  -62.9869 H         1 PRO         0.0313
     98 H24       -67.0061  -37.4711  -62.8519 H         1 PRO         0.0287
     99 H25       -66.8194  -35.9206  -61.9643 H         1 PRO         0.0287
    100 H26       -67.4900  -37.3642  -60.2152 H         1 PRO         0.0524
    101 H27       -66.6142  -38.7696  -60.9113 H         1 PRO         0.0524
    102 H28       -65.6795  -34.9269  -59.9264 H         1 ALA         0.1883
    103 H29       -63.7504  -32.8388  -60.6917 H         1 ALA         0.0797
    104 H30       -65.4674  -31.2540  -59.8866 H         1 ALA         0.0277
    105 H31       -66.4808  -32.6366  -59.3500 H         1 ALA         0.0277
    106 H32       -66.1229  -32.4095  -61.0956 H         1 ALA         0.0277
    107 H33       -65.0274  -34.3837  -57.7408 H         1 ARG         0.1883
    108 H34       -63.6889  -32.6770  -55.8912 H         1 ARG         0.0800
    109 H35       -63.6955  -34.7489  -54.3962 H         1 ARG         0.0313
    110 H36       -64.4954  -35.6010  -55.7603 H         1 ARG         0.0313
    111 H37       -66.4459  -34.3557  -55.5608 H         1 ARG         0.0301
    112 H38       -65.6320  -33.0354  -54.6547 H         1 ARG         0.0301
    113 H39       -65.5453  -34.2628  -52.6784 H         1 ARG         0.0689
    114 H40       -65.6916  -35.8373  -53.5305 H         1 ARG         0.0689
    115 H41       -68.0139  -35.6306  -53.5222 H         1 ARG         0.2642
    116 H42       -68.0015  -31.8555  -52.0249 H         1 ARG         0.2615
    117 H43       -66.4717  -32.5955  -52.5678 H         1 ARG         0.2615
    118 H44       -69.9615  -34.6956  -52.8368 H         1 ARG         0.2615
    119 H45       -69.9696  -33.0353  -52.1840 H         1 ARG         0.2615
    120 H46       -62.5753  -35.3032  -57.9307 H         1 LYS         0.1883
    121 H47       -60.1648  -35.9502  -56.5858 H         1 LYS         0.0800
    122 H48       -60.7203  -35.9150  -59.5873 H         1 LYS         0.0312
    123 H49       -61.1326  -37.2545  -58.4638 H         1 LYS         0.0312
    124 H50       -59.0129  -38.0464  -58.4241 H         1 LYS         0.0269
    125 H51       -58.2845  -36.4045  -58.4289 H         1 LYS         0.0269
    126 H52       -58.4098  -36.2150  -60.7645 H         1 LYS         0.0317
    127 H53       -59.6648  -37.4931  -60.8992 H         1 LYS         0.0317
    128 H54       -56.7522  -37.9224  -60.1035 H         1 LYS         0.0813
    129 H55       -57.4646  -38.2606  -61.7174 H         1 LYS         0.0813
    130 H56       -57.3414  -40.2337  -60.3588 H         1 LYS         0.1994
    131 H57       -58.9153  -39.8570  -60.6590 H         1 LYS         0.1994
    132 H58       -58.2626  -39.5471  -59.1800 H         1 LYS         0.1994
    133 H59       -60.9990  -33.3565  -58.8559 H         1 LEU         0.1883
    134 H60       -58.2399  -32.5904  -59.2788 H         1 LEU         0.0800
    135 H61       -59.1902  -30.6766  -60.5248 H         1 LEU         0.0315
    136 H62       -60.8324  -31.1702  -59.9896 H         1 LEU         0.0315
    137 H63       -60.6797  -33.2417  -61.2141 H         1 LEU         0.0298
    138 H64       -60.4794  -32.4164  -63.5362 H         1 LEU         0.0232
    139 H65       -59.6934  -30.9184  -62.9323 H         1 LEU         0.0232
    140 H66       -61.3990  -31.2760  -62.4967 H         1 LEU         0.0232
    141 H67       -58.2733  -33.6829  -60.8021 H         1 LEU         0.0232
    142 H68       -57.8428  -32.3930  -61.9756 H         1 LEU         0.0232
    143 H69       -58.7032  -33.8667  -62.5364 H         1 LEU         0.0232
    144 H70       -60.4467  -31.9597  -56.7742 H         1 LEU         0.1875
    145 H71       -59.2146  -29.4597  -55.9110 H         1 LEU         0.0726
    146 H72       -60.4365  -29.8571  -53.8041 H         1 LEU         0.0308
    147 H73       -60.9372  -31.4711  -54.4131 H         1 LEU         0.0308
    148 H74       -62.2933  -30.4629  -56.1346 H         1 LEU         0.0297
    149 H75       -63.9599  -29.2869  -54.7374 H         1 LEU         0.0232
    150 H76       -62.7363  -29.1128  -53.4339 H         1 LEU         0.0232
    151 H77       -63.3067  -30.7459  -53.9182 H         1 LEU         0.0232
    152 H78       -60.8585  -28.5124  -56.6187 H         1 LEU         0.0232
    153 H79       -61.3514  -27.7709  -55.0586 H         1 LEU         0.0232
    154 H80       -62.5707  -28.0404  -56.3499 H         1 LEU         0.0232
@<TRIPOS>BOND
     1    1    2 1  
     2    2    3 1  
     3    2    5 1  
     4    3    4 2  
     5    3    6 am 
     6    6    7 1  
     7    7    8 1  
     8    7   10 1  
     9    8    9 2  
    10    8   18 am 
    11   10   11 1  
    12   11   12 ar 
    13   11   13 ar 
    14   12   14 ar 
    15   13   15 ar 
    16   14   16 ar 
    17   15   16 ar 
    18   16   17 1  
    19   18   19 1  
    20   19   20 1  
    21   19   22 1  
    22   20   21 2  
    23   20   26 am 
    24   22   23 1  
    25   23   24 ar 
    26   23   25 ar 
    27   26   27 1  
    28   26   32 1  
    29   27   28 1  
    30   27   30 1  
    31   28   29 2  
    32   28   33 am 
    33   30   31 1  
    34   31   32 1  
    35   33   34 1  
    36   34   35 1  
    37   34   37 1  
    38   35   36 2  
    39   35   38 am 
    40   38   39 1  
    41   39   40 1  
    42   39   42 1  
    43   40   41 2  
    44   40   49 am 
    45   42   43 1  
    46   43   44 1  
    47   44   45 1  
    48   45   46 ar 
    49   46   47 ar 
    50   46   48 ar 
    51   49   50 1  
    52   50   51 1  
    53   50   53 1  
    54   51   52 2  
    55   51   58 am 
    56   53   54 1  
    57   54   55 1  
    58   55   56 1  
    59   56   57 1  
    60   58   59 1  
    61   59   60 1  
    62   59   62 1  
    63   60   61 2  
    64   60   66 am 
    65   62   63 1  
    66   63   64 1  
    67   63   65 1  
    68   66   67 1  
    69   67   68 1  
    70   67   70 1  
    71   68   69 ar 
    72   68   74 ar 
    73   70   71 1  
    74   71   72 1  
    75   71   73 1  
    76    1   75 1  
    77    1   76 1  
    78    1   77 1  
    79    2   78 1  
    80    5   79 1  
    81    5   80 1  
    82    5   81 1  
    83    6   82 1  
    84    7   83 1  
    85   10   84 1  
    86   10   85 1  
    87   12   86 1  
    88   13   87 1  
    89   14   88 1  
    90   15   89 1  
    91   17   90 1  
    92   18   91 1  
    93   19   92 1  
    94   22   93 1  
    95   22   94 1  
    96   27   95 1  
    97   30   96 1  
    98   30   97 1  
    99   31   98 1  
   100   31   99 1  
   101   32  100 1  
   102   32  101 1  
   103   33  102 1  
   104   34  103 1  
   105   37  104 1  
   106   37  105 1  
   107   37  106 1  
   108   38  107 1  
   109   39  108 1  
   110   42  109 1  
   111   42  110 1  
   112   43  111 1  
   113   43  112 1  
   114   44  113 1  
   115   44  114 1  
   116   45  115 1  
   117   47  116 1  
   118   47  117 1  
   119   48  118 1  
   120   48  119 1  
   121   49  120 1  
   122   50  121 1  
   123   53  122 1  
   124   53  123 1  
   125   54  124 1  
   126   54  125 1  
   127   55  126 1  
   128   55  127 1  
   129   56  128 1  
   130   56  129 1  
   131   57  130 1  
   132   57  131 1  
   133   57  132 1  
   134   58  133 1  
   135   59  134 1  
   136   62  135 1  
   137   62  136 1  
   138   63  137 1  
   139   64  138 1  
   140   64  139 1  
   141   64  140 1  
   142   65  141 1  
   143   65  142 1  
   144   65  143 1  
   145   66  144 1  
   146   67  145 1  
   147   70  146 1  
   148   70  147 1  
   149   71  148 1  
   150   72  149 1  
   151   72  150 1  
   152   72  151 1  
   153   73  152 1  
   154   73  153 1  
   155   73  154 1  
@<TRIPOS>SUBSTRUCTURE
     1 ALA         1

