2xs8_ligand
  -I-interpret- 

155156  0  0  0  0  0  0  0  0999 V2000
  -70.7150  -39.2870  -59.3330 N   0  3  0  0  0
  -70.9560  -38.4510  -60.5090 C   0  0  0  0  0
  -70.1590  -37.1500  -60.4230 C   0  0  0  0  0
  -69.7130  -36.6060  -61.4400 O   0  0  0  0  0
  -72.4460  -38.1540  -60.6650 C   0  0  0  0  0
  -69.9970  -36.6510  -59.2000 N   0  0  0  0  0
  -69.1560  -35.4860  -58.9470 C   0  0  0  0  0
  -67.8190  -35.9010  -58.3270 C   0  0  0  0  0
  -67.0100  -35.0570  -57.9350 O   0  0  0  0  0
  -69.8820  -34.4740  -58.0560 C   0  0  0  0  0
  -71.0210  -33.7920  -58.7570 C   0  0  0  0  0
  -70.8070  -32.6690  -59.5400 C   0  0  0  0  0
  -72.3140  -34.2830  -58.6570 C   0  0  0  0  0
  -71.8510  -32.0450  -60.1950 C   0  0  0  0  0
  -73.3680  -33.6640  -59.3090 C   0  0  0  0  0
  -73.1300  -32.5490  -60.0760 C   0  0  0  0  0
  -74.1770  -31.9360  -60.7220 O   0  0  0  0  0
  -67.5960  -37.2090  -58.2420 N   0  0  0  0  0
  -66.3070  -37.7290  -57.8020 C   0  0  0  0  0
  -65.1640  -37.2520  -58.7060 C   0  0  0  0  0
  -64.1160  -36.8530  -58.2100 O   0  0  0  0  0
  -66.3330  -39.2590  -57.7180 C   0  0  0  0  0
  -67.3800  -39.7740  -56.7400 C   0  0  0  0  0
  -67.8440  -38.9770  -55.8940 O   0  0  0  0  0
  -67.7320  -40.9740  -56.8130 O   0  0  0  0  0
  -65.3670  -37.2780  -60.0360 N   0  0  0  0  0
  -64.3190  -36.8330  -60.9620 C   0  0  0  0  0
  -63.8850  -35.3830  -60.7270 C   0  0  0  0  0
  -62.7510  -35.0170  -61.0490 O   0  0  0  0  0
  -64.9900  -36.9680  -62.3370 C   0  0  0  0  0
  -66.4510  -36.9530  -62.0560 C   0  0  0  0  0
  -66.5860  -37.6810  -60.7560 C   0  0  0  0  0
  -64.7800  -34.5690  -60.1770 N   0  0  0  0  0
  -64.4760  -33.1650  -59.9320 C   0  0  0  0  0
  -63.8390  -32.9700  -58.5620 C   0  0  0  0  0
  -62.9720  -32.1180  -58.3960 O   0  0  0  0  0
  -65.7230  -32.3070  -60.0760 C   0  0  0  0  0
  -64.2660  -33.7560  -57.5790 N   0  0  0  0  0
  -63.6320  -33.7100  -56.2650 C   0  0  0  0  0
  -62.1660  -34.1170  -56.3530 C   0  0  0  0  0
  -61.3370  -33.6720  -55.5570 O   0  0  0  0  0
  -64.3440  -34.6250  -55.2760 C   0  0  0  0  0
  -65.6810  -34.1240  -54.8050 C   0  0  0  0  0
  -66.0420  -34.7950  -53.5030 C   0  0  0  0  0
  -67.4790  -34.7870  -53.2710 N   0  0  0  0  0
  -68.1420  -33.7600  -52.7560 C   0  0  0  0  0
  -67.4900  -32.6550  -52.4250 N   0  0  0  0  0
  -69.4560  -33.8360  -52.5790 N   0  0  0  0  0
  -61.8560  -34.9740  -57.3190 N   0  0  0  0  0
  -60.4920  -35.4440  -57.5060 C   0  0  0  0  0
  -59.5600  -34.2700  -57.7790 C   0  0  0  0  0
  -58.4310  -34.2330  -57.2830 O   0  0  0  0  0
  -60.4230  -36.4390  -58.6670 C   0  0  0  0  0
  -59.0450  -37.0510  -58.8910 C   0  0  0  0  0
  -58.7460  -37.1880  -60.3770 C   0  0  0  0  0
  -57.6670  -38.2200  -60.6370 C   0  0  0  0  0
  -58.0800  -39.5740  -60.1710 N   0  3  0  0  0
  -60.0450  -33.3080  -58.5600 N   0  0  0  0  0
  -59.2220  -32.1830  -58.9970 C   0  0  0  0  0
  -58.9780  -31.1500  -57.8940 C   0  0  0  0  0
  -58.1450  -30.2510  -58.0460 O   0  0  0  0  0
  -59.8240  -31.5300  -60.2420 C   0  0  0  0  0
  -59.9360  -32.4660  -61.4490 C   0  0  0  0  0
  -60.4100  -31.7170  -62.6900 C   0  0  0  0  0
  -58.5950  -33.1500  -61.7090 C   0  0  0  0  0
  -59.7060  -31.2880  -56.7880 N   0  0  0  0  0
  -59.4530  -30.4860  -55.5950 C   0  0  0  0  0
  -58.2520  -31.0460  -54.8220 C   0  0  0  0  0
  -58.3000  -31.2290  -53.6020 O   0  0  0  0  0
  -60.6940  -30.4380  -54.7020 C   0  0  0  0  0
  -61.9550  -29.8170  -55.3110 C   0  0  0  0  0
  -63.0660  -29.7350  -54.2790 C   0  0  0  0  0
  -61.6640  -28.4410  -55.8730 C   0  0  0  0  0
  -57.1960  -31.3330  -55.3930 O   0  0  0  0  0
  -69.7156  -39.4726  -59.2483 H   0  0  0  0  0
  -71.0437  -38.8010  -58.4987 H   0  0  0  0  0
  -71.2182  -40.1683  -59.4350 H   0  0  0  0  0
  -70.6205  -39.0011  -61.3882 H   0  0  0  0  0
  -72.7929  -37.5809  -59.8052 H   0  0  0  0  0
  -72.6069  -37.5778  -61.5762 H   0  0  0  0  0
  -72.9979  -39.0921  -60.7246 H   0  0  0  0  0
  -70.4749  -37.0961  -58.4165 H   0  0  0  0  0
  -68.9476  -35.0056  -59.9030 H   0  0  0  0  0
  -69.1624  -33.7083  -57.7663 H   0  0  0  0  0
  -70.2914  -35.0145  -57.2026 H   0  0  0  0  0
  -69.7973  -32.2710  -59.6409 H   0  0  0  0  0
  -72.5044  -35.1715  -58.0549 H   0  0  0  0  0
  -71.6654  -31.1593  -60.8026 H   0  0  0  0  0
  -74.3795  -34.0589  -59.2142 H   0  0  0  0  0
  -74.9897  -32.4111  -60.5341 H   0  0  0  0  0
  -68.3406  -37.8608  -58.4892 H   0  0  0  0  0
  -66.1211  -37.3343  -56.8031 H   0  0  0  0  0
  -65.3556  -39.5924  -57.3693 H   0  0  0  0  0
  -66.5793  -39.6451  -58.7071 H   0  0  0  0  0
  -67.2556  -41.4032  -57.5275 H   0  0  0  0  0
  -63.4063  -37.4174  -60.8454 H   0  0  0  0  0
  -64.6861  -37.8824  -62.8466 H   0  0  0  0  0
  -64.6997  -36.1604  -63.0090 H   0  0  0  0  0
  -67.0264  -37.4254  -62.8521 H   0  0  0  0  0
  -66.8475  -35.9392  -62.0012 H   0  0  0  0  0
  -67.5011  -37.4301  -60.2195 H   0  0  0  0  0
  -66.6720  -38.7607  -60.8785 H   0  0  0  0  0
  -65.6975  -34.9340  -59.9214 H   0  0  0  0  0
  -63.7547  -32.8447  -60.6839 H   0  0  0  0  0
  -66.1183  -32.4095  -61.0866 H   0  0  0  0  0
  -66.4730  -32.6347  -59.3562 H   0  0  0  0  0
  -65.4685  -31.2639  -59.8881 H   0  0  0  0  0
  -65.0427  -34.3963  -57.7441 H   0  0  0  0  0
  -63.7011  -32.6812  -55.9115 H   0  0  0  0  0
  -63.7052  -34.6984  -54.3959 H   0  0  0  0  0
  -64.5228  -35.5693  -55.7902 H   0  0  0  0  0
  -66.4388  -34.3545  -55.5538 H   0  0  0  0  0
  -65.6317  -33.0454  -54.6554 H   0  0  0  0  0
  -65.5609  -34.2492  -52.6914 H   0  0  0  0  0
  -65.7079  -35.8316  -53.5476 H   0  0  0  0  0
  -68.0087  -35.6225  -53.5197 H   0  0  0  0  0
  -66.4816  -32.5961  -52.5665 H   0  0  0  0  0
  -69.9646  -33.0431  -52.1878 H   0  0  0  0  0
  -69.9566  -34.6873  -52.8343 H   0  0  0  0  0
  -62.5897  -35.3098  -57.9430 H   0  0  0  0  0
  -60.1746  -35.9452  -56.5916 H   0  0  0  0  0
  -60.6808  -35.8912  -59.5734 H   0  0  0  0  0
  -61.1014  -37.2578  -58.4272 H   0  0  0  0  0
  -59.0235  -38.0415  -58.4366 H   0  0  0  0  0
  -58.2953  -36.4000  -58.4414 H   0  0  0  0  0
  -58.3970  -36.2243  -60.7480 H   0  0  0  0  0
  -59.6569  -37.5075  -60.8832 H   0  0  0  0  0
  -56.7705  -37.9263  -60.0910 H   0  0  0  0  0
  -57.4854  -38.2657  -61.7108 H   0  0  0  0  0
  -57.3319  -40.2407  -60.3615 H   0  0  0  0  0
  -58.2645  -39.5455  -59.1682 H   0  0  0  0  0
  -58.9253  -39.8593  -60.6655 H   0  0  0  0  0
  -61.0181  -33.3575  -58.8618 H   0  0  0  0  0
  -58.2429  -32.5901  -59.2494 H   0  0  0  0  0
  -59.1622  -30.7128  -60.5288 H   0  0  0  0  0
  -60.8352  -31.2156  -59.9836 H   0  0  0  0  0
  -60.6813  -33.2280  -61.2210 H   0  0  0  0  0
  -61.3900  -31.2805  -62.4972 H   0  0  0  0  0
  -59.6992  -30.9260  -62.9290 H   0  0  0  0  0
  -60.4784  -32.4110  -63.5277 H   0  0  0  0  0
  -57.8361  -32.3941  -61.9109 H   0  0  0  0  0
  -58.3080  -33.7295  -60.8315 H   0  0  0  0  0
  -58.6874  -33.8128  -62.5694 H   0  0  0  0  0
  -60.4615  -31.9731  -56.7739 H   0  0  0  0  0
  -59.2204  -29.4678  -55.9067 H   0  0  0  0  0
  -59.1648  -30.9709  -53.2746 H   0  0  0  0  0
  -60.4290  -29.8084  -53.8526 H   0  0  0  0  0
  -60.9461  -31.4753  -54.4817 H   0  0  0  0  0
  -62.2829  -30.4609  -56.1271 H   0  0  0  0  0
  -63.3035  -30.7372  -53.9223 H   0  0  0  0  0
  -62.7381  -29.1183  -53.4422 H   0  0  0  0  0
  -63.9511  -29.2908  -54.7344 H   0  0  0  0  0
  -61.3044  -27.7923  -55.0743 H   0  0  0  0  0
  -60.9025  -28.5204  -56.6489 H   0  0  0  0  0
  -62.5764  -28.0235  -56.2989 H   0  0  0  0  0
  1  2  1  0  0  0
  2  3  1  0  0  0
  2  5  1  0  0  0
  3  4  2  0  0  0
  3  6  1  0  0  0
  6  7  1  0  0  0
  7  8  1  0  0  0
  7 10  1  0  0  0
  8  9  2  0  0  0
  8 18  1  0  0  0
 10 11  1  0  0  0
 11 12  4  0  0  0
 11 13  4  0  0  0
 12 14  4  0  0  0
 13 15  4  0  0  0
 14 16  4  0  0  0
 15 16  4  0  0  0
 16 17  1  0  0  0
 18 19  1  0  0  0
 19 20  1  0  0  0
 19 22  1  0  0  0
 20 21  2  0  0  0
 20 26  1  0  0  0
 22 23  1  0  0  0
 23 24  2  0  0  0
 23 25  1  0  0  0
 26 27  1  0  0  0
 26 32  1  0  0  0
 27 28  1  0  0  0
 27 30  1  0  0  0
 28 29  2  0  0  0
 28 33  1  0  0  0
 30 31  1  0  0  0
 31 32  1  0  0  0
 33 34  1  0  0  0
 34 35  1  0  0  0
 34 37  1  0  0  0
 35 36  2  0  0  0
 35 38  1  0  0  0
 38 39  1  0  0  0
 39 40  1  0  0  0
 39 42  1  0  0  0
 40 41  2  0  0  0
 40 49  1  0  0  0
 42 43  1  0  0  0
 43 44  1  0  0  0
 44 45  1  0  0  0
 45 46  1  0  0  0
 46 47  2  0  0  0
 46 48  1  0  0  0
 49 50  1  0  0  0
 50 51  1  0  0  0
 50 53  1  0  0  0
 51 52  2  0  0  0
 51 58  1  0  0  0
 53 54  1  0  0  0
 54 55  1  0  0  0
 55 56  1  0  0  0
 56 57  1  0  0  0
 58 59  1  0  0  0
 59 60  1  0  0  0
 59 62  1  0  0  0
 60 61  2  0  0  0
 60 66  1  0  0  0
 62 63  1  0  0  0
 63 64  1  0  0  0
 63 65  1  0  0  0
 66 67  1  0  0  0
 67 68  1  0  0  0
 67 70  1  0  0  0
 68 69  1  0  0  0
 68 74  2  0  0  0
 70 71  1  0  0  0
 71 72  1  0  0  0
 71 73  1  0  0  0
  1 75  1  0  0  0
  1 76  1  0  0  0
  1 77  1  0  0  0
  2 78  1  0  0  0
  5 79  1  0  0  0
  5 80  1  0  0  0
  5 81  1  0  0  0
  6 82  1  0  0  0
  7 83  1  0  0  0
 10 84  1  0  0  0
 10 85  1  0  0  0
 12 86  1  0  0  0
 13 87  1  0  0  0
 14 88  1  0  0  0
 15 89  1  0  0  0
 17 90  1  0  0  0
 18 91  1  0  0  0
 19 92  1  0  0  0
 22 93  1  0  0  0
 22 94  1  0  0  0
 25 95  1  0  0  0
 27 96  1  0  0  0
 30 97  1  0  0  0
 30 98  1  0  0  0
 31 99  1  0  0  0
 31100  1  0  0  0
 32101  1  0  0  0
 32102  1  0  0  0
 33103  1  0  0  0
 34104  1  0  0  0
 37105  1  0  0  0
 37106  1  0  0  0
 37107  1  0  0  0
 38108  1  0  0  0
 39109  1  0  0  0
 42110  1  0  0  0
 42111  1  0  0  0
 43112  1  0  0  0
 43113  1  0  0  0
 44114  1  0  0  0
 44115  1  0  0  0
 45116  1  0  0  0
 47117  1  0  0  0
 48118  1  0  0  0
 48119  1  0  0  0
 49120  1  0  0  0
 50121  1  0  0  0
 53122  1  0  0  0
 53123  1  0  0  0
 54124  1  0  0  0
 54125  1  0  0  0
 55126  1  0  0  0
 55127  1  0  0  0
 56128  1  0  0  0
 56129  1  0  0  0
 57130  1  0  0  0
 57131  1  0  0  0
 57132  1  0  0  0
 58133  1  0  0  0
 59134  1  0  0  0
 62135  1  0  0  0
 62136  1  0  0  0
 63137  1  0  0  0
 64138  1  0  0  0
 64139  1  0  0  0
 64140  1  0  0  0
 65141  1  0  0  0
 65142  1  0  0  0
 65143  1  0  0  0
 66144  1  0  0  0
 67145  1  0  0  0
 69146  1  0  0  0
 70147  1  0  0  0
 70148  1  0  0  0
 71149  1  0  0  0
 72150  1  0  0  0
 72151  1  0  0  0
 72152  1  0  0  0
 73153  1  0  0  0
 73154  1  0  0  0
 73155  1  0  0  0
M  END
$$$$
