5e6o_ligand
  -I-interpret- 

 78 79  0  0  0  0  0  0  0  0999 V2000
    2.3090  -13.7830  -21.4010 N   0  3  0  0  0
    2.2480  -12.6580  -22.3290 C   0  0  0  0  0
    3.1770  -12.8300  -23.5200 C   0  0  0  0  0
    4.3240  -13.2490  -23.3700 O   0  0  0  0  0
    2.6010  -11.3570  -21.6120 C   0  0  0  0  0
    1.6640  -11.0000  -20.5200 C   0  0  0  0  0
    1.7500  -11.3770  -19.2160 C   0  0  0  0  0
    0.5030  -10.1740  -20.6270 C   0  0  0  0  0
    0.7050  -10.8480  -18.5030 N   0  0  0  0  0
   -0.0760  -10.0990  -19.3460 C   0  0  0  0  0
   -0.1120   -9.4920  -21.6830 C   0  0  0  0  0
   -1.2320   -9.3670  -19.0890 C   0  0  0  0  0
   -1.2610   -8.7630  -21.4260 C   0  0  0  0  0
   -1.8080   -8.7080  -20.1430 C   0  0  0  0  0
    2.6780  -12.4940  -24.7020 N   0  0  0  0  0
    3.5150  -12.4170  -25.8840 C   0  0  0  0  0
    3.9570  -10.9690  -26.0880 C   0  0  0  0  0
    3.1590  -10.1050  -26.4500 O   0  0  0  0  0
    2.7780  -12.9500  -27.1140 C   0  0  0  0  0
    3.6850  -13.2200  -28.2970 C   0  0  0  0  0
    4.7290  -14.2890  -28.0110 C   0  0  0  0  0
    4.4540  -15.1890  -27.1880 O   0  0  0  0  0
    5.8280  -14.2250  -28.6060 O   0  0  0  0  0
    5.2370  -10.7070  -25.8420 N   0  0  0  0  0
    5.7350   -9.3400  -25.8300 C   0  0  0  0  0
    6.3720   -8.9400  -27.1530 C   0  0  0  0  0
    7.4670   -9.3930  -27.4920 O   0  0  0  0  0
    6.7340   -9.1590  -24.6890 C   0  0  0  0  0
    6.2260   -9.6860  -23.3550 C   0  0  0  0  0
    6.9570   -9.0770  -22.1800 C   0  0  0  0  0
    7.6300   -8.0420  -22.3760 O   0  0  0  0  0
    6.8680   -9.6360  -21.0680 O   0  0  0  0  0
    5.6770   -8.0870  -27.8980 N   0  0  0  0  0
    6.2060   -7.5690  -29.1550 C   0  0  0  0  0
    7.2880   -6.5230  -28.8930 C   0  0  0  0  0
    8.2090   -6.3580  -29.6940 O   0  0  0  0  0
    5.0800   -6.9720  -30.0040 C   0  0  0  0  0
    3.9420   -7.9380  -30.3310 C   0  0  0  0  0
    2.9090   -7.2810  -31.2480 C   0  0  0  0  0
    4.4820   -9.2020  -30.9590 C   0  0  0  0  0
    7.2590   -5.8270  -27.8780 O   0  0  0  0  0
    2.0709  -14.6430  -21.8950 H   0  0  0  0  0
    3.2526  -13.8579  -21.0209 H   0  0  0  0  0
    1.6460  -13.6315  -20.6408 H   0  0  0  0  0
    1.2244  -12.6212  -22.7017 H   0  0  0  0  0
    2.5573  -10.5572  -22.3512 H   0  0  0  0  0
    3.5856  -11.4906  -21.1638 H   0  0  0  0  0
    2.5350  -12.0076  -18.7987 H   0  0  0  0  0
    0.3056   -9.5338  -22.6890 H   0  0  0  0  0
   -1.6619   -9.3200  -18.0885 H   0  0  0  0  0
   -1.7463   -8.2232  -22.2391 H   0  0  0  0  0
   -2.7149   -8.1270  -19.9757 H   0  0  0  0  0
    1.6828  -12.2850  -24.7816 H   0  0  0  0  0
    4.3964  -13.0428  -25.7435 H   0  0  0  0  0
    2.0608  -12.1883  -27.4200 H   0  0  0  0  0
    2.3174  -13.8972  -26.8332 H   0  0  0  0  0
    4.2115  -12.2947  -28.5308 H   0  0  0  0  0
    3.0631  -13.5737  -29.1193 H   0  0  0  0  0
    5.8310  -13.4624  -29.1891 H   0  0  0  0  0
    5.8804  -11.4769  -25.6587 H   0  0  0  0  0
    4.8776   -8.6847  -25.6768 H   0  0  0  0  0
    6.9129   -8.0899  -24.5743 H   0  0  0  0  0
    7.6319   -9.7214  -24.9450 H   0  0  0  0  0
    6.3899  -10.7634  -23.3330 H   0  0  0  0  0
    5.1712   -9.4252  -23.2685 H   0  0  0  0  0
    7.5587   -7.7852  -23.2982 H   0  0  0  0  0
    4.7537   -7.7879  -27.5842 H   0  0  0  0  0
    6.6540   -8.3963  -29.7055 H   0  0  0  0  0
    8.1032   -6.9642  -30.4309 H   0  0  0  0  0
    5.5242   -6.6736  -30.9536 H   0  0  0  0  0
    4.6461   -6.1565  -29.4254 H   0  0  0  0  0
    3.4447   -8.2005  -29.3973 H   0  0  0  0  0
    2.4916   -6.4040  -30.7533 H   0  0  0  0  0
    3.3903   -6.9802  -32.1786 H   0  0  0  0  0
    2.1116   -7.9923  -31.4632 H   0  0  0  0  0
    5.0097   -8.9521  -31.8795 H   0  0  0  0  0
    5.1689   -9.6863  -30.2649 H   0  0  0  0  0
    3.6556   -9.8761  -31.1840 H   0  0  0  0  0
  1  2  1  0  0  0
  2  3  1  0  0  0
  2  5  1  0  0  0
  3  4  2  0  0  0
  3 15  1  0  0  0
  5  6  1  0  0  0
  6  7  4  0  0  0
  6  8  4  0  0  0
  7  9  4  0  0  0
  8 10  4  0  0  0
  8 11  4  0  0  0
  9 10  4  0  0  0
 10 12  4  0  0  0
 11 13  4  0  0  0
 12 14  4  0  0  0
 13 14  4  0  0  0
 15 16  1  0  0  0
 16 17  1  0  0  0
 16 19  1  0  0  0
 17 18  2  0  0  0
 17 24  1  0  0  0
 19 20  1  0  0  0
 20 21  1  0  0  0
 21 22  2  0  0  0
 21 23  1  0  0  0
 24 25  1  0  0  0
 25 26  1  0  0  0
 25 28  1  0  0  0
 26 27  2  0  0  0
 26 33  1  0  0  0
 28 29  1  0  0  0
 29 30  1  0  0  0
 30 31  1  0  0  0
 30 32  2  0  0  0
 33 34  1  0  0  0
 34 35  1  0  0  0
 34 37  1  0  0  0
 35 36  1  0  0  0
 35 41  2  0  0  0
 37 38  1  0  0  0
 38 39  1  0  0  0
 38 40  1  0  0  0
  1 42  1  0  0  0
  1 43  1  0  0  0
  1 44  1  0  0  0
  2 45  1  0  0  0
  5 46  1  0  0  0
  5 47  1  0  0  0
  7 48  1  0  0  0
 11 49  1  0  0  0
 12 50  1  0  0  0
 13 51  1  0  0  0
 14 52  1  0  0  0
 15 53  1  0  0  0
 16 54  1  0  0  0
 19 55  1  0  0  0
 19 56  1  0  0  0
 20 57  1  0  0  0
 20 58  1  0  0  0
 23 59  1  0  0  0
 24 60  1  0  0  0
 25 61  1  0  0  0
 28 62  1  0  0  0
 28 63  1  0  0  0
 29 64  1  0  0  0
 29 65  1  0  0  0
 31 66  1  0  0  0
 33 67  1  0  0  0
 34 68  1  0  0  0
 36 69  1  0  0  0
 37 70  1  0  0  0
 37 71  1  0  0  0
 38 72  1  0  0  0
 39 73  1  0  0  0
 39 74  1  0  0  0
 39 75  1  0  0  0
 40 76  1  0  0  0
 40 77  1  0  0  0
 40 78  1  0  0  0
M  END
$$$$
