5k6s_ligand
  -I-interpret- 

166166  0  0  0  0  0  0  0  0999 V2000
   -8.6780   -5.7120   24.6070 N   0  3  0  0  0
   -9.8400   -6.5930   24.6410 C   0  0  0  0  0
   -9.7930   -7.5240   25.8510 C   0  0  0  0  0
   -9.2090   -8.6090   25.7920 O   0  0  0  0  0
   -9.9290   -7.4100   23.3500 C   0  0  0  0  0
  -10.4140   -7.0920   26.9450 N   0  0  0  0  0
  -10.4510   -7.8820   28.1700 C   0  0  0  0  0
  -11.4150   -9.0570   28.0230 C   0  0  0  0  0
  -12.4290   -8.9500   27.3320 O   0  0  0  0  0
  -10.8540   -7.0030   29.3580 C   0  0  0  0  0
  -10.6960   -7.6630   30.7250 C   0  0  0  0  0
  -11.0930  -10.1740   28.6710 N   0  0  0  0  0
  -11.9200  -11.3770   28.5950 C   0  0  0  0  0
  -13.3130  -11.1460   29.1710 C   0  0  0  0  0
  -13.4640  -10.5470   30.2370 O   0  0  0  0  0
  -11.2450  -12.5400   29.3250 C   0  0  0  0  0
   -9.9650  -13.1000   28.7050 C   0  0  0  0  0
   -9.3610  -14.1630   29.6050 C   0  0  0  0  0
  -10.2490  -13.6640   27.3240 C   0  0  0  0  0
  -14.3270  -11.6260   28.4580 N   0  0  0  0  0
  -15.7100  -11.4880   28.8980 C   0  0  0  0  0
  -16.6700  -11.8970   27.7800 C   0  0  0  0  0
  -16.6390  -13.2980   27.5760 O   0  0  0  0  0
  -15.9520  -12.3440   30.1360 C   0  0  0  0  0
  -15.3580  -13.4130   30.2790 O   0  0  0  0  0
  -17.2230  -13.6620   26.1230 P   0  0  0  0  0
  -16.0900  -13.3950   25.0110 O   0  0  0  0  0
  -17.6450  -15.2150   26.1010 O   0  0  0  0  0
  -18.5120  -12.7470   25.8130 O   0  0  0  0  0
  -16.8240  -11.8710   31.0400 N   0  0  0  0  0
  -17.1180  -12.5780   32.2920 C   0  0  0  0  0
  -17.6850  -13.9780   32.0630 C   0  0  0  0  0
  -18.4190  -14.1990   31.0990 O   0  0  0  0  0
  -18.1570  -11.6780   32.9680 C   0  0  0  0  0
  -17.9400  -10.3320   32.3710 C   0  0  0  0  0
  -17.5420  -10.5880   30.9530 C   0  0  0  0  0
  -17.3340  -14.9100   32.9420 N   0  0  0  0  0
  -17.8670  -16.2650   32.8840 C   0  0  0  0  0
  -18.8200  -16.5050   34.0510 C   0  0  0  0  0
  -18.3850  -16.7000   35.1870 O   0  0  0  0  0
  -16.7440  -17.3180   32.9130 C   0  0  0  0  0
  -15.7910  -17.1120   31.7360 C   0  0  0  0  0
  -17.3230  -18.7270   32.8890 C   0  0  0  0  0
  -14.6610  -18.1120   31.6880 C   0  0  0  0  0
  -20.1180  -16.4840   33.7630 N   0  0  0  0  0
  -21.1440  -16.6660   34.7860 C   0  0  0  0  0
  -21.0510  -18.0420   35.4480 C   0  0  0  0  0
  -21.0890  -19.0740   34.7730 O   0  0  0  0  0
  -22.5620  -16.4780   34.2030 C   0  0  0  0  0
  -22.7970  -15.0140   33.8100 C   0  0  0  0  0
  -23.6130  -16.9260   35.2070 C   0  0  0  0  0
  -22.3700  -14.6620   32.3920 C   0  0  0  0  0
  -20.9200  -18.0430   36.7730 N   0  0  0  0  0
  -20.8250  -19.2760   37.5430 C   0  0  0  0  0
  -22.1160  -20.0720   37.4120 C   0  0  0  0  0
  -23.2080  -19.5020   37.3530 O   0  0  0  0  0
  -20.5230  -18.9730   39.0160 C   0  0  0  0  0
  -20.1500  -20.1910   39.8570 C   0  0  0  0  0
  -19.7450  -19.8200   41.2740 C   0  0  0  0  0
  -20.0440  -18.6860   41.7060 O   0  0  0  0  0
  -19.1220  -20.6620   41.9540 O   0  0  0  0  0
  -21.9820  -21.3910   37.3540 N   0  0  0  0  0
  -23.1270  -22.2670   37.1510 C   0  0  0  0  0
  -22.9980  -23.5090   38.0290 C   0  0  0  0  0
  -22.0820  -23.6090   38.8420 O   0  0  0  0  0
  -23.2470  -22.6500   35.6720 C   0  0  0  0  0
  -24.6580  -23.0620   35.2830 C   0  0  0  0  0
  -25.2330  -23.9500   35.9470 O   0  0  0  0  0
  -25.1960  -22.4930   34.3110 O   0  0  0  0  0
  -23.9180  -24.4520   37.8640 N   0  0  0  0  0
  -23.9560  -25.6400   38.7070 C   0  0  0  0  0
  -23.9130  -26.9180   37.8750 C   0  0  0  0  0
  -24.8760  -27.2470   37.1840 O   0  0  0  0  0
  -25.2110  -25.6200   39.5860 C   0  0  0  0  0
  -25.3890  -24.3020   40.3200 C   0  0  0  0  0
  -25.9810  -23.3660   39.7400 O   0  0  0  0  0
  -24.9320  -24.2030   41.4780 O   0  0  0  0  0
  -22.7890  -27.6270   37.9360 N   0  0  0  0  0
  -22.6490  -28.9110   37.2510 C   0  0  0  0  0
  -21.4590  -29.7100   37.7930 C   0  0  0  0  0
  -20.5220  -29.1460   38.3700 O   0  0  0  0  0
  -22.5000  -28.7030   35.7400 C   0  0  0  0  0
  -21.4060  -30.9390   37.6670 O   0  0  0  0  0
   -8.6339   -5.1758   25.4735 H   0  0  0  0  0
   -7.8311   -6.2719   24.5088 H   0  0  0  0  0
   -8.7593   -5.0744   23.8150 H   0  0  0  0  0
  -10.7297   -5.9692   24.7274 H   0  0  0  0  0
   -9.0554   -8.0569   23.2700 H   0  0  0  0  0
  -10.8330   -8.0187   23.3684 H   0  0  0  0  0
   -9.9618   -6.7342   22.4954 H   0  0  0  0  0
  -10.8770   -6.1833   26.9265 H   0  0  0  0  0
   -9.4530   -8.2795   28.3547 H   0  0  0  0  0
  -11.9129   -6.7741   29.2375 H   0  0  0  0  0
  -10.1947   -6.1350   29.3475 H   0  0  0  0  0
  -11.3180   -8.5570   30.7695 H   0  0  0  0  0
   -9.6520   -7.9373   30.8761 H   0  0  0  0  0
  -11.0056   -6.9644   31.5023 H   0  0  0  0  0
  -10.2446  -10.1912   29.2370 H   0  0  0  0  0
  -12.0288  -11.6265   27.5395 H   0  0  0  0  0
  -11.9650  -13.3582   29.3106 H   0  0  0  0  0
  -10.9569  -12.1510   30.3016 H   0  0  0  0  0
   -9.2442  -12.2888   28.6026 H   0  0  0  0  0
   -9.1239  -13.7246   30.5744 H   0  0  0  0  0
  -10.0764  -14.9747   29.7371 H   0  0  0  0  0
   -8.4506  -14.5502   29.1474 H   0  0  0  0  0
  -10.9851  -14.4640   27.4040 H   0  0  0  0  0
  -10.6383  -12.8731   26.6829 H   0  0  0  0  0
   -9.3268  -14.0584   26.8973 H   0  0  0  0  0
  -14.1320  -12.1043   27.5784 H   0  0  0  0  0
  -15.8935  -10.4430   29.1478 H   0  0  0  0  0
  -16.3663  -11.4013   26.8579 H   0  0  0  0  0
  -17.6818  -11.6058   28.0622 H   0  0  0  0  0
  -15.8403  -12.4682   25.0264 H   0  0  0  0  0
  -18.2569  -11.8216   25.8269 H   0  0  0  0  0
  -16.2190  -12.7399   32.8867 H   0  0  0  0  0
  -18.0391  -11.6651   34.0515 H   0  0  0  0  0
  -19.1731  -12.0362   32.8027 H   0  0  0  0  0
  -17.1730   -9.7741   32.9082 H   0  0  0  0  0
  -18.8383   -9.7175   32.4305 H   0  0  0  0  0
  -18.3939  -10.6246   30.2740 H   0  0  0  0  0
  -16.9312   -9.7885   30.5336 H   0  0  0  0  0
  -16.6716  -14.6700   33.6796 H   0  0  0  0  0
  -18.4053  -16.3665   31.9417 H   0  0  0  0  0
  -16.1842  -17.1957   33.8402 H   0  0  0  0  0
  -15.3465  -16.1228   31.8458 H   0  0  0  0  0
  -16.3717  -17.2322   30.8215 H   0  0  0  0  0
  -17.9627  -18.8705   33.7598 H   0  0  0  0  0
  -17.9090  -18.8622   31.9799 H   0  0  0  0  0
  -16.5101  -19.4529   32.9102 H   0  0  0  0  0
  -14.0710  -18.0357   32.6013 H   0  0  0  0  0
  -15.0713  -19.1181   31.6019 H   0  0  0  0  0
  -14.0277  -17.9016   30.8262 H   0  0  0  0  0
  -20.4064  -16.3359   32.7959 H   0  0  0  0  0
  -20.9630  -15.9014   35.5414 H   0  0  0  0  0
  -22.6465  -17.0944   33.3080 H   0  0  0  0  0
  -22.1961  -14.4034   34.4839 H   0  0  0  0  0
  -23.8706  -14.8364   33.8722 H   0  0  0  0  0
  -23.4627  -17.9795   35.4427 H   0  0  0  0  0
  -23.5213  -16.3322   36.1164 H   0  0  0  0  0
  -24.6056  -16.7862   34.7788 H   0  0  0  0  0
  -21.3031  -14.8533   32.2771 H   0  0  0  0  0
  -22.9285  -15.2736   31.6834 H   0  0  0  0  0
  -22.5738  -13.6079   32.2037 H   0  0  0  0  0
  -20.8850  -17.1504   37.2655 H   0  0  0  0  0
  -20.0038  -19.8733   37.1467 H   0  0  0  0  0
  -21.4342  -18.5581   39.4469 H   0  0  0  0  0
  -19.6635  -18.3028   39.0313 H   0  0  0  0  0
  -19.2993  -20.6794   39.3817 H   0  0  0  0  0
  -21.0248  -20.8385   39.9165 H   0  0  0  0  0
  -20.5182  -18.2008   41.0267 H   0  0  0  0  0
  -21.0536  -21.8014   37.4541 H   0  0  0  0  0
  -24.0355  -21.7376   37.4381 H   0  0  0  0  0
  -22.5894  -23.5006   35.4929 H   0  0  0  0  0
  -22.9785  -21.7764   35.0780 H   0  0  0  0  0
  -24.6490  -24.2544   36.6455 H   0  0  0  0  0
  -24.6160  -24.3421   37.1284 H   0  0  0  0  0
  -23.0713  -25.6291   39.3436 H   0  0  0  0  0
  -25.1108  -26.4085   40.3319 H   0  0  0  0  0
  -26.0762  -25.7630   38.9387 H   0  0  0  0  0
  -26.2489  -23.6525   38.8638 H   0  0  0  0  0
  -22.0030  -27.2647   38.4757 H   0  0  0  0  0
  -23.5557  -29.4850   37.4418 H   0  0  0  0  0
  -23.3828  -28.1917   35.3561 H   0  0  0  0  0
  -21.6144  -28.0988   35.5433 H   0  0  0  0  0
  -22.3972  -29.6710   35.2497 H   0  0  0  0  0
  -22.1895  -31.2463   37.2052 H   0  0  0  0  0
  1  2  1  0  0  0
  2  3  1  0  0  0
  2  5  1  0  0  0
  3  4  2  0  0  0
  3  6  1  0  0  0
  6  7  1  0  0  0
  7  8  1  0  0  0
  7 10  1  0  0  0
  8  9  2  0  0  0
  8 12  1  0  0  0
 10 11  1  0  0  0
 12 13  1  0  0  0
 13 14  1  0  0  0
 13 16  1  0  0  0
 14 15  2  0  0  0
 14 20  1  0  0  0
 16 17  1  0  0  0
 17 18  1  0  0  0
 17 19  1  0  0  0
 20 21  1  0  0  0
 21 22  1  0  0  0
 21 24  1  0  0  0
 22 23  1  0  0  0
 23 26  1  0  0  0
 24 25  2  0  0  0
 24 30  1  0  0  0
 26 27  1  0  0  0
 26 28  2  0  0  0
 26 29  1  0  0  0
 30 31  1  0  0  0
 30 36  1  0  0  0
 31 32  1  0  0  0
 31 34  1  0  0  0
 32 33  2  0  0  0
 32 37  1  0  0  0
 34 35  1  0  0  0
 35 36  1  0  0  0
 37 38  1  0  0  0
 38 39  1  0  0  0
 38 41  1  0  0  0
 39 40  2  0  0  0
 39 45  1  0  0  0
 41 42  1  0  0  0
 41 43  1  0  0  0
 42 44  1  0  0  0
 45 46  1  0  0  0
 46 47  1  0  0  0
 46 49  1  0  0  0
 47 48  2  0  0  0
 47 53  1  0  0  0
 49 50  1  0  0  0
 49 51  1  0  0  0
 50 52  1  0  0  0
 53 54  1  0  0  0
 54 55  1  0  0  0
 54 57  1  0  0  0
 55 56  2  0  0  0
 55 62  1  0  0  0
 57 58  1  0  0  0
 58 59  1  0  0  0
 59 60  1  0  0  0
 59 61  2  0  0  0
 62 63  1  0  0  0
 63 64  1  0  0  0
 63 66  1  0  0  0
 64 65  2  0  0  0
 64 70  1  0  0  0
 66 67  1  0  0  0
 67 68  1  0  0  0
 67 69  2  0  0  0
 70 71  1  0  0  0
 71 72  1  0  0  0
 71 74  1  0  0  0
 72 73  2  0  0  0
 72 78  1  0  0  0
 74 75  1  0  0  0
 75 76  1  0  0  0
 75 77  2  0  0  0
 78 79  1  0  0  0
 79 80  1  0  0  0
 79 82  1  0  0  0
 80 81  2  0  0  0
 80 83  1  0  0  0
  1 84  1  0  0  0
  1 85  1  0  0  0
  1 86  1  0  0  0
  2 87  1  0  0  0
  5 88  1  0  0  0
  5 89  1  0  0  0
  5 90  1  0  0  0
  6 91  1  0  0  0
  7 92  1  0  0  0
 10 93  1  0  0  0
 10 94  1  0  0  0
 11 95  1  0  0  0
 11 96  1  0  0  0
 11 97  1  0  0  0
 12 98  1  0  0  0
 13 99  1  0  0  0
 16100  1  0  0  0
 16101  1  0  0  0
 17102  1  0  0  0
 18103  1  0  0  0
 18104  1  0  0  0
 18105  1  0  0  0
 19106  1  0  0  0
 19107  1  0  0  0
 19108  1  0  0  0
 20109  1  0  0  0
 21110  1  0  0  0
 22111  1  0  0  0
 22112  1  0  0  0
 27113  1  0  0  0
 29114  1  0  0  0
 31115  1  0  0  0
 34116  1  0  0  0
 34117  1  0  0  0
 35118  1  0  0  0
 35119  1  0  0  0
 36120  1  0  0  0
 36121  1  0  0  0
 37122  1  0  0  0
 38123  1  0  0  0
 41124  1  0  0  0
 42125  1  0  0  0
 42126  1  0  0  0
 43127  1  0  0  0
 43128  1  0  0  0
 43129  1  0  0  0
 44130  1  0  0  0
 44131  1  0  0  0
 44132  1  0  0  0
 45133  1  0  0  0
 46134  1  0  0  0
 49135  1  0  0  0
 50136  1  0  0  0
 50137  1  0  0  0
 51138  1  0  0  0
 51139  1  0  0  0
 51140  1  0  0  0
 52141  1  0  0  0
 52142  1  0  0  0
 52143  1  0  0  0
 53144  1  0  0  0
 54145  1  0  0  0
 57146  1  0  0  0
 57147  1  0  0  0
 58148  1  0  0  0
 58149  1  0  0  0
 60150  1  0  0  0
 62151  1  0  0  0
 63152  1  0  0  0
 66153  1  0  0  0
 66154  1  0  0  0
 68155  1  0  0  0
 70156  1  0  0  0
 71157  1  0  0  0
 74158  1  0  0  0
 74159  1  0  0  0
 76160  1  0  0  0
 78161  1  0  0  0
 79162  1  0  0  0
 82163  1  0  0  0
 82164  1  0  0  0
 82165  1  0  0  0
 83166  1  0  0  0
M  END
$$$$
