### 
### Created by X-TOOL on Mon Sep 10 21:13:28 2018
### 

@<TRIPOS>MOLECULE
5k6s_ligand
  160   160     1     0     0
SMALL
GAST_HUCK


@<TRIPOS>ATOM
      1 N          -8.6780   -5.7120   24.6070 N.4       1 LYS         0.2377
      2 CA         -9.8400   -6.5930   24.6410 C.3       1 LYS         0.0621
      3 C          -9.7930   -7.5240   25.8510 C.2       1 LYS         0.2264
      4 O          -9.2090   -8.6090   25.7920 O.2       1 LYS        -0.3907
      5 CB         -9.9290   -7.4100   23.3500 C.3       1 LYS        -0.0040
      6 N         -10.4140   -7.0920   26.9450 N.am      1 LYS        -0.2610
      7 CA        -10.4510   -7.8820   28.1700 C.3       1 LYS         0.1308
      8 C         -11.4150   -9.0570   28.0230 C.2       1 LYS         0.2039
      9 O         -12.4290   -8.9500   27.3320 O.2       1 LYS        -0.3944
     10 CB        -10.8540   -7.0030   29.3580 C.3       1 LYS        -0.0152
     11 CG        -10.6960   -7.6630   30.7250 C.3       1 LYS        -0.0610
     12 N         -11.0930  -10.1740   28.6710 N.am      1 LEU        -0.2637
     13 CA        -11.9200  -11.3770   28.5950 C.3       1 LEU         0.1312
     14 C         -13.3130  -11.1460   29.1710 C.2       1 LEU         0.2040
     15 O         -13.4640  -10.5470   30.2370 O.2       1 LEU        -0.3944
     16 CB        -11.2450  -12.5400   29.3250 C.3       1 LEU        -0.0101
     17 CG         -9.9650  -13.1000   28.7050 C.3       1 LEU        -0.0425
     18 CD1        -9.3610  -14.1630   29.6050 C.3       1 LEU        -0.0625
     19 CD2       -10.2490  -13.6640   27.3240 C.3       1 LEU        -0.0625
     20 N         -14.3270  -11.6260   28.4580 N.am      1 SEP        -0.2613
     21 CA        -15.7100  -11.4880   28.8980 C.3       1 SEP         0.1588
     22 CB        -16.6700  -11.8970   27.7800 C.3       1 SEP         0.1184
     23 OG        -16.6390  -13.2980   27.5760 O.3       1 SEP        -0.2714
     24 C         -15.9520  -12.3440   30.1360 C.2       1 SEP         0.2090
     25 O         -15.3580  -13.4130   30.2790 O.2       1 SEP        -0.3941
     26 P         -17.2230  -13.6620   26.1230 P.3       1 SEP         0.2010
     27 O1P       -16.0900  -13.3950   25.0110 O.co2     1 SEP        -0.5537
     28 O2P       -17.6450  -15.2150   26.1010 O.co2     1 SEP        -0.5537
     29 O3P       -18.5120  -12.7470   25.8130 O.co2     1 SEP        -0.5537
     30 N         -16.8240  -11.8710   31.0400 N.am      1 PRO        -0.2498
     31 CA        -17.1180  -12.5780   32.2920 C.3       1 PRO         0.1338
     32 C         -17.6850  -13.9780   32.0630 C.2       1 PRO         0.2041
     33 O         -18.4190  -14.1990   31.0990 O.2       1 PRO        -0.3944
     34 CB        -18.1570  -11.6780   32.9680 C.3       1 PRO        -0.0104
     35 CG        -17.9400  -10.3320   32.3710 C.3       1 PRO        -0.0281
     36 CD        -17.5420  -10.5880   30.9530 C.3       1 PRO         0.0369
     37 N         -17.3340  -14.9100   32.9420 N.am      1 ILE        -0.2635
     38 CA        -17.8670  -16.2650   32.8840 C.3       1 ILE         0.1335
     39 C         -18.8200  -16.5050   34.0510 C.2       1 ILE         0.2042
     40 O         -18.3850  -16.7000   35.1870 O.2       1 ILE        -0.3944
     41 CB        -16.7440  -17.3180   32.9130 C.3       1 ILE        -0.0037
     42 CG1       -15.7910  -17.1120   31.7360 C.3       1 ILE        -0.0491
     43 CG2       -17.3230  -18.7270   32.8890 C.3       1 ILE        -0.0582
     44 CD1       -14.6610  -18.1120   31.6880 C.3       1 ILE        -0.0648
     45 N         -20.1180  -16.4840   33.7630 N.am      1 ILE        -0.2635
     46 CA        -21.1440  -16.6660   34.7860 C.3       1 ILE         0.1335
     47 C         -21.0510  -18.0420   35.4480 C.2       1 ILE         0.2042
     48 O         -21.0890  -19.0740   34.7730 O.2       1 ILE        -0.3944
     49 CB        -22.5620  -16.4780   34.2030 C.3       1 ILE        -0.0037
     50 CG1       -22.7970  -15.0140   33.8100 C.3       1 ILE        -0.0491
     51 CG2       -23.6130  -16.9260   35.2070 C.3       1 ILE        -0.0582
     52 CD1       -22.3700  -14.6620   32.3920 C.3       1 ILE        -0.0648
     53 N         -20.9200  -18.0430   36.7730 N.am      1 GLU        -0.2636
     54 CA        -20.8250  -19.2760   37.5430 C.3       1 GLU         0.1325
     55 C         -22.1160  -20.0720   37.4120 C.2       1 GLU         0.2041
     56 O         -23.2080  -19.5020   37.3530 O.2       1 GLU        -0.3944
     57 CB        -20.5230  -18.9730   39.0160 C.3       1 GLU        -0.0008
     58 CG        -20.1500  -20.1910   39.8570 C.3       1 GLU         0.0044
     59 CD        -19.7450  -19.8200   41.2740 C.2       1 GLU         0.0350
     60 OE1       -20.0440  -18.6860   41.7060 O.co2     1 GLU        -0.5690
     61 OE2       -19.1220  -20.6620   41.9540 O.co2     1 GLU        -0.5690
     62 N         -21.9820  -21.3910   37.3540 N.am      1 ASP        -0.2622
     63 CA        -23.1270  -22.2670   37.1510 C.3       1 ASP         0.1423
     64 C         -22.9980  -23.5090   38.0290 C.2       1 ASP         0.2057
     65 O         -22.0820  -23.6090   38.8420 O.2       1 ASP        -0.3943
     66 CB        -23.2470  -22.6500   35.6720 C.3       1 ASP         0.0406
     67 CG        -24.6580  -23.0620   35.2830 C.2       1 ASP         0.0393
     68 OD1       -25.2330  -23.9500   35.9470 O.co2     1 ASP        -0.5688
     69 OD2       -25.1960  -22.4930   34.3110 O.co2     1 ASP        -0.5688
     70 N         -23.9180  -24.4520   37.8640 N.am      1 ASP        -0.2621
     71 CA        -23.9560  -25.6400   38.7070 C.3       1 ASP         0.1423
     72 C         -23.9130  -26.9180   37.8750 C.2       1 ASP         0.2050
     73 O         -24.8760  -27.2470   37.1840 O.2       1 ASP        -0.3943
     74 CB        -25.2110  -25.6200   39.5860 C.3       1 ASP         0.0406
     75 CG        -25.3890  -24.3020   40.3200 C.2       1 ASP         0.0393
     76 OD1       -25.9810  -23.3660   39.7400 O.co2     1 ASP        -0.5688
     77 OD2       -24.9320  -24.2030   41.4780 O.co2     1 ASP        -0.5688
     78 N         -22.7890  -27.6270   37.9360 N.am      1 ARG        -0.2697
     79 CA        -22.6490  -28.9110   37.2510 C.3       1 ARG         0.0916
     80 C         -21.4590  -29.7100   37.7930 C.2       1 ARG         0.0598
     81 O         -20.5220  -29.1460   38.3700 O.co2     1 ARG        -0.5666
     82 CB        -22.5000  -28.7030   35.7400 C.3       1 ARG        -0.0300
     83 OXT       -21.4060  -30.9390   37.6670 O.co2     1 ARG        -0.5666
     84 H1         -8.7358   -5.1106   23.8001 H         1 LYS         0.2015
     85 H2         -7.8377   -6.2661   24.5535 H         1 LYS         0.2015
     86 H3         -8.6575   -5.1504   25.4438 H         1 LYS         0.2015
     87 H4        -10.7425   -5.9691   24.7206 H         1 LYS         0.1095
     88 H5        -10.8095   -8.0679   23.3924 H         1 LYS         0.0310
     89 H6         -9.0205   -8.0201   23.2388 H         1 LYS         0.0310
     90 H7        -10.0210   -6.7293   22.4909 H         1 LYS         0.0310
     91 H8        -10.8679   -6.2011   26.9269 H         1 LYS         0.1884
     92 H9         -9.4432   -8.2808   28.3576 H         1 LYS         0.0800
     93 H10       -11.9103   -6.7226   29.2335 H         1 LYS         0.0310
     94 H11       -10.2298   -6.0975   29.3410 H         1 LYS         0.0310
     95 H12       -11.0082   -6.9589   31.5104 H         1 LYS         0.0232
     96 H13        -9.6427   -7.9403   30.8788 H         1 LYS         0.0232
     97 H14       -11.3233   -8.5654   30.7712 H         1 LYS         0.0232
     98 H15       -10.2613  -10.1908   29.2259 H         1 LEU         0.1883
     99 H16       -12.0283  -11.6485   27.5346 H         1 LEU         0.0800
    100 H17       -11.9729  -13.3626   29.3828 H         1 LEU         0.0315
    101 H18       -10.9988  -12.1962   30.3404 H         1 LEU         0.0315
    102 H19        -9.2399  -12.2793   28.6024 H         1 LEU         0.0298
    103 H20        -8.4421  -14.5546   29.1443 H         1 LEU         0.0232
    104 H21       -10.0820  -14.9829   29.7391 H         1 LEU         0.0232
    105 H22        -9.1212  -13.7218   30.5837 H         1 LEU         0.0232
    106 H23       -10.6854  -12.8783   26.6897 H         1 LEU         0.0232
    107 H24       -10.9565  -14.5020   27.4085 H         1 LEU         0.0232
    108 H25        -9.3109  -14.0201   26.8733 H         1 LEU         0.0232
    109 H26       -14.1358  -12.0949   27.5957 H         1 SEP         0.1884
    110 H27       -15.8954  -10.4344   29.1542 H         1 SEP         0.0827
    111 H28       -16.3754  -11.3907   26.8489 H         1 SEP         0.0662
    112 H29       -17.6917  -11.5953   28.0540 H         1 SEP         0.0662
    113 H30       -16.2104  -12.6577   32.9083 H         1 PRO         0.0802
    114 H31       -17.9962  -11.6499   34.0558 H         1 PRO         0.0313
    115 H32       -19.1755  -12.0358   32.7570 H         1 PRO         0.0313
    116 H33       -17.1402   -9.7982   32.9051 H         1 PRO         0.0287
    117 H34       -18.8659   -9.7395   32.4101 H         1 PRO         0.0287
    118 H35       -18.4254  -10.6720   30.3029 H         1 PRO         0.0524
    119 H36       -16.8841   -9.7909   30.5765 H         1 PRO         0.0524
    120 H37       -16.6846  -14.6747   33.6651 H         1 ILE         0.1883
    121 H38       -18.4252  -16.3771   31.9428 H         1 ILE         0.0803
    122 H39       -16.1758  -17.1931   33.8465 H         1 ILE         0.0345
    123 H40       -15.3590  -16.1032   31.8113 H         1 ILE         0.0267
    124 H41       -16.3681  -17.1951   30.8032 H         1 ILE         0.0267
    125 H42       -18.0055  -18.8575   33.7417 H         1 ILE         0.0235
    126 H43       -16.5060  -19.4604   32.9577 H         1 ILE         0.0235
    127 H44       -17.8756  -18.8804   31.9503 H         1 ILE         0.0235
    128 H45       -14.0211  -17.9007   30.8186 H         1 ILE         0.0230
    129 H46       -15.0738  -19.1279   31.6011 H         1 ILE         0.0230
    130 H47       -14.0647  -18.0360   32.6092 H         1 ILE         0.0230
    131 H48       -20.4008  -16.3388   32.8149 H         1 ILE         0.1883
    132 H49       -20.9851  -15.9009   35.5602 H         1 ILE         0.0803
    133 H50       -22.6525  -17.1004   33.3006 H         1 ILE         0.0345
    134 H51       -22.2322  -14.3769   34.5064 H         1 ILE         0.0267
    135 H52       -23.8717  -14.8009   33.9075 H         1 ILE         0.0267
    136 H53       -23.4342  -17.9762   35.4809 H         1 ILE         0.0235
    137 H54       -24.6129  -16.8291   34.7590 H         1 ILE         0.0235
    138 H55       -23.5519  -16.2968   36.1072 H         1 ILE         0.0235
    139 H56       -22.5752  -13.5984   32.2007 H         1 ILE         0.0230
    140 H57       -22.9329  -15.2786   31.6758 H         1 ILE         0.0230
    141 H58       -21.2934  -14.8546   32.2748 H         1 ILE         0.0230
    142 H59       -20.8857  -17.1679   37.2558 H         1 GLU         0.1883
    143 H60       -19.9997  -19.8791   37.1366 H         1 GLU         0.0801
    144 H61       -21.4169  -18.5111   39.4605 H         1 GLU         0.0330
    145 H62       -19.6851  -18.2614   39.0541 H         1 GLU         0.0330
    146 H63       -19.3081  -20.7085   39.3739 H         1 GLU         0.0433
    147 H64       -21.0172  -20.8661   39.9037 H         1 GLU         0.0433
    148 H65       -21.0718  -21.7933   37.4522 H         1 ASP         0.1884
    149 H66       -24.0388  -21.7262   37.4447 H         1 ASP         0.0819
    150 H67       -22.5671  -23.4909   35.4703 H         1 ASP         0.0478
    151 H68       -22.9521  -21.7850   35.0598 H         1 ASP         0.0478
    152 H69       -24.6023  -24.3442   37.1428 H         1 ASP         0.1884
    153 H70       -23.0719  -25.6263   39.3613 H         1 ASP         0.0819
    154 H71       -25.1346  -26.4287   40.3277 H         1 ASP         0.0478
    155 H72       -26.0908  -25.7895   38.9479 H         1 ASP         0.0478
    156 H73       -22.0184  -27.2718   38.4651 H         1 ARG         0.1875
    157 H74       -23.5638  -29.4947   37.4310 H         1 ARG         0.0723
    158 H75       -22.3962  -29.6793   35.2440 H         1 ARG         0.0270
    159 H76       -21.6065  -28.0934   35.5401 H         1 ARG         0.0270
    160 H77       -23.3904  -28.1871   35.3513 H         1 ARG         0.0270
@<TRIPOS>BOND
     1    1    2 1  
     2    2    3 1  
     3    2    5 1  
     4    3    4 2  
     5    3    6 am 
     6    6    7 1  
     7    7    8 1  
     8    7   10 1  
     9    8    9 2  
    10    8   12 am 
    11   10   11 1  
    12   12   13 1  
    13   13   14 1  
    14   13   16 1  
    15   14   15 2  
    16   14   20 am 
    17   16   17 1  
    18   17   18 1  
    19   17   19 1  
    20   20   21 1  
    21   21   22 1  
    22   21   24 1  
    23   22   23 1  
    24   23   26 1  
    25   24   25 2  
    26   24   30 am 
    27   26   27 ar 
    28   26   28 ar 
    29   26   29 ar 
    30   30   31 1  
    31   30   36 1  
    32   31   32 1  
    33   31   34 1  
    34   32   33 2  
    35   32   37 am 
    36   34   35 1  
    37   35   36 1  
    38   37   38 1  
    39   38   39 1  
    40   38   41 1  
    41   39   40 2  
    42   39   45 am 
    43   41   42 1  
    44   41   43 1  
    45   42   44 1  
    46   45   46 1  
    47   46   47 1  
    48   46   49 1  
    49   47   48 2  
    50   47   53 am 
    51   49   50 1  
    52   49   51 1  
    53   50   52 1  
    54   53   54 1  
    55   54   55 1  
    56   54   57 1  
    57   55   56 2  
    58   55   62 am 
    59   57   58 1  
    60   58   59 1  
    61   59   60 ar 
    62   59   61 ar 
    63   62   63 1  
    64   63   64 1  
    65   63   66 1  
    66   64   65 2  
    67   64   70 am 
    68   66   67 1  
    69   67   68 ar 
    70   67   69 ar 
    71   70   71 1  
    72   71   72 1  
    73   71   74 1  
    74   72   73 2  
    75   72   78 am 
    76   74   75 1  
    77   75   76 ar 
    78   75   77 ar 
    79   78   79 1  
    80   79   80 1  
    81   79   82 1  
    82   80   81 ar 
    83   80   83 ar 
    84    1   84 1  
    85    1   85 1  
    86    1   86 1  
    87    2   87 1  
    88    5   88 1  
    89    5   89 1  
    90    5   90 1  
    91    6   91 1  
    92    7   92 1  
    93   10   93 1  
    94   10   94 1  
    95   11   95 1  
    96   11   96 1  
    97   11   97 1  
    98   12   98 1  
    99   13   99 1  
   100   16  100 1  
   101   16  101 1  
   102   17  102 1  
   103   18  103 1  
   104   18  104 1  
   105   18  105 1  
   106   19  106 1  
   107   19  107 1  
   108   19  108 1  
   109   20  109 1  
   110   21  110 1  
   111   22  111 1  
   112   22  112 1  
   113   31  113 1  
   114   34  114 1  
   115   34  115 1  
   116   35  116 1  
   117   35  117 1  
   118   36  118 1  
   119   36  119 1  
   120   37  120 1  
   121   38  121 1  
   122   41  122 1  
   123   42  123 1  
   124   42  124 1  
   125   43  125 1  
   126   43  126 1  
   127   43  127 1  
   128   44  128 1  
   129   44  129 1  
   130   44  130 1  
   131   45  131 1  
   132   46  132 1  
   133   49  133 1  
   134   50  134 1  
   135   50  135 1  
   136   51  136 1  
   137   51  137 1  
   138   51  138 1  
   139   52  139 1  
   140   52  140 1  
   141   52  141 1  
   142   53  142 1  
   143   54  143 1  
   144   57  144 1  
   145   57  145 1  
   146   58  146 1  
   147   58  147 1  
   148   62  148 1  
   149   63  149 1  
   150   66  150 1  
   151   66  151 1  
   152   70  152 1  
   153   71  153 1  
   154   74  154 1  
   155   74  155 1  
   156   78  156 1  
   157   79  157 1  
   158   82  158 1  
   159   82  159 1  
   160   82  160 1  
@<TRIPOS>SUBSTRUCTURE
     1 LYS         1

