4mzh_ligand
  -I-interpret- 

123122  0  0  0  0  0  0  0  0999 V2000
    6.5620    9.2200   -5.7010 N   0  3  0  0  0
    7.1050    8.9440   -4.3780 C   0  0  0  0  0
    8.5600    8.4870   -4.4520 C   0  0  0  0  0
    9.0570    8.1430   -5.5240 O   0  0  0  0  0
    6.2570    7.9020   -3.6730 C   0  0  0  0  0
    9.2350    8.4910   -3.3040 N   0  0  0  0  0
   10.6220    8.0430   -3.2180 C   0  0  0  0  0
   10.7420    6.5560   -3.5200 C   0  0  0  0  0
    9.7630    5.8160   -3.4850 O   0  0  0  0  0
   11.1900    8.2960   -1.8210 C   0  0  0  0  0
   11.2470    9.7450   -1.4080 C   0  0  0  0  0
   11.7960    9.8730    0.0020 C   0  0  0  0  0
   11.6800   11.2410    0.4840 N   0  0  0  0  0
   12.5630   12.1960    0.2160 C   0  0  0  0  0
   13.6310   11.9280   -0.5260 N   0  0  0  0  0
   12.3830   13.4180    0.6950 N   0  0  0  0  0
   11.9660    6.1290   -3.8010 N   0  0  0  0  0
   12.2690    4.7230   -3.9980 C   0  0  0  0  0
   13.0690    4.2350   -2.7910 C   0  0  0  0  0
   13.8660    4.9840   -2.2310 O   0  0  0  0  0
   13.0930    4.4960   -5.2730 C   0  0  0  0  0
   12.7340    5.4560   -6.2740 O   0  0  0  0  0
   12.8660    3.1000   -5.8140 C   0  0  0  0  0
   12.8630    2.9830   -2.3940 N   0  0  0  0  0
   13.6190    2.4200   -1.3030 C   0  0  0  0  0
   12.9310    1.2480   -0.5910 C   0  0  0  0  0
   11.9910    1.7510    0.4800 C   0  0  0  0  0
   12.6200    1.5440    1.8420 C   0  0  0  0  0
   11.5280    1.8510    2.8520 C   0  0  0  0  0
   11.9700    2.4940    4.1340 N   0  3  0  0  0
   14.9840    1.9040   -1.7280 C   0  0  0  0  0
   15.1530    1.1560   -2.6920 O   0  0  0  0  0
   12.8290    3.6800    3.8430 C   0  0  0  0  0
   12.6790    1.5110    5.0050 C   0  0  0  0  0
   10.7420    2.9570    4.8400 C   0  0  0  0  0
   16.0000    2.3210   -0.9790 N   0  0  0  0  0
   17.3380    1.7800   -1.1760 C   0  0  0  0  0
   17.4690    0.4620   -0.4260 C   0  0  0  0  0
   16.4720   -0.1830   -0.0970 O   0  0  0  0  0
   18.4050    2.7650   -0.6890 C   0  0  0  0  0
   18.4100    4.0990   -1.4200 C   0  0  0  0  0
   19.5900    4.9660   -1.0280 C   0  0  0  0  0
   20.7460    4.5700   -1.1870 O   0  0  0  0  0
   19.3050    6.1520   -0.5050 N   0  0  0  0  0
   18.7070    0.0690   -0.1570 N   0  0  0  0  0
   18.9740   -1.1290    0.6280 C   0  0  0  0  0
   20.1960   -0.9400    1.5320 C   0  0  0  0  0
   21.1010   -0.1580    1.2120 O   0  0  0  0  0
   19.1440   -2.3730   -0.2720 C   0  0  0  0  0
   18.3100   -3.4350    0.2080 O   0  0  0  0  0
   20.5970   -2.8410   -0.3140 C   0  0  0  0  0
   20.2040   -1.6650    2.6520 N   0  0  0  0  0
   21.2320   -1.5410    3.6870 C   0  0  0  0  0
   22.6310   -1.8390    3.1620 C   0  0  0  0  0
   22.8620   -2.8860    2.5660 O   0  0  0  0  0
   20.9070   -2.4600    4.8670 C   0  0  0  0  0
   23.5573   -1.0039    3.3413 O   0  0  0  0  0
    7.1397    9.9211   -6.1648 H   0  0  0  0  0
    6.5591    8.3616   -6.2519 H   0  0  0  0  0
    5.6083    9.5699   -5.6095 H   0  0  0  0  0
    7.0803    9.8711   -3.8053 H   0  0  0  0  0
    6.3065    6.9623   -4.2232 H   0  0  0  0  0
    6.6341    7.7525   -2.6613 H   0  0  0  0  0
    5.2234    8.2452   -3.6298 H   0  0  0  0  0
    8.7682    8.8174   -2.4579 H   0  0  0  0  0
   11.1852    8.6119   -3.9578 H   0  0  0  0  0
   12.2169    7.9306   -1.8283 H   0  0  0  0  0
   10.5268    7.7942   -1.1164 H   0  0  0  0  0
   10.2402   10.1617   -1.4359 H   0  0  0  0  0
   11.9009   10.2839   -2.0936 H   0  0  0  0  0
   12.8494    9.5930   -0.0059 H   0  0  0  0  0
   11.2236    9.2201    0.6610 H   0  0  0  0  0
   10.8738   11.4803    1.0612 H   0  0  0  0  0
   14.3104   12.6621   -0.7259 H   0  0  0  0  0
   13.7721   10.9880   -0.8961 H   0  0  0  0  0
   11.5662   13.6253    1.2697 H   0  0  0  0  0
   12.7197    6.8115   -3.8814 H   0  0  0  0  0
   11.3339    4.1726   -4.1023 H   0  0  0  0  0
   14.1467    4.6128   -5.0197 H   0  0  0  0  0
   13.2562    5.3026   -7.0648 H   0  0  0  0  0
   13.1661    2.3679   -5.0643 H   0  0  0  0  0
   11.8095    2.9698   -6.0482 H   0  0  0  0  0
   13.4596    2.9609   -6.7175 H   0  0  0  0  0
   12.1613    2.4136   -2.8672 H   0  0  0  0  0
   13.7078    3.2672   -0.6230 H   0  0  0  0  0
   13.6927    0.6223   -0.1257 H   0  0  0  0  0
   12.3585    0.6782   -1.3229 H   0  0  0  0  0
   11.0516    1.2008    0.4264 H   0  0  0  0  0
   11.7997    2.8130    0.3259 H   0  0  0  0  0
   13.4845    2.1928    1.9827 H   0  0  0  0  0
   12.9919    0.5259    1.9568 H   0  0  0  0  0
   11.0916    0.8912    3.1284 H   0  0  0  0  0
   10.8597    2.5641    2.3693 H   0  0  0  0  0
   13.7066    3.3620    3.2802 H   0  0  0  0  0
   12.2618    4.4027    3.2564 H   0  0  0  0  0
   13.1435    4.1381    4.7807 H   0  0  0  0  0
   12.0077    0.6849    5.2395 H   0  0  0  0  0
   13.5564    1.1307    4.4819 H   0  0  0  0  0
   12.9888    2.0021    5.9274 H   0  0  0  0  0
   10.2125    3.6743    4.2129 H   0  0  0  0  0
   10.0962    2.1023    5.0414 H   0  0  0  0  0
   11.0222    3.4318    5.7803 H   0  0  0  0  0
   15.8411    3.0264   -0.2596 H   0  0  0  0  0
   17.4911    1.6125   -2.2421 H   0  0  0  0  0
   19.3745    2.2996   -0.8665 H   0  0  0  0  0
   18.1912    2.9755    0.3589 H   0  0  0  0  0
   17.4966    4.6322   -1.1565 H   0  0  0  0  0
   18.4785    3.8983   -2.4892 H   0  0  0  0  0
   20.0581    6.7764   -0.2164 H   0  0  0  0  0
   18.3328    6.4391   -0.3917 H   0  0  0  0  0
   19.4911    0.6188   -0.5082 H   0  0  0  0  0
   18.1055   -1.2973    1.2647 H   0  0  0  0  0
   18.8488   -2.0974   -1.2844 H   0  0  0  0  0
   18.4193   -4.2053   -0.3544 H   0  0  0  0  0
   21.2237   -2.0413   -0.7088 H   0  0  0  0  0
   20.9242   -3.0969    0.6937 H   0  0  0  0  0
   20.6766   -3.7177   -0.9568 H   0  0  0  0  0
   19.4541   -2.3415    2.7947 H   0  0  0  0  0
   21.2277   -0.5024    4.0178 H   0  0  0  0  0
   19.9408   -2.1813    5.2875 H   0  0  0  0  0
   20.8700   -3.4932    4.5218 H   0  0  0  0  0
   21.6795   -2.3576    5.6291 H   0  0  0  0  0
   23.2147   -0.2455    3.8198 H   0  0  0  0  0
  1  2  1  0  0  0
  2  3  1  0  0  0
  2  5  1  0  0  0
  3  4  2  0  0  0
  3  6  1  0  0  0
  6  7  1  0  0  0
  7  8  1  0  0  0
  7 10  1  0  0  0
  8  9  2  0  0  0
  8 17  1  0  0  0
 10 11  1  0  0  0
 11 12  1  0  0  0
 12 13  1  0  0  0
 13 14  1  0  0  0
 14 15  1  0  0  0
 14 16  2  0  0  0
 17 18  1  0  0  0
 18 19  1  0  0  0
 18 21  1  0  0  0
 19 20  2  0  0  0
 19 24  1  0  0  0
 21 22  1  0  0  0
 21 23  1  0  0  0
 24 25  1  0  0  0
 25 26  1  0  0  0
 25 31  1  0  0  0
 26 27  1  0  0  0
 27 28  1  0  0  0
 28 29  1  0  0  0
 29 30  1  0  0  0
 30 33  1  0  0  0
 30 34  1  0  0  0
 30 35  1  0  0  0
 31 32  2  0  0  0
 31 36  1  0  0  0
 36 37  1  0  0  0
 37 38  1  0  0  0
 37 40  1  0  0  0
 38 39  2  0  0  0
 38 45  1  0  0  0
 40 41  1  0  0  0
 41 42  1  0  0  0
 42 43  2  0  0  0
 42 44  1  0  0  0
 45 46  1  0  0  0
 46 47  1  0  0  0
 46 49  1  0  0  0
 47 48  2  0  0  0
 47 52  1  0  0  0
 49 50  1  0  0  0
 49 51  1  0  0  0
 52 53  1  0  0  0
 53 54  1  0  0  0
 53 56  1  0  0  0
 54 55  2  0  0  0
 54 57  1  0  0  0
  1 58  1  0  0  0
  1 59  1  0  0  0
  1 60  1  0  0  0
  2 61  1  0  0  0
  5 62  1  0  0  0
  5 63  1  0  0  0
  5 64  1  0  0  0
  6 65  1  0  0  0
  7 66  1  0  0  0
 10 67  1  0  0  0
 10 68  1  0  0  0
 11 69  1  0  0  0
 11 70  1  0  0  0
 12 71  1  0  0  0
 12 72  1  0  0  0
 13 73  1  0  0  0
 15 74  1  0  0  0
 15 75  1  0  0  0
 16 76  1  0  0  0
 17 77  1  0  0  0
 18 78  1  0  0  0
 21 79  1  0  0  0
 22 80  1  0  0  0
 23 81  1  0  0  0
 23 82  1  0  0  0
 23 83  1  0  0  0
 24 84  1  0  0  0
 25 85  1  0  0  0
 26 86  1  0  0  0
 26 87  1  0  0  0
 27 88  1  0  0  0
 27 89  1  0  0  0
 28 90  1  0  0  0
 28 91  1  0  0  0
 29 92  1  0  0  0
 29 93  1  0  0  0
 33 94  1  0  0  0
 33 95  1  0  0  0
 33 96  1  0  0  0
 34 97  1  0  0  0
 34 98  1  0  0  0
 34 99  1  0  0  0
 35100  1  0  0  0
 35101  1  0  0  0
 35102  1  0  0  0
 36103  1  0  0  0
 37104  1  0  0  0
 40105  1  0  0  0
 40106  1  0  0  0
 41107  1  0  0  0
 41108  1  0  0  0
 44109  1  0  0  0
 44110  1  0  0  0
 45111  1  0  0  0
 46112  1  0  0  0
 49113  1  0  0  0
 50114  1  0  0  0
 51115  1  0  0  0
 51116  1  0  0  0
 51117  1  0  0  0
 52118  1  0  0  0
 53119  1  0  0  0
 56120  1  0  0  0
 56121  1  0  0  0
 56122  1  0  0  0
 57123  1  0  0  0
M  END
$$$$
