### 
### Created by X-TOOL on Mon Sep 10 21:13:19 2018
### 

@<TRIPOS>MOLECULE
4mzh_ligand
  123   122     1     0     0
SMALL
GAST_HUCK


@<TRIPOS>ATOM
      1 N           6.5620    9.2200   -5.7010 N.4       1 ALA         0.2377
      2 CA          7.1050    8.9440   -4.3780 C.3       1 ALA         0.0621
      3 C           8.5600    8.4870   -4.4520 C.2       1 ALA         0.2264
      4 O           9.0570    8.1430   -5.5240 O.2       1 ALA        -0.3907
      5 CB          6.2570    7.9020   -3.6730 C.3       1 ALA        -0.0040
      6 N           9.2350    8.4910   -3.3040 N.am      1 ARG        -0.2610
      7 CA         10.6220    8.0430   -3.2180 C.3       1 ARG         0.1312
      8 C          10.7420    6.5560   -3.5200 C.2       1 ARG         0.2040
      9 O           9.7630    5.8160   -3.4850 O.2       1 ARG        -0.3944
     10 CB         11.1900    8.2960   -1.8210 C.3       1 ARG        -0.0092
     11 CG         11.2470    9.7450   -1.4080 C.3       1 ARG        -0.0156
     12 CD         11.7960    9.8730    0.0020 C.3       1 ARG         0.0627
     13 NE         11.6800   11.2410    0.4840 N.pl3     1 ARG        -0.2723
     14 CZ         12.5630   12.1960    0.2160 C.cat     1 ARG         0.2882
     15 NH1        13.6310   11.9280   -0.5260 N.pl3     1 ARG        -0.2849
     16 NH2        12.3830   13.4180    0.6950 N.pl3     1 ARG        -0.2849
     17 N          11.9660    6.1290   -3.8010 N.am      1 THR        -0.2613
     18 CA         12.2690    4.7230   -3.9980 C.3       1 THR         0.1565
     19 C          13.0690    4.2350   -2.7910 C.2       1 THR         0.2065
     20 O          13.8660    4.9840   -2.2310 O.2       1 THR        -0.3943
     21 CB         13.0930    4.4960   -5.2730 C.3       1 THR         0.0924
     22 OG1        12.7340    5.4560   -6.2740 O.3       1 THR        -0.3874
     23 CG2        12.8660    3.1000   -5.8140 C.3       1 THR        -0.0346
     24 N          12.8630    2.9830   -2.3940 N.am      1 M3L        -0.2637
     25 CA         13.6190    2.4200   -1.3030 C.3       1 M3L         0.1310
     26 CB         12.9310    1.2480   -0.5910 C.3       1 M3L        -0.0122
     27 CG         11.9910    1.7510    0.4800 C.3       1 M3L        -0.0440
     28 CD         12.6200    1.5440    1.8420 C.3       1 M3L        -0.0123
     29 CE         11.5280    1.8510    2.8520 C.3       1 M3L        -0.0309
     30 NZ         11.9700    2.4940    4.1340 N.4       1 M3L         0.2369
     31 C          14.9840    1.9040   -1.7280 C.2       1 M3L         0.2039
     32 O          15.1530    1.1560   -2.6920 O.2       1 M3L        -0.3944
     33 CM1        12.8290    3.6800    3.8430 C.3       1 M3L        -0.0418
     34 CM2        12.6790    1.5110    5.0050 C.3       1 M3L        -0.0418
     35 CM3        10.7420    2.9570    4.8400 C.3       1 M3L        -0.0418
     36 N          16.0000    2.3210   -0.9790 N.am      1 GLN        -0.2636
     37 CA         17.3380    1.7800   -1.1760 C.3       1 GLN         0.1330
     38 C          17.4690    0.4620   -0.4260 C.2       1 GLN         0.2041
     39 O          16.4720   -0.1830   -0.0970 O.2       1 GLN        -0.3944
     40 CB         18.4050    2.7650   -0.6890 C.3       1 GLN         0.0045
     41 CG         18.4100    4.0990   -1.4200 C.3       1 GLN         0.0412
     42 CD         19.5900    4.9660   -1.0280 C.2       1 GLN         0.1737
     43 OE1        20.7460    4.5700   -1.1870 O.2       1 GLN        -0.3973
     44 NE2        19.3050    6.1520   -0.5050 N.am      1 GLN        -0.3009
     45 N          18.7070    0.0690   -0.1570 N.am      1 THR        -0.2613
     46 CA         18.9740   -1.1290    0.6280 C.3       1 THR         0.1564
     47 C          20.1960   -0.9400    1.5320 C.2       1 THR         0.2060
     48 O          21.1010   -0.1580    1.2120 O.2       1 THR        -0.3943
     49 CB         19.1440   -2.3730   -0.2720 C.3       1 THR         0.0924
     50 OG1        18.3100   -3.4350    0.2080 O.3       1 THR        -0.3874
     51 CG2        20.5970   -2.8410   -0.3140 C.3       1 THR        -0.0346
     52 N          20.2040   -1.6650    2.6520 N.am      1 ALA        -0.2673
     53 CA         21.2320   -1.5410    3.6870 C.3       1 ALA         0.1198
     54 C          22.6310   -1.8390    3.1620 C.2       1 ALA         0.2147
     55 O          22.8620   -2.8860    2.5660 O.co2     1 ALA        -0.4120
     56 CB         20.9070   -2.4600    4.8670 C.3       1 ALA        -0.0276
     57 H           5.6030    9.5183   -5.6150 H         1 ALA         0.2015
     58 H           6.6048    8.3842   -6.2628 H         1 ALA         0.2015
     59 H           7.1023    9.9485   -6.1407 H         1 ALA         0.2015
     60 H           7.0689    9.8743   -3.7921 H         1 ALA         0.1095
     61 H           6.6761    7.7017   -2.6759 H         1 ALA         0.0310
     62 H           6.2525    6.9731   -4.2621 H         1 ALA         0.0310
     63 H           5.2276    8.2757   -3.5697 H         1 ALA         0.0310
     64 H           8.7773    8.8110   -2.4745 H         1 ARG         0.1884
     65 H          11.2155    8.6057   -3.9536 H         1 ARG         0.0800
     66 H          12.2127    7.8922   -1.7904 H         1 ARG         0.0313
     67 H          10.5619    7.7590   -1.0950 H         1 ARG         0.0313
     68 H          10.2337   10.1717   -1.4424 H         1 ARG         0.0301
     69 H          11.8999   10.2942   -2.1022 H         1 ARG         0.0301
     70 H          12.8562    9.5798    0.0034 H         1 ARG         0.0689
     71 H          11.2304    9.2069    0.6702 H         1 ARG         0.0689
     72 H          10.8659   11.4827    1.0668 H         1 ARG         0.2642
     73 H          14.3143   12.6706   -0.7323 H         1 ARG         0.2615
     74 H          13.7762   10.9775   -0.8953 H         1 ARG         0.2615
     75 H          11.5554   13.6287    1.2709 H         1 ARG         0.2615
     76 H          13.0706   14.1574    0.4915 H         1 ARG         0.2615
     77 H          12.7049    6.7981   -3.8798 H         1 THR         0.1884
     78 H          11.3288    4.1571   -4.0734 H         1 THR         0.0826
     79 H          14.1592    4.6147   -5.0297 H         1 THR         0.0639
     80 H          13.2508    5.3042   -7.0566 H         1 THR         0.2101
     81 H          13.4646    2.9584   -6.7260 H         1 THR         0.0257
     82 H          11.8000    2.9674   -6.0508 H         1 THR         0.0257
     83 H          13.1686    2.3602   -5.0583 H         1 THR         0.0257
     84 H          12.1751    2.4248   -2.8579 H         1 M3L         0.1883
     85 H          13.7657    3.2269   -0.5700 H         1 M3L         0.0800
     86 H          13.6961    0.6074   -0.1280 H         1 M3L         0.0312
     87 H          12.3598    0.6634   -1.3272 H         1 M3L         0.0312
     88 H          11.0429    1.1959    0.4259 H         1 M3L         0.0269
     89 H          11.7979    2.8227    0.3245 H         1 M3L         0.0269
     90 H          13.4714    2.2269    1.9787 H         1 M3L         0.0317
     91 H          12.9624    0.5045    1.9520 H         1 M3L         0.0317
     92 H          11.0307    0.9034    3.1064 H         1 M3L         0.0815
     93 H          10.8058    2.5263    2.3700 H         1 M3L         0.0815
     94 H          13.1471    4.1432    4.7887 H         1 M3L         0.0778
     95 H          12.2577    4.4102    3.2510 H         1 M3L         0.0778
     96 H          13.7152    3.3604    3.2750 H         1 M3L         0.0778
     97 H          12.0203    0.6518    5.1997 H         1 M3L         0.0778
     98 H          12.9464    1.9913    5.9578 H         1 M3L         0.0778
     99 H          13.5927    1.1653    4.4995 H         1 M3L         0.0778
    100 H          10.2082    3.6831    4.2092 H         1 M3L         0.0778
    101 H          11.0233    3.4340    5.7904 H         1 M3L         0.0778
    102 H          10.0880    2.0957    5.0414 H         1 M3L         0.0778
    103 H          15.8443    3.0126   -0.2737 H         1 GLN         0.1883
    104 H          17.4911    1.5972   -2.2498 H         1 GLN         0.0801
    105 H          19.3915    2.2967   -0.8213 H         1 GLN         0.0337
    106 H          18.2317    2.9592    0.3797 H         1 GLN         0.0337
    107 H          17.4809    4.6370   -1.1805 H         1 GLN         0.0504
    108 H          18.4551    3.9089   -2.5025 H         1 GLN         0.0504
    109 H          20.0434    6.7667   -0.2278 H         1 GLN         0.1814
    110 H          18.3518    6.4309   -0.3882 H         1 GLN         0.1814
    111 H          19.4757    0.6080   -0.5013 H         1 THR         0.1884
    112 H          18.1020   -1.3026    1.2757 H         1 THR         0.0826
    113 H          18.8323   -2.1097   -1.2935 H         1 THR         0.0639
    114 H          18.4181   -4.1973   -0.3486 H         1 THR         0.2101
    115 H          20.6786   -3.7258   -0.9625 H         1 THR         0.0257
    116 H          20.9285   -3.0996    0.7025 H         1 THR         0.0257
    117 H          21.2305   -2.0348   -0.7123 H         1 THR         0.0257
    118 H          19.4688   -2.3283    2.7919 H         1 ALA         0.1876
    119 H          21.2224   -0.5015    4.0467 H         1 ALA         0.0748
    120 O1         23.5573   -1.0039    3.3413 O.co2     1 ALA        -0.4120
    121 H          21.6860   -2.3576    5.6369 H         1 ALA         0.0271
    122 H          20.8694   -3.5031    4.5199 H         1 ALA         0.0271
    123 H          19.9321   -2.1797    5.2924 H         1 ALA         0.0271
@<TRIPOS>BOND
     1    1    2 1  
     2    2    3 1  
     3    2    5 1  
     4    3    4 2  
     5    3    6 am 
     6    6    7 1  
     7    7    8 1  
     8    7   10 1  
     9    8    9 2  
    10    8   17 am 
    11   10   11 1  
    12   11   12 1  
    13   12   13 1  
    14   13   14 ar 
    15   14   15 ar 
    16   14   16 ar 
    17   17   18 1  
    18   18   19 1  
    19   18   21 1  
    20   19   20 2  
    21   19   24 am 
    22   21   22 1  
    23   21   23 1  
    24   24   25 1  
    25   25   26 1  
    26   25   31 1  
    27   26   27 1  
    28   27   28 1  
    29   28   29 1  
    30   29   30 1  
    31   30   33 1  
    32   30   34 1  
    33   30   35 1  
    34   31   32 2  
    35   31   36 am 
    36   36   37 1  
    37   37   38 1  
    38   37   40 1  
    39   38   39 2  
    40   38   45 am 
    41   40   41 1  
    42   41   42 1  
    43   42   43 2  
    44   42   44 am 
    45   45   46 1  
    46   46   47 1  
    47   46   49 1  
    48   47   48 2  
    49   47   52 am 
    50   49   50 1  
    51   49   51 1  
    52   52   53 1  
    53   53   54 1  
    54   53   56 1  
    55   54   55 ar 
    56    1   57 1  
    57    1   58 1  
    58    1   59 1  
    59    2   60 1  
    60    5   61 1  
    61    5   62 1  
    62    5   63 1  
    63    6   64 1  
    64    7   65 1  
    65   10   66 1  
    66   10   67 1  
    67   11   68 1  
    68   11   69 1  
    69   12   70 1  
    70   12   71 1  
    71   13   72 1  
    72   15   73 1  
    73   15   74 1  
    74   16   75 1  
    75   16   76 1  
    76   17   77 1  
    77   18   78 1  
    78   21   79 1  
    79   22   80 1  
    80   23   81 1  
    81   23   82 1  
    82   23   83 1  
    83   24   84 1  
    84   25   85 1  
    85   26   86 1  
    86   26   87 1  
    87   27   88 1  
    88   27   89 1  
    89   28   90 1  
    90   28   91 1  
    91   29   92 1  
    92   29   93 1  
    93   33   94 1  
    94   33   95 1  
    95   33   96 1  
    96   34   97 1  
    97   34   98 1  
    98   34   99 1  
    99   35  100 1  
   100   35  101 1  
   101   35  102 1  
   102   36  103 1  
   103   37  104 1  
   104   40  105 1  
   105   40  106 1  
   106   41  107 1  
   107   41  108 1  
   108   44  109 1  
   109   44  110 1  
   110   45  111 1  
   111   46  112 1  
   112   49  113 1  
   113   50  114 1  
   114   51  115 1  
   115   51  116 1  
   116   51  117 1  
   117   52  118 1  
   118   53  119 1  
   119   54  120 ar 
   120   56  121 1  
   121   56  122 1  
   122   56  123 1  
@<TRIPOS>SUBSTRUCTURE
     1 ALA         1

