6np4_ligand
  -I-interpret- 

 74 76  0  0  0  0  0  0  0  0999 V2000
  109.1930  -18.2270   -7.6010 C   0  0  0  0  0
  110.1270  -18.1920   -6.5680 O   0  0  0  0  0
  107.8950  -18.8550   -7.0470 C   0  0  0  0  0
  107.4670  -18.0790   -5.8470 N   0  3  0  0  0
  108.0720  -20.2630   -6.6800 C   0  0  0  0  0
  108.6180  -21.0460   -7.8070 C   0  0  0  0  0
  109.0240  -22.3460   -7.3560 O   0  0  0  0  0
  109.8670  -20.4080   -8.4020 C   0  0  0  0  0
  109.6350  -19.0030   -8.7530 O   0  0  0  0  0
  110.2620  -21.1430   -9.6450 C   0  0  0  0  0
  111.5050  -20.6060  -10.1730 N   0  3  0  0  0
  113.2100  -15.4160   -5.6270 C   0  0  0  0  0
  114.4780  -14.6970   -5.5020 N   0  3  0  0  0
  113.4090  -16.8880   -5.2470 C   0  0  0  0  0
  112.0700  -17.6430   -5.3580 C   0  0  0  0  0
  112.2720  -19.0560   -5.0700 N   0  3  0  0  0
  111.3890  -17.5460   -6.7410 C   0  0  0  0  0
  111.3200  -16.0820   -7.1920 C   0  0  0  0  0
  110.9370  -16.0170   -8.5430 O   0  0  0  0  0
  112.6650  -15.3460   -7.0530 C   0  0  0  0  0
  112.4750  -13.9930   -7.3910 O   0  0  0  0  0
  113.3460  -13.4350   -8.3090 C   0  0  0  0  0
  113.4560  -11.9580   -7.9670 C   0  0  0  0  0
  113.9100  -11.8740   -6.6260 O   0  0  0  0  0
  112.1470  -11.2580   -8.1240 C   0  0  0  0  0
  112.3140   -9.7920   -7.7680 N   0  3  0  0  0
  111.5950  -11.4560   -9.5110 C   0  0  0  0  0
  110.2950  -10.8800   -9.6140 O   0  0  0  0  0
  111.5220  -12.9540   -9.8340 C   0  0  0  0  0
  112.8550  -13.5280   -9.6820 O   0  0  0  0  0
  110.9870  -13.2420  -11.2070 C   0  0  0  0  0
  111.7130  -12.5510  -12.1810 O   0  0  0  0  0
  109.0437  -17.2044   -7.9477 H   0  0  0  0  0
  107.1372  -18.8170   -7.8295 H   0  0  0  0  0
  107.3440  -17.0994   -6.1032 H   0  0  0  0  0
  106.5848  -18.4538   -5.4981 H   0  0  0  0  0
  108.1805  -18.1551   -5.1221 H   0  0  0  0  0
  107.1004  -20.6759   -6.4087 H   0  0  0  0  0
  108.7723  -20.3192   -5.8466 H   0  0  0  0  0
  107.8233  -21.0924   -8.5516 H   0  0  0  0  0
  108.2713  -22.7985   -6.9684 H   0  0  0  0  0
  110.6560  -20.4613   -7.6518 H   0  0  0  0  0
  109.4773  -21.0266  -10.3926 H   0  0  0  0  0
  110.4020  -22.1973   -9.4064 H   0  0  0  0  0
  111.7620  -21.1153  -11.0186 H   0  0  0  0  0
  111.3804  -19.6181  -10.3943 H   0  0  0  0  0
  112.2420  -20.7090   -9.4754 H   0  0  0  0  0
  112.4937  -14.9427   -4.9555 H   0  0  0  0  0
  114.3393  -13.7189   -5.7560 H   0  0  0  0  0
  114.8073  -14.7559   -4.5384 H   0  0  0  0  0
  115.1683  -15.1167   -6.1248 H   0  0  0  0  0
  113.7725  -16.9489   -4.2212 H   0  0  0  0  0
  114.1340  -17.3396   -5.9241 H   0  0  0  0  0
  111.4141  -17.1595   -4.6340 H   0  0  0  0  0
  111.3816  -19.5478   -5.1456 H   0  0  0  0  0
  112.9355  -19.4467   -5.7390 H   0  0  0  0  0
  112.6399  -19.1598   -4.1243 H   0  0  0  0  0
  111.9336  -18.0369   -7.5476 H   0  0  0  0  0
  110.5917  -15.5969   -6.5421 H   0  0  0  0  0
  110.8957  -15.0984   -8.8189 H   0  0  0  0  0
  113.3830  -15.8277   -7.7167 H   0  0  0  0  0
  114.2939  -13.9703   -8.2550 H   0  0  0  0  0
  114.1519  -11.4675   -8.6476 H   0  0  0  0  0
  113.9916  -10.9512   -6.3742 H   0  0  0  0  0
  111.4163  -11.6884   -7.4393 H   0  0  0  0  0
  111.4197   -9.3133   -7.8752 H   0  0  0  0  0
  112.6302   -9.7119   -6.8016 H   0  0  0  0  0
  113.0039   -9.3690   -8.3889 H   0  0  0  0  0
  112.2569  -10.9638  -10.2235 H   0  0  0  0  0
  109.9564  -11.0138  -10.5023 H   0  0  0  0  0
  110.8187  -13.4090   -9.1365 H   0  0  0  0  0
  109.9465  -12.9205  -11.2520 H   0  0  0  0  0
  111.0729  -14.3115  -11.3991 H   0  0  0  0  0
  111.3532  -12.7506  -13.0484 H   0  0  0  0  0
  2  1  1  0  0  0
  1  3  1  0  0  0
  1  9  1  0  0  0
 17  2  1  0  0  0
  3  4  1  0  0  0
  3  5  1  0  0  0
  5  6  1  0  0  0
  6  7  1  0  0  0
  8  6  1  0  0  0
  9  8  1  0  0  0
  8 10  1  0  0  0
 10 11  1  0  0  0
 12 13  1  0  0  0
 14 12  1  0  0  0
 12 20  1  0  0  0
 15 14  1  0  0  0
 15 16  1  0  0  0
 15 17  1  0  0  0
 17 18  1  0  0  0
 18 19  1  0  0  0
 18 20  1  0  0  0
 20 21  1  0  0  0
 21 22  1  0  0  0
 22 23  1  0  0  0
 22 30  1  0  0  0
 23 24  1  0  0  0
 23 25  1  0  0  0
 25 26  1  0  0  0
 25 27  1  0  0  0
 27 28  1  0  0  0
 27 29  1  0  0  0
 29 30  1  0  0  0
 29 31  1  0  0  0
 31 32  1  0  0  0
  1 33  1  0  0  0
  3 34  1  0  0  0
  4 35  1  0  0  0
  4 36  1  0  0  0
  4 37  1  0  0  0
  5 38  1  0  0  0
  5 39  1  0  0  0
  6 40  1  0  0  0
  7 41  1  0  0  0
  8 42  1  0  0  0
 10 43  1  0  0  0
 10 44  1  0  0  0
 11 45  1  0  0  0
 11 46  1  0  0  0
 11 47  1  0  0  0
 12 48  1  0  0  0
 13 49  1  0  0  0
 13 50  1  0  0  0
 13 51  1  0  0  0
 14 52  1  0  0  0
 14 53  1  0  0  0
 15 54  1  0  0  0
 16 55  1  0  0  0
 16 56  1  0  0  0
 16 57  1  0  0  0
 17 58  1  0  0  0
 18 59  1  0  0  0
 19 60  1  0  0  0
 20 61  1  0  0  0
 22 62  1  0  0  0
 23 63  1  0  0  0
 24 64  1  0  0  0
 25 65  1  0  0  0
 26 66  1  0  0  0
 26 67  1  0  0  0
 26 68  1  0  0  0
 27 69  1  0  0  0
 28 70  1  0  0  0
 29 71  1  0  0  0
 31 72  1  0  0  0
 31 73  1  0  0  0
 32 74  1  0  0  0
M  END
$$$$
