4apr_ligand
  -I-interpret- 

 98100  0  0  0  0  0  0  0  0999 V2000
   36.9510   72.2800  101.7050 N   0  3  0  0  0
   37.3920   71.0320  101.0490 C   0  0  0  0  0
   38.5910   70.4070  101.7510 C   0  0  0  0  0
   39.5280   71.1150  102.2000 O   0  0  0  0  0
   37.6970   71.4280   99.6020 C   0  0  0  0  0
   38.0230   72.8840   99.6630 C   0  0  0  0  0
   37.2270   73.4320  100.8490 C   0  0  0  0  0
   38.6040   69.0850  101.8220 N   0  0  0  0  0
   39.7190   68.3490  102.4750 C   0  0  0  0  0
   40.6060   67.7520  101.3930 C   0  0  0  0  0
   40.1490   67.6740  100.2360 O   0  0  0  0  0
   39.0810   67.3360  103.4210 C   0  0  0  0  0
   38.4240   67.8660  104.6520 C   0  0  0  0  0
   38.6590   67.2000  105.8600 C   0  0  0  0  0
   37.6110   68.9850  104.7100 C   0  0  0  0  0
   38.1150   67.6310  107.0620 C   0  0  0  0  0
   37.0350   69.4410  105.8940 C   0  0  0  0  0
   37.2790   68.7510  107.0900 C   0  0  0  0  0
   41.8070   67.3510  101.7190 N   0  0  0  0  0
   42.7740   66.7050  100.7910 C   0  0  0  0  0
   43.6640   65.9140  101.7730 C   0  0  0  0  0
   44.7060   66.3910  102.2220 O   0  0  0  0  0
   43.5410   67.5610   99.7990 C   0  0  0  0  0
   44.5530   66.8700   98.9400 C   0  0  0  0  0
   44.5080   65.5460   98.5790 N   0  0  0  0  0
   45.6800   67.3470   98.3450 C   0  0  0  0  0
   45.5470   65.2180   97.8190 C   0  0  0  0  0
   46.2630   66.3070   97.6560 N   0  0  0  0  0
   43.1470   64.7610  102.0880 N   0  0  0  0  0
   43.5790   63.7370  103.0370 C   0  0  0  0  0
   42.4700   63.7080  104.0560 C   0  0  0  0  0
   42.5510   64.3940  105.4170 C   0  0  0  0  0
   43.3140   65.7350  105.4240 C   0  0  0  0  0
   41.0970   64.7170  105.8950 C   0  0  0  0  0
   44.0000   62.4350  102.3550 C   0  0  0  0  0
   42.8490   61.7000  101.9220 O   0  0  0  0  0
   44.9070   62.6430  101.1580 C   0  0  0  0  0
   46.2820   63.1000  101.6630 C   0  0  0  0  0
   46.3700   64.0540  102.3940 O   0  0  0  0  0
   47.1800   62.1510  101.5030 N   0  0  0  0  0
   48.6240   62.2560  101.4150 C   0  0  0  0  0
   49.1180   63.0180  100.1640 C   0  0  0  0  0
   50.3280   63.3630  100.2430 O   0  0  0  0  0
   49.2340   60.8460  101.4980 C   0  0  0  0  0
   49.3060   60.0850  102.8000 C   0  0  0  0  0
   50.4320   59.0470  102.6870 C   0  0  0  0  0
   49.6190   61.0120  103.9770 C   0  0  0  0  0
   37.4579   72.3902  102.5832 H   0  0  0  0  0
   35.9470   72.2275  101.8771 H   0  0  0  0  0
   36.6250   70.2588  101.0940 H   0  0  0  0  0
   36.8530   71.2294   98.9414 H   0  0  0  0  0
   38.5202   70.8458   99.1878 H   0  0  0  0  0
   37.7581   73.3917   98.7355 H   0  0  0  0  0
   39.0930   73.0486   99.7900 H   0  0  0  0  0
   36.3059   73.9140  100.5213 H   0  0  0  0  0
   37.7868   74.1996  101.3833 H   0  0  0  0  0
   37.8295   68.5579  101.4185 H   0  0  0  0  0
   40.3770   68.9807  103.0718 H   0  0  0  0  0
   39.8979   66.7052  103.7715 H   0  0  0  0  0
   38.2881   66.8561  102.8473 H   0  0  0  0  0
   39.2911   66.3120  105.8569 H   0  0  0  0  0
   37.4128   69.5334  103.7891 H   0  0  0  0  0
   38.3398   67.0959  107.9846 H   0  0  0  0  0
   36.3999   70.3269  105.8905 H   0  0  0  0  0
   36.8252   69.0818  108.0242 H   0  0  0  0  0
   42.1041   67.4920  102.6845 H   0  0  0  0  0
   42.2444   66.1097  100.0472 H   0  0  0  0  0
   44.1014   68.2787  100.3981 H   0  0  0  0  0
   42.7941   67.9612   99.1134 H   0  0  0  0  0
   46.0542   68.3691   98.4033 H   0  0  0  0  0
   45.7642   64.2319   97.4084 H   0  0  0  0  0
   42.2902   64.5325  101.5839 H   0  0  0  0  0
   44.5146   63.9475  103.5552 H   0  0  0  0  0
   42.4112   62.6521  104.3200 H   0  0  0  0  0
   41.6685   64.2530  103.5573 H   0  0  0  0  0
   43.0915   63.7005  106.0612 H   0  0  0  0  0
   44.3397   65.5697  105.0943 H   0  0  0  0  0
   42.8222   66.4349  104.7485 H   0  0  0  0  0
   43.3173   66.1444  106.4342 H   0  0  0  0  0
   40.6165   65.3766  105.1725 H   0  0  0  0  0
   40.5287   63.7905  105.9772 H   0  0  0  0  0
   41.1362   65.2081  106.8673 H   0  0  0  0  0
   44.5602   61.8804  103.1077 H   0  0  0  0  0
   43.1313   60.8869  101.4968 H   0  0  0  0  0
   44.4832   63.3989  100.4968 H   0  0  0  0  0
   45.0061   61.7120  100.5999 H   0  0  0  0  0
   46.8063   61.2047  101.4304 H   0  0  0  0  0
   48.9632   62.8579  102.2581 H   0  0  0  0  0
   48.4857   63.2345   99.3029 H   0  0  0  0  0
   50.2796   61.0017  101.2325 H   0  0  0  0  0
   48.5685   60.2408  100.8824 H   0  0  0  0  0
   48.3398   59.6142  102.9812 H   0  0  0  0  0
   50.2145   58.3649  101.8651 H   0  0  0  0  0
   51.3766   59.5567  102.4975 H   0  0  0  0  0
   50.5013   58.4852  103.6185 H   0  0  0  0  0
   50.5794   61.4992  103.8087 H   0  0  0  0  0
   48.8371   61.7667  104.0613 H   0  0  0  0  0
   49.6626   60.4279  104.8962 H   0  0  0  0  0
  2  1  1  0  0  0
  2  5  1  0  0  0
  3  2  1  0  0  0
  3  4  2  0  0  0
  5  6  1  0  0  0
  6  7  1  0  0  0
  1  7  1  0  0  0
 10  9  1  0  0  0
  9 12  1  0  0  0
  9  8  1  0  0  0
 12 13  1  0  0  0
 13 15  4  0  0  0
 13 14  4  0  0  0
 14 16  4  0  0  0
 16 18  4  0  0  0
 17 18  4  0  0  0
 15 17  4  0  0  0
 10 11  2  0  0  0
 21 20  1  0  0  0
 20 23  1  0  0  0
 20 19  1  0  0  0
 23 24  1  0  0  0
 24 26  4  0  0  0
 24 25  4  0  0  0
 25 27  4  0  0  0
 27 28  4  0  0  0
 26 28  4  0  0  0
 21 22  2  0  0  0
 30 29  1  0  0  0
 35 30  1  0  0  0
 30 31  1  0  0  0
 31 32  1  0  0  0
 32 34  1  0  0  0
 32 33  1  0  0  0
 37 35  1  0  0  0
 35 36  1  0  0  0
 38 37  1  0  0  0
 38 39  2  0  0  0
 41 42  1  0  0  0
 41 44  1  0  0  0
 40 41  1  0  0  0
 44 45  1  0  0  0
 45 47  1  0  0  0
 45 46  1  0  0  0
 42 43  2  0  0  0
  8  3  1  0  0  0
 19 10  1  0  0  0
 29 21  1  0  0  0
 38 40  1  0  0  0
  1 48  1  0  0  0
  1 49  1  0  0  0
  2 50  1  0  0  0
  5 51  1  0  0  0
  5 52  1  0  0  0
  6 53  1  0  0  0
  6 54  1  0  0  0
  7 55  1  0  0  0
  7 56  1  0  0  0
  8 57  1  0  0  0
  9 58  1  0  0  0
 12 59  1  0  0  0
 12 60  1  0  0  0
 14 61  1  0  0  0
 15 62  1  0  0  0
 16 63  1  0  0  0
 17 64  1  0  0  0
 18 65  1  0  0  0
 19 66  1  0  0  0
 20 67  1  0  0  0
 23 68  1  0  0  0
 23 69  1  0  0  0
 26 70  1  0  0  0
 27 71  1  0  0  0
 29 72  1  0  0  0
 30 73  1  0  0  0
 31 74  1  0  0  0
 31 75  1  0  0  0
 32 76  1  0  0  0
 33 77  1  0  0  0
 33 78  1  0  0  0
 33 79  1  0  0  0
 34 80  1  0  0  0
 34 81  1  0  0  0
 34 82  1  0  0  0
 35 83  1  0  0  0
 36 84  1  0  0  0
 37 85  1  0  0  0
 37 86  1  0  0  0
 40 87  1  0  0  0
 41 88  1  0  0  0
 42 89  1  0  0  0
 44 90  1  0  0  0
 44 91  1  0  0  0
 45 92  1  0  0  0
 46 93  1  0  0  0
 46 94  1  0  0  0
 46 95  1  0  0  0
 47 96  1  0  0  0
 47 97  1  0  0  0
 47 98  1  0  0  0
M  END
$$$$
