3adv_ligand
  -I-interpret- 

 25 26  0  0  0  0  0  0  0  0999 V2000
   18.6310   64.8870    9.9730 O   0  0  0  0  0
   17.8260   64.5690   11.0190 C   0  0  0  0  0
   16.4170   64.5310   10.8410 C   0  0  0  0  0
   15.5710   64.2040   11.9160 C   0  0  0  0  0
   16.1210   63.9090   13.1920 C   0  0  0  0  0
   15.5690   63.5640   14.4060 N   0  0  0  0  0
   16.5610   63.3840   15.3350 C   0  0  0  0  0
   17.7760   63.5980   14.7850 C   0  0  0  0  0
   17.5440   63.9470   13.3750 C   0  0  0  0  0
   18.3930   64.2800   12.2760 C   0  0  0  0  0
   19.1240   63.4960   15.4810 C   0  0  0  0  0
   19.2270   64.5110   16.6320 C   0  0  0  0  0
   18.9910   63.8330   17.9140 N   0  3  0  0  0
   19.5474   64.8679   10.2585 H   0  0  0  0  0
   15.9886   64.7568    9.8645 H   0  0  0  0  0
   14.4912   64.1769   11.7697 H   0  0  0  0  0
   16.3923   63.1061   16.3754 H   0  0  0  0  0
   19.4744   64.3104   12.4090 H   0  0  0  0  0
   19.9094   63.7083   14.7557 H   0  0  0  0  0
   19.2319   62.4912   15.8896 H   0  0  0  0  0
   18.4787   65.2913   16.4932 H   0  0  0  0  0
   20.2234   64.9530   16.6354 H   0  0  0  0  0
   19.0605   64.5104   18.6734 H   0  0  0  0  0
   18.0593   63.4179   17.9113 H   0  0  0  0  0
   19.6900   63.1017   18.0442 H   0  0  0  0  0
  1  2  1  0  0  0
  2  3  4  0  0  0
  2 10  4  0  0  0
  3  4  4  0  0  0
  4  5  4  0  0  0
  5  6  4  0  0  0
  5  9  4  0  0  0
  6  7  4  0  0  0
  7  8  4  0  0  0
  8  9  4  0  0  0
  8 11  1  0  0  0
  9 10  4  0  0  0
 11 12  1  0  0  0
 12 13  1  0  0  0
  1 14  1  0  0  0
  3 15  1  0  0  0
  4 16  1  0  0  0
  7 17  1  0  0  0
 10 18  1  0  0  0
 11 19  1  0  0  0
 11 20  1  0  0  0
 12 21  1  0  0  0
 12 22  1  0  0  0
 13 23  1  0  0  0
 13 24  1  0  0  0
 13 25  1  0  0  0
M  END
$$$$
