### 
### Created by X-TOOL on Mon Sep 10 21:13:33 2018
### 

@<TRIPOS>MOLECULE
5nme_ligand
  141   141     1     0     0
SMALL
GAST_HUCK


@<TRIPOS>ATOM
      1 N          63.0350   30.1060   35.9880 N.4       1 SER         0.2396
      2 CA         61.8730   30.6980   36.6680 C.3       1 SER         0.0885
      3 C          60.8460   30.3930   35.6420 C.2       1 SER         0.2290
      4 O          60.1250   29.4930   35.8460 O.2       1 SER        -0.3906
      5 CB         62.0280   32.1830   36.9450 C.3       1 SER         0.1041
      6 OG         60.7710   32.8030   36.8670 O.3       1 SER        -0.3870
      7 N          60.8030   31.0240   34.5010 N.am      1 LEU        -0.2609
      8 CA         59.6420   30.8020   33.6570 C.3       1 LEU         0.1313
      9 C          59.8530   31.7170   32.5310 C.2       1 LEU         0.2040
     10 O          60.1410   32.8860   32.7690 O.2       1 LEU        -0.3944
     11 CB         58.3150   31.1930   34.3550 C.3       1 LEU        -0.0101
     12 CG         56.9500   30.7060   33.8370 C.3       1 LEU        -0.0425
     13 CD1        56.7570   29.2270   33.9540 C.3       1 LEU        -0.0625
     14 CD2        55.8180   31.3440   34.6360 C.3       1 LEU        -0.0625
     15 N          59.7010   31.2260   31.3090 N.am      1 TYR        -0.2621
     16 CA         60.1110   32.0020   30.1490 C.3       1 TYR         0.1390
     17 C          59.1420   33.1680   29.8730 C.2       1 TYR         0.2059
     18 O          57.9460   33.0630   30.1350 O.2       1 TYR        -0.3942
     19 CB         60.2010   31.0400   28.9990 C.3       1 TYR         0.0163
     20 CG         60.6650   31.6130   27.7440 C.ar      1 TYR        -0.0493
     21 CD1        61.7430   32.4460   27.6750 C.ar      1 TYR        -0.0685
     22 CD2        60.0610   31.2620   26.5900 C.ar      1 TYR        -0.0685
     23 CE1        62.1540   32.9480   26.4680 C.ar      1 TYR        -0.0398
     24 CE2        60.4700   31.7610   25.3700 C.ar      1 TYR        -0.0398
     25 CZ         61.5030   32.6020   25.3320 C.ar      1 TYR         0.0805
     26 OH         61.8410   33.0410   24.1170 O.3       1 TYR        -0.3376
     27 N          59.6690   34.3150   29.4860 N.am      1 ASN        -0.2615
     28 CA         58.8160   35.4600   29.1570 C.3       1 ASN         0.1476
     29 C          58.1770   35.3650   27.7650 C.2       1 ASN         0.2063
     30 O          56.9630   35.2840   27.6660 O.2       1 ASN        -0.3942
     31 CB         59.5140   36.8050   29.3050 C.3       1 ASN         0.0773
     32 CG         60.8550   36.9020   28.5800 C.2       1 ASN         0.1780
     33 OD1        61.2940   37.9950   28.3000 O.2       1 ASN        -0.3970
     34 ND2        61.5240   35.7970   28.3390 N.am      1 ASN        -0.3007
     35 N          58.9850   35.3460   26.7060 N.am      1 THR        -0.2612
     36 CA         58.5180   35.5670   25.3410 C.3       1 THR         0.1565
     37 C          58.0900   34.2770   24.5860 C.2       1 THR         0.2065
     38 O          58.5820   33.9900   23.4980 O.2       1 THR        -0.3943
     39 CB         59.5820   36.3190   24.5550 C.3       1 THR         0.0924
     40 OG1        60.8770   35.7650   24.7840 O.3       1 THR        -0.3874
     41 CG2        59.6350   37.6870   25.0420 C.3       1 THR        -0.0346
     42 N          57.1210   33.5680   25.1770 N.am      1 VAL        -0.2634
     43 CA         56.6040   32.3080   24.6890 C.3       1 VAL         0.1333
     44 C          55.6990   32.5490   23.5410 C.2       1 VAL         0.2041
     45 O          54.7760   33.3230   23.6590 O.2       1 VAL        -0.3944
     46 CB         55.7610   31.5410   25.7650 C.3       1 VAL        -0.0063
     47 CG1        54.5190   32.3140   26.2570 C.3       1 VAL        -0.0584
     48 CG2        55.3540   30.1650   25.2280 C.3       1 VAL        -0.0584
     49 N          55.9130   31.8010   22.4710 N.am      1 ALA        -0.2640
     50 CA         55.4020   32.1680   21.2000 C.3       1 ALA         0.1282
     51 C          54.1500   31.4270   20.8680 C.2       1 ALA         0.2037
     52 O          54.0110   30.2340   21.1980 O.2       1 ALA        -0.3944
     53 CB         56.4680   31.9430   20.1340 C.3       1 ALA        -0.0244
     54 N          53.2710   32.1200   20.1410 N.am      1 THR        -0.2613
     55 CA         52.0740   31.5070   19.5710 C.3       1 THR         0.1564
     56 C          52.4080   30.8070   18.3250 C.2       1 THR         0.2059
     57 O          53.4160   31.0870   17.7240 O.2       1 THR        -0.3943
     58 CB         51.0080   32.5110   19.1360 C.3       1 THR         0.0924
     59 OG1        51.6410   33.6050   18.4720 O.3       1 THR        -0.3874
     60 CG2        50.2410   32.9720   20.3070 C.3       1 THR        -0.0346
     61 N          51.4780   29.9480   17.9250 N.am      1 LEU        -0.2694
     62 CA         51.5140   29.2290   16.6190 C.3       1 LEU         0.0946
     63 C          51.4120   30.1080   15.3040 C.2       1 LEU         0.0601
     64 O          51.3680   31.3500   15.4000 O.co2     1 LEU        -0.5666
     65 CB         50.4720   28.0520   16.5960 C.3       1 LEU        -0.0156
     66 CG         50.9090   26.6490   17.0200 C.3       1 LEU        -0.0431
     67 CD1        51.8550   26.6610   18.1800 C.3       1 LEU        -0.0625
     68 CD2        49.7000   25.8560   17.4200 C.3       1 LEU        -0.0625
     69 OXT        51.4400   29.5390   14.1450 O.co2     1 LEU        -0.5666
     70 H1         63.8558   30.2241   36.5611 H         1 SER         0.2016
     71 H2         63.1753   30.5649   35.1016 H         1 SER         0.2016
     72 H3         62.8704   29.1233   35.8354 H         1 SER         0.2016
     73 H4         61.6580   30.1858   37.6174 H         1 SER         0.1122
     74 H5         62.7038   32.6273   36.1994 H         1 SER         0.0640
     75 H6         62.4470   32.3273   37.9518 H         1 SER         0.0640
     76 H7         60.1886   32.4178   37.5112 H         1 SER         0.2099
     77 H8         61.5409   31.6369   34.2184 H         1 LEU         0.1884
     78 H9         59.5955   29.7541   33.3258 H         1 LEU         0.0800
     79 H10        58.2740   32.2922   34.3462 H         1 LEU         0.0315
     80 H11        58.3958   30.8374   35.3928 H         1 LEU         0.0315
     81 H12        56.8632   30.9949   32.7792 H         1 LEU         0.0298
     82 H13        55.7642   28.9550   33.5662 H         1 LEU         0.0232
     83 H14        56.8319   28.9299   35.0104 H         1 LEU         0.0232
     84 H15        57.5328   28.7087   33.3714 H         1 LEU         0.0232
     85 H16        55.9068   32.4393   34.5872 H         1 LEU         0.0232
     86 H17        55.8800   31.0175   35.6846 H         1 LEU         0.0232
     87 H18        54.8509   31.0353   34.2124 H         1 LEU         0.0232
     88 H19        59.3024   30.3174   31.1840 H         1 TYR         0.1885
     89 H20        61.1079   32.4280   30.3354 H         1 TYR         0.0821
     90 H21        59.1995   30.6176   28.8300 H         1 TYR         0.0453
     91 H22        60.8954   30.2353   29.2825 H         1 TYR         0.0453
     92 H23        62.2774   32.7123   28.5798 H         1 TYR         0.0530
     93 H24        59.2295   30.5672   26.6219 H         1 TYR         0.0530
     94 H25        63.0011   33.6228   26.4224 H         1 TYR         0.0525
     95 H26        59.9595   31.4736   24.4579 H         1 TYR         0.0525
     96 H27        61.1048   33.5016   23.7318 H         1 TYR         0.2458
     97 H28        60.6627   34.4034   29.4166 H         1 ASN         0.1885
     98 H29        57.9935   35.4463   29.8873 H         1 ASN         0.0826
     99 H30        59.6878   36.9867   30.3759 H         1 ASN         0.0551
    100 H31        58.8489   37.5840   28.9041 H         1 ASN         0.0551
    101 H32        62.4039   35.8384   27.8656 H         1 ASN         0.1814
    102 H33        61.1532   34.9147   28.6290 H         1 ASN         0.1814
    103 H34        59.9586   35.1719   26.8534 H         1 THR         0.1884
    104 H35        57.6277   36.2099   25.4044 H         1 THR         0.0826
    105 H36        59.3406   36.2948   23.4821 H         1 THR         0.0639
    106 H37        60.8836   34.8549   24.5116 H         1 THR         0.2101
    107 H38        60.4005   38.2456   24.4835 H         1 THR         0.0257
    108 H39        59.8899   37.6857   26.1121 H         1 THR         0.0257
    109 H40        58.6548   38.1653   24.8991 H         1 THR         0.0257
    110 H41        56.7250   33.9364   26.0181 H         1 VAL         0.1883
    111 H42        57.4497   31.6791   24.3738 H         1 VAL         0.0802
    112 H43        56.4121   31.3848   26.6377 H         1 VAL         0.0343
    113 H44        53.9848   31.7110   27.0060 H         1 VAL         0.0234
    114 H45        53.8521   32.5164   25.4059 H         1 VAL         0.0234
    115 H46        54.8348   33.2654   26.7098 H         1 VAL         0.0234
    116 H47        56.2489   29.6272   24.8817 H         1 VAL         0.0234
    117 H48        54.6544   30.2912   24.3886 H         1 VAL         0.0234
    118 H49        54.8666   29.5886   26.0281 H         1 VAL         0.0234
    119 H50        56.4460   30.9596   22.5602 H         1 ALA         0.1883
    120 H51        55.1614   33.2410   21.2257 H         1 ALA         0.0797
    121 H52        56.0683   32.2286   19.1498 H         1 ALA         0.0277
    122 H53        56.7537   30.8809   20.1195 H         1 ALA         0.0277
    123 H54        57.3513   32.5572   20.3633 H         1 ALA         0.0277
    124 H55        53.4378   33.0929   19.9809 H         1 THR         0.1884
    125 H56        51.6522   30.8087   20.3088 H         1 THR         0.0826
    126 H57        50.3176   32.0206   18.4340 H         1 THR         0.0639
    127 H58        52.2522   34.0240   19.0665 H         1 THR         0.2101
    128 H59        49.4767   33.6939   19.9836 H         1 THR         0.0257
    129 H60        50.9213   33.4548   21.0240 H         1 THR         0.0257
    130 H61        49.7525   32.1114   20.7874 H         1 THR         0.0257
    131 H62        50.7066   29.7725   18.5366 H         1 LEU         0.1875
    132 H63        52.5091   28.7623   16.5754 H         1 LEU         0.0726
    133 H64        50.1018   27.9730   15.5632 H         1 LEU         0.0308
    134 H65        49.6454   28.3438   17.2606 H         1 LEU         0.0308
    135 H66        51.4019   26.1626   16.1653 H         1 LEU         0.0297
    136 H67        52.1323   25.6282   18.4377 H         1 LEU         0.0232
    137 H68        51.3690   27.1367   19.0446 H         1 LEU         0.0232
    138 H69        52.7589   27.2268   17.9102 H         1 LEU         0.0232
    139 H70        48.9854   25.8303   16.5841 H         1 LEU         0.0232
    140 H71        49.2254   26.3265   18.2937 H         1 LEU         0.0232
    141 H72        50.0026   24.8298   17.6754 H         1 LEU         0.0232
@<TRIPOS>BOND
     1    1    2 1  
     2    2    3 1  
     3    2    5 1  
     4    3    4 2  
     5    3    7 am 
     6    5    6 1  
     7    7    8 1  
     8    8    9 1  
     9    8   11 1  
    10    9   10 2  
    11    9   15 am 
    12   11   12 1  
    13   12   13 1  
    14   12   14 1  
    15   15   16 1  
    16   16   17 1  
    17   16   19 1  
    18   17   18 2  
    19   17   27 am 
    20   19   20 1  
    21   20   21 ar 
    22   20   22 ar 
    23   21   23 ar 
    24   22   24 ar 
    25   23   25 ar 
    26   24   25 ar 
    27   25   26 1  
    28   27   28 1  
    29   28   29 1  
    30   28   31 1  
    31   29   30 2  
    32   29   35 am 
    33   31   32 1  
    34   32   33 2  
    35   32   34 am 
    36   35   36 1  
    37   36   37 1  
    38   36   39 1  
    39   37   38 2  
    40   37   42 am 
    41   39   40 1  
    42   39   41 1  
    43   42   43 1  
    44   43   44 1  
    45   43   46 1  
    46   44   45 2  
    47   44   49 am 
    48   46   47 1  
    49   46   48 1  
    50   49   50 1  
    51   50   51 1  
    52   50   53 1  
    53   51   52 2  
    54   51   54 am 
    55   54   55 1  
    56   55   56 1  
    57   55   58 1  
    58   56   57 2  
    59   56   61 am 
    60   58   59 1  
    61   58   60 1  
    62   61   62 1  
    63   62   63 1  
    64   62   65 1  
    65   63   64 ar 
    66   63   69 ar 
    67   65   66 1  
    68   66   67 1  
    69   66   68 1  
    70    1   70 1  
    71    1   71 1  
    72    1   72 1  
    73    2   73 1  
    74    5   74 1  
    75    5   75 1  
    76    6   76 1  
    77    7   77 1  
    78    8   78 1  
    79   11   79 1  
    80   11   80 1  
    81   12   81 1  
    82   13   82 1  
    83   13   83 1  
    84   13   84 1  
    85   14   85 1  
    86   14   86 1  
    87   14   87 1  
    88   15   88 1  
    89   16   89 1  
    90   19   90 1  
    91   19   91 1  
    92   21   92 1  
    93   22   93 1  
    94   23   94 1  
    95   24   95 1  
    96   26   96 1  
    97   27   97 1  
    98   28   98 1  
    99   31   99 1  
   100   31  100 1  
   101   34  101 1  
   102   34  102 1  
   103   35  103 1  
   104   36  104 1  
   105   39  105 1  
   106   40  106 1  
   107   41  107 1  
   108   41  108 1  
   109   41  109 1  
   110   42  110 1  
   111   43  111 1  
   112   46  112 1  
   113   47  113 1  
   114   47  114 1  
   115   47  115 1  
   116   48  116 1  
   117   48  117 1  
   118   48  118 1  
   119   49  119 1  
   120   50  120 1  
   121   53  121 1  
   122   53  122 1  
   123   53  123 1  
   124   54  124 1  
   125   55  125 1  
   126   58  126 1  
   127   59  127 1  
   128   60  128 1  
   129   60  129 1  
   130   60  130 1  
   131   61  131 1  
   132   62  132 1  
   133   65  133 1  
   134   65  134 1  
   135   66  135 1  
   136   67  136 1  
   137   67  137 1  
   138   67  138 1  
   139   68  139 1  
   140   68  140 1  
   141   68  141 1  
@<TRIPOS>SUBSTRUCTURE
     1 SER         1

