5nme_ligand
  -I-interpret- 

142142  0  0  0  0  0  0  0  0999 V2000
   63.0350   30.1060   35.9880 N   0  3  0  0  0
   61.8730   30.6980   36.6680 C   0  0  0  0  0
   60.8460   30.3930   35.6420 C   0  0  0  0  0
   60.1250   29.4930   35.8460 O   0  0  0  0  0
   62.0280   32.1830   36.9450 C   0  0  0  0  0
   60.7710   32.8030   36.8670 O   0  0  0  0  0
   60.8030   31.0240   34.5010 N   0  0  0  0  0
   59.6420   30.8020   33.6570 C   0  0  0  0  0
   59.8530   31.7170   32.5310 C   0  0  0  0  0
   60.1410   32.8860   32.7690 O   0  0  0  0  0
   58.3150   31.1930   34.3550 C   0  0  0  0  0
   56.9500   30.7060   33.8370 C   0  0  0  0  0
   56.7570   29.2270   33.9540 C   0  0  0  0  0
   55.8180   31.3440   34.6360 C   0  0  0  0  0
   59.7010   31.2260   31.3090 N   0  0  0  0  0
   60.1110   32.0020   30.1490 C   0  0  0  0  0
   59.1420   33.1680   29.8730 C   0  0  0  0  0
   57.9460   33.0630   30.1350 O   0  0  0  0  0
   60.2010   31.0400   28.9990 C   0  0  0  0  0
   60.6650   31.6130   27.7440 C   0  0  0  0  0
   61.7430   32.4460   27.6750 C   0  0  0  0  0
   60.0610   31.2620   26.5900 C   0  0  0  0  0
   62.1540   32.9480   26.4680 C   0  0  0  0  0
   60.4700   31.7610   25.3700 C   0  0  0  0  0
   61.5030   32.6020   25.3320 C   0  0  0  0  0
   61.8410   33.0410   24.1170 O   0  0  0  0  0
   59.6690   34.3150   29.4860 N   0  0  0  0  0
   58.8160   35.4600   29.1570 C   0  0  0  0  0
   58.1770   35.3650   27.7650 C   0  0  0  0  0
   56.9630   35.2840   27.6660 O   0  0  0  0  0
   59.5140   36.8050   29.3050 C   0  0  0  0  0
   60.8550   36.9020   28.5800 C   0  0  0  0  0
   61.2940   37.9950   28.3000 O   0  0  0  0  0
   61.5240   35.7970   28.3390 N   0  0  0  0  0
   58.9850   35.3460   26.7060 N   0  0  0  0  0
   58.5180   35.5670   25.3410 C   0  0  0  0  0
   58.0900   34.2770   24.5860 C   0  0  0  0  0
   58.5820   33.9900   23.4980 O   0  0  0  0  0
   59.5820   36.3190   24.5550 C   0  0  0  0  0
   60.8770   35.7650   24.7840 O   0  0  0  0  0
   59.6350   37.6870   25.0420 C   0  0  0  0  0
   57.1210   33.5680   25.1770 N   0  0  0  0  0
   56.6040   32.3080   24.6890 C   0  0  0  0  0
   55.6990   32.5490   23.5410 C   0  0  0  0  0
   54.7760   33.3230   23.6590 O   0  0  0  0  0
   55.7610   31.5410   25.7650 C   0  0  0  0  0
   54.5190   32.3140   26.2570 C   0  0  0  0  0
   55.3540   30.1650   25.2280 C   0  0  0  0  0
   55.9130   31.8010   22.4710 N   0  0  0  0  0
   55.4020   32.1680   21.2000 C   0  0  0  0  0
   54.1500   31.4270   20.8680 C   0  0  0  0  0
   54.0110   30.2340   21.1980 O   0  0  0  0  0
   56.4680   31.9430   20.1340 C   0  0  0  0  0
   53.2710   32.1200   20.1410 N   0  0  0  0  0
   52.0740   31.5070   19.5710 C   0  0  0  0  0
   52.4080   30.8070   18.3250 C   0  0  0  0  0
   53.4160   31.0870   17.7240 O   0  0  0  0  0
   51.0080   32.5110   19.1360 C   0  0  0  0  0
   51.6410   33.6050   18.4720 O   0  0  0  0  0
   50.2410   32.9720   20.3070 C   0  0  0  0  0
   51.4780   29.9480   17.9250 N   0  0  0  0  0
   51.5140   29.2290   16.6190 C   0  0  0  0  0
   51.4120   30.1080   15.3040 C   0  0  0  0  0
   51.3680   31.3500   15.4000 O   0  0  0  0  0
   50.4720   28.0520   16.5960 C   0  0  0  0  0
   50.9090   26.6490   17.0200 C   0  0  0  0  0
   51.8550   26.6610   18.1800 C   0  0  0  0  0
   49.7000   25.8560   17.4200 C   0  0  0  0  0
   51.4400   29.5390   14.1450 O   0  0  0  0  0
   62.8666   29.1121   35.8327 H   0  0  0  0  0
   63.1769   30.5721   35.0919 H   0  0  0  0  0
   63.8646   30.2247   36.5695 H   0  0  0  0  0
   61.6673   30.3173   37.6684 H   0  0  0  0  0
   62.6987   32.6238   36.2075 H   0  0  0  0  0
   62.4446   32.3267   37.9419 H   0  0  0  0  0
   60.8672   33.7420   37.0419 H   0  0  0  0  0
   61.5557   31.6491   34.2127 H   0  0  0  0  0
   59.5532   29.7496   33.3875 H   0  0  0  0  0
   58.2670   32.2746   34.2288 H   0  0  0  0  0
   58.3963   30.7313   35.3391 H   0  0  0  0  0
   56.9323   30.9906   32.7850 H   0  0  0  0  0
   57.5263   28.7147   33.3763 H   0  0  0  0  0
   56.8315   28.9339   35.0012 H   0  0  0  0  0
   55.7730   28.9587   33.5694 H   0  0  0  0  0
   55.9173   31.0704   35.6864 H   0  0  0  0  0
   55.8699   32.4281   34.5351 H   0  0  0  0  0
   54.8607   30.9878   34.2554 H   0  0  0  0  0
   59.2944   30.2993   31.1815 H   0  0  0  0  0
   61.0780   32.4763   30.3164 H   0  0  0  0  0
   59.1907   30.6723   28.8197 H   0  0  0  0  0
   60.9292   30.2805   29.2836 H   0  0  0  0  0
   62.2803   32.7137   28.5848 H   0  0  0  0  0
   59.2249   30.5634   26.6221 H   0  0  0  0  0
   63.0058   33.6265   26.4222 H   0  0  0  0  0
   59.9567   31.4720   24.4529 H   0  0  0  0  0
   61.2434   32.6672   23.4652 H   0  0  0  0  0
   60.6825   34.4052   29.4152 H   0  0  0  0  0
   58.0218   35.4091   29.9018 H   0  0  0  0  0
   59.7132   36.9472   30.3672 H   0  0  0  0  0
   58.8576   37.5564   28.8661 H   0  0  0  0  0
   62.4446   35.8432   27.9023 H   0  0  0  0  0
   61.1227   34.8931   28.5886 H   0  0  0  0  0
   59.9781   35.1684   26.8564 H   0  0  0  0  0
   57.6086   36.1623   25.4228 H   0  0  0  0  0
   59.3263   36.2573   23.4972 H   0  0  0  0  0
   61.5281   36.2564   24.2778 H   0  0  0  0  0
   58.6632   38.1598   24.8999 H   0  0  0  0  0
   59.8876   37.6843   26.1023 H   0  0  0  0  0
   60.3938   38.2395   24.4878 H   0  0  0  0  0
   56.7171   33.9437   26.0349 H   0  0  0  0  0
   57.4734   31.7101   24.4155 H   0  0  0  0  0
   56.4068   31.4293   26.6360 H   0  0  0  0  0
   54.8333   33.2565   26.7053 H   0  0  0  0  0
   53.8591   32.5140   25.4128 H   0  0  0  0  0
   53.9906   31.7155   26.9991 H   0  0  0  0  0
   54.7557   30.2910   24.3256 H   0  0  0  0  0
   56.2490   29.5883   24.9946 H   0  0  0  0  0
   54.7688   29.6403   25.9831 H   0  0  0  0  0
   56.4566   30.9428   22.5620 H   0  0  0  0  0
   55.1433   33.2264   21.2300 H   0  0  0  0  0
   57.3426   32.5521   20.3624 H   0  0  0  0  0
   56.7502   30.8902   20.1207 H   0  0  0  0  0
   56.0708   32.2263   19.1593 H   0  0  0  0  0
   53.4411   33.1124   19.9777 H   0  0  0  0  0
   51.6998   30.8641   20.3677 H   0  0  0  0  0
   50.3103   32.0369   18.4456 H   0  0  0  0  0
   50.9751   34.2392   18.1964 H   0  0  0  0  0
   49.7576   32.1184   20.7821 H   0  0  0  0  0
   50.9162   33.4502   21.0167 H   0  0  0  0  0
   49.4840   33.6872   19.9853 H   0  0  0  0  0
   50.6911   29.7690   18.5489 H   0  0  0  0  0
   52.5310   28.8391   16.5764 H   0  0  0  0  0
   50.1943   27.9495   15.5470 H   0  0  0  0  0
   49.7158   28.3384   17.3269 H   0  0  0  0  0
   51.4222   26.2060   16.1665 H   0  0  0  0  0
   52.7501   27.2219   17.9114 H   0  0  0  0  0
   51.3723   27.1326   19.0360 H   0  0  0  0  0
   52.1290   25.6371   18.4344 H   0  0  0  0  0
   49.2010   26.3518   18.2526 H   0  0  0  0  0
   49.0162   25.7869   16.5740 H   0  0  0  0  0
   50.0075   24.8551   17.7229 H   0  0  0  0  0
   51.4724   28.5863   14.2582 H   0  0  0  0  0
  1  2  1  0  0  0
  2  3  1  0  0  0
  2  5  1  0  0  0
  3  4  2  0  0  0
  3  7  1  0  0  0
  5  6  1  0  0  0
  7  8  1  0  0  0
  8  9  1  0  0  0
  8 11  1  0  0  0
  9 10  2  0  0  0
  9 15  1  0  0  0
 11 12  1  0  0  0
 12 13  1  0  0  0
 12 14  1  0  0  0
 15 16  1  0  0  0
 16 17  1  0  0  0
 16 19  1  0  0  0
 17 18  2  0  0  0
 17 27  1  0  0  0
 19 20  1  0  0  0
 20 21  4  0  0  0
 20 22  4  0  0  0
 21 23  4  0  0  0
 22 24  4  0  0  0
 23 25  4  0  0  0
 24 25  4  0  0  0
 25 26  1  0  0  0
 27 28  1  0  0  0
 28 29  1  0  0  0
 28 31  1  0  0  0
 29 30  2  0  0  0
 29 35  1  0  0  0
 31 32  1  0  0  0
 32 33  2  0  0  0
 32 34  1  0  0  0
 35 36  1  0  0  0
 36 37  1  0  0  0
 36 39  1  0  0  0
 37 38  2  0  0  0
 37 42  1  0  0  0
 39 40  1  0  0  0
 39 41  1  0  0  0
 42 43  1  0  0  0
 43 44  1  0  0  0
 43 46  1  0  0  0
 44 45  2  0  0  0
 44 49  1  0  0  0
 46 47  1  0  0  0
 46 48  1  0  0  0
 49 50  1  0  0  0
 50 51  1  0  0  0
 50 53  1  0  0  0
 51 52  2  0  0  0
 51 54  1  0  0  0
 54 55  1  0  0  0
 55 56  1  0  0  0
 55 58  1  0  0  0
 56 57  2  0  0  0
 56 61  1  0  0  0
 58 59  1  0  0  0
 58 60  1  0  0  0
 61 62  1  0  0  0
 62 63  1  0  0  0
 62 65  1  0  0  0
 63 64  2  0  0  0
 63 69  1  0  0  0
 65 66  1  0  0  0
 66 67  1  0  0  0
 66 68  1  0  0  0
  1 70  1  0  0  0
  1 71  1  0  0  0
  1 72  1  0  0  0
  2 73  1  0  0  0
  5 74  1  0  0  0
  5 75  1  0  0  0
  6 76  1  0  0  0
  7 77  1  0  0  0
  8 78  1  0  0  0
 11 79  1  0  0  0
 11 80  1  0  0  0
 12 81  1  0  0  0
 13 82  1  0  0  0
 13 83  1  0  0  0
 13 84  1  0  0  0
 14 85  1  0  0  0
 14 86  1  0  0  0
 14 87  1  0  0  0
 15 88  1  0  0  0
 16 89  1  0  0  0
 19 90  1  0  0  0
 19 91  1  0  0  0
 21 92  1  0  0  0
 22 93  1  0  0  0
 23 94  1  0  0  0
 24 95  1  0  0  0
 26 96  1  0  0  0
 27 97  1  0  0  0
 28 98  1  0  0  0
 31 99  1  0  0  0
 31100  1  0  0  0
 34101  1  0  0  0
 34102  1  0  0  0
 35103  1  0  0  0
 36104  1  0  0  0
 39105  1  0  0  0
 40106  1  0  0  0
 41107  1  0  0  0
 41108  1  0  0  0
 41109  1  0  0  0
 42110  1  0  0  0
 43111  1  0  0  0
 46112  1  0  0  0
 47113  1  0  0  0
 47114  1  0  0  0
 47115  1  0  0  0
 48116  1  0  0  0
 48117  1  0  0  0
 48118  1  0  0  0
 49119  1  0  0  0
 50120  1  0  0  0
 53121  1  0  0  0
 53122  1  0  0  0
 53123  1  0  0  0
 54124  1  0  0  0
 55125  1  0  0  0
 58126  1  0  0  0
 59127  1  0  0  0
 60128  1  0  0  0
 60129  1  0  0  0
 60130  1  0  0  0
 61131  1  0  0  0
 62132  1  0  0  0
 65133  1  0  0  0
 65134  1  0  0  0
 66135  1  0  0  0
 67136  1  0  0  0
 67137  1  0  0  0
 67138  1  0  0  0
 68139  1  0  0  0
 68140  1  0  0  0
 68141  1  0  0  0
 69142  1  0  0  0
M  END
$$$$
