3dxj_ligand
  -I-interpret- 

 61 61  0  0  0  0  0  0  0  0999 V2000
  -10.1180   58.9040    2.4490 O   0  0  0  0  0
  -10.6270   60.1980    2.4510 C   0  0  0  0  0
  -12.1180   60.3210    2.5490 C   0  0  0  0  0
   -9.8780   61.1750    2.4560 O   0  0  0  0  0
  -12.9040   59.1800    2.5200 C   0  0  0  0  0
  -12.3160   57.8530    2.5150 C   0  0  0  0  0
  -10.9610   57.7290    2.4480 C   0  0  0  0  0
  -10.1730   56.4240    2.4430 C   0  0  0  0  0
  -10.7180   55.4170    1.4100 C   0  0  0  0  0
  -10.1980   55.7400    3.8410 C   0  0  0  0  0
   -9.2020   56.3090    4.8220 C   0  0  0  0  0
   -9.2870   55.7540    6.2260 C   0  0  0  0  0
   -8.2090   55.2890    6.8950 C   0  0  0  0  0
   -7.3080   54.2960    8.9590 C   0  0  0  0  0
   -6.7260   53.6330   11.2450 C   0  0  0  0  0
  -12.7590   61.6770    2.5770 C   0  0  0  0  0
  -12.3900   62.5940    3.7500 C   0  0  0  0  0
  -11.9990   63.9870    3.2960 C   0  0  0  0  0
  -12.4340   62.1180    5.0390 C   0  0  0  0  0
  -12.1230   62.8430    6.2740 C   0  0  0  0  0
  -12.1500   62.3820    7.5570 C   0  0  0  0  0
  -12.5070   60.9840    7.9940 C   0  0  0  0  0
  -11.7820   63.3310    8.6980 C   0  0  0  0  0
  -12.9990   63.8580    9.4720 C   0  0  0  0  0
  -12.5660   64.7890   10.5690 C   0  0  0  0  0
   -8.3460   54.7810    8.1770 N   0  0  0  0  0
   -7.6800   53.9260   10.2400 O   0  0  0  0  0
   -6.1360   54.2720    8.5970 O   0  0  0  0  0
  -14.2840   59.2040    2.5890 O   0  0  0  0  0
  -13.5710   62.0400    1.7220 O   0  0  0  0  0
  -12.9500   56.9677    2.5642 H   0  0  0  0  0
   -9.1518   56.6963    2.1762 H   0  0  0  0  0
  -11.7569   55.1845    1.6442 H   0  0  0  0  0
  -10.6578   55.8529    0.4128 H   0  0  0  0  0
  -10.1232   54.5043    1.4455 H   0  0  0  0  0
   -9.9414   54.6912    3.6920 H   0  0  0  0  0
  -11.1914   55.8989    4.2605 H   0  0  0  0  0
   -9.4116   57.3761    4.8954 H   0  0  0  0  0
   -8.2119   56.0528    4.4450 H   0  0  0  0  0
  -10.2587   55.7279    6.7192 H   0  0  0  0  0
   -7.2264   55.3136    6.4238 H   0  0  0  0  0
   -6.1040   52.7984   10.9215 H   0  0  0  0  0
   -6.1003   54.5089   11.4167 H   0  0  0  0  0
   -7.2420   53.3671   12.1676 H   0  0  0  0  0
  -12.6740   64.7165    3.7436 H   0  0  0  0  0
  -10.9762   64.1962    3.6095 H   0  0  0  0  0
  -12.0667   64.0461    2.2097 H   0  0  0  0  0
  -12.7362   61.0773    5.1564 H   0  0  0  0  0
  -11.8323   63.8863    6.1510 H   0  0  0  0  0
  -13.5241   60.7541    7.6766 H   0  0  0  0  0
  -11.8145   60.2749    7.5404 H   0  0  0  0  0
  -12.4396   60.9158    9.0798 H   0  0  0  0  0
  -11.2753   64.1905    8.2591 H   0  0  0  0  0
  -11.1625   62.7740    9.4009 H   0  0  0  0  0
  -13.5289   63.0141    9.9138 H   0  0  0  0  0
  -13.6471   64.4006    8.7838 H   0  0  0  0  0
  -11.9118   64.2560   11.2590 H   0  0  0  0  0
  -12.0293   65.6334   10.1365 H   0  0  0  0  0
  -13.4438   65.1506   11.1045 H   0  0  0  0  0
   -9.2840   54.7622    8.5771 H   0  0  0  0  0
  -14.6208   58.3058    2.5524 H   0  0  0  0  0
  1  2  1  0  0  0
  1  7  1  0  0  0
  2  3  1  0  0  0
  2  4  2  0  0  0
  3  5  2  0  0  0
  3 16  1  0  0  0
  5  6  1  0  0  0
  5 29  1  0  0  0
  6  7  2  0  0  0
  7  8  1  0  0  0
  8  9  1  0  0  0
  8 10  1  0  0  0
 10 11  1  0  0  0
 11 12  1  0  0  0
 12 13  2  0  0  0
 13 26  1  0  0  0
 26 14  1  0  0  0
 14 27  1  0  0  0
 14 28  2  0  0  0
 27 15  1  0  0  0
 16 17  1  0  0  0
 16 30  2  0  0  0
 17 18  1  0  0  0
 17 19  2  0  0  0
 19 20  1  0  0  0
 20 21  2  0  0  0
 21 22  1  0  0  0
 21 23  1  0  0  0
 23 24  1  0  0  0
 24 25  1  0  0  0
  6 31  1  0  0  0
  8 32  1  0  0  0
  9 33  1  0  0  0
  9 34  1  0  0  0
  9 35  1  0  0  0
 10 36  1  0  0  0
 10 37  1  0  0  0
 11 38  1  0  0  0
 11 39  1  0  0  0
 12 40  1  0  0  0
 13 41  1  0  0  0
 15 42  1  0  0  0
 15 43  1  0  0  0
 15 44  1  0  0  0
 18 45  1  0  0  0
 18 46  1  0  0  0
 18 47  1  0  0  0
 19 48  1  0  0  0
 20 49  1  0  0  0
 22 50  1  0  0  0
 22 51  1  0  0  0
 22 52  1  0  0  0
 23 53  1  0  0  0
 23 54  1  0  0  0
 24 55  1  0  0  0
 24 56  1  0  0  0
 25 57  1  0  0  0
 25 58  1  0  0  0
 25 59  1  0  0  0
 26 60  1  0  0  0
 29 61  1  0  0  0
M  END
$$$$
