### 
### Created by X-TOOL on Sun Sep  9 21:50:04 2018
### 

@<TRIPOS>MOLECULE
1oh4_ligand
  150   156     1     0     0
SMALL
GAST_HUCK


@<TRIPOS>ATOM
      1 C1         24.9280   21.5930    1.6110 C.3       1 NON         0.1854
      2 C2         23.5580   22.2530    1.7190 C.3       1 NON         0.1339
      3 C3         22.4750   21.2740    1.2760 C.3       1 NON         0.1144
      4 C4         22.7180   20.6740   -0.1170 C.3       1 NON         0.1184
      5 C5         24.1630   20.1610   -0.1030 C.3       1 NON         0.1134
      6 C6         24.5990   19.6050   -1.4480 C.3       1 NON         0.0730
      7 O1         25.9570   22.4800    2.0200 O.3       1 NON        -0.3649
      8 O2         23.3900   23.3210    1.3010 O.3       1 NON        -0.3841
      9 O3         21.3870   21.6190    1.6440 O.3       1 NON        -0.3864
     10 O4         21.7170   19.6770   -0.4260 O.3       1 NON        -0.3401
     11 O5         25.0710   21.2060    0.2640 O.3       1 NON        -0.3407
     12 O6         24.7930   20.6830   -2.3220 O.3       1 NON        -0.3924
     13 C1         20.4960   20.3180   -0.8630 C.3       1 NON         0.1884
     14 C2         19.4120   19.2950   -1.1490 C.3       1 NON         0.1341
     15 C3         18.1890   20.0190   -1.7350 C.3       1 NON         0.1144
     16 C4         17.7760   21.1310   -0.7320 C.3       1 NON         0.1184
     17 C5         18.9300   22.0630   -0.3360 C.3       1 NON         0.1134
     18 C6         18.5130   23.0560    0.7670 C.3       1 NON         0.0730
     19 O2         19.0110   18.5000   -0.0560 O.3       1 NON        -0.3841
     20 O3         17.1620   19.0680   -1.9420 O.3       1 NON        -0.3864
     21 O4         16.8130   22.0230   -1.2650 O.3       1 NON        -0.3401
     22 O5         20.0290   21.2770    0.0940 O.3       1 NON        -0.3405
     23 O6         19.4830   24.0220    1.1610 O.3       1 NON        -0.3924
     24 C1         15.4720   21.7740   -0.8930 C.3       1 NON         0.1884
     25 C2         14.6330   23.0400   -0.9470 C.3       1 NON         0.1341
     26 C3         13.1760   22.6810   -0.6560 C.3       1 NON         0.1144
     27 C4         12.6760   21.5970   -1.6040 C.3       1 NON         0.1184
     28 C5         13.6170   20.4030   -1.5440 C.3       1 NON         0.1137
     29 C6         13.2170   19.2990   -2.5230 C.3       1 NON         0.0796
     30 O2         14.7670   23.7190   -2.1930 O.3       1 NON        -0.3841
     31 O3         12.4040   23.8520   -0.6790 O.3       1 NON        -0.3864
     32 O4         11.4020   21.2140   -1.1670 O.3       1 NON        -0.3401
     33 O5         14.9430   20.8470   -1.8130 O.3       1 NON        -0.3405
     34 O6         13.2230   19.8080   -3.8450 O.3       1 NON        -0.3460
     35 C1         10.3480   21.2420   -2.1040 C.3       1 NON         0.1884
     36 C2          9.1170   20.6720   -1.4380 C.3       1 NON         0.1341
     37 C3          7.9130   20.7790   -2.3360 C.3       1 NON         0.1144
     38 C4          7.7540   22.2270   -2.7810 C.3       1 NON         0.1184
     39 C5          9.0630   22.6950   -3.4120 C.3       1 NON         0.1137
     40 C6          8.9130   24.1430   -3.8180 C.3       1 NON         0.0796
     41 O2          8.8860   21.3850   -0.2390 O.3       1 NON        -0.3841
     42 O3          6.7960   20.2870   -1.6600 O.3       1 NON        -0.3864
     43 O4          6.7200   22.2850   -3.7600 O.3       1 NON        -0.3401
     44 O5         10.1340   22.5680   -2.4790 O.3       1 NON        -0.3405
     45 O6         10.0670   24.5430   -4.5000 O.3       1 NON        -0.3460
     46 C1          5.5730   23.1290   -3.4640 C.3       1 NON         0.1884
     47 C2          5.0190   23.6050   -4.8030 C.3       1 NON         0.1341
     48 C3          3.8160   24.4950   -4.5600 C.3       1 NON         0.1141
     49 C4          2.7780   23.7680   -3.7100 C.3       1 NON         0.1119
     50 C5          3.3410   22.9900   -2.5340 C.3       1 NON         0.1130
     51 C6          2.3390   21.8710   -2.2410 C.3       1 NON         0.0730
     52 O2          4.6420   22.4060   -5.4490 O.3       1 NON        -0.3841
     53 O3          3.2310   24.8160   -5.8050 O.3       1 NON        -0.3864
     54 O4          1.8500   24.6930   -3.1670 O.3       1 NON        -0.3865
     55 O5          4.5970   22.3750   -2.7810 O.3       1 NON        -0.3405
     56 O6          2.1920   21.0260   -3.3810 O.3       1 NON        -0.3924
     57 C1         10.0810   24.1410   -6.1160 C.3       1 NON         0.1880
     58 C2         11.4610   24.6680   -6.5390 C.3       1 NON         0.1341
     59 C3         11.4760   26.1830   -6.4970 C.3       1 NON         0.1141
     60 C4         10.2270   26.8180   -7.1130 C.3       1 NON         0.1119
     61 C5          8.9660   26.2980   -6.4290 C.3       1 NON         0.1130
     62 C6          7.6780   26.9460   -6.9600 C.3       1 NON         0.0730
     63 O2         12.4960   24.1810   -5.7100 O.3       1 NON        -0.3841
     64 O3         12.6430   26.6080   -7.1470 O.3       1 NON        -0.3864
     65 O4         10.1570   26.5740   -8.5110 O.3       1 NON        -0.3865
     66 O5          8.9450   24.8930   -6.6010 O.3       1 NON        -0.3405
     67 O6          6.7510   25.9310   -7.2820 O.3       1 NON        -0.3924
     68 C1         13.1350   18.6740   -5.3470 C.3       1 NON         0.1880
     69 C2         13.9640   19.4320   -6.3760 C.3       1 NON         0.1341
     70 C3         13.3170   20.7750   -6.7070 C.3       1 NON         0.1141
     71 C4         11.8620   20.5660   -7.0660 C.3       1 NON         0.1119
     72 C5         11.1760   20.0440   -5.8190 C.3       1 NON         0.1130
     73 C6          9.6770   19.7690   -5.9510 C.3       1 NON         0.0730
     74 O2         15.2930   19.6040   -5.8850 O.3       1 NON        -0.3841
     75 O3         13.9860   21.2430   -7.8640 O.3       1 NON        -0.3864
     76 O4         11.7640   19.5860   -8.1050 O.3       1 NON        -0.3865
     77 O5         11.7270   18.7810   -5.5060 O.3       1 NON        -0.3405
     78 O6          8.9850   20.8730   -6.4820 O.3       1 NON        -0.3924
     79 H1         24.9603   20.7011    2.2540 H         1 NON         0.0935
     80 H2         23.4115   22.3789    2.8019 H         1 NON         0.0671
     81 H3         22.6536   20.3979    1.9168 H         1 NON         0.0648
     82 H4         22.6382   21.4679   -0.8742 H         1 NON         0.0651
     83 H5         24.2289   19.3561    0.6438 H         1 NON         0.0647
     84 H6         23.8202   18.9378   -1.8459 H         1 NON         0.0584
     85 H7         25.5384   19.0444   -1.3330 H         1 NON         0.0584
     86 H8         25.9320   23.2621    1.4814 H         1 NON         0.2126
     87 H9         22.5536   23.6517    1.6070 H         1 NON         0.2101
     88 H10        21.0572   22.2949    1.0636 H         1 NON         0.2100
     89 H11        25.4639   21.2568   -1.9712 H         1 NON         0.2095
     90 H12        20.7150   20.8528   -1.7989 H         1 NON         0.0938
     91 H13        19.8081   18.6108   -1.9138 H         1 NON         0.0671
     92 H14        18.4504   20.4801   -2.6989 H         1 NON         0.0648
     93 H15        17.3726   20.6398    0.1657 H         1 NON         0.0651
     94 H16        19.2325   22.6404   -1.2220 H         1 NON         0.0647
     95 H17        18.2455   22.4701    1.6587 H         1 NON         0.0584
     96 H18        17.6278   23.6008    0.4071 H         1 NON         0.0584
     97 H19        18.3740   17.8589   -0.3490 H         1 NON         0.2101
     98 H20        16.3928   19.5046   -2.2887 H         1 NON         0.2100
     99 H21        20.2545   23.5775    1.4924 H         1 NON         0.2095
    100 H22        15.4422   21.3588    0.1252 H         1 NON         0.0938
    101 H23        14.9855   23.7195   -0.1571 H         1 NON         0.0671
    102 H24        13.1233   22.2694    0.3627 H         1 NON         0.0648
    103 H25        12.6259   21.9825   -2.6330 H         1 NON         0.0651
    104 H26        13.5832   19.9859   -0.5267 H         1 NON         0.0647
    105 H27        12.2080   18.9381   -2.2748 H         1 NON         0.0587
    106 H28        13.9327   18.4671   -2.4483 H         1 NON         0.0587
    107 H29        15.6819   23.9267   -2.3424 H         1 NON         0.2101
    108 H30        11.5112   23.6463   -0.4279 H         1 NON         0.2100
    109 H31        10.6064   20.6414   -2.9886 H         1 NON         0.0938
    110 H32         9.2925   19.6116   -1.2041 H         1 NON         0.0671
    111 H33         8.0750   20.1593   -3.2303 H         1 NON         0.0648
    112 H34         7.4994   22.8639   -1.9211 H         1 NON         0.0651
    113 H35         9.2809   22.0836   -4.3001 H         1 NON         0.0647
    114 H36         8.7790   24.7661   -2.9215 H         1 NON         0.0587
    115 H37         8.0382   24.2537   -4.4756 H         1 NON         0.0587
    116 H38         9.6488   21.3135    0.3226 H         1 NON         0.2101
    117 H39         6.0373   20.3313   -2.2301 H         1 NON         0.2100
    118 H40         5.8775   23.9886   -2.8488 H         1 NON         0.0938
    119 H41         5.7784   24.1481   -5.3846 H         1 NON         0.0671
    120 H42         4.1352   25.4142   -4.0469 H         1 NON         0.0648
    121 H43         2.2463   23.0640   -4.3670 H         1 NON         0.0647
    122 H44         3.4360   23.6623   -1.6686 H         1 NON         0.0647
    123 H45         1.3640   22.3138   -1.9896 H         1 NON         0.0584
    124 H46         2.7006   21.2737   -1.3910 H         1 NON         0.0584
    125 H47         4.0207   21.9364   -4.9051 H         1 NON         0.2101
    126 H48         2.9568   24.0173   -6.2401 H         1 NON         0.2100
    127 H49         2.2980   25.2694   -2.5590 H         1 NON         0.2100
    128 H50         3.0327   20.6407   -3.5988 H         1 NON         0.2095
    129 H51         9.9752   23.0662   -6.3250 H         1 NON         0.0937
    130 H52        11.6546   24.3375   -7.5701 H         1 NON         0.0671
    131 H53        11.5236   26.4995   -5.4446 H         1 NON         0.0648
    132 H54        10.2835   27.9053   -6.9560 H         1 NON         0.0647
    133 H55         9.0344   26.5233   -5.3545 H         1 NON         0.0647
    134 H56         7.9060   27.5360   -7.8599 H         1 NON         0.0584
    135 H57         7.2512   27.6039   -6.1886 H         1 NON         0.0584
    136 H58        13.3316   24.5046   -6.0254 H         1 NON         0.2101
    137 H59        13.3975   26.1969   -6.7417 H         1 NON         0.2100
    138 H60        10.0799   25.6397   -8.6648 H         1 NON         0.2100
    139 H61         7.1225   25.3639   -7.9474 H         1 NON         0.2095
    140 H62        13.4865   17.6413   -5.2056 H         1 NON         0.0937
    141 H63        14.0084   18.8349   -7.2987 H         1 NON         0.0671
    142 H64        13.4144   21.4812   -5.8692 H         1 NON         0.0648
    143 H65        11.4043   21.5111   -7.3936 H         1 NON         0.0647
    144 H66        11.3450   20.7599   -5.0011 H         1 NON         0.0647
    145 H67         9.2688   19.5389   -4.9558 H         1 NON         0.0584
    146 H68         9.5313   18.9049   -6.6159 H         1 NON         0.0584
    147 H69        15.6691   18.7541   -5.6881 H         1 NON         0.2101
    148 H70        13.9065   20.5981   -8.5570 H         1 NON         0.2100
    149 H71        12.1853   18.7829   -7.8220 H         1 NON         0.2100
    150 H72         8.0607   20.6639   -6.5483 H         1 NON         0.2095
@<TRIPOS>BOND
     1    2    1 1  
     2    1    7 1  
     3   11    1 1  
     4    3    2 1  
     5    2    8 1  
     6    4    3 1  
     7    3    9 1  
     8    4    5 1  
     9   10    4 1  
    10    5    6 1  
    11    5   11 1  
    12    6   12 1  
    13   13   10 1  
    14   14   13 1  
    15   22   13 1  
    16   15   14 1  
    17   14   19 1  
    18   16   15 1  
    19   15   20 1  
    20   16   17 1  
    21   21   16 1  
    22   17   18 1  
    23   17   22 1  
    24   18   23 1  
    25   24   21 1  
    26   24   25 1  
    27   33   24 1  
    28   26   25 1  
    29   25   30 1  
    30   27   26 1  
    31   26   31 1  
    32   28   27 1  
    33   27   32 1  
    34   29   28 1  
    35   28   33 1  
    36   34   29 1  
    37   32   35 1  
    38   35   36 1  
    39   35   44 1  
    40   36   37 1  
    41   36   41 1  
    42   37   38 1  
    43   37   42 1  
    44   39   38 1  
    45   38   43 1  
    46   39   40 1  
    47   44   39 1  
    48   40   45 1  
    49   43   46 1  
    50   45   57 1  
    51   46   47 1  
    52   46   55 1  
    53   47   48 1  
    54   47   52 1  
    55   48   49 1  
    56   48   53 1  
    57   50   49 1  
    58   49   54 1  
    59   50   51 1  
    60   55   50 1  
    61   51   56 1  
    62   57   58 1  
    63   57   66 1  
    64   58   59 1  
    65   58   63 1  
    66   59   60 1  
    67   59   64 1  
    68   61   60 1  
    69   60   65 1  
    70   61   62 1  
    71   66   61 1  
    72   62   67 1  
    73   68   69 1  
    74   68   77 1  
    75   69   70 1  
    76   69   74 1  
    77   70   71 1  
    78   70   75 1  
    79   72   71 1  
    80   71   76 1  
    81   72   73 1  
    82   77   72 1  
    83   73   78 1  
    84   34   68 1  
    85    1   79 1  
    86    2   80 1  
    87    3   81 1  
    88    4   82 1  
    89    5   83 1  
    90    6   84 1  
    91    6   85 1  
    92    7   86 1  
    93    8   87 1  
    94    9   88 1  
    95   12   89 1  
    96   13   90 1  
    97   14   91 1  
    98   15   92 1  
    99   16   93 1  
   100   17   94 1  
   101   18   95 1  
   102   18   96 1  
   103   19   97 1  
   104   20   98 1  
   105   23   99 1  
   106   24  100 1  
   107   25  101 1  
   108   26  102 1  
   109   27  103 1  
   110   28  104 1  
   111   29  105 1  
   112   29  106 1  
   113   30  107 1  
   114   31  108 1  
   115   35  109 1  
   116   36  110 1  
   117   37  111 1  
   118   38  112 1  
   119   39  113 1  
   120   40  114 1  
   121   40  115 1  
   122   41  116 1  
   123   42  117 1  
   124   46  118 1  
   125   47  119 1  
   126   48  120 1  
   127   49  121 1  
   128   50  122 1  
   129   51  123 1  
   130   51  124 1  
   131   52  125 1  
   132   53  126 1  
   133   54  127 1  
   134   56  128 1  
   135   57  129 1  
   136   58  130 1  
   137   59  131 1  
   138   60  132 1  
   139   61  133 1  
   140   62  134 1  
   141   62  135 1  
   142   63  136 1  
   143   64  137 1  
   144   65  138 1  
   145   67  139 1  
   146   68  140 1  
   147   69  141 1  
   148   70  142 1  
   149   71  143 1  
   150   72  144 1  
   151   73  145 1  
   152   73  146 1  
   153   74  147 1  
   154   75  148 1  
   155   76  149 1  
   156   78  150 1  
@<TRIPOS>SUBSTRUCTURE
     1 NON         1

