1oh4_ligand
  -I-interpret- 

150156  0  0  0  0  0  0  0  0999 V2000
   24.9280   21.5930    1.6110 C   0  0  0  0  0
   23.5580   22.2530    1.7190 C   0  0  0  0  0
   22.4750   21.2740    1.2760 C   0  0  0  0  0
   22.7180   20.6740   -0.1170 C   0  0  0  0  0
   24.1630   20.1610   -0.1030 C   0  0  0  0  0
   24.5990   19.6050   -1.4480 C   0  0  0  0  0
   25.9570   22.4800    2.0200 O   0  0  0  0  0
   23.3900   23.3210    1.3010 O   0  0  0  0  0
   21.3870   21.6190    1.6440 O   0  0  0  0  0
   21.7170   19.6770   -0.4260 O   0  0  0  0  0
   25.0710   21.2060    0.2640 O   0  0  0  0  0
   24.7930   20.6830   -2.3220 O   0  0  0  0  0
   20.4960   20.3180   -0.8630 C   0  0  0  0  0
   19.4120   19.2950   -1.1490 C   0  0  0  0  0
   18.1890   20.0190   -1.7350 C   0  0  0  0  0
   17.7760   21.1310   -0.7320 C   0  0  0  0  0
   18.9300   22.0630   -0.3360 C   0  0  0  0  0
   18.5130   23.0560    0.7670 C   0  0  0  0  0
   19.0110   18.5000   -0.0560 O   0  0  0  0  0
   17.1620   19.0680   -1.9420 O   0  0  0  0  0
   16.8130   22.0230   -1.2650 O   0  0  0  0  0
   20.0290   21.2770    0.0940 O   0  0  0  0  0
   19.4830   24.0220    1.1610 O   0  0  0  0  0
   15.4720   21.7740   -0.8930 C   0  0  0  0  0
   14.6330   23.0400   -0.9470 C   0  0  0  0  0
   13.1760   22.6810   -0.6560 C   0  0  0  0  0
   12.6760   21.5970   -1.6040 C   0  0  0  0  0
   13.6170   20.4030   -1.5440 C   0  0  0  0  0
   13.2170   19.2990   -2.5230 C   0  0  0  0  0
   14.7670   23.7190   -2.1930 O   0  0  0  0  0
   12.4040   23.8520   -0.6790 O   0  0  0  0  0
   11.4020   21.2140   -1.1670 O   0  0  0  0  0
   14.9430   20.8470   -1.8130 O   0  0  0  0  0
   13.2230   19.8080   -3.8450 O   0  0  0  0  0
   10.3480   21.2420   -2.1040 C   0  0  0  0  0
    9.1170   20.6720   -1.4380 C   0  0  0  0  0
    7.9130   20.7790   -2.3360 C   0  0  0  0  0
    7.7540   22.2270   -2.7810 C   0  0  0  0  0
    9.0630   22.6950   -3.4120 C   0  0  0  0  0
    8.9130   24.1430   -3.8180 C   0  0  0  0  0
    8.8860   21.3850   -0.2390 O   0  0  0  0  0
    6.7960   20.2870   -1.6600 O   0  0  0  0  0
    6.7200   22.2850   -3.7600 O   0  0  0  0  0
   10.1340   22.5680   -2.4790 O   0  0  0  0  0
   10.0670   24.5430   -4.5000 O   0  0  0  0  0
    5.5730   23.1290   -3.4640 C   0  0  0  0  0
    5.0190   23.6050   -4.8030 C   0  0  0  0  0
    3.8160   24.4950   -4.5600 C   0  0  0  0  0
    2.7780   23.7680   -3.7100 C   0  0  0  0  0
    3.3410   22.9900   -2.5340 C   0  0  0  0  0
    2.3390   21.8710   -2.2410 C   0  0  0  0  0
    4.6420   22.4060   -5.4490 O   0  0  0  0  0
    3.2310   24.8160   -5.8050 O   0  0  0  0  0
    1.8500   24.6930   -3.1670 O   0  0  0  0  0
    4.5970   22.3750   -2.7810 O   0  0  0  0  0
    2.1920   21.0260   -3.3810 O   0  0  0  0  0
   10.0810   24.1410   -6.1160 C   0  0  0  0  0
   11.4610   24.6680   -6.5390 C   0  0  0  0  0
   11.4760   26.1830   -6.4970 C   0  0  0  0  0
   10.2270   26.8180   -7.1130 C   0  0  0  0  0
    8.9660   26.2980   -6.4290 C   0  0  0  0  0
    7.6780   26.9460   -6.9600 C   0  0  0  0  0
   12.4960   24.1810   -5.7100 O   0  0  0  0  0
   12.6430   26.6080   -7.1470 O   0  0  0  0  0
   10.1570   26.5740   -8.5110 O   0  0  0  0  0
    8.9450   24.8930   -6.6010 O   0  0  0  0  0
    6.7510   25.9310   -7.2820 O   0  0  0  0  0
   13.1350   18.6740   -5.3470 C   0  0  0  0  0
   13.9640   19.4320   -6.3760 C   0  0  0  0  0
   13.3170   20.7750   -6.7070 C   0  0  0  0  0
   11.8620   20.5660   -7.0660 C   0  0  0  0  0
   11.1760   20.0440   -5.8190 C   0  0  0  0  0
    9.6770   19.7690   -5.9510 C   0  0  0  0  0
   15.2930   19.6040   -5.8850 O   0  0  0  0  0
   13.9860   21.2430   -7.8640 O   0  0  0  0  0
   11.7640   19.5860   -8.1050 O   0  0  0  0  0
   11.7270   18.7810   -5.5060 O   0  0  0  0  0
    8.9850   20.8730   -6.4820 O   0  0  0  0  0
   25.0073   20.7284    2.2699 H   0  0  0  0  0
   23.4934   22.4790    2.7834 H   0  0  0  0  0
   22.5436   20.3308    1.8180 H   0  0  0  0  0
   22.6125   21.4005   -0.9227 H   0  0  0  0  0
   24.1876   19.3566    0.6322 H   0  0  0  0  0
   23.8360   18.9339   -1.8425 H   0  0  0  0  0
   25.5239   19.0387   -1.3386 H   0  0  0  0  0
   25.8245   22.7194    2.9402 H   0  0  0  0  0
   24.0943   23.8974    1.6064 H   0  0  0  0  0
   21.4473   21.9645    2.5376 H   0  0  0  0  0
   25.0696   20.3523   -3.1798 H   0  0  0  0  0
   20.7279   20.8477   -1.7870 H   0  0  0  0  0
   19.8547   18.5916   -1.8542 H   0  0  0  0  0
   18.4032   20.4855   -2.6965 H   0  0  0  0  0
   17.4020   20.5543    0.1139 H   0  0  0  0  0
   19.2127   22.6549   -1.2066 H   0  0  0  0  0
   18.3137   22.4531    1.6530 H   0  0  0  0  0
   17.6752   23.6218    0.3594 H   0  0  0  0  0
   18.3264   17.8898   -0.3397 H   0  0  0  0  0
   16.3905   19.5064   -2.3083 H   0  0  0  0  0
   19.1147   24.5817    1.8485 H   0  0  0  0  0
   15.4494   21.3966    0.1293 H   0  0  0  0  0
   14.9930   23.7335   -0.1870 H   0  0  0  0  0
   13.0859   22.2496    0.3410 H   0  0  0  0  0
   12.6373   21.9630   -2.6300 H   0  0  0  0  0
   13.5583   19.9722   -0.5445 H   0  0  0  0  0
   12.2164   18.9433   -2.2773 H   0  0  0  0  0
   13.9278   18.4759   -2.4495 H   0  0  0  0  0
   14.2229   24.5099   -2.1853 H   0  0  0  0  0
   11.4872   23.6332   -0.4968 H   0  0  0  0  0
   10.5824   20.6541   -2.9915 H   0  0  0  0  0
    9.2816   19.6151   -1.2282 H   0  0  0  0  0
    8.0334   20.1771   -3.2368 H   0  0  0  0  0
    7.5054   22.8619   -1.9306 H   0  0  0  0  0
    9.2875   22.0809   -4.2841 H   0  0  0  0  0
    8.7749   24.7623   -2.9317 H   0  0  0  0  0
    8.0437   24.2564   -4.4657 H   0  0  0  0  0
    8.1057   21.0334    0.1958 H   0  0  0  0  0
    6.0249   20.3528   -2.2281 H   0  0  0  0  0
    5.8539   23.9742   -2.8357 H   0  0  0  0  0
    5.7268   24.1873   -5.3930 H   0  0  0  0  0
    4.1400   25.3955   -4.0381 H   0  0  0  0  0
    2.3215   23.0591   -4.4007 H   0  0  0  0  0
    3.4935   23.6942   -1.7161 H   0  0  0  0  0
    1.3726   22.3134   -1.9993 H   0  0  0  0  0
    2.7041   21.2772   -1.4030 H   0  0  0  0  0
    4.2767   22.6105   -6.3129 H   0  0  0  0  0
    2.4673   25.3800   -5.6625 H   0  0  0  0  0
    1.2041   24.2219   -2.6355 H   0  0  0  0  0
    1.5614   20.3298   -3.1827 H   0  0  0  0  0
    9.9837   23.1087   -6.4522 H   0  0  0  0  0
   11.6384   24.3123   -7.5539 H   0  0  0  0  0
   11.4683   26.5104   -5.4574 H   0  0  0  0  0
   10.2962   27.8948   -6.9584 H   0  0  0  0  0
    8.9968   26.5635   -5.3723 H   0  0  0  0  0
    7.9026   27.5341   -7.8498 H   0  0  0  0  0
    7.2554   27.6012   -6.1983 H   0  0  0  0  0
   13.3371   24.5341   -6.0092 H   0  0  0  0  0
   12.6821   27.5672   -7.1373 H   0  0  0  0  0
    9.3651   26.9837   -8.8669 H   0  0  0  0  0
    5.9437   26.3302   -7.6145 H   0  0  0  0  0
   13.4863   17.6422   -5.3556 H   0  0  0  0  0
   14.0062   18.8542   -7.2993 H   0  0  0  0  0
   13.3827   21.4651   -5.8658 H   0  0  0  0  0
   11.4039   21.4921   -7.4133 H   0  0  0  0  0
   11.3241   20.8298   -5.0783 H   0  0  0  0  0
    9.2790   19.5622   -4.9576 H   0  0  0  0  0
    9.5430   18.9246   -6.6271 H   0  0  0  0  0
   15.8137   20.0818   -6.5348 H   0  0  0  0  0
   13.6197   22.0918   -8.1228 H   0  0  0  0  0
   10.8408   19.4537   -8.3325 H   0  0  0  0  0
    8.0509   20.6617   -6.5490 H   0  0  0  0  0
  2  1  1  0  0  0
  1  7  1  0  0  0
 11  1  1  0  0  0
  3  2  1  0  0  0
  2  8  1  0  0  0
  4  3  1  0  0  0
  3  9  1  0  0  0
  4  5  1  0  0  0
 10  4  1  0  0  0
  5  6  1  0  0  0
  5 11  1  0  0  0
  6 12  1  0  0  0
 13 10  1  0  0  0
 14 13  1  0  0  0
 22 13  1  0  0  0
 15 14  1  0  0  0
 14 19  1  0  0  0
 16 15  1  0  0  0
 15 20  1  0  0  0
 16 17  1  0  0  0
 21 16  1  0  0  0
 17 18  1  0  0  0
 17 22  1  0  0  0
 18 23  1  0  0  0
 24 21  1  0  0  0
 24 25  1  0  0  0
 33 24  1  0  0  0
 26 25  1  0  0  0
 25 30  1  0  0  0
 27 26  1  0  0  0
 26 31  1  0  0  0
 28 27  1  0  0  0
 27 32  1  0  0  0
 29 28  1  0  0  0
 28 33  1  0  0  0
 34 29  1  0  0  0
 32 35  1  0  0  0
 35 36  1  0  0  0
 35 44  1  0  0  0
 36 37  1  0  0  0
 36 41  1  0  0  0
 37 38  1  0  0  0
 37 42  1  0  0  0
 39 38  1  0  0  0
 38 43  1  0  0  0
 39 40  1  0  0  0
 44 39  1  0  0  0
 40 45  1  0  0  0
 43 46  1  0  0  0
 45 57  1  0  0  0
 46 47  1  0  0  0
 46 55  1  0  0  0
 47 48  1  0  0  0
 47 52  1  0  0  0
 48 49  1  0  0  0
 48 53  1  0  0  0
 50 49  1  0  0  0
 49 54  1  0  0  0
 50 51  1  0  0  0
 55 50  1  0  0  0
 51 56  1  0  0  0
 57 58  1  0  0  0
 57 66  1  0  0  0
 58 59  1  0  0  0
 58 63  1  0  0  0
 59 60  1  0  0  0
 59 64  1  0  0  0
 61 60  1  0  0  0
 60 65  1  0  0  0
 61 62  1  0  0  0
 66 61  1  0  0  0
 62 67  1  0  0  0
 68 69  1  0  0  0
 68 77  1  0  0  0
 69 70  1  0  0  0
 69 74  1  0  0  0
 70 71  1  0  0  0
 70 75  1  0  0  0
 72 71  1  0  0  0
 71 76  1  0  0  0
 72 73  1  0  0  0
 77 72  1  0  0  0
 73 78  1  0  0  0
 34 68  1  0  0  0
  1 79  1  0  0  0
  2 80  1  0  0  0
  3 81  1  0  0  0
  4 82  1  0  0  0
  5 83  1  0  0  0
  6 84  1  0  0  0
  6 85  1  0  0  0
  7 86  1  0  0  0
  8 87  1  0  0  0
  9 88  1  0  0  0
 12 89  1  0  0  0
 13 90  1  0  0  0
 14 91  1  0  0  0
 15 92  1  0  0  0
 16 93  1  0  0  0
 17 94  1  0  0  0
 18 95  1  0  0  0
 18 96  1  0  0  0
 19 97  1  0  0  0
 20 98  1  0  0  0
 23 99  1  0  0  0
 24100  1  0  0  0
 25101  1  0  0  0
 26102  1  0  0  0
 27103  1  0  0  0
 28104  1  0  0  0
 29105  1  0  0  0
 29106  1  0  0  0
 30107  1  0  0  0
 31108  1  0  0  0
 35109  1  0  0  0
 36110  1  0  0  0
 37111  1  0  0  0
 38112  1  0  0  0
 39113  1  0  0  0
 40114  1  0  0  0
 40115  1  0  0  0
 41116  1  0  0  0
 42117  1  0  0  0
 46118  1  0  0  0
 47119  1  0  0  0
 48120  1  0  0  0
 49121  1  0  0  0
 50122  1  0  0  0
 51123  1  0  0  0
 51124  1  0  0  0
 52125  1  0  0  0
 53126  1  0  0  0
 54127  1  0  0  0
 56128  1  0  0  0
 57129  1  0  0  0
 58130  1  0  0  0
 59131  1  0  0  0
 60132  1  0  0  0
 61133  1  0  0  0
 62134  1  0  0  0
 62135  1  0  0  0
 63136  1  0  0  0
 64137  1  0  0  0
 65138  1  0  0  0
 67139  1  0  0  0
 68140  1  0  0  0
 69141  1  0  0  0
 70142  1  0  0  0
 71143  1  0  0  0
 72144  1  0  0  0
 73145  1  0  0  0
 73146  1  0  0  0
 74147  1  0  0  0
 75148  1  0  0  0
 76149  1  0  0  0
 78150  1  0  0  0
M  END
$$$$
