1uvs_ligand
  -I-interpret- 

 67 69  0  0  0  0  0  0  0  0999 V2000
  -14.2180   71.3980  179.0320 C   0  0  0  0  0
  -15.2580   70.4900  178.3270 C   0  0  0  0  0
  -14.6890   69.0660  178.1910 C   0  0  0  0  0
  -13.4110   69.0900  177.3340 C   0  0  0  0  0
  -12.3690   69.9550  178.0720 C   0  0  0  0  0
  -12.8880   71.3990  178.2650 C   0  0  0  0  0
  -15.9430   67.9520  177.4860 S   0  0  0  0  0
  -17.2430   68.2660  178.0360 O   0  0  0  0  0
  -15.5690   66.6470  177.9620 O   0  0  0  0  0
  -16.1320   67.9780  175.8560 N   0  0  0  0  0
  -15.6040   66.9480  175.1880 C   0  0  0  0  0
  -14.7440   67.2670  174.0370 C   0  0  0  0  0
  -14.6660   68.4630  173.7340 O   0  0  0  0  0
  -14.0700   66.2960  173.3860 N   0  0  0  0  0
  -13.3320   66.6720  172.1910 C   0  0  0  0  0
  -14.0640   66.1050  170.9500 C   0  0  0  0  0
  -13.9150   67.0190  169.7090 C   0  0  0  0  0
  -14.4510   68.3700  169.8780 N   0  0  0  0  0
  -15.6700   68.6850  169.4830 C   0  0  0  0  0
  -16.7890   67.9140  169.8150 C   0  0  0  0  0
  -18.0460   68.2720  169.2880 C   0  0  0  0  0
  -18.2010   69.3070  168.4930 N   0  0  0  0  0
  -17.2510   70.2210  168.3850 C   0  0  0  0  0
  -15.9320   69.9520  168.7760 C   0  0  0  0  0
  -11.8720   66.2470  172.2530 C   0  0  0  0  0
  -11.4940   65.2330  171.6780 O   0  0  0  0  0
  -11.0460   66.9060  173.1060 N   0  0  0  0  0
  -11.0360   68.3670  173.1000 C   0  0  0  0  0
  -10.9680   68.8510  174.5720 C   0  0  0  0  0
   -9.8430   68.1980  175.4210 C   0  0  0  0  0
   -9.1660   67.0120  174.7040 C   0  0  0  0  0
  -10.2470   66.1270  174.0530 C   0  0  0  0  0
  -14.0435   71.0175  180.0384 H   0  0  0  0  0
  -14.6055   72.4163  179.0658 H   0  0  0  0  0
  -15.4766   70.8896  177.3367 H   0  0  0  0  0
  -16.1735   70.4602  178.9178 H   0  0  0  0  0
  -14.4256   68.6872  179.1785 H   0  0  0  0  0
  -13.6219   69.5072  176.3493 H   0  0  0  0  0
  -13.0313   68.0785  177.1901 H   0  0  0  0  0
  -11.4558   69.9871  177.4777 H   0  0  0  0  0
  -12.1800   69.5165  179.0518 H   0  0  0  0  0
  -12.1519   71.9653  178.8357 H   0  0  0  0  0
  -13.0456   71.8512  177.2858 H   0  0  0  0  0
  -16.6233   68.7353  175.3810 H   0  0  0  0  0
  -16.4493   66.3922  174.7823 H   0  0  0  0  0
  -14.9649   66.4275  175.9012 H   0  0  0  0  0
  -14.0780   65.3324  173.7204 H   0  0  0  0  0
  -13.3068   67.7592  172.1175 H   0  0  0  0  0
  -15.1249   66.0304  171.1888 H   0  0  0  0  0
  -13.6233   65.1371  170.7112 H   0  0  0  0  0
  -14.4788   66.5523  168.9013 H   0  0  0  0  0
  -12.8470   67.1227  169.5173 H   0  0  0  0  0
  -13.8681   69.0858  170.3118 H   0  0  0  0  0
  -16.6902   67.0494  170.4714 H   0  0  0  0  0
  -18.9176   67.6713  169.5480 H   0  0  0  0  0
  -17.4989   71.2036  167.9837 H   0  0  0  0  0
  -15.1271   70.6559  168.5645 H   0  0  0  0  0
  -11.9369   68.7481  172.6192 H   0  0  0  0  0
  -10.1754   68.7357  172.5419 H   0  0  0  0  0
  -11.9149   68.5792  175.0386 H   0  0  0  0  0
  -10.7628   69.9211  174.5441 H   0  0  0  0  0
  -10.2936   67.8203  176.3388 H   0  0  0  0  0
   -9.0814   68.9556  175.6056 H   0  0  0  0  0
   -8.5990   66.4243  175.4260 H   0  0  0  0  0
   -8.4901   67.3874  173.9357 H   0  0  0  0  0
   -9.7614   65.3105  173.5186 H   0  0  0  0  0
  -10.9021   65.7375  174.8323 H   0  0  0  0  0
  1  2  1  0  0  0
  1  6  1  0  0  0
  2  3  1  0  0  0
  3  4  1  0  0  0
  3  7  1  0  0  0
  4  5  1  0  0  0
  5  6  1  0  0  0
  7  8  2  0  0  0
  7  9  2  0  0  0
  7 10  1  0  0  0
 10 11  1  0  0  0
 11 12  1  0  0  0
 12 13  2  0  0  0
 12 14  1  0  0  0
 14 15  1  0  0  0
 15 16  1  0  0  0
 15 25  1  0  0  0
 16 17  1  0  0  0
 17 18  1  0  0  0
 18 19  1  0  0  0
 19 20  4  0  0  0
 19 24  4  0  0  0
 20 21  4  0  0  0
 21 22  4  0  0  0
 22 23  4  0  0  0
 23 24  4  0  0  0
 25 26  2  0  0  0
 25 27  1  0  0  0
 27 28  1  0  0  0
 27 32  1  0  0  0
 28 29  1  0  0  0
 29 30  1  0  0  0
 30 31  1  0  0  0
 31 32  1  0  0  0
  1 33  1  0  0  0
  1 34  1  0  0  0
  2 35  1  0  0  0
  2 36  1  0  0  0
  3 37  1  0  0  0
  4 38  1  0  0  0
  4 39  1  0  0  0
  5 40  1  0  0  0
  5 41  1  0  0  0
  6 42  1  0  0  0
  6 43  1  0  0  0
 10 44  1  0  0  0
 11 45  1  0  0  0
 11 46  1  0  0  0
 14 47  1  0  0  0
 15 48  1  0  0  0
 16 49  1  0  0  0
 16 50  1  0  0  0
 17 51  1  0  0  0
 17 52  1  0  0  0
 18 53  1  0  0  0
 20 54  1  0  0  0
 21 55  1  0  0  0
 23 56  1  0  0  0
 24 57  1  0  0  0
 28 58  1  0  0  0
 28 59  1  0  0  0
 29 60  1  0  0  0
 29 61  1  0  0  0
 30 62  1  0  0  0
 30 63  1  0  0  0
 31 64  1  0  0  0
 31 65  1  0  0  0
 32 66  1  0  0  0
 32 67  1  0  0  0
M  END
$$$$
