5cgv_ligand
  -I-interpret- 

 54 56  0  0  0  0  0  0  0  0999 V2000
  -32.0050  -12.2360   19.7550 Cl  0  0  0  0  0
  -30.9290  -13.6570   20.0000 C   0  0  0  0  0
  -29.5680  -13.5050   20.2150 C   0  0  0  0  0
  -28.7340  -14.5650   20.3620 C   0  0  0  0  0
  -31.4420  -14.9430   19.9710 C   0  0  0  0  0
  -30.5990  -16.0150   20.1390 C   0  0  0  0  0
  -29.2530  -15.8230   20.3430 C   0  0  0  0  0
  -28.3680  -17.0200   20.5340 C   0  0  0  0  0
  -27.8170  -17.5770   19.2090 C   0  0  0  0  0
  -28.8810  -18.1500   18.1490 C   0  0  0  0  0
  -28.2800  -19.1820   17.1820 C   0  0  0  0  0
  -26.8510  -16.5130   18.6790 C   0  0  0  0  0
  -25.7350  -16.4310   19.1610 O   0  0  0  0  0
  -27.3530  -15.5860   17.5940 C   0  0  0  0  0
  -26.7330  -14.4830   17.1400 C   0  0  0  0  0
  -25.4890  -14.1660   17.5770 O   0  0  0  0  0
  -27.3850  -13.6030   16.1180 C   0  0  0  0  0
  -26.9440  -12.5110   15.6640 O   0  0  0  0  0
  -28.4620  -13.9680   15.6890 O   0  0  0  0  0
  -27.0270  -18.8140   19.6910 C   0  0  0  0  0
  -26.2840  -19.4620   18.5440 C   0  0  0  0  0
  -26.8560  -19.4120   17.2280 N   0  3  0  0  0
  -26.3350  -20.6080   16.4760 C   0  0  0  0  0
  -26.9930  -20.9410   15.1260 C   0  0  0  0  0
  -27.7150  -22.1610   14.9710 C   0  0  0  0  0
  -28.3620  -22.5110   13.7650 C   0  0  0  0  0
  -28.2980  -21.6420   12.7160 C   0  0  0  0  0
  -27.5870  -20.4330   12.8460 C   0  0  0  0  0
  -26.9140  -20.0660   14.0280 C   0  0  0  0  0
  -29.1532  -12.4984   20.2678 H   0  0  0  0  0
  -27.6630  -14.4112   20.4935 H   0  0  0  0  0
  -32.5088  -15.1040   19.8157 H   0  0  0  0  0
  -31.0014  -17.0276   20.1103 H   0  0  0  0  0
  -28.9647  -17.8034   21.0013 H   0  0  0  0  0
  -27.5187  -16.7116   21.1437 H   0  0  0  0  0
  -29.2383  -17.3097   17.5537 H   0  0  0  0  0
  -29.6715  -18.6468   18.7114 H   0  0  0  0  0
  -28.4754  -18.7888   16.1844 H   0  0  0  0  0
  -28.7338  -20.1336   17.4590 H   0  0  0  0  0
  -28.3099  -15.8366   17.1361 H   0  0  0  0  0
  -25.1996  -13.3542   17.1540 H   0  0  0  0  0
  -26.0939  -12.3184   16.0664 H   0  0  0  0  0
  -27.7285  -19.5372   20.1068 H   0  0  0  0  0
  -26.3035  -18.4966   20.4419 H   0  0  0  0  0
  -26.2490  -20.5221   18.7951 H   0  0  0  0  0
  -25.3493  -18.9068   18.4654 H   0  0  0  0  0
  -26.5508  -18.5684   16.7427 H   0  0  0  0  0
  -26.5323  -21.4666   17.1179 H   0  0  0  0  0
  -25.2943  -20.3792   16.2463 H   0  0  0  0  0
  -27.7697  -22.8491   15.8146 H   0  0  0  0  0
  -28.9003  -23.4545   13.6749 H   0  0  0  0  0
  -28.7969  -21.8829   11.7773 H   0  0  0  0  0
  -27.5562  -19.7521   11.9954 H   0  0  0  0  0
  -26.3508  -19.1348   14.0894 H   0  0  0  0  0
  1  2  1  0  0  0
  2  3  4  0  0  0
  2  5  4  0  0  0
  3  4  4  0  0  0
  4  7  4  0  0  0
  5  6  4  0  0  0
  6  7  4  0  0  0
  7  8  1  0  0  0
  8  9  1  0  0  0
  9 10  1  0  0  0
  9 12  1  0  0  0
  9 20  1  0  0  0
 10 11  1  0  0  0
 11 22  1  0  0  0
 12 13  2  0  0  0
 12 14  1  0  0  0
 14 15  2  0  0  0
 15 16  1  0  0  0
 15 17  1  0  0  0
 17 18  1  0  0  0
 17 19  2  0  0  0
 20 21  1  0  0  0
 21 22  1  0  0  0
 22 23  1  0  0  0
 23 24  1  0  0  0
 24 25  4  0  0  0
 24 29  4  0  0  0
 25 26  4  0  0  0
 26 27  4  0  0  0
 27 28  4  0  0  0
 28 29  4  0  0  0
  3 30  1  0  0  0
  4 31  1  0  0  0
  5 32  1  0  0  0
  6 33  1  0  0  0
  8 34  1  0  0  0
  8 35  1  0  0  0
 10 36  1  0  0  0
 10 37  1  0  0  0
 11 38  1  0  0  0
 11 39  1  0  0  0
 14 40  1  0  0  0
 16 41  1  0  0  0
 18 42  1  0  0  0
 20 43  1  0  0  0
 20 44  1  0  0  0
 21 45  1  0  0  0
 21 46  1  0  0  0
 22 47  1  0  0  0
 23 48  1  0  0  0
 23 49  1  0  0  0
 25 50  1  0  0  0
 26 51  1  0  0  0
 27 52  1  0  0  0
 28 53  1  0  0  0
 29 54  1  0  0  0
M  END
$$$$
