### 
### Created by X-TOOL on Mon Sep 10 21:12:45 2018
### 

@<TRIPOS>MOLECULE
1prm_ligand
  152   155     1     0     0
SMALL
GAST_HUCK


@<TRIPOS>ATOM
      1 N           7.2430   16.9750   13.0560 N.4       1 ALA         0.2377
      2 CA          8.6620   16.9490   13.5100 C.3       1 ALA         0.0621
      3 C           9.4720   16.0220   12.5980 C.2       1 ALA         0.2265
      4 O          10.5560   16.3580   12.1650 O.2       1 ALA        -0.3907
      5 CB          8.7250   16.4410   14.9540 C.3       1 ALA        -0.0040
      6 H1          6.7095   17.5848   13.6557 H         1 ALA         0.2015
      7 H2          6.8598   16.0436   13.0975 H         1 ALA         0.2015
      8 H3          7.1997   17.3143   12.1078 H         1 ALA         0.2015
      9 H4          9.0807   17.9651   13.4620 H         1 ALA         0.1095
     10 H5          9.7721   16.4213   15.2904 H         1 ALA         0.0310
     11 H6          8.3047   15.4257   15.0042 H         1 ALA         0.0310
     12 H7          8.1436   17.1112   15.6042 H         1 ALA         0.0310
     13 N           8.9580   14.8600   12.2990 N.am      1 PHE        -0.2592
     14 CA          9.7070   13.9200   11.4140 C.3       1 PHE         0.1406
     15 C           9.2460   14.1060    9.9670 C.2       1 PHE         0.2059
     16 O           8.0960   13.8920    9.6400 O.2       1 PHE        -0.3942
     17 CB          9.4380   12.4760   11.8470 C.3       1 PHE         0.0214
     18 CG         10.6890   11.8950   12.5100 C.ar      1 PHE        -0.0386
     19 CD1        11.7940   11.5570   11.7500 C.ar      1 PHE        -0.0601
     20 CD2        10.7260   11.6900   13.8780 C.ar      1 PHE        -0.0601
     21 CE1        12.9170   11.0230   12.3490 C.ar      1 PHE        -0.0686
     22 CE2        11.8490   11.1560   14.4750 C.ar      1 PHE        -0.0686
     23 CZ         12.9450   10.8220   13.7110 C.ar      1 PHE        -0.0687
     24 H8          8.0634   14.5999   12.6624 H         1 PHE         0.1886
     25 H9         10.7844   14.1296   11.4864 H         1 PHE         0.0823
     26 H10         9.1777   11.8722   10.9651 H         1 PHE         0.0474
     27 H11         8.6031   12.4584   12.5630 H         1 PHE         0.0474
     28 H12        11.7780   11.7124   10.6773 H         1 PHE         0.0557
     29 H13         9.8664   11.9509   14.4847 H         1 PHE         0.0557
     30 H14        13.7789   10.7612   11.7459 H         1 PHE         0.0599
     31 H15        11.8688   10.9990   15.5474 H         1 PHE         0.0599
     32 H16        13.8272   10.4021   14.1804 H         1 PHE         0.0559
     33 N          10.1320   14.5050    9.0950 N.am      1 ALA        -0.2639
     34 CA          9.7350   14.6990    7.6730 C.3       1 ALA         0.1284
     35 C           9.2100   13.3740    7.1130 C.2       1 ALA         0.2061
     36 O           9.5170   12.3200    7.6330 O.2       1 ALA        -0.3942
     37 CB         10.9460   15.1550    6.8560 C.3       1 ALA        -0.0244
     38 H17        11.0741   14.6798    9.3811 H         1 ALA         0.1883
     39 H18         8.9452   15.4623    7.6133 H         1 ALA         0.0797
     40 H19        10.6480   15.2969    5.8067 H         1 ALA         0.0277
     41 H20        11.7354   14.3910    6.9128 H         1 ALA         0.0277
     42 H21        11.3251   16.1048    7.2611 H         1 ALA         0.0277
     43 N           8.4350   13.4660    6.0630 N.am      1 PRO        -0.2498
     44 CA          7.8540   12.2800    5.4110 C.3       1 PRO         0.1340
     45 C           8.9660   11.2960    5.0200 C.2       1 PRO         0.2066
     46 O          10.0160   11.7040    4.5690 O.2       1 PRO        -0.3942
     47 CB          7.1400   12.8280    4.1670 C.3       1 PRO        -0.0104
     48 CG          7.2300   14.3770    4.2200 C.3       1 PRO        -0.0281
     49 CD          8.0890   14.7540    5.4360 C.3       1 PRO         0.0369
     50 H22         7.1376   11.7791    6.0787 H         1 PRO         0.0802
     51 H23         6.0861   12.5130    4.1699 H         1 PRO         0.0313
     52 H24         7.6319   12.4544    3.2568 H         1 PRO         0.0313
     53 H25         6.2231   14.8073    4.3249 H         1 PRO         0.0287
     54 H26         7.6970   14.7568    3.2993 H         1 PRO         0.0287
     55 H27         8.9972   15.2876    5.1190 H         1 PRO         0.0524
     56 H28         7.5182   15.3843    6.1338 H         1 PRO         0.0524
     57 N           8.6990   10.0250    5.2000 N.am      1 PRO        -0.2498
     58 CA          9.6710    8.9680    4.8720 C.3       1 PRO         0.1338
     59 C          10.0740    9.0550    3.3970 C.2       1 PRO         0.2041
     60 O           9.2490    8.9660    2.5100 O.2       1 PRO        -0.3944
     61 CB          8.9370    7.6510    5.1610 C.3       1 PRO        -0.0104
     62 CG          7.5330    8.0080    5.7170 C.3       1 PRO        -0.0281
     63 CD          7.4090    9.5410    5.7250 C.3       1 PRO         0.0369
     64 H29        10.5677    9.0564    5.5030 H         1 PRO         0.0802
     65 H30         9.4969    7.0650    5.9047 H         1 PRO         0.0313
     66 H31         8.8359    7.0669    4.2344 H         1 PRO         0.0313
     67 H32         7.4249    7.6181    6.7399 H         1 PRO         0.0287
     68 H33         6.7537    7.5725    5.0743 H         1 PRO         0.0287
     69 H34         6.5807    9.8663    5.0784 H         1 PRO         0.0524
     70 H35         7.2431    9.9111    6.7475 H         1 PRO         0.0524
     71 N          11.3410    9.2290    3.1320 N.am      1 LEU        -0.2637
     72 CA         11.8010    9.3220    1.7180 C.3       1 LEU         0.1314
     73 C          11.1950    8.1700    0.9040 C.2       1 LEU         0.2064
     74 O          11.3130    7.0230    1.2860 O.2       1 LEU        -0.3942
     75 CB         13.3270    9.2220    1.6730 C.3       1 LEU        -0.0101
     76 CG         13.9400   10.4480    2.3510 C.3       1 LEU        -0.0425
     77 CD1        15.4320   10.2070    2.5920 C.3       1 LEU        -0.0625
     78 CD2        13.7600   11.6720    1.4500 C.3       1 LEU        -0.0625
     79 H36        12.0026    9.2998    3.8785 H         1 LEU         0.1883
     80 H37        11.4815   10.2835    1.2898 H         1 LEU         0.0800
     81 H38        13.6605    9.1774    0.6257 H         1 LEU         0.0315
     82 H39        13.6503    8.3121    2.1998 H         1 LEU         0.0315
     83 H40        13.4373   10.6242    3.3134 H         1 LEU         0.0298
     84 H41        15.8718   11.0894    3.0797 H         1 LEU         0.0232
     85 H42        15.9351   10.0310    1.6298 H         1 LEU         0.0232
     86 H43        15.5614    9.3275    3.2398 H         1 LEU         0.0232
     87 H44        12.6876   11.8452    1.2768 H         1 LEU         0.0232
     88 H45        14.2631   11.4962    0.4877 H         1 LEU         0.0232
     89 H46        14.1998   12.5543    1.9379 H         1 LEU         0.0232
     90 N          10.5610    8.5060   -0.1950 N.am      1 PRO        -0.2498
     91 CA          9.9320    7.5020   -1.0720 C.3       1 PRO         0.1338
     92 C          10.9980    6.5630   -1.6460 C.2       1 PRO         0.2041
     93 O          12.1820    6.7850   -1.4880 O.2       1 PRO        -0.3944
     94 CB          9.2720    8.3160   -2.1930 C.3       1 PRO        -0.0104
     95 CG          9.5840    9.8130   -1.9350 C.3       1 PRO        -0.0281
     96 CD         10.4160    9.9020   -0.6460 C.3       1 PRO         0.0369
     97 H47         9.1806    6.9173   -0.5211 H         1 PRO         0.0802
     98 H48         8.1842    8.1531   -2.1837 H         1 PRO         0.0313
     99 H49         9.6802    8.0109   -3.1678 H         1 PRO         0.0313
    100 H50         8.6465   10.3758   -1.8152 H         1 PRO         0.0287
    101 H51        10.1552   10.2274   -2.7788 H         1 PRO         0.0287
    102 H52        11.4007   10.3476   -0.8503 H         1 PRO         0.0524
    103 H53         9.8922   10.5020    0.1127 H         1 PRO         0.0524
    104 N          10.5890    5.5170   -2.3110 N.am      1 ARG        -0.2637
    105 CA         11.5830    4.5710   -2.8910 C.3       1 ARG         0.1310
    106 C          12.0390    5.0870   -4.2590 C.2       1 ARG         0.2033
    107 O          11.2490    5.5680   -5.0460 O.2       1 ARG        -0.3944
    108 CB         10.9440    3.1890   -3.0530 C.3       1 ARG        -0.0092
    109 CG         12.0340    2.1160   -3.0060 C.3       1 ARG        -0.0156
    110 CD         11.8230    1.2260   -1.7790 C.3       1 ARG         0.0627
    111 NE         12.4000   -0.1240   -2.0380 N.pl3     1 ARG        -0.2723
    112 CZ         13.6930   -0.3070   -1.9860 C.cat     1 ARG         0.2882
    113 NH1        14.4870    0.6890   -1.6980 N.pl3     1 ARG        -0.2849
    114 NH2        14.1930   -1.4900   -2.2200 N.pl3     1 ARG        -0.2849
    115 H54         9.6102    5.3509   -2.4309 H         1 ARG         0.1883
    116 H55        12.4513    4.4958   -2.2199 H         1 ARG         0.0800
    117 H56        10.4202    3.1378   -4.0189 H         1 ARG         0.0313
    118 H57        10.2261    3.0187   -2.2371 H         1 ARG         0.0313
    119 H58        13.0206    2.5984   -2.9434 H         1 ARG         0.0301
    120 H59        11.9832    1.5019   -3.9172 H         1 ARG         0.0301
    121 H60        10.7461    1.1314   -1.5757 H         1 ARG         0.0689
    122 H61        12.3222    1.6771   -0.9088 H         1 ARG         0.0689
    123 H62        11.7779   -0.9147   -2.2585 H         1 ARG         0.2642
    124 H63        15.5055    0.5407   -1.6580 H         1 ARG         0.2615
    125 H64        14.0948    1.6228   -1.5109 H         1 ARG         0.2615
    126 H65        13.5688   -2.2772   -2.4474 H         1 ARG         0.2615
    127 H66        15.2117   -1.6362   -2.1773 H         1 ARG         0.2615
    128 N          13.3090    4.9900   -4.5490 N.am      1 ARG        -0.2695
    129 CA         13.8120    5.4760   -5.8660 C.3       1 ARG         0.0945
    130 C          13.3530    4.5230   -6.9710 C.2       1 ARG         0.0601
    131 O          14.1870    3.7900   -7.4770 O.co2     1 ARG        -0.5666
    132 CB         15.3410    5.5310   -5.8430 C.3       1 ARG        -0.0148
    133 CG         15.8030    6.5680   -4.8170 C.3       1 ARG        -0.0162
    134 CD         17.1310    7.1750   -5.2740 C.3       1 ARG         0.0627
    135 NE         17.9860    7.4620   -4.0870 N.pl3     1 ARG        -0.2723
    136 CZ         19.0350    8.2310   -4.2070 C.cat     1 ARG         0.2882
    137 NH1        19.3310    8.7640   -5.3630 N.pl3     1 ARG        -0.2849
    138 NH2        19.7890    8.4720   -3.1700 N.pl3     1 ARG        -0.2849
    139 OXT        12.1770    4.5420   -7.2920 O.co2     1 ARG        -0.5666
    140 H67        13.9438    4.5899   -3.8879 H         1 ARG         0.1875
    141 H68        13.4128    6.4822   -6.0611 H         1 ARG         0.0726
    142 H69        15.7121    5.8119   -6.8397 H         1 ARG         0.0307
    143 H70        15.7386    4.5427   -5.5688 H         1 ARG         0.0307
    144 H71        15.9381    6.0826   -3.8392 H         1 ARG         0.0301
    145 H72        15.0465    7.3619   -4.7308 H         1 ARG         0.0301
    146 H73        16.9372    8.1101   -5.8199 H         1 ARG         0.0689
    147 H74        17.6495    6.4651   -5.9352 H         1 ARG         0.0689
    148 H75        17.7494    7.0536   -3.1715 H         1 ARG         0.2642
    149 H76        20.1590    9.3699   -5.4539 H         1 ARG         0.2615
    150 H77        18.7363    8.5782   -6.1832 H         1 ARG         0.2615
    151 H78        19.5587    8.0536   -2.2574 H         1 ARG         0.2615
    152 H79        20.6146    9.0807   -3.2639 H         1 ARG         0.2615
@<TRIPOS>BOND
     1    1    2 1  
     2    1    6 1  
     3    1    7 1  
     4    1    8 1  
     5    2    3 1  
     6    2    5 1  
     7    2    9 1  
     8    3    4 2  
     9    3   13 am 
    10    5   10 1  
    11    5   11 1  
    12    5   12 1  
    13   13   14 1  
    14   13   24 1  
    15   14   15 1  
    16   14   17 1  
    17   14   25 1  
    18   15   16 2  
    19   15   33 am 
    20   17   18 1  
    21   17   26 1  
    22   17   27 1  
    23   18   19 ar 
    24   18   20 ar 
    25   19   21 ar 
    26   19   28 1  
    27   20   22 ar 
    28   20   29 1  
    29   21   23 ar 
    30   21   30 1  
    31   22   23 ar 
    32   22   31 1  
    33   23   32 1  
    34   33   34 1  
    35   33   38 1  
    36   34   35 1  
    37   34   37 1  
    38   34   39 1  
    39   35   36 2  
    40   35   43 am 
    41   37   40 1  
    42   37   41 1  
    43   37   42 1  
    44   43   44 1  
    45   43   49 1  
    46   44   45 1  
    47   44   47 1  
    48   44   50 1  
    49   45   46 2  
    50   45   57 am 
    51   47   48 1  
    52   47   51 1  
    53   47   52 1  
    54   48   49 1  
    55   48   53 1  
    56   48   54 1  
    57   49   55 1  
    58   49   56 1  
    59   57   58 1  
    60   57   63 1  
    61   58   59 1  
    62   58   61 1  
    63   58   64 1  
    64   59   60 2  
    65   59   71 am 
    66   61   62 1  
    67   61   65 1  
    68   61   66 1  
    69   62   63 1  
    70   62   67 1  
    71   62   68 1  
    72   63   69 1  
    73   63   70 1  
    74   71   72 1  
    75   71   79 1  
    76   72   73 1  
    77   72   75 1  
    78   72   80 1  
    79   73   74 2  
    80   73   90 am 
    81   75   76 1  
    82   75   81 1  
    83   75   82 1  
    84   76   77 1  
    85   76   78 1  
    86   76   83 1  
    87   77   84 1  
    88   77   85 1  
    89   77   86 1  
    90   78   87 1  
    91   78   88 1  
    92   78   89 1  
    93   90   91 1  
    94   90   96 1  
    95   91   92 1  
    96   91   94 1  
    97   91   97 1  
    98   92   93 2  
    99   92  104 am 
   100   94   95 1  
   101   94   98 1  
   102   94   99 1  
   103   95   96 1  
   104   95  100 1  
   105   95  101 1  
   106   96  102 1  
   107   96  103 1  
   108  104  105 1  
   109  104  115 1  
   110  105  106 1  
   111  105  108 1  
   112  105  116 1  
   113  106  107 2  
   114  106  128 am 
   115  108  109 1  
   116  108  117 1  
   117  108  118 1  
   118  109  110 1  
   119  109  119 1  
   120  109  120 1  
   121  110  111 1  
   122  110  121 1  
   123  110  122 1  
   124  111  112 ar 
   125  111  123 1  
   126  112  113 ar 
   127  112  114 ar 
   128  113  124 1  
   129  113  125 1  
   130  114  126 1  
   131  114  127 1  
   132  128  129 1  
   133  128  140 1  
   134  129  130 1  
   135  129  132 1  
   136  129  141 1  
   137  130  131 ar 
   138  130  139 ar 
   139  132  133 1  
   140  132  142 1  
   141  132  143 1  
   142  133  134 1  
   143  133  144 1  
   144  133  145 1  
   145  134  135 1  
   146  134  146 1  
   147  134  147 1  
   148  135  136 ar 
   149  135  148 1  
   150  136  137 ar 
   151  136  138 ar 
   152  137  149 1  
   153  137  150 1  
   154  138  151 1  
   155  138  152 1  
@<TRIPOS>SUBSTRUCTURE
     1 ALA         1

