1prm_ligand
  -I-interpret- 

151154  0  0  0  0  0  0  0  0999 V2000
    7.2430   16.9750   13.0560 N   0  3  0  0  0
    8.6620   16.9490   13.5100 C   0  0  0  0  0
    9.4720   16.0220   12.5980 C   0  0  0  0  0
   10.5560   16.3580   12.1650 O   0  0  0  0  0
    8.7250   16.4410   14.9540 C   0  0  0  0  0
    8.9580   14.8600   12.2990 N   0  0  0  0  0
    9.7070   13.9200   11.4140 C   0  0  0  0  0
    9.2460   14.1060    9.9670 C   0  0  0  0  0
    8.0960   13.8920    9.6400 O   0  0  0  0  0
    9.4380   12.4760   11.8470 C   0  0  0  0  0
   10.6890   11.8950   12.5100 C   0  0  0  0  0
   11.7940   11.5570   11.7500 C   0  0  0  0  0
   10.7260   11.6900   13.8780 C   0  0  0  0  0
   12.9170   11.0230   12.3490 C   0  0  0  0  0
   11.8490   11.1560   14.4750 C   0  0  0  0  0
   12.9450   10.8220   13.7110 C   0  0  0  0  0
   10.1320   14.5050    9.0950 N   0  0  0  0  0
    9.7350   14.6990    7.6730 C   0  0  0  0  0
    9.2100   13.3740    7.1130 C   0  0  0  0  0
    9.5170   12.3200    7.6330 O   0  0  0  0  0
   10.9460   15.1550    6.8560 C   0  0  0  0  0
    8.4350   13.4660    6.0630 N   0  0  0  0  0
    7.8540   12.2800    5.4110 C   0  0  0  0  0
    8.9660   11.2960    5.0200 C   0  0  0  0  0
   10.0160   11.7040    4.5690 O   0  0  0  0  0
    7.1400   12.8280    4.1670 C   0  0  0  0  0
    7.2300   14.3770    4.2200 C   0  0  0  0  0
    8.0890   14.7540    5.4360 C   0  0  0  0  0
    8.6990   10.0250    5.2000 N   0  0  0  0  0
    9.6710    8.9680    4.8720 C   0  0  0  0  0
   10.0740    9.0550    3.3970 C   0  0  0  0  0
    9.2490    8.9660    2.5100 O   0  0  0  0  0
    8.9370    7.6510    5.1610 C   0  0  0  0  0
    7.5330    8.0080    5.7170 C   0  0  0  0  0
    7.4090    9.5410    5.7250 C   0  0  0  0  0
   11.3410    9.2290    3.1320 N   0  0  0  0  0
   11.8010    9.3220    1.7180 C   0  0  0  0  0
   11.1950    8.1700    0.9040 C   0  0  0  0  0
   11.3130    7.0230    1.2860 O   0  0  0  0  0
   13.3270    9.2220    1.6730 C   0  0  0  0  0
   13.9400   10.4480    2.3510 C   0  0  0  0  0
   15.4320   10.2070    2.5920 C   0  0  0  0  0
   13.7600   11.6720    1.4500 C   0  0  0  0  0
   10.5610    8.5060   -0.1950 N   0  0  0  0  0
    9.9320    7.5020   -1.0720 C   0  0  0  0  0
   10.9980    6.5630   -1.6460 C   0  0  0  0  0
   12.1820    6.7850   -1.4880 O   0  0  0  0  0
    9.2720    8.3160   -2.1930 C   0  0  0  0  0
    9.5840    9.8130   -1.9350 C   0  0  0  0  0
   10.4160    9.9020   -0.6460 C   0  0  0  0  0
   10.5890    5.5170   -2.3110 N   0  0  0  0  0
   11.5830    4.5710   -2.8910 C   0  0  0  0  0
   12.0390    5.0870   -4.2590 C   0  0  0  0  0
   11.2490    5.5680   -5.0460 O   0  0  0  0  0
   10.9440    3.1890   -3.0530 C   0  0  0  0  0
   12.0340    2.1160   -3.0060 C   0  0  0  0  0
   11.8230    1.2260   -1.7790 C   0  0  0  0  0
   12.4000   -0.1240   -2.0380 N   0  0  0  0  0
   13.6930   -0.3070   -1.9860 C   0  0  0  0  0
   14.4870    0.6890   -1.6980 N   0  0  0  0  0
   14.1930   -1.4900   -2.2200 N   0  0  0  0  0
   13.3090    4.9900   -4.5490 N   0  0  0  0  0
   13.8120    5.4760   -5.8660 C   0  0  0  0  0
   13.3530    4.5230   -6.9710 C   0  0  0  0  0
   14.1870    3.7900   -7.4770 O   0  0  0  0  0
   15.3410    5.5310   -5.8430 C   0  0  0  0  0
   15.8030    6.5680   -4.8170 C   0  0  0  0  0
   17.1310    7.1750   -5.2740 C   0  0  0  0  0
   17.9860    7.4620   -4.0870 N   0  0  0  0  0
   19.0350    8.2310   -4.2070 C   0  0  0  0  0
   19.3310    8.7640   -5.3630 N   0  0  0  0  0
   19.7890    8.4720   -3.1700 N   0  0  0  0  0
   12.1770    4.5420   -7.2920 O   0  0  0  0  0
    7.2010   17.3132   12.0946 H   0  0  0  0  0
    6.8547   16.0330   13.1036 H   0  0  0  0  0
    6.7053   17.5965   13.6601 H   0  0  0  0  0
    9.0804   17.9544   13.4634 H   0  0  0  0  0
    8.3099   15.4343   15.0021 H   0  0  0  0  0
    9.7628   16.4237   15.2868 H   0  0  0  0  0
    8.1470   17.1048   15.5969 H   0  0  0  0  0
    8.0455   14.5947   12.6697 H   0  0  0  0  0
   10.7741   14.1289   11.4904 H   0  0  0  0  0
    9.1818   11.8782   10.9723 H   0  0  0  0  0
    8.6117   12.4598   12.5577 H   0  0  0  0  0
   11.7779   11.7133   10.6714 H   0  0  0  0  0
    9.8617   11.9523   14.4881 H   0  0  0  0  0
   13.7836   10.7598   11.7426 H   0  0  0  0  0
   11.8689   10.9981   15.5533 H   0  0  0  0  0
   13.8321   10.3997   14.1830 H   0  0  0  0  0
   11.0930   14.6832    9.3868 H   0  0  0  0  0
    8.9560   15.4590    7.6127 H   0  0  0  0  0
   11.3207   16.0961    7.2585 H   0  0  0  0  0
   11.7274   14.3972    6.9131 H   0  0  0  0  0
   10.6494   15.2953    5.8165 H   0  0  0  0  0
    7.1703   11.7348    6.0617 H   0  0  0  0  0
    6.0983   12.5074    4.1538 H   0  0  0  0  0
    7.6117   12.4501    3.2599 H   0  0  0  0  0
    6.2345   14.8118    4.3096 H   0  0  0  0  0
    7.6790   14.7622    3.3045 H   0  0  0  0  0
    8.9764   15.3177    5.1481 H   0  0  0  0  0
    7.5553   15.4106    6.1232 H   0  0  0  0  0
   10.5898    9.0557    5.4519 H   0  0  0  0  0
    9.4932    7.0572    5.8863 H   0  0  0  0  0
    8.8458    7.0590    4.2503 H   0  0  0  0  0
    7.4127    7.6125    6.7256 H   0  0  0  0  0
    6.7549    7.5678    5.0933 H   0  0  0  0  0
    6.5698    9.8837    5.1197 H   0  0  0  0  0
    7.2066    9.9269    6.7241 H   0  0  0  0  0
   12.0158    9.3012    3.8934 H   0  0  0  0  0
   11.4821   10.2748    1.2954 H   0  0  0  0  0
   13.6572    9.1784    0.6351 H   0  0  0  0  0
   13.6470    8.3205    2.1955 H   0  0  0  0  0
   13.4422   10.6219    3.3049 H   0  0  0  0  0
   15.5589    9.3353    3.2339 H   0  0  0  0  0
   15.9293   10.0327    1.6379 H   0  0  0  0  0
   15.8667   11.0820    3.0752 H   0  0  0  0  0
   14.2580   11.4961    0.4965 H   0  0  0  0  0
   12.6970   11.8433    1.2800 H   0  0  0  0  0
   14.1972   12.5453    1.9340 H   0  0  0  0  0
    9.2118    6.8792   -0.5413 H   0  0  0  0  0
    8.1949    8.1487   -2.1996 H   0  0  0  0  0
    9.6610    8.0093   -3.1640 H   0  0  0  0  0
    8.6593   10.3802   -1.8293 H   0  0  0  0  0
   10.1379   10.2348   -2.7737 H   0  0  0  0  0
   11.3825   10.3754   -0.8185 H   0  0  0  0  0
    9.9324   10.5239    0.1073 H   0  0  0  0  0
    9.5906    5.3476   -2.4333 H   0  0  0  0  0
   12.4425    4.4952   -2.2250 H   0  0  0  0  0
   10.4245    3.1382   -4.0099 H   0  0  0  0  0
   10.2322    3.0203   -2.2449 H   0  0  0  0  0
   13.0115    2.5942   -2.9436 H   0  0  0  0  0
   11.9832    1.5074   -3.9088 H   0  0  0  0  0
   10.7558    1.1321   -1.5778 H   0  0  0  0  0
   12.3180    1.6730   -0.9169 H   0  0  0  0  0
   11.7839   -0.9070   -2.2564 H   0  0  0  0  0
   15.4954    0.5417   -1.6563 H   0  0  0  0  0
   14.0987    1.6142   -1.5148 H   0  0  0  0  0
   13.5747   -2.2700   -2.4431 H   0  0  0  0  0
   13.9565    4.5819   -3.8747 H   0  0  0  0  0
   13.4167    6.4734   -6.0581 H   0  0  0  0  0
   15.0410    3.9486   -7.0681 H   0  0  0  0  0
   15.7079    5.8107   -6.8305 H   0  0  0  0  0
   15.7342    4.5518   -5.5699 H   0  0  0  0  0
   15.9358    6.0879   -3.8475 H   0  0  0  0  0
   15.0532    7.3544   -4.7301 H   0  0  0  0  0
   16.9382    8.1023   -5.8136 H   0  0  0  0  0
   17.6448    6.4703   -5.9279 H   0  0  0  0  0
   17.7517    7.0575   -3.1804 H   0  0  0  0  0
   20.1493    9.3663   -5.4523 H   0  0  0  0  0
   18.7437    8.5777   -6.1759 H   0  0  0  0  0
   19.5593    8.0599   -2.2656 H   0  0  0  0  0
  1  2  1  0  0  0
  2  3  1  0  0  0
  2  5  1  0  0  0
  3  4  2  0  0  0
  3  6  1  0  0  0
  6  7  1  0  0  0
  7  8  1  0  0  0
  7 10  1  0  0  0
  8  9  2  0  0  0
  8 17  1  0  0  0
 10 11  1  0  0  0
 11 12  4  0  0  0
 11 13  4  0  0  0
 12 14  4  0  0  0
 13 15  4  0  0  0
 14 16  4  0  0  0
 15 16  4  0  0  0
 17 18  1  0  0  0
 18 19  1  0  0  0
 18 21  1  0  0  0
 19 20  2  0  0  0
 19 22  1  0  0  0
 22 23  1  0  0  0
 22 28  1  0  0  0
 23 24  1  0  0  0
 23 26  1  0  0  0
 24 25  2  0  0  0
 24 29  1  0  0  0
 26 27  1  0  0  0
 27 28  1  0  0  0
 29 30  1  0  0  0
 29 35  1  0  0  0
 30 31  1  0  0  0
 30 33  1  0  0  0
 31 32  2  0  0  0
 31 36  1  0  0  0
 33 34  1  0  0  0
 34 35  1  0  0  0
 36 37  1  0  0  0
 37 38  1  0  0  0
 37 40  1  0  0  0
 38 39  2  0  0  0
 38 44  1  0  0  0
 40 41  1  0  0  0
 41 42  1  0  0  0
 41 43  1  0  0  0
 44 45  1  0  0  0
 44 50  1  0  0  0
 45 46  1  0  0  0
 45 48  1  0  0  0
 46 47  2  0  0  0
 46 51  1  0  0  0
 48 49  1  0  0  0
 49 50  1  0  0  0
 51 52  1  0  0  0
 52 53  1  0  0  0
 52 55  1  0  0  0
 53 54  2  0  0  0
 53 62  1  0  0  0
 55 56  1  0  0  0
 56 57  1  0  0  0
 57 58  1  0  0  0
 58 59  1  0  0  0
 59 60  1  0  0  0
 59 61  2  0  0  0
 62 63  1  0  0  0
 63 64  1  0  0  0
 63 66  1  0  0  0
 64 65  1  0  0  0
 64 73  2  0  0  0
 66 67  1  0  0  0
 67 68  1  0  0  0
 68 69  1  0  0  0
 69 70  1  0  0  0
 70 71  1  0  0  0
 70 72  2  0  0  0
  1 74  1  0  0  0
  1 75  1  0  0  0
  1 76  1  0  0  0
  2 77  1  0  0  0
  5 78  1  0  0  0
  5 79  1  0  0  0
  5 80  1  0  0  0
  6 81  1  0  0  0
  7 82  1  0  0  0
 10 83  1  0  0  0
 10 84  1  0  0  0
 12 85  1  0  0  0
 13 86  1  0  0  0
 14 87  1  0  0  0
 15 88  1  0  0  0
 16 89  1  0  0  0
 17 90  1  0  0  0
 18 91  1  0  0  0
 21 92  1  0  0  0
 21 93  1  0  0  0
 21 94  1  0  0  0
 23 95  1  0  0  0
 26 96  1  0  0  0
 26 97  1  0  0  0
 27 98  1  0  0  0
 27 99  1  0  0  0
 28100  1  0  0  0
 28101  1  0  0  0
 30102  1  0  0  0
 33103  1  0  0  0
 33104  1  0  0  0
 34105  1  0  0  0
 34106  1  0  0  0
 35107  1  0  0  0
 35108  1  0  0  0
 36109  1  0  0  0
 37110  1  0  0  0
 40111  1  0  0  0
 40112  1  0  0  0
 41113  1  0  0  0
 42114  1  0  0  0
 42115  1  0  0  0
 42116  1  0  0  0
 43117  1  0  0  0
 43118  1  0  0  0
 43119  1  0  0  0
 45120  1  0  0  0
 48121  1  0  0  0
 48122  1  0  0  0
 49123  1  0  0  0
 49124  1  0  0  0
 50125  1  0  0  0
 50126  1  0  0  0
 51127  1  0  0  0
 52128  1  0  0  0
 55129  1  0  0  0
 55130  1  0  0  0
 56131  1  0  0  0
 56132  1  0  0  0
 57133  1  0  0  0
 57134  1  0  0  0
 58135  1  0  0  0
 60136  1  0  0  0
 60137  1  0  0  0
 61138  1  0  0  0
 62139  1  0  0  0
 63140  1  0  0  0
 65141  1  0  0  0
 66142  1  0  0  0
 66143  1  0  0  0
 67144  1  0  0  0
 67145  1  0  0  0
 68146  1  0  0  0
 68147  1  0  0  0
 69148  1  0  0  0
 71149  1  0  0  0
 71150  1  0  0  0
 72151  1  0  0  0
M  END
$$$$
