### 
### Created by X-TOOL on Mon Sep 10 21:13:14 2018
### 

@<TRIPOS>MOLECULE
4i32_ligand
  194   193     1     0     0
SMALL
GAST_HUCK


@<TRIPOS>ATOM
      1 N          76.3360   -3.7770   13.9460 N.4       1 LYS         0.2357
      2 CA         75.5140   -3.7460   15.1440 C.3       1 LYS         0.0545
      3 C          76.1680   -3.0380   16.3210 C.2       1 LYS         0.2234
      4 O          76.1190   -3.5240   17.4540 O.2       1 LYS        -0.3911
      5 N          76.7770   -1.8850   16.0600 N.am      1 GLY        -0.2639
      6 CA         77.4020   -1.0930   17.1100 C.3       1 GLY         0.1202
      7 C          76.5370    0.0240   17.6940 C.2       1 GLY         0.2008
      8 O          75.3170   -0.1040   17.7940 O.2       1 GLY        -0.3947
      9 N          77.1880    1.1080   18.1140 N.am      1 SER        -0.2618
     10 CA         76.5060    2.2740   18.6550 C.3       1 SER         0.1539
     11 C          76.1120    3.2310   17.5420 C.2       1 SER         0.2062
     12 O          76.8190    3.3610   16.5430 O.2       1 SER        -0.3943
     13 CB         77.4100    3.0360   19.6290 C.3       1 SER         0.0843
     14 OG         77.6540    2.3300   20.8260 O.3       1 SER        -0.3903
     15 N          74.9740    3.8940   17.7110 N.am      1 VAL        -0.2634
     16 CA         74.7140    5.1180   16.9630 C.3       1 VAL         0.1333
     17 C          75.7870    6.1550   17.3150 C.2       1 VAL         0.2042
     18 O          76.1910    6.2730   18.4780 O.2       1 VAL        -0.3944
     19 CB         73.3510    5.7100   17.2990 C.3       1 VAL        -0.0063
     20 CG1        73.1110    6.9850   16.4730 C.3       1 VAL        -0.0584
     21 CG2        72.2610    4.6790   17.0560 C.3       1 VAL        -0.0584
     22 N          76.2440    6.8930   16.3060 N.am      1 VAL        -0.2635
     23 CA         77.3360    7.8460   16.4630 C.3       1 VAL         0.1332
     24 C          76.8930    9.2270   15.9900 C.2       1 VAL         0.2042
     25 O          76.2560    9.3460   14.9330 O.2       1 VAL        -0.3944
     26 CB         78.5560    7.4270   15.6200 C.3       1 VAL        -0.0063
     27 CG1        79.6400    8.4820   15.7020 C.3       1 VAL        -0.0584
     28 CG2        79.0920    6.0690   16.0730 C.3       1 VAL        -0.0584
     29 N          77.2160   10.2620   16.7650 N.am      1 ILE        -0.2635
     30 CA         76.9880   11.6320   16.3210 C.3       1 ILE         0.1335
     31 C          78.1240   12.0280   15.3880 C.2       1 ILE         0.2042
     32 O          79.2840   12.0990   15.8050 O.2       1 ILE        -0.3944
     33 CB         76.9570   12.5980   17.5150 C.3       1 ILE        -0.0037
     34 CG1        75.7390   12.3040   18.3980 C.3       1 ILE        -0.0491
     35 CG2        76.9110   14.0360   17.0400 C.3       1 ILE        -0.0582
     36 CD1        75.8250   12.9020   19.7630 C.3       1 ILE        -0.0648
     37 N          77.7790   12.2440   14.1190 N.am      1 VAL        -0.2635
     38 CA         78.7280   12.6190   13.0820 C.3       1 VAL         0.1332
     39 C          78.6960   14.0990   12.6730 C.2       1 VAL         0.2039
     40 O          79.4620   14.5300   11.8020 O.2       1 VAL        -0.3944
     41 CB         78.5860   11.7210   11.8480 C.3       1 VAL        -0.0063
     42 CG1        78.6540   10.2860   12.2600 C.3       1 VAL        -0.0584
     43 CG2        77.3060   12.0070   11.1140 C.3       1 VAL        -0.0584
     44 N          77.7930   14.8660   13.2790 N.am      1 GLY        -0.2664
     45 CA         77.6190   16.2640   12.9250 C.3       1 GLY         0.1201
     46 C          76.5250   16.8440   13.7950 C.2       1 GLY         0.2007
     47 O          75.9110   16.1270   14.5870 O.2       1 GLY        -0.3947
     48 N          76.2920   18.1430   13.6780 N.am      1 ARG        -0.2640
     49 CA         75.1440   18.7530   14.3390 C.3       1 ARG         0.1311
     50 C          74.5770   19.9010   13.5260 C.2       1 ARG         0.2039
     51 O          75.1280   20.2940   12.4970 O.2       1 ARG        -0.3944
     52 CB         75.5010   19.2510   15.7480 C.3       1 ARG        -0.0092
     53 CG         76.4380   20.4410   15.7700 C.3       1 ARG        -0.0156
     54 CD         77.8790   20.0010   15.5800 C.3       1 ARG         0.0627
     55 NE         78.8160   21.0560   15.9440 N.pl3     1 ARG        -0.2723
     56 CZ         79.6300   21.0280   16.9940 C.cat     1 ARG         0.2882
     57 NH1        79.6490   19.9930   17.8200 N.pl3     1 ARG        -0.2849
     58 NH2        80.4360   22.0520   17.2090 N.pl3     1 ARG        -0.2849
     59 N          73.4810   20.4590   14.0170 N.am      1 ILE        -0.2635
     60 CA         72.8240   21.5640   13.3380 C.3       1 ILE         0.1335
     61 C          72.4350   22.6220   14.3570 C.2       1 ILE         0.2042
     62 O          71.8220   22.3230   15.3860 O.2       1 ILE        -0.3944
     63 CB         71.5960   21.0800   12.5530 C.3       1 ILE        -0.0037
     64 CG1        72.0410   20.3010   11.3160 C.3       1 ILE        -0.0491
     65 CG2        70.6930   22.2580   12.1780 C.3       1 ILE        -0.0582
     66 CD1        70.8950   19.6430   10.5930 C.3       1 ILE        -0.0648
     67 N          72.8170   23.8560   14.0650 N.am      1 ILE        -0.2635
     68 CA         72.6580   24.9660   14.9890 C.3       1 ILE         0.1335
     69 C          71.5240   25.8760   14.5260 C.2       1 ILE         0.2042
     70 O          71.5210   26.3940   13.3910 O.2       1 ILE        -0.3944
     71 CB         73.9630   25.7970   15.0760 C.3       1 ILE        -0.0037
     72 CG1        75.1850   24.8870   15.2610 C.3       1 ILE        -0.0491
     73 CG2        73.8610   26.8700   16.1580 C.3       1 ILE        -0.0582
     74 CD1        75.4150   24.4560   16.6790 C.3       1 ILE        -0.0648
     75 N          70.5570   26.0720   15.4140 N.am      1 LEU        -0.2637
     76 CA         69.3750   26.8660   15.0910 C.3       1 LEU         0.1312
     77 C          69.5300   28.3090   15.5210 C.2       1 LEU         0.2034
     78 O          70.1310   28.5920   16.5480 O.2       1 LEU        -0.3944
     79 CB         68.1330   26.2710   15.7460 C.3       1 LEU        -0.0101
     80 CG         67.8070   24.8660   15.2600 C.3       1 LEU        -0.0425
     81 CD1        66.5520   24.3550   15.9500 C.3       1 LEU        -0.0625
     82 CD2        67.6460   24.9040   13.7570 C.3       1 LEU        -0.0625
     83 N          68.9710   29.2130   14.7250 N.am      1 SER        -0.2672
     84 CA         68.9930   30.6330   15.0270 C.3       1 SER         0.1173
     85 C          67.6580   31.2680   14.6220 C.2       1 SER         0.0623
     86 O          67.0968   32.1383   15.3398 O.co2     1 SER        -0.5665
     87 CB         70.1630   31.2880   14.2920 C.3       1 SER         0.0789
     88 OG         70.0880   32.6940   14.3320 O.3       1 SER        -0.3910
     89 O          67.1087   30.9111   13.5457 O.co2     1 SER        -0.5665
     90 H1         75.8415   -4.2588   13.2116 H         1 LYS         0.2012
     91 H2         77.1987   -4.2597   14.1428 H         1 LYS         0.2012
     92 H3         76.5379   -2.8341   13.6525 H         1 LYS         0.2012
     93 H4         75.2952   -4.7823   15.4411 H         1 LYS         0.1061
     94 H5         74.5741   -3.2265   14.9060 H         1 LYS         0.1061
     95 H6         76.8065   -1.5529   15.1172 H         1 GLY         0.1882
     96 H7         78.3113   -0.6350   16.6935 H         1 GLY         0.0763
     97 H8         77.6764   -1.7731   17.9299 H         1 GLY         0.0763
     98 H9         78.1862    1.1208   18.0550 H         1 SER         0.1884
     99 H10        75.6019    1.9395   19.1848 H         1 SER         0.0823
    100 H11        76.9276    3.9924   19.8790 H         1 SER         0.0606
    101 H12        78.3732    3.2294   19.1342 H         1 SER         0.0606
    102 H13        76.8297    2.1637   21.2679 H         1 SER         0.2097
    103 H14        74.2907    3.5514   18.3557 H         1 VAL         0.1883
    104 H15        74.7538    4.8943   15.8867 H         1 VAL         0.0802
    105 H16        73.3394    5.9811   18.3650 H         1 VAL         0.0343
    106 H17        72.1251    7.4038   16.7232 H         1 VAL         0.0234
    107 H18        73.1437    6.7392   15.4013 H         1 VAL         0.0234
    108 H19        73.8925    7.7239   16.7038 H         1 VAL         0.0234
    109 H20        72.4630    3.7824   17.6604 H         1 VAL         0.0234
    110 H21        72.2448    4.4067   15.9904 H         1 VAL         0.0234
    111 H22        71.2863    5.1016   17.3414 H         1 VAL         0.0234
    112 H23        75.8219    6.7898   15.4053 H         1 VAL         0.1883
    113 H24        77.6223    7.8925   17.5241 H         1 VAL         0.0802
    114 H25        78.2370    7.3388   14.5710 H         1 VAL         0.0343
    115 H26        80.5029    8.1689   15.0960 H         1 VAL         0.0234
    116 H27        79.9530    8.6056   16.7493 H         1 VAL         0.0234
    117 H28        79.2513    9.4376   15.3202 H         1 VAL         0.0234
    118 H29        78.2911    5.3179   16.0062 H         1 VAL         0.0234
    119 H30        79.4411    6.1411   17.1136 H         1 VAL         0.0234
    120 H31        79.9294    5.7706   15.4251 H         1 VAL         0.0234
    121 H32        77.6207   10.0966   17.6644 H         1 ILE         0.1883
    122 H33        76.0293   11.6877   15.7846 H         1 ILE         0.0803
    123 H34        77.8707   12.4519   18.1098 H         1 ILE         0.0345
    124 H35        75.6420   11.2133   18.5029 H         1 ILE         0.0267
    125 H36        74.8444   12.7054   17.8995 H         1 ILE         0.0267
    126 H37        77.7870   14.2413   16.4071 H         1 ILE         0.0235
    127 H38        76.9208   14.7098   17.9094 H         1 ILE         0.0235
    128 H39        75.9919   14.2009   16.4586 H         1 ILE         0.0235
    129 H40        74.9188   12.6478   20.3324 H         1 ILE         0.0230
    130 H41        75.9109   13.9954   19.6796 H         1 ILE         0.0230
    131 H42        76.7086   12.5033   20.2830 H         1 ILE         0.0230
    132 H43        76.8168   12.1430   13.8662 H         1 VAL         0.1883
    133 H44        79.7282   12.4358   13.5017 H         1 VAL         0.0802
    134 H45        79.4254   11.9288   11.1682 H         1 VAL         0.0343
    135 H46        78.5518    9.6445   11.3723 H         1 VAL         0.0234
    136 H47        77.8388   10.0681   12.9657 H         1 VAL         0.0234
    137 H48        79.6214   10.0892   12.7451 H         1 VAL         0.0234
    138 H49        77.2798   13.0672   10.8220 H         1 VAL         0.0234
    139 H50        76.4504   11.7859   11.7690 H         1 VAL         0.0234
    140 H51        77.2510   11.3773   10.2138 H         1 VAL         0.0234
    141 H52        77.2197   14.4699   13.9963 H         1 GLY         0.1881
    142 H53        77.3342   16.3464   11.8657 H         1 GLY         0.0763
    143 H54        78.5584   16.8103   13.0958 H         1 GLY         0.0763
    144 H55        76.9086   18.7100   13.1318 H         1 ARG         0.1883
    145 H56        74.3644   17.9830   14.4350 H         1 ARG         0.0800
    146 H57        75.9803   18.4251   16.2941 H         1 ARG         0.0313
    147 H58        74.5696   19.5366   16.2587 H         1 ARG         0.0313
    148 H59        76.3435   20.9558   16.7375 H         1 ARG         0.0301
    149 H60        76.1625   21.1311   14.9590 H         1 ARG         0.0301
    150 H61        78.0344   19.7347   14.5241 H         1 ARG         0.0689
    151 H62        78.0696   19.1211   16.2120 H         1 ARG         0.0689
    152 H63        78.8501   21.8893   15.3396 H         1 ARG         0.2642
    153 H64        80.2875   19.9908   18.6283 H         1 ARG         0.2615
    154 H65        79.0253   19.1902   17.6542 H         1 ARG         0.2615
    155 H66        80.4249   22.8593   16.5694 H         1 ARG         0.2615
    156 H67        81.0757   22.0433   18.0163 H         1 ARG         0.2615
    157 H68        73.0971   20.1129   14.8731 H         1 ILE         0.1883
    158 H69        73.5344   22.0085   12.6254 H         1 ILE         0.0803
    159 H70        71.0191   20.4005   13.1976 H         1 ILE         0.0345
    160 H71        72.7519   19.5221   11.6288 H         1 ILE         0.0267
    161 H72        72.5395   20.9960   10.6242 H         1 ILE         0.0267
    162 H73        70.3926   22.7946   13.0901 H         1 ILE         0.0235
    163 H74        69.7972   21.8833   11.6612 H         1 ILE         0.0235
    164 H75        71.2404   22.9426   11.5134 H         1 ILE         0.0235
    165 H76        71.2779   19.1005    9.7160 H         1 ILE         0.0230
    166 H77        70.1789   20.4109   10.2651 H         1 ILE         0.0230
    167 H78        70.3914   18.9371   11.2697 H         1 ILE         0.0230
    168 H79        73.2318   24.0310   13.1721 H         1 ILE         0.1883
    169 H80        72.4182   24.5672   15.9857 H         1 ILE         0.0803
    170 H81        74.0879   26.3167   14.1146 H         1 ILE         0.0345
    171 H82        76.0767   25.4307   14.9157 H         1 ILE         0.0267
    172 H83        75.0427   23.9871   14.6447 H         1 ILE         0.0267
    173 H84        72.9709   27.4903   15.9764 H         1 ILE         0.0235
    174 H85        74.7603   27.5029   16.1327 H         1 ILE         0.0235
    175 H86        73.7782   26.3897   17.1441 H         1 ILE         0.0235
    176 H87        76.3042   23.8102   16.7263 H         1 ILE         0.0230
    177 H88        74.5378   23.8990   17.0398 H         1 ILE         0.0230
    178 H89        75.5718   25.3426   17.3109 H         1 ILE         0.0230
    179 H90        70.6399   25.6668   16.3245 H         1 LEU         0.1883
    180 H91        69.2383   26.8445   13.9997 H         1 LEU         0.0800
    181 H92        67.2757   26.9239   15.5251 H         1 LEU         0.0315
    182 H93        68.2958   26.2347   16.8333 H         1 LEU         0.0315
    183 H94        68.6413   24.1943   15.5104 H         1 LEU         0.0298
    184 H95        66.3246   23.3398   15.5926 H         1 LEU         0.0232
    185 H96        65.7088   25.0225   15.7188 H         1 LEU         0.0232
    186 H97        66.7147   24.3329   17.0377 H         1 LEU         0.0232
    187 H98        68.5731   25.2782   13.2983 H         1 LEU         0.0232
    188 H99        66.8118   25.5711   13.4943 H         1 LEU         0.0232
    189 H100       67.4360   23.8904   13.3850 H         1 LEU         0.0232
    190 H101       68.5189   28.9049   13.8879 H         1 SER         0.1876
    191 H102       69.1342   30.7685   16.1094 H         1 SER         0.0749
    192 H103       70.1509   30.9611   13.2418 H         1 SER         0.0599
    193 H104       71.1035   30.9686   14.7647 H         1 SER         0.0599
    194 H105       70.8294   33.0629   13.8665 H         1 SER         0.2096
@<TRIPOS>BOND
     1    1    2 1  
     2    2    3 1  
     3    3    4 2  
     4    3    5 am 
     5    5    6 1  
     6    6    7 1  
     7    7    8 2  
     8    7    9 am 
     9    9   10 1  
    10   10   11 1  
    11   10   13 1  
    12   11   12 2  
    13   11   15 am 
    14   13   14 1  
    15   15   16 1  
    16   16   17 1  
    17   16   19 1  
    18   17   18 2  
    19   17   22 am 
    20   19   20 1  
    21   19   21 1  
    22   22   23 1  
    23   23   24 1  
    24   23   26 1  
    25   24   25 2  
    26   24   29 am 
    27   26   27 1  
    28   26   28 1  
    29   29   30 1  
    30   30   31 1  
    31   30   33 1  
    32   31   32 2  
    33   31   37 am 
    34   33   34 1  
    35   33   35 1  
    36   34   36 1  
    37   37   38 1  
    38   38   39 1  
    39   38   41 1  
    40   39   40 2  
    41   39   44 am 
    42   41   42 1  
    43   41   43 1  
    44   44   45 1  
    45   45   46 1  
    46   46   47 2  
    47   46   48 am 
    48   48   49 1  
    49   49   50 1  
    50   49   52 1  
    51   50   51 2  
    52   50   59 am 
    53   52   53 1  
    54   53   54 1  
    55   54   55 1  
    56   55   56 ar 
    57   56   57 ar 
    58   56   58 ar 
    59   59   60 1  
    60   60   61 1  
    61   60   63 1  
    62   61   62 2  
    63   61   67 am 
    64   63   64 1  
    65   63   65 1  
    66   64   66 1  
    67   67   68 1  
    68   68   69 1  
    69   68   71 1  
    70   69   70 2  
    71   69   75 am 
    72   71   72 1  
    73   71   73 1  
    74   72   74 1  
    75   75   76 1  
    76   76   77 1  
    77   76   79 1  
    78   77   78 2  
    79   77   83 am 
    80   79   80 1  
    81   80   81 1  
    82   80   82 1  
    83   83   84 1  
    84   84   85 1  
    85   84   87 1  
    86   85   86 ar 
    87   87   88 1  
    88   85   89 ar 
    89    1   90 1  
    90    1   91 1  
    91    1   92 1  
    92    2   93 1  
    93    2   94 1  
    94    5   95 1  
    95    6   96 1  
    96    6   97 1  
    97    9   98 1  
    98   10   99 1  
    99   13  100 1  
   100   13  101 1  
   101   14  102 1  
   102   15  103 1  
   103   16  104 1  
   104   19  105 1  
   105   20  106 1  
   106   20  107 1  
   107   20  108 1  
   108   21  109 1  
   109   21  110 1  
   110   21  111 1  
   111   22  112 1  
   112   23  113 1  
   113   26  114 1  
   114   27  115 1  
   115   27  116 1  
   116   27  117 1  
   117   28  118 1  
   118   28  119 1  
   119   28  120 1  
   120   29  121 1  
   121   30  122 1  
   122   33  123 1  
   123   34  124 1  
   124   34  125 1  
   125   35  126 1  
   126   35  127 1  
   127   35  128 1  
   128   36  129 1  
   129   36  130 1  
   130   36  131 1  
   131   37  132 1  
   132   38  133 1  
   133   41  134 1  
   134   42  135 1  
   135   42  136 1  
   136   42  137 1  
   137   43  138 1  
   138   43  139 1  
   139   43  140 1  
   140   44  141 1  
   141   45  142 1  
   142   45  143 1  
   143   48  144 1  
   144   49  145 1  
   145   52  146 1  
   146   52  147 1  
   147   53  148 1  
   148   53  149 1  
   149   54  150 1  
   150   54  151 1  
   151   55  152 1  
   152   57  153 1  
   153   57  154 1  
   154   58  155 1  
   155   58  156 1  
   156   59  157 1  
   157   60  158 1  
   158   63  159 1  
   159   64  160 1  
   160   64  161 1  
   161   65  162 1  
   162   65  163 1  
   163   65  164 1  
   164   66  165 1  
   165   66  166 1  
   166   66  167 1  
   167   67  168 1  
   168   68  169 1  
   169   71  170 1  
   170   72  171 1  
   171   72  172 1  
   172   73  173 1  
   173   73  174 1  
   174   73  175 1  
   175   74  176 1  
   176   74  177 1  
   177   74  178 1  
   178   75  179 1  
   179   76  180 1  
   180   79  181 1  
   181   79  182 1  
   182   80  183 1  
   183   81  184 1  
   184   81  185 1  
   185   81  186 1  
   186   82  187 1  
   187   82  188 1  
   188   82  189 1  
   189   83  190 1  
   190   84  191 1  
   191   87  192 1  
   192   87  193 1  
   193   88  194 1  
@<TRIPOS>SUBSTRUCTURE
     1 LYS         1

