4i32_ligand
  -I-interpret- 

194193  0  0  0  0  0  0  0  0999 V2000
   76.3360   -3.7770   13.9460 N   0  3  0  0  0
   75.5140   -3.7460   15.1440 C   0  0  0  0  0
   76.1680   -3.0380   16.3210 C   0  0  0  0  0
   76.1190   -3.5240   17.4540 O   0  0  0  0  0
   76.7770   -1.8850   16.0600 N   0  0  0  0  0
   77.4020   -1.0930   17.1100 C   0  0  0  0  0
   76.5370    0.0240   17.6940 C   0  0  0  0  0
   75.3170   -0.1040   17.7940 O   0  0  0  0  0
   77.1880    1.1080   18.1140 N   0  0  0  0  0
   76.5060    2.2740   18.6550 C   0  0  0  0  0
   76.1120    3.2310   17.5420 C   0  0  0  0  0
   76.8190    3.3610   16.5430 O   0  0  0  0  0
   77.4100    3.0360   19.6290 C   0  0  0  0  0
   77.6540    2.3300   20.8260 O   0  0  0  0  0
   74.9740    3.8940   17.7110 N   0  0  0  0  0
   74.7140    5.1180   16.9630 C   0  0  0  0  0
   75.7870    6.1550   17.3150 C   0  0  0  0  0
   76.1910    6.2730   18.4780 O   0  0  0  0  0
   73.3510    5.7100   17.2990 C   0  0  0  0  0
   73.1110    6.9850   16.4730 C   0  0  0  0  0
   72.2610    4.6790   17.0560 C   0  0  0  0  0
   76.2440    6.8930   16.3060 N   0  0  0  0  0
   77.3360    7.8460   16.4630 C   0  0  0  0  0
   76.8930    9.2270   15.9900 C   0  0  0  0  0
   76.2560    9.3460   14.9330 O   0  0  0  0  0
   78.5560    7.4270   15.6200 C   0  0  0  0  0
   79.6400    8.4820   15.7020 C   0  0  0  0  0
   79.0920    6.0690   16.0730 C   0  0  0  0  0
   77.2160   10.2620   16.7650 N   0  0  0  0  0
   76.9880   11.6320   16.3210 C   0  0  0  0  0
   78.1240   12.0280   15.3880 C   0  0  0  0  0
   79.2840   12.0990   15.8050 O   0  0  0  0  0
   76.9570   12.5980   17.5150 C   0  0  0  0  0
   75.7390   12.3040   18.3980 C   0  0  0  0  0
   76.9110   14.0360   17.0400 C   0  0  0  0  0
   75.8250   12.9020   19.7630 C   0  0  0  0  0
   77.7790   12.2440   14.1190 N   0  0  0  0  0
   78.7280   12.6190   13.0820 C   0  0  0  0  0
   78.6960   14.0990   12.6730 C   0  0  0  0  0
   79.4620   14.5300   11.8020 O   0  0  0  0  0
   78.5860   11.7210   11.8480 C   0  0  0  0  0
   78.6540   10.2860   12.2600 C   0  0  0  0  0
   77.3060   12.0070   11.1140 C   0  0  0  0  0
   77.7930   14.8660   13.2790 N   0  0  0  0  0
   77.6190   16.2640   12.9250 C   0  0  0  0  0
   76.5250   16.8440   13.7950 C   0  0  0  0  0
   75.9110   16.1270   14.5870 O   0  0  0  0  0
   76.2920   18.1430   13.6780 N   0  0  0  0  0
   75.1440   18.7530   14.3390 C   0  0  0  0  0
   74.5770   19.9010   13.5260 C   0  0  0  0  0
   75.1280   20.2940   12.4970 O   0  0  0  0  0
   75.5010   19.2510   15.7480 C   0  0  0  0  0
   76.4380   20.4410   15.7700 C   0  0  0  0  0
   77.8790   20.0010   15.5800 C   0  0  0  0  0
   78.8160   21.0560   15.9440 N   0  0  0  0  0
   79.6300   21.0280   16.9940 C   0  0  0  0  0
   79.6490   19.9930   17.8200 N   0  0  0  0  0
   80.4360   22.0520   17.2090 N   0  0  0  0  0
   73.4810   20.4590   14.0170 N   0  0  0  0  0
   72.8240   21.5640   13.3380 C   0  0  0  0  0
   72.4350   22.6220   14.3570 C   0  0  0  0  0
   71.8220   22.3230   15.3860 O   0  0  0  0  0
   71.5960   21.0800   12.5530 C   0  0  0  0  0
   72.0410   20.3010   11.3160 C   0  0  0  0  0
   70.6930   22.2580   12.1780 C   0  0  0  0  0
   70.8950   19.6430   10.5930 C   0  0  0  0  0
   72.8170   23.8560   14.0650 N   0  0  0  0  0
   72.6580   24.9660   14.9890 C   0  0  0  0  0
   71.5240   25.8760   14.5260 C   0  0  0  0  0
   71.5210   26.3940   13.3910 O   0  0  0  0  0
   73.9630   25.7970   15.0760 C   0  0  0  0  0
   75.1850   24.8870   15.2610 C   0  0  0  0  0
   73.8610   26.8700   16.1580 C   0  0  0  0  0
   75.4150   24.4560   16.6790 C   0  0  0  0  0
   70.5570   26.0720   15.4140 N   0  0  0  0  0
   69.3750   26.8660   15.0910 C   0  0  0  0  0
   69.5300   28.3090   15.5210 C   0  0  0  0  0
   70.1310   28.5920   16.5480 O   0  0  0  0  0
   68.1330   26.2710   15.7460 C   0  0  0  0  0
   67.8070   24.8660   15.2600 C   0  0  0  0  0
   66.5520   24.3550   15.9500 C   0  0  0  0  0
   67.6460   24.9040   13.7570 C   0  0  0  0  0
   68.9710   29.2130   14.7250 N   0  0  0  0  0
   68.9930   30.6330   15.0270 C   0  0  0  0  0
   67.6580   31.2680   14.6220 C   0  0  0  0  0
   67.0968   32.1383   15.3398 O   0  0  0  0  0
   70.1630   31.2880   14.2920 C   0  0  0  0  0
   70.0880   32.6940   14.3320 O   0  0  0  0  0
   67.1087   30.9111   13.5457 O   0  0  0  0  0
   75.8346   -4.2648   13.2036 H   0  0  0  0  0
   76.5396   -2.8224   13.6500 H   0  0  0  0  0
   77.2087   -4.2656   14.1464 H   0  0  0  0  0
   75.3382   -4.7791   15.4437 H   0  0  0  0  0
   74.6047   -3.1969   14.8995 H   0  0  0  0  0
   76.8071   -1.5463   15.0984 H   0  0  0  0  0
   78.2701   -0.6109   16.6604 H   0  0  0  0  0
   77.6185   -1.7787   17.9291 H   0  0  0  0  0
   78.2061    1.1210   18.0538 H   0  0  0  0  0
   75.6187    1.9124   19.1747 H   0  0  0  0  0
   76.9054    3.9662   19.8903 H   0  0  0  0  0
   78.3693    3.1934   19.1361 H   0  0  0  0  0
   78.2233    2.8536   21.3946 H   0  0  0  0  0
   74.2770    3.5445   18.3686 H   0  0  0  0  0
   74.7321    4.8697   15.9018 H   0  0  0  0  0
   73.3263    5.9835   18.3538 H   0  0  0  0  0
   73.8860    7.7163   16.7025 H   0  0  0  0  0
   73.1437    6.7401   15.4114 H   0  0  0  0  0
   72.1338    7.3990   16.7218 H   0  0  0  0  0
   72.2735    4.3790   16.0082 H   0  0  0  0  0
   72.4393    3.8081   17.6867 H   0  0  0  0  0
   71.2913    5.1131   17.2994 H   0  0  0  0  0
   75.8135    6.7877   15.3873 H   0  0  0  0  0
   77.6070    7.8682   17.5185 H   0  0  0  0  0
   78.2383    7.3345   14.5814 H   0  0  0  0  0
   79.2536    9.4283   15.3235 H   0  0  0  0  0
   79.9492    8.6035   16.7401 H   0  0  0  0  0
   80.4945    8.1706   15.1011 H   0  0  0  0  0
   79.3922    6.1289   17.1191 H   0  0  0  0  0
   78.3121    5.3159   15.9600 H   0  0  0  0  0
   79.9526    5.7972   15.4617 H   0  0  0  0  0
   77.6288   10.0933   17.6823 H   0  0  0  0  0
   76.0267   11.6872   15.8101 H   0  0  0  0  0
   77.8671   12.4527   18.0971 H   0  0  0  0  0
   75.6801   11.2225   18.5204 H   0  0  0  0  0
   74.8690   12.7398   17.9068 H   0  0  0  0  0
   77.7951   14.2470   16.4384 H   0  0  0  0  0
   76.0153   14.1901   16.4383 H   0  0  0  0  0
   76.8896   14.7018   17.9028 H   0  0  0  0  0
   76.7009   12.5062   20.2771 H   0  0  0  0  0
   75.9101   13.9854   19.6789 H   0  0  0  0  0
   74.9266   12.6495   20.3262 H   0  0  0  0  0
   76.7975   12.1409   13.8611 H   0  0  0  0  0
   79.7053   12.4658   13.5397 H   0  0  0  0  0
   79.4086   11.9331   11.1650 H   0  0  0  0  0
   79.6130   10.0924   12.7406 H   0  0  0  0  0
   77.8458   10.0714   12.9592 H   0  0  0  0  0
   78.5526    9.6514   11.3796 H   0  0  0  0  0
   76.4601   11.8253   11.7770 H   0  0  0  0  0
   77.2988   13.0479   10.7907 H   0  0  0  0  0
   77.2340   11.3545   10.2439 H   0  0  0  0  0
   77.2082   14.4620   14.0106 H   0  0  0  0  0
   77.3453   16.3514   11.8735 H   0  0  0  0  0
   78.5501   16.8079   13.0842 H   0  0  0  0  0
   76.9209   18.7214   13.1209 H   0  0  0  0  0
   74.3857   17.9746   14.4238 H   0  0  0  0  0
   76.0097   18.4329   16.2579 H   0  0  0  0  0
   74.5713   19.5661   16.2218 H   0  0  0  0  0
   76.3484   20.9394   16.7352 H   0  0  0  0  0
   76.1675   21.1147   14.9570 H   0  0  0  0  0
   78.0280   19.7566   14.5283 H   0  0  0  0  0
   78.0634   19.1405   16.2231 H   0  0  0  0  0
   78.8497   21.8812   15.3455 H   0  0  0  0  0
   80.2842   19.9890   18.6181 H   0  0  0  0  0
   79.0284   19.1999   17.6581 H   0  0  0  0  0
   80.4279   22.8496   16.5733 H   0  0  0  0  0
   73.0894   20.1060   14.8902 H   0  0  0  0  0
   73.5174   21.9993   12.6184 H   0  0  0  0  0
   71.0128   20.4108   13.1855 H   0  0  0  0  0
   72.7218   19.5157   11.6445 H   0  0  0  0  0
   72.5069   21.0067   10.6283 H   0  0  0  0  0
   70.3561   22.7592   13.0854 H   0  0  0  0  0
   71.2521   22.9603   11.5597 H   0  0  0  0  0
   69.8301   21.8903   11.6228 H   0  0  0  0  0
   70.3968   18.9438   11.2646 H   0  0  0  0  0
   70.1862   20.4049   10.2687 H   0  0  0  0  0
   71.2756   19.1058    9.7243 H   0  0  0  0  0
   73.2401   24.0345   13.1542 H   0  0  0  0  0
   72.4260   24.5557   15.9718 H   0  0  0  0  0
   74.1011   26.3195   14.1294 H   0  0  0  0  0
   76.0615   25.4551   14.9494 H   0  0  0  0  0
   75.0092   23.9859   14.6735 H   0  0  0  0  0
   73.0345   27.5414   15.9253 H   0  0  0  0  0
   73.6845   26.3953   17.1232 H   0  0  0  0  0
   74.7915   27.4364   16.1950 H   0  0  0  0  0
   75.5702   25.3354   17.3041 H   0  0  0  0  0
   74.5451   23.9043   17.0353 H   0  0  0  0  0
   76.2963   23.8162   16.7245 H   0  0  0  0  0
   70.6416   25.6587   16.3427 H   0  0  0  0  0
   69.2619   26.8436   14.0071 H   0  0  0  0  0
   67.2885   26.9110   15.4906 H   0  0  0  0  0
   68.3233   26.2119   16.8176 H   0  0  0  0  0
   68.6144   24.1772   15.5086 H   0  0  0  0  0
   66.7145   24.3336   17.0276 H   0  0  0  0  0
   65.7173   25.0173   15.7202 H   0  0  0  0  0
   66.3278   23.3491   15.5951 H   0  0  0  0  0
   66.8363   25.5857   13.4967 H   0  0  0  0  0
   68.5742   25.2498   13.3021 H   0  0  0  0  0
   67.4119   23.9038   13.3926 H   0  0  0  0  0
   68.5098   28.8987   13.8712 H   0  0  0  0  0
   69.1289   30.7851   16.0977 H   0  0  0  0  0
   67.6326   32.3026   16.1192 H   0  0  0  0  0
   70.1301   30.9737   13.2488 H   0  0  0  0  0
   71.0880   30.9812   14.7803 H   0  0  0  0  0
   70.8372   33.0668   13.8616 H   0  0  0  0  0
  1  2  1  0  0  0
  2  3  1  0  0  0
  3  4  2  0  0  0
  3  5  1  0  0  0
  5  6  1  0  0  0
  6  7  1  0  0  0
  7  8  2  0  0  0
  7  9  1  0  0  0
  9 10  1  0  0  0
 10 11  1  0  0  0
 10 13  1  0  0  0
 11 12  2  0  0  0
 11 15  1  0  0  0
 13 14  1  0  0  0
 15 16  1  0  0  0
 16 17  1  0  0  0
 16 19  1  0  0  0
 17 18  2  0  0  0
 17 22  1  0  0  0
 19 20  1  0  0  0
 19 21  1  0  0  0
 22 23  1  0  0  0
 23 24  1  0  0  0
 23 26  1  0  0  0
 24 25  2  0  0  0
 24 29  1  0  0  0
 26 27  1  0  0  0
 26 28  1  0  0  0
 29 30  1  0  0  0
 30 31  1  0  0  0
 30 33  1  0  0  0
 31 32  2  0  0  0
 31 37  1  0  0  0
 33 34  1  0  0  0
 33 35  1  0  0  0
 34 36  1  0  0  0
 37 38  1  0  0  0
 38 39  1  0  0  0
 38 41  1  0  0  0
 39 40  2  0  0  0
 39 44  1  0  0  0
 41 42  1  0  0  0
 41 43  1  0  0  0
 44 45  1  0  0  0
 45 46  1  0  0  0
 46 47  2  0  0  0
 46 48  1  0  0  0
 48 49  1  0  0  0
 49 50  1  0  0  0
 49 52  1  0  0  0
 50 51  2  0  0  0
 50 59  1  0  0  0
 52 53  1  0  0  0
 53 54  1  0  0  0
 54 55  1  0  0  0
 55 56  1  0  0  0
 56 57  1  0  0  0
 56 58  2  0  0  0
 59 60  1  0  0  0
 60 61  1  0  0  0
 60 63  1  0  0  0
 61 62  2  0  0  0
 61 67  1  0  0  0
 63 64  1  0  0  0
 63 65  1  0  0  0
 64 66  1  0  0  0
 67 68  1  0  0  0
 68 69  1  0  0  0
 68 71  1  0  0  0
 69 70  2  0  0  0
 69 75  1  0  0  0
 71 72  1  0  0  0
 71 73  1  0  0  0
 72 74  1  0  0  0
 75 76  1  0  0  0
 76 77  1  0  0  0
 76 79  1  0  0  0
 77 78  2  0  0  0
 77 83  1  0  0  0
 79 80  1  0  0  0
 80 81  1  0  0  0
 80 82  1  0  0  0
 83 84  1  0  0  0
 84 85  1  0  0  0
 84 87  1  0  0  0
 85 86  1  0  0  0
 87 88  1  0  0  0
 85 89  2  0  0  0
  1 90  1  0  0  0
  1 91  1  0  0  0
  1 92  1  0  0  0
  2 93  1  0  0  0
  2 94  1  0  0  0
  5 95  1  0  0  0
  6 96  1  0  0  0
  6 97  1  0  0  0
  9 98  1  0  0  0
 10 99  1  0  0  0
 13100  1  0  0  0
 13101  1  0  0  0
 14102  1  0  0  0
 15103  1  0  0  0
 16104  1  0  0  0
 19105  1  0  0  0
 20106  1  0  0  0
 20107  1  0  0  0
 20108  1  0  0  0
 21109  1  0  0  0
 21110  1  0  0  0
 21111  1  0  0  0
 22112  1  0  0  0
 23113  1  0  0  0
 26114  1  0  0  0
 27115  1  0  0  0
 27116  1  0  0  0
 27117  1  0  0  0
 28118  1  0  0  0
 28119  1  0  0  0
 28120  1  0  0  0
 29121  1  0  0  0
 30122  1  0  0  0
 33123  1  0  0  0
 34124  1  0  0  0
 34125  1  0  0  0
 35126  1  0  0  0
 35127  1  0  0  0
 35128  1  0  0  0
 36129  1  0  0  0
 36130  1  0  0  0
 36131  1  0  0  0
 37132  1  0  0  0
 38133  1  0  0  0
 41134  1  0  0  0
 42135  1  0  0  0
 42136  1  0  0  0
 42137  1  0  0  0
 43138  1  0  0  0
 43139  1  0  0  0
 43140  1  0  0  0
 44141  1  0  0  0
 45142  1  0  0  0
 45143  1  0  0  0
 48144  1  0  0  0
 49145  1  0  0  0
 52146  1  0  0  0
 52147  1  0  0  0
 53148  1  0  0  0
 53149  1  0  0  0
 54150  1  0  0  0
 54151  1  0  0  0
 55152  1  0  0  0
 57153  1  0  0  0
 57154  1  0  0  0
 58155  1  0  0  0
 59156  1  0  0  0
 60157  1  0  0  0
 63158  1  0  0  0
 64159  1  0  0  0
 64160  1  0  0  0
 65161  1  0  0  0
 65162  1  0  0  0
 65163  1  0  0  0
 66164  1  0  0  0
 66165  1  0  0  0
 66166  1  0  0  0
 67167  1  0  0  0
 68168  1  0  0  0
 71169  1  0  0  0
 72170  1  0  0  0
 72171  1  0  0  0
 73172  1  0  0  0
 73173  1  0  0  0
 73174  1  0  0  0
 74175  1  0  0  0
 74176  1  0  0  0
 74177  1  0  0  0
 75178  1  0  0  0
 76179  1  0  0  0
 79180  1  0  0  0
 79181  1  0  0  0
 80182  1  0  0  0
 81183  1  0  0  0
 81184  1  0  0  0
 81185  1  0  0  0
 82186  1  0  0  0
 82187  1  0  0  0
 82188  1  0  0  0
 83189  1  0  0  0
 84190  1  0  0  0
 86191  1  0  0  0
 87192  1  0  0  0
 87193  1  0  0  0
 88194  1  0  0  0
M  END
$$$$
