5a00_ligand
  -I-interpret- 

 53 56  0  0  0  0  0  0  0  0999 V2000
   20.1850   11.3340   75.8630 C   0  0  0  0  0
   19.3970   10.0370   76.1260 C   0  0  0  0  0
   17.9160   10.2220   75.7380 C   0  0  0  0  0
   17.2440    9.1970   76.1800 F   0  0  0  0  0
   17.8450   10.3630   74.3550 F   0  0  0  0  0
   17.2840   11.4470   76.4210 C   0  0  0  0  0
   18.0790   12.6960   76.0770 C   0  0  0  0  0
   19.5010   12.4900   76.6140 C   0  0  0  0  0
   20.3040   13.7220   76.6470 N   0  3  0  0  0
   20.8430   14.1880   75.3600 C   0  0  0  0  0
   21.9000   15.2440   75.6410 C   0  0  0  0  0
   19.5570   14.8090   77.2960 C   0  0  0  0  0
   20.4940   15.9330   77.6810 C   0  0  0  0  0
   21.3100   16.4100   76.4710 C   0  0  0  0  0
   22.3850   17.3330   76.9290 N   0  0  0  0  0
   23.1810   17.2470   78.1550 C   0  0  0  0  0
   22.8300   18.3990   76.2770 C   0  0  0  0  0
   22.3380   18.7640   75.2110 O   0  0  0  0  0
   23.7860   19.0600   76.9520 C   0  0  0  0  0
   23.9980   18.3680   78.1040 C   0  0  0  0  0
   24.8830   18.7700   79.0160 C   0  0  0  0  0
   25.6220   19.9190   78.7980 C   0  0  0  0  0
   26.4660   20.3110   79.6440 F   0  0  0  0  0
   25.4200   20.6370   77.6320 C   0  0  0  0  0
   24.4820   20.2060   76.6960 C   0  0  0  0  0
   24.3770   21.0190   75.5450 C   0  0  0  0  0
   25.3110   21.7480   75.2190 O   0  0  0  0  0
   23.2520   20.9880   74.8430 N   0  0  0  0  0
   20.2014   11.5462   74.7940 H   0  0  0  0  0
   21.2107   11.2209   76.2140 H   0  0  0  0  0
   19.4590    9.7919   77.1863 H   0  0  0  0  0
   19.8242    9.2334   75.5261 H   0  0  0  0  0
   17.2917   11.3012   77.5012 H   0  0  0  0  0
   16.2583   11.5651   76.0715 H   0  0  0  0  0
   17.6226   13.5778   76.5268 H   0  0  0  0  0
   18.0950   12.8563   74.9990 H   0  0  0  0  0
   19.4195   12.2062   77.6632 H   0  0  0  0  0
   21.1258   13.4606   77.1917 H   0  0  0  0  0
   20.0442   14.6107   74.7506 H   0  0  0  0  0
   21.2833   13.3535   74.8143 H   0  0  0  0  0
   22.2624   15.6382   74.6916 H   0  0  0  0  0
   22.7108   14.7860   76.2075 H   0  0  0  0  0
   19.0759   14.4231   78.1947 H   0  0  0  0  0
   18.8092   15.1913   76.6012 H   0  0  0  0  0
   21.1817   15.5684   78.4441 H   0  0  0  0  0
   19.9020   16.7687   78.0543 H   0  0  0  0  0
   20.6290   16.9390   75.8044 H   0  0  0  0  0
   23.7531   16.3210   78.2121 H   0  0  0  0  0
   22.5599   17.2287   79.0505 H   0  0  0  0  0
   25.0241   18.1950   79.9312 H   0  0  0  0  0
   25.9968   21.5429   77.4453 H   0  0  0  0  0
   23.1506   21.5763   74.0159 H   0  0  0  0  0
   22.4883   20.3759   75.1303 H   0  0  0  0  0
  1  2  1  0  0  0
  1  8  1  0  0  0
  2  3  1  0  0  0
  3  4  1  0  0  0
  3  5  1  0  0  0
  3  6  1  0  0  0
  6  7  1  0  0  0
  7  8  1  0  0  0
  8  9  1  0  0  0
  9 10  1  0  0  0
  9 12  1  0  0  0
 10 11  1  0  0  0
 11 14  1  0  0  0
 12 13  1  0  0  0
 13 14  1  0  0  0
 14 15  1  0  0  0
 15 16  1  0  0  0
 15 17  1  0  0  0
 16 20  1  0  0  0
 17 18  2  0  0  0
 17 19  1  0  0  0
 19 20  4  0  0  0
 19 25  4  0  0  0
 20 21  4  0  0  0
 21 22  4  0  0  0
 22 23  1  0  0  0
 22 24  4  0  0  0
 24 25  4  0  0  0
 25 26  1  0  0  0
 26 27  2  0  0  0
 26 28  1  0  0  0
  1 29  1  0  0  0
  1 30  1  0  0  0
  2 31  1  0  0  0
  2 32  1  0  0  0
  6 33  1  0  0  0
  6 34  1  0  0  0
  7 35  1  0  0  0
  7 36  1  0  0  0
  8 37  1  0  0  0
  9 38  1  0  0  0
 10 39  1  0  0  0
 10 40  1  0  0  0
 11 41  1  0  0  0
 11 42  1  0  0  0
 12 43  1  0  0  0
 12 44  1  0  0  0
 13 45  1  0  0  0
 13 46  1  0  0  0
 14 47  1  0  0  0
 16 48  1  0  0  0
 16 49  1  0  0  0
 21 50  1  0  0  0
 24 51  1  0  0  0
 28 52  1  0  0  0
 28 53  1  0  0  0
M  END
$$$$
