### 
### Created by X-TOOL on Mon Sep 10 21:13:33 2018
### 

@<TRIPOS>MOLECULE
5n8t_ligand
  165   169     1     0     0
SMALL
GAST_HUCK


@<TRIPOS>ATOM
      1 N          -2.5860   17.1880   13.5500 N.4       1 DLE         0.2379
      2 CA         -2.3310   15.8720   12.8710 C.3       1 DLE         0.0652
      3 CB         -3.0070   14.7150   13.6210 C.3       1 DLE         0.0102
      4 CG         -4.5250   14.4900   13.4490 C.3       1 DLE        -0.0394
      5 CD1        -5.2810   15.4830   12.5660 C.3       1 DLE        -0.0623
      6 CD2        -4.8140   13.0680   12.9580 C.3       1 DLE        -0.0623
      7 C          -0.8530   15.5770   12.8240 C.2       1 DLE         0.2268
      8 O          -0.2030   15.4170   13.8730 O.2       1 DLE        -0.3907
      9 N          -0.2970   15.4550   11.6190 N.am      1 DTR        -0.2600
     10 CA          1.1040   15.0050   11.4700 C.3       1 DTR         0.1353
     11 CB          1.5740   15.0240   10.0130 C.3       1 DTR         0.0042
     12 CG          0.9530   14.0270    9.0630 C.2       1 DTR        -0.0418
     13 CD1        -0.0050   14.3160    8.0770 C.2       1 DTR         0.0167
     14 NE1        -0.3090   13.1720    7.3690 N.pl3     1 DTR        -0.2890
     15 CE2         0.3880   12.1060    7.8380 C.ar      1 DTR         0.0603
     16 CZ2         0.4280   10.7580    7.5160 C.ar      1 DTR        -0.0443
     17 CH2         1.2750    9.8640    8.1870 C.ar      1 DTR        -0.0768
     18 CZ3         2.0940   10.3220    9.2080 C.ar      1 DTR        -0.0792
     19 CE3         2.0790   11.6620    9.6050 C.ar      1 DTR        -0.0747
     20 CD2         1.2350   12.5730    8.9480 C.ar      1 DTR        -0.0214
     21 C           1.3440   13.6410   12.0940 C.2       1 DTR         0.2052
     22 O           2.4490   13.3610   12.5690 O.2       1 DTR        -0.3942
     23 N           0.3020   12.8090   12.1570 N.am      1 DGN        -0.2635
     24 CA          0.4240   11.4330   12.6520 C.3       1 DGN         0.1330
     25 C           0.6210   11.4220   14.1650 C.2       1 DGN         0.2041
     26 O           1.2230   10.4790   14.6940 O.2       1 DGN        -0.3944
     27 CB         -0.6890   10.4710   12.2130 C.3       1 DGN         0.0045
     28 CG         -2.0380   10.9860   11.7180 C.3       1 DGN         0.0412
     29 CD         -2.1310   11.5570   10.3180 C.2       1 DGN         0.1737
     30 OE1        -2.1890   10.8720    9.2900 O.2       1 DGN        -0.3973
     31 NE2        -2.2490   12.8720   10.2800 N.am      1 DGN        -0.3009
     32 N           0.1210   12.4430   14.8720 N.am      1 DHI        -0.2625
     33 CA          0.3900   12.5870   16.3220 C.3       1 DHI         0.1369
     34 C           1.8520   12.8920   16.5760 C.2       1 DHI         0.2054
     35 O           2.4140   12.4160   17.5600 O.2       1 DHI        -0.3942
     36 CB         -0.5160   13.6240   17.0050 C.3       1 DHI         0.0145
     37 CG         -1.9860   13.2190   17.0070 C.2       1 DHI        -0.0027
     38 ND1        -3.0040   14.0000   17.4230 N.2       1 DHI        -0.3252
     39 CD2        -2.5620   12.0160   16.5990 C.2       1 DHI         0.0291
     40 CE1        -4.1750   13.3230   17.2910 C.2       1 DHI         0.0907
     41 NE2        -3.9000   12.1010   16.7780 N.pl3     1 DHI        -0.2752
     42 N           2.4950   13.6580   15.6930 N.am      1 DGL        -0.2635
     43 CA          3.9480   13.8620   15.7870 C.3       1 DGL         0.1325
     44 C           4.6780   12.5910   15.4330 C.2       1 DGL         0.2040
     45 O           5.6720   12.2490   16.0830 O.2       1 DGL        -0.3944
     46 CB          4.4830   14.9710   14.8790 C.3       1 DGL        -0.0008
     47 CG          3.8970   16.3500   15.1830 C.3       1 DGL         0.0044
     48 CD          4.2120   16.8330   16.5700 C.2       1 DGL         0.0350
     49 OE1         5.3520   16.6430   17.0450 O.co2     1 DGL        -0.5690
     50 OE2         3.3070   17.4230   17.1970 O.co2     1 DGL        -0.5690
     51 N           4.1920   11.8880   14.4130 N.am      1 DLE        -0.2640
     52 CA          4.8110   10.6300   13.9510 C.3       1 DLE         0.1282
     53 CB          4.1940   10.1910   12.6280 C.3       1 DLE        -0.0244
     54 C           4.7130    9.4620   14.9090 C.2       1 DLE         0.2037
     55 O           5.3950    8.4510   14.6930 O.2       1 DLE        -0.3944
     56 N           3.8830    9.5720   15.9560 N.am      1 DTH        -0.2613
     57 CA          3.7780    8.5350   16.9990 C.3       1 DTH         0.1565
     58 CB          2.4040    7.8690   16.8850 C.3       1 DTH         0.0924
     59 CG2         2.2740    7.1480   15.5420 C.3       1 DTH        -0.0346
     60 OG1         1.3560    8.8430   17.0030 O.3       1 DTH        -0.3874
     61 C           4.0160    9.1180   18.3720 C.2       1 DTH         0.2066
     62 O           3.6010    8.5360   19.3620 O.2       1 DTH        -0.3943
     63 N           4.7330   10.2440   18.4300 N.am      1 DTR        -0.2626
     64 CA          5.0430   10.9480   19.6830 C.3       1 DTR         0.1351
     65 CB          5.8310   12.2300   19.3730 C.3       1 DTR         0.0042
     66 CG          6.2010   12.9720   20.6430 C.2       1 DTR        -0.0418
     67 CD1         5.4110   13.8950   21.3190 C.2       1 DTR         0.0167
     68 NE1         6.0570   14.3650   22.4280 N.pl3     1 DTR        -0.2890
     69 CE2         7.2730   13.8080   22.5690 C.ar      1 DTR         0.0603
     70 CZ2         8.3050   13.9350   23.5040 C.ar      1 DTR        -0.0443
     71 CH2         9.4790   13.1870   23.3510 C.ar      1 DTR        -0.0768
     72 CZ3         9.6410   12.3010   22.2730 C.ar      1 DTR        -0.0792
     73 CE3         8.6320   12.1430   21.3120 C.ar      1 DTR        -0.0747
     74 CD2         7.4560   12.8800   21.4390 C.ar      1 DTR        -0.0214
     75 C           5.9040   10.0750   20.5580 C.2       1 DTR         0.2046
     76 O           6.8880    9.5080   20.0740 O.2       1 DTR        -0.3943
     77 N           5.5350    9.9670   21.8440 N.am      1 DLY        -0.2694
     78 CA          6.3120    9.2230   22.8630 C.3       1 DLY         0.0944
     79 C           6.3480   10.0400   24.1300 C.2       1 DLY         0.0601
     80 O           7.3830   10.5930   24.4740 O.co2     1 DLY        -0.5666
     81 CB          5.7480    7.8340   23.2150 C.3       1 DLY        -0.0177
     82 CG          5.3460    7.0030   21.9920 C.3       1 DLY        -0.0446
     83 CD          5.9860    5.6150   21.8730 C.3       1 DLY        -0.0125
     84 CE          5.8150    5.1010   20.4370 C.3       1 DLY        -0.0354
     85 NZ          5.2370    3.7690   20.3950 N.4       1 DLY         0.2185
     86 O1          5.3100   10.1530   24.8353 O.co2     1 DLE        -0.5666
     87 H1         -3.5775   17.3681   13.5721 H         1 DLE         0.2015
     88 H2         -2.1221   17.9241   13.0411 H         1 DLE         0.2015
     89 H3         -2.2295   17.1546   14.4923 H         1 DLE         0.2015
     90 H4         -2.7274   15.9218   11.8461 H         1 DLE         0.1098
     91 H5         -2.8259   14.8781   14.6937 H         1 DLE         0.0348
     92 H6         -2.5067   13.7890   13.3013 H         1 DLE         0.0348
     93 H7         -4.9576   14.5847   14.4559 H         1 DLE         0.0299
     94 H8         -6.3451   15.2064   12.5312 H         1 DLE         0.0232
     95 H9         -4.8631   15.4612   11.5487 H         1 DLE         0.0232
     96 H10        -5.1789   16.4959   12.9827 H         1 DLE         0.0232
     97 H11        -4.2739   12.3458   13.5878 H         1 DLE         0.0232
     98 H12        -4.4810   12.9656   11.9146 H         1 DLE         0.0232
     99 H13        -5.8946   12.8715   13.0191 H         1 DLE         0.0232
    100 H14        -0.8347   15.6708   10.8039 H         1 DLE         0.1886
    101 H15         1.7277   15.7255   12.0194 H         1 DLE         0.0815
    102 H16         2.6592   14.8440   10.0152 H         1 DLE         0.0397
    103 H17         1.3697   16.0288    9.6147 H         1 DLE         0.0397
    104 H18        -0.4425   15.2971    7.8983 H         1 DLE         0.0795
    105 H19        -0.9776   13.1319    6.5866 H         1 DLE         0.2216
    106 H20        -0.2123   10.3853    6.7247 H         1 DLE         0.0541
    107 H21         1.2894    8.8166    7.9080 H         1 DLE         0.0530
    108 H22         2.7589    9.6271    9.7080 H         1 DLE         0.0510
    109 H23         2.7156   11.9968   10.4160 H         1 DLE         0.0540
    110 H24        -0.5941   13.1352   11.8560 H         1 DLE         0.1883
    111 H25         1.3503   11.0356   12.2115 H         1 DLE         0.0801
    112 H26        -0.9015    9.8263   13.0786 H         1 DLE         0.0337
    113 H27        -0.2704    9.8634   11.3972 H         1 DLE         0.0337
    114 H28        -2.3565   11.7778   12.4120 H         1 DLE         0.0504
    115 H29        -2.7449   10.1450   11.7719 H         1 DLE         0.0504
    116 H30        -2.3174   13.3427    9.4003 H         1 DLE         0.1814
    117 H31        -2.2700   13.3969   11.1309 H         1 DLE         0.1814
    118 H32        -0.4473   13.1244   14.4107 H         1 DLE         0.1885
    119 H33         0.1716   11.6144   16.7870 H         1 DLE         0.0817
    120 H34        -0.4167   14.5815   16.4727 H         1 DLE         0.0420
    121 H35        -0.1847   13.7474   18.0466 H         1 DLE         0.0420
    122 H36        -2.0256   11.1547   16.2035 H         1 DLE         0.0729
    123 H37        -5.1632   13.6985   17.5526 H         1 DLE         0.1199
    124 H38        -4.5881   11.3656   16.5621 H         1 DLE         0.2361
    125 H39         1.9816   14.0995   14.9571 H         1 DLE         0.1883
    126 H40         4.1807   14.1293   16.8284 H         1 DLE         0.0801
    127 H41         4.2422   14.7133   13.8371 H         1 DLE         0.0330
    128 H42         5.5750   15.0231   15.0008 H         1 DLE         0.0330
    129 H43         2.8040   16.2982   15.0705 H         1 DLE         0.0433
    130 H44         4.3063   17.0711   14.4602 H         1 DLE         0.0433
    131 H45         3.3768   12.2246   13.9417 H         1 DLE         0.1883
    132 H46         5.8790   10.8373   13.7889 H         1 DLE         0.0797
    133 H47         4.6648    9.2536   12.2970 H         1 DLE         0.0277
    134 H48         4.3581   10.9712   11.8701 H         1 DLE         0.0277
    135 H49         3.1140   10.0314   12.7621 H         1 DLE         0.0277
    136 H50         3.3125   10.3897   16.0327 H         1 DLE         0.1884
    137 H51         4.5501    7.7731   16.8164 H         1 DLE         0.0826
    138 H52         2.3001    7.1342   17.6969 H         1 DLE         0.0639
    139 H53         1.2832    6.6749   15.4742 H         1 DLE         0.0257
    140 H54         3.0546    6.3771   15.4626 H         1 DLE         0.0257
    141 H55         2.3906    7.8736   14.7235 H         1 DLE         0.0257
    142 H56         1.4288    9.4722   16.2950 H         1 DLE         0.2101
    143 H57         5.0778   10.6291   17.5740 H         1 DLE         0.1884
    144 H58         4.1086   11.1986   20.2065 H         1 DLE         0.0815
    145 H59         5.2134   12.8861   18.7421 H         1 DLE         0.0397
    146 H60         6.7516   11.9628   18.8334 H         1 DLE         0.0397
    147 H61         4.4136   14.2016   21.0074 H         1 DLE         0.0795
    148 H62         5.6611   15.0606   23.0763 H         1 DLE         0.2216
    149 H63         8.1966   14.6105   24.3448 H         1 DLE         0.0541
    150 H64        10.2767   13.2936   24.0772 H         1 DLE         0.0530
    151 H65        10.5589   11.7314   22.1827 H         1 DLE         0.0510
    152 H66         8.7648   11.4577   20.4826 H         1 DLE         0.0540
    153 H67         4.6876   10.4140   22.1307 H         1 DLE         0.1875
    154 H68         7.3357    9.0919   22.4825 H         1 DLE         0.0726
    155 H69         4.8595    7.9707   23.8489 H         1 DLE         0.0305
    156 H70         6.5157    7.2793   23.7743 H         1 DLE         0.0305
    157 H71         5.6187    7.5758   21.0934 H         1 DLE         0.0269
    158 H72         4.2549    6.8672   22.0232 H         1 DLE         0.0269
    159 H73         5.4950    4.9224   22.5724 H         1 DLE         0.0317
    160 H74         7.0571    5.6819   22.1145 H         1 DLE         0.0317
    161 H75         6.8013    5.0744   19.9507 H         1 DLE         0.0813
    162 H76         5.1551    5.7906   19.8903 H         1 DLE         0.0813
    163 H77         5.1435    3.4734   19.4359 H         1 DLE         0.1994
    164 H78         4.3289    3.7828   20.8323 H         1 DLE         0.1994
    165 H79         5.8374    3.1265   20.8876 H         1 DLE         0.1994
@<TRIPOS>BOND
     1    1    2 1  
     2    2    3 1  
     3    2    7 1  
     4    3    4 1  
     5    4    5 1  
     6    4    6 1  
     7    7    8 2  
     8    7    9 am 
     9    9   10 1  
    10   10   11 1  
    11   10   21 1  
    12   11   12 1  
    13   12   13 2  
    14   12   20 1  
    15   13   14 1  
    16   14   15 1  
    17   15   16 ar 
    18   15   20 ar 
    19   16   17 ar 
    20   17   18 ar 
    21   18   19 ar 
    22   19   20 ar 
    23   21   22 2  
    24   21   23 am 
    25   23   24 1  
    26   24   25 1  
    27   24   27 1  
    28   25   26 2  
    29   25   32 am 
    30   27   28 1  
    31   28   29 1  
    32   29   30 2  
    33   29   31 am 
    34   32   33 1  
    35   33   34 1  
    36   33   36 1  
    37   34   35 2  
    38   34   42 am 
    39   36   37 1  
    40   37   38 1  
    41   37   39 2  
    42   38   40 2  
    43   39   41 1  
    44   40   41 1  
    45   42   43 1  
    46   43   44 1  
    47   43   46 1  
    48   44   45 2  
    49   44   51 am 
    50   46   47 1  
    51   47   48 1  
    52   48   49 ar 
    53   48   50 ar 
    54   51   52 1  
    55   52   53 1  
    56   52   54 1  
    57   54   55 2  
    58   54   56 am 
    59   56   57 1  
    60   57   58 1  
    61   57   61 1  
    62   58   59 1  
    63   58   60 1  
    64   61   62 2  
    65   61   63 am 
    66   63   64 1  
    67   64   65 1  
    68   64   75 1  
    69   65   66 1  
    70   66   67 2  
    71   66   74 1  
    72   67   68 1  
    73   68   69 1  
    74   69   70 ar 
    75   69   74 ar 
    76   70   71 ar 
    77   71   72 ar 
    78   72   73 ar 
    79   73   74 ar 
    80   75   76 2  
    81   75   77 am 
    82   77   78 1  
    83   78   79 1  
    84   78   81 1  
    85   79   80 ar 
    86   81   82 1  
    87   82   83 1  
    88   83   84 1  
    89   84   85 1  
    90   79   86 ar 
    91    1   87 1  
    92    1   88 1  
    93    1   89 1  
    94    2   90 1  
    95    3   91 1  
    96    3   92 1  
    97    4   93 1  
    98    5   94 1  
    99    5   95 1  
   100    5   96 1  
   101    6   97 1  
   102    6   98 1  
   103    6   99 1  
   104    9  100 1  
   105   10  101 1  
   106   11  102 1  
   107   11  103 1  
   108   13  104 1  
   109   14  105 1  
   110   16  106 1  
   111   17  107 1  
   112   18  108 1  
   113   19  109 1  
   114   23  110 1  
   115   24  111 1  
   116   27  112 1  
   117   27  113 1  
   118   28  114 1  
   119   28  115 1  
   120   31  116 1  
   121   31  117 1  
   122   32  118 1  
   123   33  119 1  
   124   36  120 1  
   125   36  121 1  
   126   39  122 1  
   127   40  123 1  
   128   41  124 1  
   129   42  125 1  
   130   43  126 1  
   131   46  127 1  
   132   46  128 1  
   133   47  129 1  
   134   47  130 1  
   135   51  131 1  
   136   52  132 1  
   137   53  133 1  
   138   53  134 1  
   139   53  135 1  
   140   56  136 1  
   141   57  137 1  
   142   58  138 1  
   143   59  139 1  
   144   59  140 1  
   145   59  141 1  
   146   60  142 1  
   147   63  143 1  
   148   64  144 1  
   149   65  145 1  
   150   65  146 1  
   151   67  147 1  
   152   68  148 1  
   153   70  149 1  
   154   71  150 1  
   155   72  151 1  
   156   73  152 1  
   157   77  153 1  
   158   78  154 1  
   159   81  155 1  
   160   81  156 1  
   161   82  157 1  
   162   82  158 1  
   163   83  159 1  
   164   83  160 1  
   165   84  161 1  
   166   84  162 1  
   167   85  163 1  
   168   85  164 1  
   169   85  165 1  
@<TRIPOS>SUBSTRUCTURE
     1 DLE         1

