5n8t_ligand
  -I-interpret- 

164168  0  0  0  0  0  0  0  0999 V2000
   -2.5860   17.1880   13.5500 N   0  3  0  0  0
   -2.3310   15.8720   12.8710 C   0  0  0  0  0
   -3.0070   14.7150   13.6210 C   0  0  0  0  0
   -4.5250   14.4900   13.4490 C   0  0  0  0  0
   -5.2810   15.4830   12.5660 C   0  0  0  0  0
   -4.8140   13.0680   12.9580 C   0  0  0  0  0
   -0.8530   15.5770   12.8240 C   0  0  0  0  0
   -0.2030   15.4170   13.8730 O   0  0  0  0  0
   -0.2970   15.4550   11.6190 N   0  0  0  0  0
    1.1040   15.0050   11.4700 C   0  0  0  0  0
    1.5740   15.0240   10.0130 C   0  0  0  0  0
    0.9530   14.0270    9.0630 C   0  0  0  0  0
   -0.0050   14.3160    8.0770 C   0  0  0  0  0
   -0.3090   13.1720    7.3690 N   0  0  0  0  0
    0.3880   12.1060    7.8380 C   0  0  0  0  0
    0.4280   10.7580    7.5160 C   0  0  0  0  0
    1.2750    9.8640    8.1870 C   0  0  0  0  0
    2.0940   10.3220    9.2080 C   0  0  0  0  0
    2.0790   11.6620    9.6050 C   0  0  0  0  0
    1.2350   12.5730    8.9480 C   0  0  0  0  0
    1.3440   13.6410   12.0940 C   0  0  0  0  0
    2.4490   13.3610   12.5690 O   0  0  0  0  0
    0.3020   12.8090   12.1570 N   0  0  0  0  0
    0.4240   11.4330   12.6520 C   0  0  0  0  0
    0.6210   11.4220   14.1650 C   0  0  0  0  0
    1.2230   10.4790   14.6940 O   0  0  0  0  0
   -0.6890   10.4710   12.2130 C   0  0  0  0  0
   -2.0380   10.9860   11.7180 C   0  0  0  0  0
   -2.1310   11.5570   10.3180 C   0  0  0  0  0
   -2.1890   10.8720    9.2900 O   0  0  0  0  0
   -2.2490   12.8720   10.2800 N   0  0  0  0  0
    0.1210   12.4430   14.8720 N   0  0  0  0  0
    0.3900   12.5870   16.3220 C   0  0  0  0  0
    1.8520   12.8920   16.5760 C   0  0  0  0  0
    2.4140   12.4160   17.5600 O   0  0  0  0  0
   -0.5160   13.6240   17.0050 C   0  0  0  0  0
   -1.9860   13.2190   17.0070 C   0  0  0  0  0
   -3.0040   14.0000   17.4230 N   0  0  0  0  0
   -2.5620   12.0160   16.5990 C   0  0  0  0  0
   -4.1750   13.3230   17.2910 C   0  0  0  0  0
   -3.9000   12.1010   16.7780 N   0  0  0  0  0
    2.4950   13.6580   15.6930 N   0  0  0  0  0
    3.9480   13.8620   15.7870 C   0  0  0  0  0
    4.6780   12.5910   15.4330 C   0  0  0  0  0
    5.6720   12.2490   16.0830 O   0  0  0  0  0
    4.4830   14.9710   14.8790 C   0  0  0  0  0
    3.8970   16.3500   15.1830 C   0  0  0  0  0
    4.2120   16.8330   16.5700 C   0  0  0  0  0
    5.3520   16.6430   17.0450 O   0  0  0  0  0
    3.3070   17.4230   17.1970 O   0  0  0  0  0
    4.1920   11.8880   14.4130 N   0  0  0  0  0
    4.8110   10.6300   13.9510 C   0  0  0  0  0
    4.1940   10.1910   12.6280 C   0  0  0  0  0
    4.7130    9.4620   14.9090 C   0  0  0  0  0
    5.3950    8.4510   14.6930 O   0  0  0  0  0
    3.8830    9.5720   15.9560 N   0  0  0  0  0
    3.7780    8.5350   16.9990 C   0  0  0  0  0
    2.4040    7.8690   16.8850 C   0  0  0  0  0
    2.2740    7.1480   15.5420 C   0  0  0  0  0
    1.3560    8.8430   17.0030 O   0  0  0  0  0
    4.0160    9.1180   18.3720 C   0  0  0  0  0
    3.6010    8.5360   19.3620 O   0  0  0  0  0
    4.7330   10.2440   18.4300 N   0  0  0  0  0
    5.0430   10.9480   19.6830 C   0  0  0  0  0
    5.8310   12.2300   19.3730 C   0  0  0  0  0
    6.2010   12.9720   20.6430 C   0  0  0  0  0
    5.4110   13.8950   21.3190 C   0  0  0  0  0
    6.0570   14.3650   22.4280 N   0  0  0  0  0
    7.2730   13.8080   22.5690 C   0  0  0  0  0
    8.3050   13.9350   23.5040 C   0  0  0  0  0
    9.4790   13.1870   23.3510 C   0  0  0  0  0
    9.6410   12.3010   22.2730 C   0  0  0  0  0
    8.6320   12.1430   21.3120 C   0  0  0  0  0
    7.4560   12.8800   21.4390 C   0  0  0  0  0
    5.9040   10.0750   20.5580 C   0  0  0  0  0
    6.8880    9.5080   20.0740 O   0  0  0  0  0
    5.5350    9.9670   21.8440 N   0  0  0  0  0
    6.3120    9.2230   22.8630 C   0  0  0  0  0
    6.3480   10.0400   24.1300 C   0  0  0  0  0
    7.3830   10.5930   24.4740 O   0  0  0  0  0
    5.7480    7.8340   23.2150 C   0  0  0  0  0
    5.3460    7.0030   21.9920 C   0  0  0  0  0
    5.9860    5.6150   21.8730 C   0  0  0  0  0
    5.8150    5.1010   20.4370 C   0  0  0  0  0
    5.2370    3.7690   20.3950 N   0  3  0  0  0
    5.3100   10.1530   24.8353 O   0  0  0  0  0
   -3.5895   17.3692   13.5718 H   0  0  0  0  0
   -2.2249   17.1530   14.5033 H   0  0  0  0  0
   -2.1161   17.9320   13.0342 H   0  0  0  0  0
   -2.7410   15.9532   11.8643 H   0  0  0  0  0
   -2.8782   14.9538   14.6767 H   0  0  0  0  0
   -2.5441   13.8137   13.2191 H   0  0  0  0  0
   -4.9085   14.6601   14.4550 H   0  0  0  0  0
   -4.9491   15.3749   11.5334 H   0  0  0  0  0
   -6.3504   15.2816   12.6283 H   0  0  0  0  0
   -5.0806   16.4980   12.9090 H   0  0  0  0  0
   -5.8850   12.8746   13.0190 H   0  0  0  0  0
   -4.4837   12.9678   11.9241 H   0  0  0  0  0
   -4.2783   12.3534   13.5828 H   0  0  0  0  0
   -0.8455   15.6751   10.7876 H   0  0  0  0  0
    1.7054   15.7298   12.0188 H   0  0  0  0  0
    2.6348   14.7753   10.0450 H   0  0  0  0  0
    1.2959   16.0055    9.6292 H   0  0  0  0  0
   -0.4429   15.2980    7.8981 H   0  0  0  0  0
   -0.2159   10.3832    6.7203 H   0  0  0  0  0
    1.2895    8.8108    7.9064 H   0  0  0  0  0
    2.7626    9.6232    9.7108 H   0  0  0  0  0
    2.7191   11.9987   10.4205 H   0  0  0  0  0
   -0.6120   13.1417   11.8500 H   0  0  0  0  0
    1.3156   11.0340   12.1683 H   0  0  0  0  0
   -0.9365    9.9260   13.1239 H   0  0  0  0  0
   -0.2684    9.9653   11.3439 H   0  0  0  0  0
   -2.2833   11.8171   12.3792 H   0  0  0  0  0
   -2.6890   10.1118   11.7107 H   0  0  0  0  0
   -2.3916   13.3457    9.3880 H   0  0  0  0  0
   -2.1975   13.4138   11.1427 H   0  0  0  0  0
   -0.4587   13.1380   14.4015 H   0  0  0  0  0
    0.1502   11.6249   16.7748 H   0  0  0  0  0
   -0.4291   14.5583   16.4503 H   0  0  0  0  0
   -0.1945   13.7146   18.0426 H   0  0  0  0  0
   -2.0251   11.1539   16.2032 H   0  0  0  0  0
   -5.1641   13.6989   17.5528 H   0  0  0  0  0
    1.9714   14.1083   14.9424 H   0  0  0  0  0
    4.1269   14.1594   16.8203 H   0  0  0  0  0
    4.2054   14.7171   13.8560 H   0  0  0  0  0
    5.5596   15.0319   15.0384 H   0  0  0  0  0
    2.8130   16.2749   15.0972 H   0  0  0  0  0
    4.3347   17.0578   14.4790 H   0  0  0  0  0
    5.8908   16.1744   16.4033 H   0  0  0  0  0
    3.3605   12.2313   13.9323 H   0  0  0  0  0
    5.8686   10.8768   13.8583 H   0  0  0  0  0
    3.1239   10.0332   12.7623 H   0  0  0  0  0
    4.3572   10.9649   11.8779 H   0  0  0  0  0
    4.6613    9.2621   12.3011 H   0  0  0  0  0
    3.3011   10.4061   16.0342 H   0  0  0  0  0
    4.5499    7.7796   16.8522 H   0  0  0  0  0
    2.3114    7.1468   17.6961 H   0  0  0  0  0
    2.3897    7.8680   14.7319 H   0  0  0  0  0
    3.0480    6.3845   15.4646 H   0  0  0  0  0
    1.2920    6.6797   15.4761 H   0  0  0  0  0
    0.5045    8.4058   16.9290 H   0  0  0  0  0
    5.0847   10.6368   17.5568 H   0  0  0  0  0
    4.1080   11.1877   20.1894 H   0  0  0  0  0
    5.2067   12.8809   18.7609 H   0  0  0  0  0
    6.7485   11.9554   18.8525 H   0  0  0  0  0
    4.4127   14.2019   21.0071 H   0  0  0  0  0
    8.1960   14.6142   24.3495 H   0  0  0  0  0
   10.2811   13.2942   24.0812 H   0  0  0  0  0
   10.5640   11.7283   22.1822 H   0  0  0  0  0
    8.7655   11.4540   20.4780 H   0  0  0  0  0
    4.6707   10.4229   22.1364 H   0  0  0  0  0
    7.2988    9.0615   22.4291 H   0  0  0  0  0
    4.8497    7.9894   23.8125 H   0  0  0  0  0
    6.5331    7.2866   23.7367 H   0  0  0  0  0
    5.6786    7.5661   21.1200 H   0  0  0  0  0
    4.2724    6.8356   22.0786 H   0  0  0  0  0
    5.5015    4.9283   22.5671 H   0  0  0  0  0
    7.0470    5.6798   22.1141 H   0  0  0  0  0
    6.8005    5.0574   19.9732 H   0  0  0  0  0
    5.1418    5.7791   19.9124 H   0  0  0  0  0
    5.1429    3.4710   19.4241 H   0  0  0  0  0
    5.8454    3.1198   20.8938 H   0  0  0  0  0
    4.3182    3.7842   20.8378 H   0  0  0  0  0
    4.5926    9.6622   24.4278 H   0  0  0  0  0
  1  2  1  0  0  0
  2  3  1  0  0  0
  2  7  1  0  0  0
  3  4  1  0  0  0
  4  5  1  0  0  0
  4  6  1  0  0  0
  7  8  2  0  0  0
  7  9  1  0  0  0
  9 10  1  0  0  0
 10 11  1  0  0  0
 10 21  1  0  0  0
 11 12  1  0  0  0
 12 13  4  0  0  0
 12 20  4  0  0  0
 13 14  4  0  0  0
 14 15  4  0  0  0
 15 16  4  0  0  0
 15 20  4  0  0  0
 16 17  4  0  0  0
 17 18  4  0  0  0
 18 19  4  0  0  0
 19 20  4  0  0  0
 21 22  2  0  0  0
 21 23  1  0  0  0
 23 24  1  0  0  0
 24 25  1  0  0  0
 24 27  1  0  0  0
 25 26  2  0  0  0
 25 32  1  0  0  0
 27 28  1  0  0  0
 28 29  1  0  0  0
 29 30  2  0  0  0
 29 31  1  0  0  0
 32 33  1  0  0  0
 33 34  1  0  0  0
 33 36  1  0  0  0
 34 35  2  0  0  0
 34 42  1  0  0  0
 36 37  1  0  0  0
 37 38  4  0  0  0
 37 39  4  0  0  0
 38 40  4  0  0  0
 39 41  4  0  0  0
 40 41  4  0  0  0
 42 43  1  0  0  0
 43 44  1  0  0  0
 43 46  1  0  0  0
 44 45  2  0  0  0
 44 51  1  0  0  0
 46 47  1  0  0  0
 47 48  1  0  0  0
 48 49  1  0  0  0
 48 50  2  0  0  0
 51 52  1  0  0  0
 52 53  1  0  0  0
 52 54  1  0  0  0
 54 55  2  0  0  0
 54 56  1  0  0  0
 56 57  1  0  0  0
 57 58  1  0  0  0
 57 61  1  0  0  0
 58 59  1  0  0  0
 58 60  1  0  0  0
 61 62  2  0  0  0
 61 63  1  0  0  0
 63 64  1  0  0  0
 64 65  1  0  0  0
 64 75  1  0  0  0
 65 66  1  0  0  0
 66 67  4  0  0  0
 66 74  4  0  0  0
 67 68  4  0  0  0
 68 69  4  0  0  0
 69 70  4  0  0  0
 69 74  4  0  0  0
 70 71  4  0  0  0
 71 72  4  0  0  0
 72 73  4  0  0  0
 73 74  4  0  0  0
 75 76  2  0  0  0
 75 77  1  0  0  0
 77 78  1  0  0  0
 78 79  1  0  0  0
 78 81  1  0  0  0
 79 80  2  0  0  0
 81 82  1  0  0  0
 82 83  1  0  0  0
 83 84  1  0  0  0
 84 85  1  0  0  0
 79 86  1  0  0  0
  1 87  1  0  0  0
  1 88  1  0  0  0
  1 89  1  0  0  0
  2 90  1  0  0  0
  3 91  1  0  0  0
  3 92  1  0  0  0
  4 93  1  0  0  0
  5 94  1  0  0  0
  5 95  1  0  0  0
  5 96  1  0  0  0
  6 97  1  0  0  0
  6 98  1  0  0  0
  6 99  1  0  0  0
  9100  1  0  0  0
 10101  1  0  0  0
 11102  1  0  0  0
 11103  1  0  0  0
 13104  1  0  0  0
 16105  1  0  0  0
 17106  1  0  0  0
 18107  1  0  0  0
 19108  1  0  0  0
 23109  1  0  0  0
 24110  1  0  0  0
 27111  1  0  0  0
 27112  1  0  0  0
 28113  1  0  0  0
 28114  1  0  0  0
 31115  1  0  0  0
 31116  1  0  0  0
 32117  1  0  0  0
 33118  1  0  0  0
 36119  1  0  0  0
 36120  1  0  0  0
 39121  1  0  0  0
 40122  1  0  0  0
 42123  1  0  0  0
 43124  1  0  0  0
 46125  1  0  0  0
 46126  1  0  0  0
 47127  1  0  0  0
 47128  1  0  0  0
 49129  1  0  0  0
 51130  1  0  0  0
 52131  1  0  0  0
 53132  1  0  0  0
 53133  1  0  0  0
 53134  1  0  0  0
 56135  1  0  0  0
 57136  1  0  0  0
 58137  1  0  0  0
 59138  1  0  0  0
 59139  1  0  0  0
 59140  1  0  0  0
 60141  1  0  0  0
 63142  1  0  0  0
 64143  1  0  0  0
 65144  1  0  0  0
 65145  1  0  0  0
 67146  1  0  0  0
 70147  1  0  0  0
 71148  1  0  0  0
 72149  1  0  0  0
 73150  1  0  0  0
 77151  1  0  0  0
 78152  1  0  0  0
 81153  1  0  0  0
 81154  1  0  0  0
 82155  1  0  0  0
 82156  1  0  0  0
 83157  1  0  0  0
 83158  1  0  0  0
 84159  1  0  0  0
 84160  1  0  0  0
 85161  1  0  0  0
 85162  1  0  0  0
 85163  1  0  0  0
 86164  1  0  0  0
M  END
$$$$
