3ewc_ligand
  -I-interpret- 

 39 41  0  0  0  0  0  0  0  0999 V2000
   -8.5720   25.3470  -11.9680 O   0  0  0  0  0
   -7.2380   25.2030  -12.5040 C   0  0  0  0  0
   -7.0260   23.9890  -13.4160 C   0  0  0  0  0
   -7.5600   22.7840  -12.7820 N   0  0  0  0  0
   -7.0020   22.1630  -11.7120 C   0  0  0  0  0
   -6.1950   22.6390  -10.8310 N   0  0  0  0  0
   -5.7160   23.9210  -10.7050 C   0  0  0  0  0
   -6.2370   25.0970  -11.4450 C   0  0  0  0  0
   -5.5130   26.1050  -10.9690 N   0  0  0  0  0
   -4.6640   25.6360  -10.0140 C   0  0  0  0  0
   -4.7800   24.3160   -9.8320 N   0  0  0  0  0
   -3.9490   23.6200   -8.8190 C   0  0  0  0  0
   -4.4260   22.2450   -8.4020 C   0  0  0  0  0
   -5.2880   22.4130   -7.2720 O   0  0  0  0  0
   -2.5760   23.5090   -9.2240 O   0  0  0  0  0
   -2.1300   22.1900   -8.9420 C   0  0  0  0  0
   -3.1320   21.5820   -7.9700 C   0  0  0  0  0
   -2.9080   21.9950   -6.6060 O   0  0  0  0  0
   -1.7430   21.3560  -10.1550 C   0  0  0  0  0
   -0.4360   20.2860   -9.6220 S   0  0  0  0  0
   -1.0440   18.6650   -9.3520 C   0  0  0  0  0
   -9.2005   25.4135  -12.6906 H   0  0  0  0  0
   -7.1196   26.1094  -13.0977 H   0  0  0  0  0
   -5.9586   23.8568  -13.5929 H   0  0  0  0  0
   -7.5447   24.1561  -14.3600 H   0  0  0  0  0
   -8.4124   22.3817  -13.1718 H   0  0  0  0  0
   -7.2757   21.1160  -11.5812 H   0  0  0  0  0
   -3.9678   26.2655   -9.4598 H   0  0  0  0  0
   -4.0512   24.2706   -7.9504 H   0  0  0  0  0
   -4.9660   21.6835   -9.1644 H   0  0  0  0  0
   -5.6073   21.5546   -6.9841 H   0  0  0  0  0
   -1.1544   22.2155   -8.4566 H   0  0  0  0  0
   -3.0934   20.4929   -7.9916 H   0  0  0  0  0
   -2.0951   21.5998   -6.2826 H   0  0  0  0  0
   -1.4200   21.9898  -10.9809 H   0  0  0  0  0
   -2.5932   20.7834  -10.5258 H   0  0  0  0  0
   -1.8170   18.6915   -8.5840 H   0  0  0  0  0
   -1.4648   18.2770  -10.2796 H   0  0  0  0  0
   -0.2271   18.0217   -9.0251 H   0  0  0  0  0
  1  2  1  0  0  0
  2  3  1  0  0  0
  2  8  1  0  0  0
  3  4  1  0  0  0
  4  5  1  0  0  0
  5  6  2  0  0  0
  6  7  1  0  0  0
  7  8  4  0  0  0
  7 11  4  0  0  0
  8  9  4  0  0  0
  9 10  4  0  0  0
 10 11  4  0  0  0
 11 12  1  0  0  0
 12 13  1  0  0  0
 12 15  1  0  0  0
 13 14  1  0  0  0
 13 17  1  0  0  0
 15 16  1  0  0  0
 16 17  1  0  0  0
 16 19  1  0  0  0
 17 18  1  0  0  0
 19 20  1  0  0  0
 20 21  1  0  0  0
  1 22  1  0  0  0
  2 23  1  0  0  0
  3 24  1  0  0  0
  3 25  1  0  0  0
  4 26  1  0  0  0
  5 27  1  0  0  0
 10 28  1  0  0  0
 12 29  1  0  0  0
 13 30  1  0  0  0
 14 31  1  0  0  0
 16 32  1  0  0  0
 17 33  1  0  0  0
 18 34  1  0  0  0
 19 35  1  0  0  0
 19 36  1  0  0  0
 21 37  1  0  0  0
 21 38  1  0  0  0
 21 39  1  0  0  0
M  END
$$$$
