6k3l_ligand
  -I-interpret- 

 37 40  0  0  0  0  0  0  0  0999 V2000
   12.2540    6.0040  -14.0700 C   0  0  0  0  0
   13.2460    5.0930  -13.7200 C   0  0  0  0  0
   14.2550    4.7910  -14.6980 C   0  0  0  0  0
   14.2440    5.3810  -15.9560 C   0  0  0  0  0
   13.2780    6.2690  -16.2610 C   0  0  0  0  0
   12.2560    6.6200  -15.2890 C   0  0  0  0  0
   12.1660    4.8890  -11.5130 C   0  0  0  0  0
   13.2150    4.4930  -12.3990 C   0  0  0  0  0
   11.2780    6.3600  -13.1840 N   0  0  0  0  0
   11.2220    5.8370  -11.9360 C   0  0  0  0  0
   13.0660    3.3790   -9.8530 C   0  0  0  0  0
   14.0810    3.0500  -10.7170 N   0  0  0  0  0
   14.1490    3.5870  -11.9470 C   0  0  0  0  0
   12.1210    4.2880  -10.2200 C   0  0  0  0  0
   10.1200    6.2680  -11.0630 N   0  0  0  0  0
    9.1100    7.2880  -11.3570 C   0  0  0  0  0
    8.6070    7.4010  -12.5910 C   0  0  0  0  0
    7.5890    8.3680  -12.9090 C   0  0  0  0  0
    7.0720    9.1920  -11.9050 C   0  0  0  0  0
    7.5790    9.0630  -10.6310 C   0  0  0  0  0
    8.6100    8.0910  -10.3380 C   0  0  0  0  0
    7.0290    8.4050  -14.5850 Cl  0  0  0  0  0
   13.3350    6.9060  -17.6120 C   0  0  0  0  0
   14.4490    6.6480  -18.2970 O   0  0  0  0  0
   12.4330    7.6050  -18.0250 O   0  0  0  0  0
   15.0458    4.0839  -14.4475 H   0  0  0  0  0
   15.0098    5.1277  -16.6891 H   0  0  0  0  0
   11.4994    7.3667  -15.5302 H   0  0  0  0  0
   13.0165    2.9109   -8.8699 H   0  0  0  0  0
   14.9672    3.2972  -12.6063 H   0  0  0  0  0
   11.3272    4.5575   -9.5233 H   0  0  0  0  0
   10.0513    5.8075  -10.1554 H   0  0  0  0  0
    8.9778    6.7433  -13.3771 H   0  0  0  0  0
    6.2885    9.9173  -12.1246 H   0  0  0  0  0
    7.1988    9.7012   -9.8333 H   0  0  0  0  0
    8.9931    7.9887   -9.3227 H   0  0  0  0  0
   15.0178    6.0757  -17.7769 H   0  0  0  0  0
  2  1  4  0  0  0
  1  6  4  0  0  0
  9  1  4  0  0  0
  2  3  4  0  0  0
  8  2  4  0  0  0
  3  4  4  0  0  0
  4  5  4  0  0  0
  6  5  4  0  0  0
  5 23  1  0  0  0
  7  8  4  0  0  0
  7 10  4  0  0  0
 14  7  4  0  0  0
  8 13  4  0  0  0
 10  9  4  0  0  0
 10 15  1  0  0  0
 11 12  4  0  0  0
 11 14  4  0  0  0
 12 13  4  0  0  0
 15 16  1  0  0  0
 16 17  4  0  0  0
 16 21  4  0  0  0
 17 18  4  0  0  0
 18 19  4  0  0  0
 18 22  1  0  0  0
 19 20  4  0  0  0
 20 21  4  0  0  0
 23 24  1  0  0  0
 23 25  2  0  0  0
  3 26  1  0  0  0
  4 27  1  0  0  0
  6 28  1  0  0  0
 11 29  1  0  0  0
 13 30  1  0  0  0
 14 31  1  0  0  0
 15 32  1  0  0  0
 17 33  1  0  0  0
 19 34  1  0  0  0
 20 35  1  0  0  0
 21 36  1  0  0  0
 24 37  1  0  0  0
M  END
$$$$
