3g6m_ligand
  -I-interpret- 

 24 25  0  0  0  0  0  0  0  0999 V2000
   15.2600    5.9240    2.8320 N   0  0  0  0  0
   14.1060    6.2370    2.1590 C   0  0  0  0  0
   16.5670    6.1750    2.1950 C   0  0  0  0  0
   15.2370    5.3900    4.0810 C   0  0  0  0  0
   12.8500    6.0490    2.6570 N   0  0  0  0  0
   14.1940    6.7360    1.0040 O   0  0  0  0  0
   11.6640    6.4170    1.8610 C   0  0  0  0  0
   12.7160    5.5360    3.8810 C   0  0  0  0  0
   13.8880    5.1700    4.6660 C   0  0  0  0  0
   11.6280    5.2440    4.6210 N   0  0  0  0  0
   16.2790    5.0880    4.7050 O   0  0  0  0  0
   13.4500    4.6840    5.8340 N   0  0  0  0  0
   12.0960    4.7370    5.7970 C   0  0  0  0  0
   14.2420    4.1800    6.9650 C   0  0  0  0  0
   17.1396    6.8726    2.8062 H   0  0  0  0  0
   17.1126    5.2356    2.1058 H   0  0  0  0  0
   16.4109    6.6015    1.2041 H   0  0  0  0  0
   11.0454    5.5335    1.7034 H   0  0  0  0  0
   11.0897    7.1736    2.3956 H   0  0  0  0  0
   11.9836    6.8149    0.8979 H   0  0  0  0  0
   11.4538    4.4110    6.6152 H   0  0  0  0  0
   14.8475    3.3357    6.6353 H   0  0  0  0  0
   14.8924    4.9732    7.3335 H   0  0  0  0  0
   13.5714    3.8586    7.7619 H   0  0  0  0  0
  1  2  1  0  0  0
  1  3  1  0  0  0
  1  4  1  0  0  0
  2  5  1  0  0  0
  2  6  2  0  0  0
  4  9  1  0  0  0
  4 11  2  0  0  0
  5  7  1  0  0  0
  5  8  1  0  0  0
  8  9  4  0  0  0
  8 10  4  0  0  0
  9 12  4  0  0  0
 10 13  4  0  0  0
 12 13  4  0  0  0
 12 14  1  0  0  0
  3 15  1  0  0  0
  3 16  1  0  0  0
  3 17  1  0  0  0
  7 18  1  0  0  0
  7 19  1  0  0  0
  7 20  1  0  0  0
 13 21  1  0  0  0
 14 22  1  0  0  0
 14 23  1  0  0  0
 14 24  1  0  0  0
M  END
$$$$
