3w5t_ligand
  -I-interpret- 

 75 78  0  0  0  0  0  0  0  0999 V2000
   66.0260   12.8810   -5.9940 O   0  0  0  0  0
   64.2380   15.2100   -8.4270 C   0  0  0  0  0
   65.3250   14.7040   -7.3940 C   0  0  0  0  0
   65.0850   13.1670   -6.9550 C   0  0  0  0  0
   63.6070   12.9260   -6.3410 C   0  0  0  0  0
   62.4920   13.3930   -7.4610 C   0  0  0  0  0
   60.9690   13.1860   -6.8650 C   0  0  0  0  0
   60.7810   14.0730   -5.5290 C   0  0  0  0  0
   61.0330   15.6600   -5.8150 C   0  0  0  0  0
   62.5460   15.8960   -6.3790 C   0  0  0  0  0
   62.7690   15.0160   -7.8320 C   0  0  0  0  0
   62.7840   17.4480   -6.6420 C   0  0  0  0  0
   62.5890   18.3370   -5.3590 C   0  0  0  0  0
   61.1370   18.1000   -4.6580 C   0  0  0  0  0
   60.8810   16.4930   -4.5150 C   0  0  0  0  0
   59.4330   16.4270   -3.8220 C   0  0  0  0  0
   59.7670   17.3220   -2.6860 C   0  0  0  0  0
   60.8830   18.4080   -3.0940 C   0  0  0  0  0
   60.0150   18.8290   -5.6730 C   0  0  0  0  0
   61.8030   15.5480   -8.9270 C   0  0  0  0  0
   60.4350   19.9390   -2.7100 C   0  0  0  0  0
   61.6180   20.9820   -3.1090 C   0  0  0  0  0
   60.2020   19.9410   -1.2220 C   0  0  0  0  0
   59.7430   21.2150   -0.5330 C   0  0  0  0  0
   59.4990   21.0500    0.9060 C   0  0  0  0  0
   66.5960   11.7520   -5.7490 C   0  0  0  0  0
   67.8030   11.6340   -4.7800 C   0  0  0  0  0
   68.9550   12.1030   -3.8090 C   0  0  0  0  0
   58.5220   21.6690    1.3440 O   0  0  0  0  0
   60.2270   20.3120    1.6060 O   0  0  0  0  0
   66.4540   10.5820   -6.0900 O   0  0  0  0  0
   64.3270   14.6318   -9.3467 H   0  0  0  0  0
   64.4031   16.2691   -8.6249 H   0  0  0  0  0
   65.2580   15.3253   -6.5009 H   0  0  0  0  0
   66.3025   14.7707   -7.8717 H   0  0  0  0  0
   65.1722   12.5227   -7.8299 H   0  0  0  0  0
   63.4839   13.5091   -5.4283 H   0  0  0  0  0
   63.4722   11.8717   -6.0994 H   0  0  0  0  0
   62.5832   12.7866   -8.3622 H   0  0  0  0  0
   60.8155   12.1340   -6.6244 H   0  0  0  0  0
   60.2424   13.5023   -7.6134 H   0  0  0  0  0
   61.5090   13.7381   -4.7901 H   0  0  0  0  0
   59.7578   13.9468   -5.1750 H   0  0  0  0  0
   60.2921   15.9793   -6.5479 H   0  0  0  0  0
   63.2644   15.5447   -5.6383 H   0  0  0  0  0
   62.0507   17.7720   -7.3805 H   0  0  0  0  0
   63.8154   17.5705   -6.9726 H   0  0  0  0  0
   62.6532   19.3829   -5.6591 H   0  0  0  0  0
   63.3608   18.0656   -4.6388 H   0  0  0  0  0
   61.6560   16.0066   -3.9227 H   0  0  0  0  0
   59.0564   15.4358   -3.5694 H   0  0  0  0  0
   58.5820   16.7162   -4.4387 H   0  0  0  0  0
   60.1610   16.7129   -1.8725 H   0  0  0  0  0
   58.8626   17.8530   -2.3890 H   0  0  0  0  0
   61.8173   18.3299   -2.5380 H   0  0  0  0  0
   60.2434   19.8911   -5.7617 H   0  0  0  0  0
   60.0605   18.3628   -6.6572 H   0  0  0  0  0
   59.0154   18.7046   -5.2565 H   0  0  0  0  0
   60.7732   15.4305   -8.5895 H   0  0  0  0  0
   62.0086   16.6027   -9.1099 H   0  0  0  0  0
   61.9520   14.9826   -9.8469 H   0  0  0  0  0
   59.5390   20.2470   -3.2490 H   0  0  0  0  0
   62.5259   20.7259   -2.5629 H   0  0  0  0  0
   61.8078   20.9215   -4.1806 H   0  0  0  0  0
   61.3102   21.9950   -2.8499 H   0  0  0  0  0
   61.1809   19.7326   -0.7903 H   0  0  0  0  0
   59.3837   19.2369   -1.0711 H   0  0  0  0  0
   58.8006   21.5136   -0.9922 H   0  0  0  0  0
   60.5372   21.9528   -0.6474 H   0  0  0  0  0
   68.5017   11.4965   -5.6052 H   0  0  0  0  0
   67.1560   11.3647   -3.9451 H   0  0  0  0  0
   69.6410   12.7552   -4.3495 H   0  0  0  0  0
   68.5218   12.6456   -2.9688 H   0  0  0  0  0
   69.4952   11.2310   -3.4403 H   0  0  0  0  0
   60.9205   19.9364    1.0586 H   0  0  0  0  0
  4  1  1  0  0  0
  1 26  1  0  0  0
  3  2  1  0  0  0
  2 11  1  0  0  0
  3  4  1  0  0  0
  4  5  1  0  0  0
  5  6  1  0  0  0
  6  7  1  0  0  0
  6 11  1  0  0  0
  7  8  1  0  0  0
  8  9  1  0  0  0
  9 10  1  0  0  0
  9 15  1  0  0  0
 10 11  1  0  0  0
 10 12  1  0  0  0
 11 20  1  0  0  0
 12 13  1  0  0  0
 13 14  1  0  0  0
 14 15  1  0  0  0
 14 18  1  0  0  0
 14 19  1  0  0  0
 15 16  1  0  0  0
 16 17  1  0  0  0
 17 18  1  0  0  0
 18 21  1  0  0  0
 21 22  1  0  0  0
 21 23  1  0  0  0
 23 24  1  0  0  0
 24 25  1  0  0  0
 25 29  2  0  0  0
 25 30  1  0  0  0
 26 27  1  0  0  0
 26 31  2  0  0  0
 27 28  1  0  0  0
  2 32  1  0  0  0
  2 33  1  0  0  0
  3 34  1  0  0  0
  3 35  1  0  0  0
  4 36  1  0  0  0
  5 37  1  0  0  0
  5 38  1  0  0  0
  6 39  1  0  0  0
  7 40  1  0  0  0
  7 41  1  0  0  0
  8 42  1  0  0  0
  8 43  1  0  0  0
  9 44  1  0  0  0
 10 45  1  0  0  0
 12 46  1  0  0  0
 12 47  1  0  0  0
 13 48  1  0  0  0
 13 49  1  0  0  0
 15 50  1  0  0  0
 16 51  1  0  0  0
 16 52  1  0  0  0
 17 53  1  0  0  0
 17 54  1  0  0  0
 18 55  1  0  0  0
 19 56  1  0  0  0
 19 57  1  0  0  0
 19 58  1  0  0  0
 20 59  1  0  0  0
 20 60  1  0  0  0
 20 61  1  0  0  0
 21 62  1  0  0  0
 22 63  1  0  0  0
 22 64  1  0  0  0
 22 65  1  0  0  0
 23 66  1  0  0  0
 23 67  1  0  0  0
 24 68  1  0  0  0
 24 69  1  0  0  0
 27 70  1  0  0  0
 27 71  1  0  0  0
 28 72  1  0  0  0
 28 73  1  0  0  0
 28 74  1  0  0  0
 30 75  1  0  0  0
M  END
$$$$
