3hp2_ligand
  -I-interpret- 

 39 41  0  0  0  0  0  0  0  0999 V2000
   35.8230   39.6150   27.0470 C   0  0  0  0  0
   35.3090   39.0890   28.2130 C   0  0  0  0  0
   34.0370   38.5680   28.2330 C   0  0  0  0  0
   33.2770   38.5690   27.0820 C   0  0  0  0  0
   33.7980   39.0990   25.9180 C   0  0  0  0  0
   35.0710   39.6240   25.8930 C   0  0  0  0  0
   32.9630   39.0940   24.6910 C   0  0  0  0  0
   33.6830   38.7850   23.4800 N   0  0  0  0  0
   34.0710   39.8340   22.6800 C   0  0  0  0  0
   34.7890   39.4750   21.4490 C   0  0  0  0  0
   35.0460   38.1880   21.1710 C   0  0  0  0  0
   34.6240   37.1310   22.0560 C   0  0  0  0  0
   33.9600   37.4670   23.1720 C   0  0  0  0  0
   33.8830   41.0200   22.8870 O   0  0  0  0  0
   35.7250   37.9230   19.9940 O   0  0  0  0  0
   36.0620   36.5590   19.7320 C   0  0  0  0  0
   36.7630   36.6510   18.4140 C   0  0  0  0  0
   36.0950   36.3500   17.2490 C   0  0  0  0  0
   36.7390   36.4400   16.0330 C   0  0  0  0  0
   38.0530   36.8520   15.9760 C   0  0  0  0  0
   38.7190   37.1630   17.1410 C   0  0  0  0  0
   38.0800   37.0560   18.3540 C   0  0  0  0  0
   35.2510   40.9280   20.4020 Br  0  0  0  0  0
   36.8321   40.0269   27.0382 H   0  0  0  0  0
   35.9123   39.0862   29.1208 H   0  0  0  0  0
   33.6301   38.1552   29.1561 H   0  0  0  0  0
   32.2694   38.1532   27.0911 H   0  0  0  0  0
   35.4781   40.0412   24.9720 H   0  0  0  0  0
   32.5598   40.1000   24.5750 H   0  0  0  0  0
   32.2089   38.3178   24.8211 H   0  0  0  0  0
   34.8386   36.0877   21.8246 H   0  0  0  0  0
   33.6311   36.6813   23.8522 H   0  0  0  0  0
   35.1944   35.8995   19.7111 H   0  0  0  0  0
   36.6757   36.1113   20.5137 H   0  0  0  0  0
   35.0511   36.0387   17.2877 H   0  0  0  0  0
   36.2082   36.1850   15.1158 H   0  0  0  0  0
   38.5619   36.9312   15.0153 H   0  0  0  0  0
   39.7564   37.4952   17.1013 H   0  0  0  0  0
   38.6170   37.2924   19.2726 H   0  0  0  0  0
  1  2  4  0  0  0
  1  6  4  0  0  0
  2  3  4  0  0  0
  3  4  4  0  0  0
  4  5  4  0  0  0
  5  6  4  0  0  0
  5  7  1  0  0  0
  7  8  1  0  0  0
  8  9  1  0  0  0
  8 13  1  0  0  0
  9 10  1  0  0  0
  9 14  2  0  0  0
 10 11  2  0  0  0
 10 23  1  0  0  0
 11 12  1  0  0  0
 11 15  1  0  0  0
 12 13  2  0  0  0
 15 16  1  0  0  0
 16 17  1  0  0  0
 17 18  4  0  0  0
 17 22  4  0  0  0
 18 19  4  0  0  0
 19 20  4  0  0  0
 20 21  4  0  0  0
 21 22  4  0  0  0
  1 24  1  0  0  0
  2 25  1  0  0  0
  3 26  1  0  0  0
  4 27  1  0  0  0
  6 28  1  0  0  0
  7 29  1  0  0  0
  7 30  1  0  0  0
 12 31  1  0  0  0
 13 32  1  0  0  0
 16 33  1  0  0  0
 16 34  1  0  0  0
 18 35  1  0  0  0
 19 36  1  0  0  0
 20 37  1  0  0  0
 21 38  1  0  0  0
 22 39  1  0  0  0
M  END
$$$$
