### 
### Created by X-TOOL on Mon Sep 10 21:13:13 2018
### 

@<TRIPOS>MOLECULE
4m6q_ligand
   67    71     1     0     0
SMALL
GAST_HUCK


@<TRIPOS>ATOM
      1 C1         16.4900    4.4970   -4.7080 C.ar      1 20T        -0.0303
      2 C2         17.4720    3.7630   -4.0680 C.ar      1 20T        -0.0314
      3 C3         17.3970    3.5210   -2.7060 C.ar      1 20T         0.0500
      4 C4         16.3270    4.0240   -1.9830 C.ar      1 20T        -0.0061
      5 C5         15.3360    4.7550   -2.6220 C.ar      1 20T         0.1216
      6 C6         15.4210    4.9980   -3.9870 C.ar      1 20T        -0.0086
      7 S7         13.9970    5.3940   -1.6600 S.o2      1 20T         0.0285
      8 O8         13.1540    6.1500   -2.5220 O.2       1 20T        -0.1646
      9 O9         13.5410    4.3080   -0.8690 O.2       1 20T        -0.1646
     10 C10        14.8610    6.5260   -0.6240 C.ar      1 20T         0.0872
     11 C11        15.2610    7.7420   -1.1370 C.ar      1 20T        -0.0432
     12 C12        15.9610    8.6260   -0.3410 C.ar      1 20T        -0.0566
     13 C13        16.2620    8.2940    0.9630 C.ar      1 20T        -0.0209
     14 C14        15.8820    7.0730    1.4700 C.ar      1 20T        -0.0566
     15 C15        15.1810    6.1890    0.6730 C.ar      1 20T        -0.0432
     16 C16        17.0520    9.2710    1.7890 C.3       1 20T         0.0639
     17 N17        16.5510    9.4720    3.1410 N.am      1 20T        -0.2753
     18 C18        15.4390   10.2020    3.3050 C.2       1 20T         0.2069
     19 O19        14.8690   10.6680    2.3370 O.2       1 20T        -0.3865
     20 C20        14.9120   10.4460    4.6560 C.ar      1 20T         0.0678
     21 C21        15.4800    9.8460    5.7810 C.ar      1 20T        -0.0240
     22 C22        14.9150   10.1470    7.0260 C.ar      1 20T         0.0425
     23 C23        15.1960    9.7480    8.4010 C.2       1 20T         0.0320
     24 N24        14.3370   10.3470    9.1660 N.2       1 20T        -0.1927
     25 N25        13.4690   11.1380    8.4080 N.pl3     1 20T        -0.1503
     26 C26        13.8140   11.0310    7.0910 C.ar      1 20T         0.1679
     27 N27        13.3230   11.5670    5.9800 N.ar      1 20T        -0.2717
     28 C28        13.8240   11.3050    4.8070 C.ar      1 20T         0.0201
     29 C29        12.3900   11.9800    8.9500 C.3       1 20T         0.2092
     30 C31        11.0530   11.8630    8.1950 C.3       1 20T         0.1391
     31 C33        10.4060   10.6740    8.9080 C.3       1 20T         0.1149
     32 C35        10.8290   10.9280   10.3680 C.3       1 20T         0.1182
     33 O37        12.1040   11.6100   10.3180 O.3       1 20T        -0.3360
     34 C38        10.9890    9.6090   11.1230 C.3       1 20T         0.1072
     35 O39         9.7840    8.8640   10.9900 O.3       1 20T        -0.2734
     36 P40         8.7700    8.6060   12.2020 P.3       1 20T         0.2008
     37 O41         7.7540    7.6330   11.7500 O.co2     1 20T        -0.5537
     38 O42         9.5880    8.0330   13.4610 O.co2     1 20T        -0.5537
     39 O43         8.0290    9.9810   12.5930 O.co2     1 20T        -0.5537
     40 O44         8.9900   10.7790    8.7860 O.3       1 20T        -0.3864
     41 O45        10.2630   13.0350    8.4100 O.3       1 20T        -0.3836
     42 C46        18.4720    2.7190   -2.0050 C.3       1 20T         0.3771
     43 F47        18.8190    1.5930   -2.7570 F         1 20T        -0.2199
     44 F48        19.6250    3.4950   -1.8420 F         1 20T        -0.2199
     45 F49        18.0120    2.3040   -0.7510 F         1 20T        -0.2199
     46 H1         16.5580    4.6797   -5.7743 H         1 20T         0.0699
     47 H2         18.3081    3.3734   -4.6374 H         1 20T         0.0853
     48 H3         16.2642    3.8458   -0.9156 H         1 20T         0.0872
     49 H4         14.6526    5.5780   -4.4853 H         1 20T         0.0875
     50 H5         15.0263    8.0029   -2.1626 H         1 20T         0.0618
     51 H6         16.2747    9.5831   -0.7418 H         1 20T         0.0558
     52 H7         16.1316    6.8057    2.4905 H         1 20T         0.0558
     53 H8         14.8813    5.2258    1.0698 H         1 20T         0.0618
     54 H9         17.0424   10.2422    1.2726 H         1 20T         0.0683
     55 H10        18.0862    8.9028    1.8585 H         1 20T         0.0683
     56 H11        17.0246    9.0754    3.9274 H         1 20T         0.1870
     57 H12        16.3255    9.1733    5.6941 H         1 20T         0.0788
     58 H13        15.9840    9.0702    8.7259 H         1 20T         0.0742
     59 H14        13.3857   11.7647    3.9286 H         1 20T         0.0846
     60 H15        12.7268   13.0265    8.9135 H         1 20T         0.1002
     61 H16        11.1950   11.6814    7.1194 H         1 20T         0.0676
     62 H17        10.7635    9.7053    8.5289 H         1 20T         0.0648
     63 H18        10.0797   11.5537   10.8750 H         1 20T         0.0650
     64 H19        11.1847    9.8114   12.1864 H         1 20T         0.0639
     65 H20        11.8274    9.0375   10.6982 H         1 20T         0.0639
     66 H21         8.7147   11.6507    9.0448 H         1 20T         0.2100
     67 H22         9.3895   12.8946    8.0639 H         1 20T         0.2101
@<TRIPOS>BOND
     1    1    2 ar 
     2    1    6 ar 
     3    2    3 ar 
     4    3    4 ar 
     5    3   42 1  
     6    4    5 ar 
     7    5    6 ar 
     8    5    7 1  
     9    7    8 2  
    10    7    9 2  
    11    7   10 1  
    12   10   11 ar 
    13   10   15 ar 
    14   11   12 ar 
    15   12   13 ar 
    16   13   14 ar 
    17   13   16 1  
    18   14   15 ar 
    19   16   17 1  
    20   17   18 am 
    21   18   19 2  
    22   18   20 1  
    23   20   21 ar 
    24   20   28 ar 
    25   21   22 ar 
    26   22   23 1  
    27   22   26 ar 
    28   23   24 2  
    29   24   25 1  
    30   25   26 1  
    31   25   29 1  
    32   26   27 ar 
    33   27   28 ar 
    34   29   30 1  
    35   29   33 1  
    36   30   31 1  
    37   30   41 1  
    38   31   32 1  
    39   31   40 1  
    40   32   33 1  
    41   32   34 1  
    42   34   35 1  
    43   35   36 1  
    44   36   37 ar 
    45   36   38 ar 
    46   36   39 ar 
    47   42   43 1  
    48   42   44 1  
    49   42   45 1  
    50    1   46 1  
    51    2   47 1  
    52    4   48 1  
    53    6   49 1  
    54   11   50 1  
    55   12   51 1  
    56   14   52 1  
    57   15   53 1  
    58   16   54 1  
    59   16   55 1  
    60   17   56 1  
    61   21   57 1  
    62   23   58 1  
    63   28   59 1  
    64   29   60 1  
    65   30   61 1  
    66   31   62 1  
    67   32   63 1  
    68   34   64 1  
    69   34   65 1  
    70   40   66 1  
    71   41   67 1  
@<TRIPOS>SUBSTRUCTURE
     1 20T         1

