4m6q_ligand
  -I-interpret- 

 69 73  0  0  0  0  0  0  0  0999 V2000
   16.4900    4.4970   -4.7080 C   0  0  0  0  0
   17.4720    3.7630   -4.0680 C   0  0  0  0  0
   17.3970    3.5210   -2.7060 C   0  0  0  0  0
   16.3270    4.0240   -1.9830 C   0  0  0  0  0
   15.3360    4.7550   -2.6220 C   0  0  0  0  0
   15.4210    4.9980   -3.9870 C   0  0  0  0  0
   13.9970    5.3940   -1.6600 S   0  0  0  0  0
   13.1540    6.1500   -2.5220 O   0  0  0  0  0
   13.5410    4.3080   -0.8690 O   0  0  0  0  0
   14.8610    6.5260   -0.6240 C   0  0  0  0  0
   15.2610    7.7420   -1.1370 C   0  0  0  0  0
   15.9610    8.6260   -0.3410 C   0  0  0  0  0
   16.2620    8.2940    0.9630 C   0  0  0  0  0
   15.8820    7.0730    1.4700 C   0  0  0  0  0
   15.1810    6.1890    0.6730 C   0  0  0  0  0
   17.0520    9.2710    1.7890 C   0  0  0  0  0
   16.5510    9.4720    3.1410 N   0  0  0  0  0
   15.4390   10.2020    3.3050 C   0  0  0  0  0
   14.8690   10.6680    2.3370 O   0  0  0  0  0
   14.9120   10.4460    4.6560 C   0  0  0  0  0
   15.4800    9.8460    5.7810 C   0  0  0  0  0
   14.9150   10.1470    7.0260 C   0  0  0  0  0
   15.1960    9.7480    8.4010 C   0  0  0  0  0
   14.3370   10.3470    9.1660 N   0  0  0  0  0
   13.4690   11.1380    8.4080 N   0  0  0  0  0
   13.8140   11.0310    7.0910 C   0  0  0  0  0
   13.3230   11.5670    5.9800 N   0  0  0  0  0
   13.8240   11.3050    4.8070 C   0  0  0  0  0
   12.3900   11.9800    8.9500 C   0  0  0  0  0
   11.0530   11.8630    8.1950 C   0  0  0  0  0
   10.4060   10.6740    8.9080 C   0  0  0  0  0
   10.8290   10.9280   10.3680 C   0  0  0  0  0
   12.1040   11.6100   10.3180 O   0  0  0  0  0
   10.9890    9.6090   11.1230 C   0  0  0  0  0
    9.7840    8.8640   10.9900 O   0  0  0  0  0
    8.7700    8.6060   12.2020 P   0  0  0  0  0
    7.7540    7.6330   11.7500 O   0  0  0  0  0
    9.5880    8.0330   13.4610 O   0  0  0  0  0
    8.0290    9.9810   12.5930 O   0  0  0  0  0
    8.9900   10.7790    8.7860 O   0  0  0  0  0
   10.2630   13.0350    8.4100 O   0  0  0  0  0
   18.4720    2.7190   -2.0050 C   0  0  0  0  0
   18.8190    1.5930   -2.7570 F   0  0  0  0  0
   19.6250    3.4950   -1.8420 F   0  0  0  0  0
   18.0120    2.3040   -0.7510 F   0  0  0  0  0
   16.5583    4.6807   -5.7802 H   0  0  0  0  0
   18.3128    3.3713   -4.6405 H   0  0  0  0  0
   16.2639    3.8449   -0.9097 H   0  0  0  0  0
   14.6484    5.5812   -4.4881 H   0  0  0  0  0
   15.0250    8.0043   -2.1683 H   0  0  0  0  0
   16.2765    9.5884   -0.7440 H   0  0  0  0  0
   16.1329    6.8043    2.4961 H   0  0  0  0  0
   14.8797    5.2205    1.0720 H   0  0  0  0  0
   16.9924   10.2345    1.2828 H   0  0  0  0  0
   18.0594    8.8653    1.8817 H   0  0  0  0  0
   17.0340    9.0675    3.9432 H   0  0  0  0  0
   16.3302    9.1695    5.6936 H   0  0  0  0  0
   15.9847    9.0696    8.7262 H   0  0  0  0  0
   13.3832   11.7673    3.9238 H   0  0  0  0  0
   12.7653   12.9986    8.8511 H   0  0  0  0  0
   11.1575   11.7474    7.1162 H   0  0  0  0  0
   10.6919    9.6939    8.5261 H   0  0  0  0  0
   10.0736   11.5189   10.8860 H   0  0  0  0  0
   11.1911    9.8050   12.1760 H   0  0  0  0  0
   11.8241    9.0429   10.7104 H   0  0  0  0  0
   10.2413    8.6796   13.7378 H   0  0  0  0  0
    8.6803   10.6214   12.8885 H   0  0  0  0  0
    8.5756   10.0361    9.2311 H   0  0  0  0  0
    9.4328   12.9514    7.9353 H   0  0  0  0  0
  1  2  4  0  0  0
  1  6  4  0  0  0
  2  3  4  0  0  0
  3  4  4  0  0  0
  3 42  1  0  0  0
  4  5  4  0  0  0
  5  6  4  0  0  0
  5  7  1  0  0  0
  7  8  2  0  0  0
  7  9  2  0  0  0
  7 10  1  0  0  0
 10 11  4  0  0  0
 10 15  4  0  0  0
 11 12  4  0  0  0
 12 13  4  0  0  0
 13 14  4  0  0  0
 13 16  1  0  0  0
 14 15  4  0  0  0
 16 17  1  0  0  0
 17 18  1  0  0  0
 18 19  2  0  0  0
 18 20  1  0  0  0
 20 21  4  0  0  0
 20 28  4  0  0  0
 21 22  4  0  0  0
 22 23  4  0  0  0
 22 26  4  0  0  0
 23 24  4  0  0  0
 24 25  4  0  0  0
 25 26  4  0  0  0
 25 29  1  0  0  0
 26 27  4  0  0  0
 27 28  4  0  0  0
 29 30  1  0  0  0
 29 33  1  0  0  0
 30 31  1  0  0  0
 30 41  1  0  0  0
 31 32  1  0  0  0
 31 40  1  0  0  0
 32 33  1  0  0  0
 32 34  1  0  0  0
 34 35  1  0  0  0
 35 36  1  0  0  0
 36 37  2  0  0  0
 36 38  1  0  0  0
 36 39  1  0  0  0
 42 43  1  0  0  0
 42 44  1  0  0  0
 42 45  1  0  0  0
  1 46  1  0  0  0
  2 47  1  0  0  0
  4 48  1  0  0  0
  6 49  1  0  0  0
 11 50  1  0  0  0
 12 51  1  0  0  0
 14 52  1  0  0  0
 15 53  1  0  0  0
 16 54  1  0  0  0
 16 55  1  0  0  0
 17 56  1  0  0  0
 21 57  1  0  0  0
 23 58  1  0  0  0
 28 59  1  0  0  0
 29 60  1  0  0  0
 30 61  1  0  0  0
 31 62  1  0  0  0
 32 63  1  0  0  0
 34 64  1  0  0  0
 34 65  1  0  0  0
 38 66  1  0  0  0
 39 67  1  0  0  0
 40 68  1  0  0  0
 41 69  1  0  0  0
M  END
$$$$
