2xfi_ligand
  -I-interpret- 

 86 89  0  0  0  0  0  0  0  0999 V2000
   29.6070    6.3810   36.4010 C   0  0  0  0  0
   28.9230    6.7310   35.0910 C   0  0  0  0  0
   28.1410    5.5790   34.5770 N   0  3  0  0  0
   28.9860    4.4330   34.1910 C   0  0  0  0  0
   28.2110    3.5670   33.1970 C   0  0  0  0  0
   27.8750    4.4430   32.1150 O   0  0  0  0  0
   29.0210    2.3670   32.7280 C   0  0  0  0  0
   28.3780    1.6430   31.5490 C   0  0  0  0  0
   29.0330    0.3130   31.2650 C   0  0  0  0  0
   30.4000    0.2030   31.0560 C   0  0  0  0  0
   30.9700   -1.0340   30.8030 C   0  0  0  0  0
   30.1810   -2.1700   30.7530 C   0  0  0  0  0
   28.8220   -2.0650   30.9570 C   0  0  0  0  0
   28.2520   -0.8300   31.2110 C   0  0  0  0  0
   29.2370    1.4270   33.8340 N   0  0  0  0  0
   30.4470    1.3530   34.4680 C   0  0  0  0  0
   31.3610    2.1640   34.3170 O   0  0  0  0  0
   30.5680    0.1920   35.3700 C   0  0  0  0  0
   30.0220   -1.0270   35.0120 C   0  0  0  0  0
   30.1260   -2.1130   35.8710 C   0  0  0  0  0
   30.7850   -1.9780   37.0860 C   0  0  0  0  0
   31.3300   -0.7470   37.4240 C   0  0  0  0  0
   31.2220    0.3400   36.5750 C   0  0  0  0  0
   32.0280   -0.5490   38.6630 N   0  0  0  0  0
   33.3660   -0.0390   38.6070 C   0  0  0  0  0
   34.3440   -0.8070   38.0150 C   0  0  0  0  0
   35.6280   -0.3000   37.9580 C   0  0  0  0  0
   35.9040    0.9370   38.4930 C   0  0  0  0  0
   34.9160    1.6930   39.0810 C   0  0  0  0  0
   33.6290    1.2060   39.1410 C   0  0  0  0  0
   31.5150   -1.2490   40.1120 S   0  0  0  0  0
   32.4640   -2.7430   40.1980 C   0  0  0  0  0
   30.1330   -1.6250   39.9610 O   0  0  0  0  0
   31.9710   -0.4250   41.2070 O   0  0  0  0  0
   29.9470    7.1730   34.0610 C   0  0  0  0  0
   31.1440    6.8980   34.1210 O   0  0  0  0  0
   29.3990    7.9330   33.0520 N   0  0  0  0  0
   30.2540    8.4090   31.9610 C   0  0  0  0  0
   29.5130    8.2470   30.6570 C   0  0  0  0  0
   30.3160    8.7410   29.4560 C   0  0  0  0  0
   30.6940   10.1970   29.6490 C   0  0  0  0  0
   31.4730   10.3290   30.9520 C   0  0  0  0  0
   30.6130    9.8700   32.1310 C   0  0  0  0  0
   30.3161    5.5702   36.2339 H   0  0  0  0  0
   30.1360    7.2561   36.7783 H   0  0  0  0  0
   28.8580    6.0663   37.1277 H   0  0  0  0  0
   28.2343    7.5550   35.2778 H   0  0  0  0  0
   27.6411    5.8903   33.7441 H   0  0  0  0  0
   27.5192    5.2684   35.3235 H   0  0  0  0  0
   29.2410    3.8464   35.0736 H   0  0  0  0  0
   29.9077    4.7901   33.7317 H   0  0  0  0  0
   27.3207    3.1360   33.6549 H   0  0  0  0  0
   27.3662    5.1844   32.4512 H   0  0  0  0  0
   29.9798    2.7553   32.3843 H   0  0  0  0  0
   28.4912    2.2706   30.6650 H   0  0  0  0  0
   27.3324    1.4585   31.7957 H   0  0  0  0  0
   31.0280    1.0932   31.0910 H   0  0  0  0  0
   32.0452   -1.1130   30.6425 H   0  0  0  0  0
   30.6318   -3.1421   30.5534 H   0  0  0  0  0
   28.1954   -2.9560   30.9182 H   0  0  0  0  0
   27.1763   -0.7556   31.3704 H   0  0  0  0  0
   28.4741    0.8202   34.1343 H   0  0  0  0  0
   29.5101   -1.1353   34.0558 H   0  0  0  0  0
   29.6901   -3.0722   35.5915 H   0  0  0  0  0
   30.8730   -2.8266   37.7645 H   0  0  0  0  0
   31.6491    1.3028   36.8555 H   0  0  0  0  0
   34.1113   -1.7887   37.6024 H   0  0  0  0  0
   36.4226   -0.8803   37.4890 H   0  0  0  0  0
   36.9219    1.3245   38.4504 H   0  0  0  0  0
   35.1507    2.6726   39.4973 H   0  0  0  0  0
   32.8338    1.7925   39.6013 H   0  0  0  0  0
   32.1329   -3.3336   41.0522 H   0  0  0  0  0
   32.3215   -3.3157   39.2816 H   0  0  0  0  0
   33.5193   -2.4955   40.3129 H   0  0  0  0  0
   28.4053    8.1630   33.0638 H   0  0  0  0  0
   31.1736    7.8239   31.9695 H   0  0  0  0  0
   28.6002    8.8399   30.7154 H   0  0  0  0  0
   29.3171    7.1844   30.5138 H   0  0  0  0  0
   29.7104    8.6439   28.5550 H   0  0  0  0  0
   31.2232    8.1443   29.3610 H   0  0  0  0  0
   29.7946   10.8113   29.6907 H   0  0  0  0  0
   31.3079   10.5347   28.8140 H   0  0  0  0  0
   31.7499   11.3731   31.0977 H   0  0  0  0  0
   32.3660    9.7063   30.8983 H   0  0  0  0  0
   31.1713    9.9998   33.0581 H   0  0  0  0  0
   29.7004   10.4650   32.1663 H   0  0  0  0  0
  1  2  1  0  0  0
  2  3  1  0  0  0
  2 35  1  0  0  0
  3  4  1  0  0  0
  4  5  1  0  0  0
  5  6  1  0  0  0
  5  7  1  0  0  0
  7  8  1  0  0  0
  7 15  1  0  0  0
  8  9  1  0  0  0
  9 10  4  0  0  0
  9 14  4  0  0  0
 10 11  4  0  0  0
 11 12  4  0  0  0
 12 13  4  0  0  0
 13 14  4  0  0  0
 15 16  1  0  0  0
 16 17  2  0  0  0
 16 18  1  0  0  0
 18 19  4  0  0  0
 18 23  4  0  0  0
 19 20  4  0  0  0
 20 21  4  0  0  0
 21 22  4  0  0  0
 22 23  4  0  0  0
 22 24  1  0  0  0
 24 25  1  0  0  0
 24 31  1  0  0  0
 25 26  4  0  0  0
 25 30  4  0  0  0
 26 27  4  0  0  0
 27 28  4  0  0  0
 28 29  4  0  0  0
 29 30  4  0  0  0
 31 32  1  0  0  0
 31 33  2  0  0  0
 31 34  2  0  0  0
 35 36  2  0  0  0
 35 37  1  0  0  0
 37 38  1  0  0  0
 38 39  1  0  0  0
 38 43  1  0  0  0
 39 40  1  0  0  0
 40 41  1  0  0  0
 41 42  1  0  0  0
 42 43  1  0  0  0
  1 44  1  0  0  0
  1 45  1  0  0  0
  1 46  1  0  0  0
  2 47  1  0  0  0
  3 48  1  0  0  0
  3 49  1  0  0  0
  4 50  1  0  0  0
  4 51  1  0  0  0
  5 52  1  0  0  0
  6 53  1  0  0  0
  7 54  1  0  0  0
  8 55  1  0  0  0
  8 56  1  0  0  0
 10 57  1  0  0  0
 11 58  1  0  0  0
 12 59  1  0  0  0
 13 60  1  0  0  0
 14 61  1  0  0  0
 15 62  1  0  0  0
 19 63  1  0  0  0
 20 64  1  0  0  0
 21 65  1  0  0  0
 23 66  1  0  0  0
 26 67  1  0  0  0
 27 68  1  0  0  0
 28 69  1  0  0  0
 29 70  1  0  0  0
 30 71  1  0  0  0
 32 72  1  0  0  0
 32 73  1  0  0  0
 32 74  1  0  0  0
 37 75  1  0  0  0
 38 76  1  0  0  0
 39 77  1  0  0  0
 39 78  1  0  0  0
 40 79  1  0  0  0
 40 80  1  0  0  0
 41 81  1  0  0  0
 41 82  1  0  0  0
 42 83  1  0  0  0
 42 84  1  0  0  0
 43 85  1  0  0  0
 43 86  1  0  0  0
M  END
$$$$
