5idn_ligand
  -I-interpret- 

 40 43  0  0  0  0  0  0  0  0999 V2000
   -5.6730   13.3040   -7.0670 C   0  0  0  0  0
   -6.0900   14.3190   -7.9240 C   0  0  0  0  0
   -5.8510   14.2290   -9.2910 C   0  0  0  0  0
   -5.1840   13.1200   -9.8120 C   0  0  0  0  0
   -4.7810   12.1100   -8.9470 C   0  0  0  0  0
   -5.0140   12.2010   -7.5860 C   0  0  0  0  0
   -4.9170   12.9230  -11.2930 C   0  0  0  0  0
   -3.7730   14.9050  -11.9450 C   0  0  0  0  0
   -5.1610   14.8730  -12.6340 C   0  0  0  0  0
   -5.8590   13.6440  -12.1800 N   0  0  0  0  0
   -7.8450   12.0720  -12.1410 C   0  0  0  0  0
   -7.9690   11.6760  -10.7860 C   0  0  0  0  0
   -8.6550   10.5080  -10.4650 C   0  0  0  0  0
   -9.2510    9.7170  -11.5520 C   0  0  0  0  0
   -8.4440   11.2920  -13.1310 C   0  0  0  0  0
   -9.8190    8.6870  -10.9640 N   0  0  0  0  0
   -8.9760    9.7840   -9.3000 C   0  0  0  0  0
   -5.9680   13.4000   -5.3570 Cl  0  0  0  0  0
   -3.5070   13.4050  -11.6690 C   0  0  0  0  0
   -7.1300   13.3040  -12.5660 C   0  0  0  0  0
   -7.7260   14.0450  -13.3320 O   0  0  0  0  0
   -9.1110   10.1660  -12.8430 N   0  0  0  0  0
   -9.6540    8.7280   -9.6910 N   0  0  0  0  0
   -8.6010   10.1390   -7.8830 C   0  0  0  0  0
   -6.6071   15.1897   -7.5209 H   0  0  0  0  0
   -6.1851   15.0255   -9.9559 H   0  0  0  0  0
   -4.2733   11.2322   -9.3468 H   0  0  0  0  0
   -4.6789   11.4045   -6.9217 H   0  0  0  0  0
   -5.0387   11.8506  -11.4455 H   0  0  0  0  0
   -3.7560   15.5166  -11.0429 H   0  0  0  0  0
   -3.0012   15.3719  -12.5568 H   0  0  0  0  0
   -5.0474   14.8674  -13.7181 H   0  0  0  0  0
   -5.7382   15.7585  -12.3678 H   0  0  0  0  0
   -7.5281   12.2848   -9.9966 H   0  0  0  0  0
   -8.3669   11.6086  -14.1712 H   0  0  0  0  0
   -3.0684   12.8718  -12.5125 H   0  0  0  0  0
   -2.7582   13.2240  -10.8979 H   0  0  0  0  0
   -7.5153   10.1780   -7.7948 H   0  0  0  0  0
   -9.0226   11.1118   -7.6298 H   0  0  0  0  0
   -8.9951    9.3829   -7.2039 H   0  0  0  0  0
  2  1  4  0  0  0
  6  1  4  0  0  0
  1 18  1  0  0  0
  3  2  4  0  0  0
  4  3  4  0  0  0
  4  5  4  0  0  0
  7  4  1  0  0  0
  5  6  4  0  0  0
 10  7  1  0  0  0
  7 19  1  0  0  0
  9  8  1  0  0  0
  8 19  1  0  0  0
 10  9  1  0  0  0
 20 10  1  0  0  0
 11 12  4  0  0  0
 11 15  4  0  0  0
 11 20  1  0  0  0
 12 13  4  0  0  0
 13 14  4  0  0  0
 13 17  4  0  0  0
 14 16  4  0  0  0
 14 22  4  0  0  0
 15 22  4  0  0  0
 16 23  4  0  0  0
 17 23  4  0  0  0
 17 24  1  0  0  0
 20 21  2  0  0  0
  2 25  1  0  0  0
  3 26  1  0  0  0
  5 27  1  0  0  0
  6 28  1  0  0  0
  7 29  1  0  0  0
  8 30  1  0  0  0
  8 31  1  0  0  0
  9 32  1  0  0  0
  9 33  1  0  0  0
 12 34  1  0  0  0
 15 35  1  0  0  0
 19 36  1  0  0  0
 19 37  1  0  0  0
 24 38  1  0  0  0
 24 39  1  0  0  0
 24 40  1  0  0  0
M  END
$$$$
