### 
### Created by X-TOOL on Mon Sep 10 21:12:52 2018
### 

@<TRIPOS>MOLECULE
1zaj_ligand
   32    31     1     0     0
SMALL
GAST_HUCK


@<TRIPOS>ATOM
      1 C1          5.8470  -30.5860   47.9390 C.3       1 M2P         0.1068
      2 C5          2.5090  -30.2410   51.4720 C.3       1 M2P         0.1111
      3 C6          1.0680  -30.7010   51.6990 C.3       1 M2P         0.1068
      4 C4          2.8050  -30.2320   49.9720 C.3       1 M2P         0.1118
      5 C3          4.2210  -29.7370   49.6670 C.3       1 M2P         0.1118
      6 C2          4.5250  -29.8520   48.1720 C.3       1 M2P         0.1111
      7 O12         8.1140  -32.4350   47.5370 O.co2     1 M2P        -0.5537
      8 P1          6.7340  -33.0720   48.0710 P.3       1 M2P         0.2008
      9 O13         5.9510  -33.6140   46.7720 O.co2     1 M2P        -0.5537
     10 O11         6.9460  -34.1180   49.0960 O.co2     1 M2P        -0.5537
     11 O1          5.8480  -31.8440   48.6190 O.3       1 M2P        -0.2734
     12 O2          3.4670  -30.5500   47.5070 O.3       1 M2P        -0.3865
     13 O3          4.3360  -28.3640   50.0530 O.3       1 M2P        -0.3865
     14 O4          1.8460  -29.3950   49.3190 O.3       1 M2P        -0.3865
     15 O5          3.3980  -31.1450   52.1330 O.3       1 M2P        -0.3865
     16 O6          0.7020  -30.5920   53.0750 O.3       1 M2P        -0.2734
     17 P6         -0.7800  -31.0410   53.5080 P.3       1 M2P         0.2008
     18 O62        -0.8750  -30.7350   55.0850 O.co2     1 M2P        -0.5537
     19 O63        -0.8430  -32.6390   53.3290 O.co2     1 M2P        -0.5537
     20 O61        -1.8200  -30.3380   52.7250 O.co2     1 M2P        -0.5537
     21 H1          6.6752  -29.9691   48.3178 H         1 M2P         0.0639
     22 H2          5.9808  -30.7573   46.8607 H         1 M2P         0.0639
     23 H3          2.6429  -29.2282   51.8797 H         1 M2P         0.0646
     24 H4          0.9726  -31.7507   51.3844 H         1 M2P         0.0639
     25 H5          0.3925  -30.0751   51.0974 H         1 M2P         0.0639
     26 H6          2.7061  -31.2582   49.5886 H         1 M2P         0.0647
     27 H7          4.9450  -30.3414   50.2331 H         1 M2P         0.0647
     28 H8          4.6039  -28.8391   47.7504 H         1 M2P         0.0646
     29 H9          2.6528  -30.0748   47.6244 H         1 M2P         0.2100
     30 H10         4.1491  -28.2803   50.9807 H         1 M2P         0.2100
     31 H11         1.9922  -29.4202   48.3807 H         1 M2P         0.2100
     32 H12         4.2949  -30.8666   51.9900 H         1 M2P         0.2100
@<TRIPOS>BOND
     1    1    6 1  
     2   11    1 1  
     3    2    3 1  
     4    4    2 1  
     5    2   15 1  
     6    3   16 1  
     7    5    4 1  
     8    4   14 1  
     9    6    5 1  
    10    5   13 1  
    11    6   12 1  
    12    8    7 ar 
    13    8    9 ar 
    14    8   10 ar 
    15    8   11 1  
    16   16   17 1  
    17   17   18 ar 
    18   17   19 ar 
    19   17   20 ar 
    20    1   21 1  
    21    1   22 1  
    22    2   23 1  
    23    3   24 1  
    24    3   25 1  
    25    4   26 1  
    26    5   27 1  
    27    6   28 1  
    28   12   29 1  
    29   13   30 1  
    30   14   31 1  
    31   15   32 1  
@<TRIPOS>SUBSTRUCTURE
     1 M2P         1

