1zaj_ligand
  -I-interpret- 

 36 35  0  0  0  0  0  0  0  0999 V2000
    5.8470  -30.5860   47.9390 C   0  0  0  0  0
    2.5090  -30.2410   51.4720 C   0  0  0  0  0
    1.0680  -30.7010   51.6990 C   0  0  0  0  0
    2.8050  -30.2320   49.9720 C   0  0  0  0  0
    4.2210  -29.7370   49.6670 C   0  0  0  0  0
    4.5250  -29.8520   48.1720 C   0  0  0  0  0
    8.1140  -32.4350   47.5370 O   0  0  0  0  0
    6.7340  -33.0720   48.0710 P   0  0  0  0  0
    5.9510  -33.6140   46.7720 O   0  0  0  0  0
    6.9460  -34.1180   49.0960 O   0  0  0  0  0
    5.8480  -31.8440   48.6190 O   0  0  0  0  0
    3.4670  -30.5500   47.5070 O   0  0  0  0  0
    4.3360  -28.3640   50.0530 O   0  0  0  0  0
    1.8460  -29.3950   49.3190 O   0  0  0  0  0
    3.3980  -31.1450   52.1330 O   0  0  0  0  0
    0.7020  -30.5920   53.0750 O   0  0  0  0  0
   -0.7800  -31.0410   53.5080 P   0  0  0  0  0
   -0.8750  -30.7350   55.0850 O   0  0  0  0  0
   -0.8430  -32.6390   53.3290 O   0  0  0  0  0
   -1.8200  -30.3380   52.7250 O   0  0  0  0  0
    6.6638  -29.9751   48.3233 H   0  0  0  0  0
    5.9713  -30.7610   46.8703 H   0  0  0  0  0
    2.6463  -29.2368   51.8732 H   0  0  0  0  0
    0.9847  -31.7454   51.3984 H   0  0  0  0  0
    0.4038  -30.0676   51.1110 H   0  0  0  0  0
    2.7357  -31.2553   49.6031 H   0  0  0  0  0
    4.9286  -30.3515   50.2236 H   0  0  0  0  0
    4.6083  -28.8442   47.7651 H   0  0  0  0  0
    7.9216  -31.7649   46.8770 H   0  0  0  0  0
    5.8418  -32.8968   46.1432 H   0  0  0  0  0
    3.6679  -30.6163   46.5706 H   0  0  0  0  0
    4.1472  -28.2794   50.9904 H   0  0  0  0  0
    0.9610  -29.7113   49.5147 H   0  0  0  0  0
    3.2086  -31.1474   53.0741 H   0  0  0  0  0
   -0.1812  -31.2132   55.5450 H   0  0  0  0  0
   -0.1509  -33.0463   53.8550 H   0  0  0  0  0
  1  6  1  0  0  0
 11  1  1  0  0  0
  2  3  1  0  0  0
  4  2  1  0  0  0
  2 15  1  0  0  0
  3 16  1  0  0  0
  5  4  1  0  0  0
  4 14  1  0  0  0
  6  5  1  0  0  0
  5 13  1  0  0  0
  6 12  1  0  0  0
  8  7  1  0  0  0
  8  9  1  0  0  0
  8 10  2  0  0  0
  8 11  1  0  0  0
 16 17  1  0  0  0
 17 18  1  0  0  0
 17 19  1  0  0  0
 17 20  2  0  0  0
  1 21  1  0  0  0
  1 22  1  0  0  0
  2 23  1  0  0  0
  3 24  1  0  0  0
  3 25  1  0  0  0
  4 26  1  0  0  0
  5 27  1  0  0  0
  6 28  1  0  0  0
  7 29  1  0  0  0
  9 30  1  0  0  0
 12 31  1  0  0  0
 13 32  1  0  0  0
 14 33  1  0  0  0
 15 34  1  0  0  0
 18 35  1  0  0  0
 19 36  1  0  0  0
M  END
$$$$
