1h1p_ligand
  -I-interpret- 

 34 36  0  0  0  0  0  0  0  0999 V2000
   33.3860   45.1310   18.1090 N   0  0  0  0  0
   33.8910   44.4080   16.9780 C   0  0  0  0  0
   34.6070   45.0840   16.1150 N   0  0  0  0  0
   34.8710   46.4680   16.3200 C   0  0  0  0  0
   34.3380   47.0780   17.3880 C   0  0  0  0  0
   33.5680   46.3310   18.3990 C   0  0  0  0  0
   33.0800   46.9870   19.4520 O   0  0  0  0  0
   32.7960   46.3000   20.6500 C   0  0  0  0  0
   34.7930   48.4110   17.2250 N   0  0  0  0  0
   35.5460   48.4800   16.1920 C   0  0  0  0  0
   35.5840   47.3040   15.6090 N   0  0  0  0  0
   33.5970   43.1160   16.8860 N   0  0  0  0  0
   31.6720   46.9610   21.4760 C   0  0  0  0  0
   31.8010   46.4090   22.9300 C   0  0  0  0  0
   30.9550   47.1880   23.9640 C   0  0  0  0  0
   31.0980   48.7030   23.8730 C   0  0  0  0  0
   30.8100   49.2470   22.4270 C   0  0  0  0  0
   31.6670   48.4870   21.3650 C   0  0  0  0  0
   33.7009   46.3064   21.2577 H   0  0  0  0  0
   32.4653   45.2957   20.3852 H   0  0  0  0  0
   36.0714   49.3720   15.8510 H   0  0  0  0  0
   33.0291   42.6697   17.6062 H   0  0  0  0  0
   33.9392   42.5702   16.0952 H   0  0  0  0  0
   30.6900   46.6991   21.0820 H   0  0  0  0  0
   32.8462   46.5036   23.2244 H   0  0  0  0  0
   31.4422   45.3798   22.9223 H   0  0  0  0  0
   31.3023   46.8908   24.9535 H   0  0  0  0  0
   29.9092   46.9511   23.7683 H   0  0  0  0  0
   32.1251   48.9606   24.1316 H   0  0  0  0  0
   30.3729   49.1513   24.5523 H   0  0  0  0  0
   31.0674   50.3056   22.3929 H   0  0  0  0  0
   29.7548   49.0960   22.1993 H   0  0  0  0  0
   31.2310   48.7222   20.3941 H   0  0  0  0  0
   32.6975   48.8086   21.5157 H   0  0  0  0  0
  6  1  4  0  0  0
  1  2  4  0  0  0
  2 12  1  0  0  0
  2  3  4  0  0  0
  3  4  4  0  0  0
  4 11  4  0  0  0
  4  5  4  0  0  0
  5  9  4  0  0  0
  5  6  4  0  0  0
  6  7  1  0  0  0
  7  8  1  0  0  0
  8 13  1  0  0  0
 13 18  1  0  0  0
 13 14  1  0  0  0
 14 15  1  0  0  0
 15 16  1  0  0  0
 16 17  1  0  0  0
 18 17  1  0  0  0
  9 10  4  0  0  0
 10 11  4  0  0  0
  8 19  1  0  0  0
  8 20  1  0  0  0
 10 21  1  0  0  0
 12 22  1  0  0  0
 12 23  1  0  0  0
 13 24  1  0  0  0
 14 25  1  0  0  0
 14 26  1  0  0  0
 15 27  1  0  0  0
 15 28  1  0  0  0
 16 29  1  0  0  0
 16 30  1  0  0  0
 17 31  1  0  0  0
 17 32  1  0  0  0
 18 33  1  0  0  0
 18 34  1  0  0  0
M  END
$$$$
