5t7s_ligand
  -I-interpret- 

 45 46  0  0  0  0  0  0  0  0999 V2000
   -5.7570    0.4190    7.3500 C   0  0  0  0  0
   -5.3340   -0.9460    6.7900 C   0  0  0  0  0
   -4.0220   -0.8450    6.0030 C   0  0  0  0  0
   -4.0330    0.3540    5.0440 C   0  0  0  0  0
   -4.4490    1.6190    5.7970 C   0  0  0  0  0
   -4.4460    2.8610    4.9150 C   0  0  0  0  0
   -7.0740    0.3090    7.8990 O   0  0  0  0  0
   -5.1640   -1.9080    7.8460 O   0  0  0  0  0
   -3.8030   -2.0730    5.3060 O   0  0  0  0  0
   -4.9470    0.1160    3.9590 O   0  0  0  0  0
   -5.7610    1.4230    6.3280 O   0  0  0  0  0
   -4.9270    3.9700    5.6790 O   0  0  0  0  0
   -9.4040    2.6670   10.4620 C   0  0  0  0  0
   -9.5190    2.9460    8.9610 C   0  0  0  0  0
   -8.9010    1.8120    8.1380 C   0  0  0  0  0
   -7.5050    1.4580    8.6300 C   0  0  0  0  0
   -7.5430    1.1450   10.1250 C   0  0  0  0  0
   -6.1750    0.7750   10.7010 C   0  0  0  0  0
  -10.3180    1.6240   10.8190 O   0  0  0  0  0
  -10.9030    3.1020    8.6190 O   0  0  0  0  0
   -8.8400    2.1530    6.7480 O   0  0  0  0  0
   -8.0700    2.2830   10.8270 O   0  0  0  0  0
   -5.2280    1.8390   10.4980 O   0  0  0  0  0
   -5.0412    0.7124    8.1179 H   0  0  0  0  0
   -6.1307   -1.2729    6.1218 H   0  0  0  0  0
   -3.1990   -0.6776    6.6978 H   0  0  0  0  0
   -3.0295    0.4872    4.6398 H   0  0  0  0  0
   -3.7195    1.7874    6.5892 H   0  0  0  0  0
   -5.0898    2.7013    4.0501 H   0  0  0  0  0
   -3.4334    3.0640    4.5665 H   0  0  0  0  0
   -5.9802   -1.9799    8.3463 H   0  0  0  0  0
   -3.8020   -2.7998    5.9332 H   0  0  0  0  0
   -4.6835   -0.6782    3.4885 H   0  0  0  0  0
   -4.9287    4.7581    5.1308 H   0  0  0  0  0
   -9.6474    3.5837   10.9992 H   0  0  0  0  0
   -8.9725    3.8606    8.7312 H   0  0  0  0  0
   -9.5482    0.9442    8.2655 H   0  0  0  0  0
   -6.8185    2.2906    8.4762 H   0  0  0  0  0
   -8.1821    0.2718   10.2563 H   0  0  0  0  0
   -5.8116   -0.1192   10.1947 H   0  0  0  0  0
   -6.2811    0.5995   11.7715 H   0  0  0  0  0
  -10.2480    1.4469   11.7599 H   0  0  0  0  0
  -10.9812    3.2773    7.6784 H   0  0  0  0  0
   -8.4494    1.4257    6.2581 H   0  0  0  0  0
   -4.3789    1.5848   10.8667 H   0  0  0  0  0
  1  2  1  0  0  0
  7  1  1  0  0  0
  1 11  1  0  0  0
  2  3  1  0  0  0
  2  8  1  0  0  0
  3  4  1  0  0  0
  3  9  1  0  0  0
  5  4  1  0  0  0
  4 10  1  0  0  0
  5  6  1  0  0  0
 11  5  1  0  0  0
  6 12  1  0  0  0
 16  7  1  0  0  0
 14 13  1  0  0  0
 13 19  1  0  0  0
 13 22  1  0  0  0
 15 14  1  0  0  0
 14 20  1  0  0  0
 15 16  1  0  0  0
 15 21  1  0  0  0
 16 17  1  0  0  0
 17 18  1  0  0  0
 17 22  1  0  0  0
 18 23  1  0  0  0
  1 24  1  0  0  0
  2 25  1  0  0  0
  3 26  1  0  0  0
  4 27  1  0  0  0
  5 28  1  0  0  0
  6 29  1  0  0  0
  6 30  1  0  0  0
  8 31  1  0  0  0
  9 32  1  0  0  0
 10 33  1  0  0  0
 12 34  1  0  0  0
 13 35  1  0  0  0
 14 36  1  0  0  0
 15 37  1  0  0  0
 16 38  1  0  0  0
 17 39  1  0  0  0
 18 40  1  0  0  0
 18 41  1  0  0  0
 19 42  1  0  0  0
 20 43  1  0  0  0
 21 44  1  0  0  0
 23 45  1  0  0  0
M  END
$$$$
