2yme_ligand
  -I-interpret- 

 48 51  0  0  0  0  0  0  0  0999 V2000
  -10.1950   70.8590    2.2680 O   0  0  0  0  0
  -11.4300   70.8440    2.4440 C   0  0  0  0  0
  -12.3710   70.9230    1.2130 C   0  0  0  0  0
  -11.9560   71.0490   -0.2170 C   0  0  0  0  0
  -10.7240   71.1210   -0.8900 C   0  0  0  0  0
  -10.7010   71.2420   -2.3000 C   0  0  0  0  0
  -11.9120   71.2900   -3.0290 C   0  0  0  0  0
  -13.1490   71.2190   -2.3530 C   0  0  0  0  0
  -13.1790   71.0990   -0.9550 C   0  0  0  0  0
  -14.2180   71.0080   -0.0400 N   0  0  0  0  0
  -15.6430   71.0240   -0.3810 C   0  0  0  0  0
  -13.7210   70.9080    1.2190 N   0  0  0  0  0
  -12.0110   70.5740    3.7640 N   0  0  0  0  0
  -11.2720   70.6890    5.0280 C   0  0  0  0  0
  -10.3070   69.6320    5.1360 C   0  0  0  0  0
   -8.8520   70.0060    5.2100 C   0  0  0  0  0
  -10.7980   72.1050    5.2030 C   0  0  0  0  0
   -9.3280   72.3590    5.2260 C   0  0  0  0  0
   -8.5250   71.3280    4.6390 N   0  3  0  0  0
   -7.1730   71.7180    4.4700 C   0  0  0  0  0
   -8.8360   72.5560    6.6680 C   0  0  0  0  0
   -8.8790   71.2260    7.4300 C   0  0  0  0  0
   -8.3810   70.0550    6.6120 C   0  0  0  0  0
   -9.7905   71.0838   -0.3285 H   0  0  0  0  0
   -9.7476   71.2983   -2.8253 H   0  0  0  0  0
  -11.8900   71.3820   -4.1149 H   0  0  0  0  0
  -14.0811   71.2574   -2.9168 H   0  0  0  0  0
  -15.8842   71.9599   -0.8849 H   0  0  0  0  0
  -15.8667   70.1862   -1.0414 H   0  0  0  0  0
  -16.2344   70.9377    0.5305 H   0  0  0  0  0
  -12.9893   70.2886    3.8064 H   0  0  0  0  0
  -11.9038   70.5232    5.9006 H   0  0  0  0  0
  -10.4096   69.0531    4.2182 H   0  0  0  0  0
  -10.5260   69.1372    6.0822 H   0  0  0  0  0
   -8.3625   69.2279    4.6244 H   0  0  0  0  0
  -11.1575   72.4089    6.1861 H   0  0  0  0  0
  -11.1688   72.6421    4.3300 H   0  0  0  0  0
   -9.2048   73.2570    4.6206 H   0  0  0  0  0
   -8.7736   71.1840    3.6603 H   0  0  0  0  0
   -6.6731   71.7204    5.4386 H   0  0  0  0  0
   -6.6738   71.0144    3.8038 H   0  0  0  0  0
   -7.1360   72.7181    4.0381 H   0  0  0  0  0
   -9.4829   73.2754    7.1701 H   0  0  0  0  0
   -7.8094   72.9218    6.6474 H   0  0  0  0  0
   -9.9185   71.0283    7.6915 H   0  0  0  0  0
   -8.2289   71.3221    8.2996 H   0  0  0  0  0
   -7.2957   70.1466    6.5703 H   0  0  0  0  0
   -8.7606   69.1557    7.0970 H   0  0  0  0  0
  1  2  2  0  0  0
  2  3  1  0  0  0
  2 13  1  0  0  0
  3  4  4  0  0  0
  3 12  4  0  0  0
  4  5  4  0  0  0
  4  9  4  0  0  0
  5  6  4  0  0  0
  6  7  4  0  0  0
  7  8  4  0  0  0
  8  9  4  0  0  0
  9 10  4  0  0  0
 10 11  1  0  0  0
 10 12  4  0  0  0
 13 14  1  0  0  0
 14 15  1  0  0  0
 14 17  1  0  0  0
 15 16  1  0  0  0
 16 19  1  0  0  0
 16 23  1  0  0  0
 17 18  1  0  0  0
 18 19  1  0  0  0
 18 21  1  0  0  0
 19 20  1  0  0  0
 21 22  1  0  0  0
 22 23  1  0  0  0
  5 24  1  0  0  0
  6 25  1  0  0  0
  7 26  1  0  0  0
  8 27  1  0  0  0
 11 28  1  0  0  0
 11 29  1  0  0  0
 11 30  1  0  0  0
 13 31  1  0  0  0
 14 32  1  0  0  0
 15 33  1  0  0  0
 15 34  1  0  0  0
 16 35  1  0  0  0
 17 36  1  0  0  0
 17 37  1  0  0  0
 18 38  1  0  0  0
 19 39  1  0  0  0
 20 40  1  0  0  0
 20 41  1  0  0  0
 20 42  1  0  0  0
 21 43  1  0  0  0
 21 44  1  0  0  0
 22 45  1  0  0  0
 22 46  1  0  0  0
 23 47  1  0  0  0
 23 48  1  0  0  0
M  END
$$$$
