1g05_ligand
  -I-interpret- 

 50 52  0  0  0  0  0  0  0  0999 V2000
    3.1000   48.3590   54.7670 C   0  0  0  0  0
    3.6250   48.8490   55.9940 C   0  0  0  0  0
    3.0830   48.4380   57.2390 C   0  0  0  0  0
    2.0330   47.5170   57.2080 C   0  0  0  0  0
    1.5240   47.0430   55.9930 C   0  0  0  0  0
    2.0350   47.4540   54.7570 C   0  0  0  0  0
    1.5140   47.0890   58.2610 O   0  0  0  0  0
    2.0440   47.4360   59.5530 C   0  0  0  0  0
    3.7060   48.7960   53.2200 S   0  0  0  0  0
    3.2850   47.7490   52.2610 O   0  0  0  0  0
    5.1370   48.9360   53.3960 O   0  0  0  0  0
    2.9710   50.1530   52.6980 N   0  0  0  0  0
    1.7680   49.9490   51.8600 C   0  0  0  0  0
    1.7270   50.8640   50.6150 C   0  0  0  0  0
    2.4360   52.2120   50.7840 C   0  0  0  0  0
    3.5150   52.3660   51.7400 N   0  0  0  0  0
    3.5270   51.5110   52.9580 C   0  0  0  0  0
    2.0950   53.2940   50.0590 O   0  0  0  0  0
    0.5180   50.0920   52.7010 C   0  0  0  0  0
   -0.3340   49.0630   52.7690 N   0  0  0  0  0
   -1.5390   49.2140   53.4630 O   0  0  0  0  0
    0.2620   51.2210   53.3510 O   0  0  0  0  0
    4.5440   53.4070   51.4590 C   0  0  0  0  0
    7.6170   51.2560   50.7680 C   0  0  0  0  0
    6.3560   51.8210   50.6750 C   0  0  0  0  0
    5.9420   52.8030   51.5780 C   0  0  0  0  0
    6.8110   53.2180   52.5950 C   0  0  0  0  0
    8.0870   52.6480   52.7270 C   0  0  0  0  0
    8.4780   51.6760   51.7940 C   0  0  0  0  0
    4.4577   49.5521   55.9779 H   0  0  0  0  0
    3.4701   48.8251   58.1815 H   0  0  0  0  0
    0.7008   46.3288   56.0105 H   0  0  0  0  0
    1.6180   47.0822   53.8211 H   0  0  0  0  0
    3.0759   47.0925   59.6252 H   0  0  0  0  0
    2.0103   48.5181   59.6794 H   0  0  0  0  0
    1.4459   46.9594   60.3296 H   0  0  0  0  0
    1.8171   48.9324   51.4699 H   0  0  0  0  0
    0.6775   51.0813   50.4166 H   0  0  0  0  0
    2.2433   50.3331   49.8152 H   0  0  0  0  0
    4.5614   51.3975   53.2825 H   0  0  0  0  0
    2.9081   51.9915   53.7157 H   0  0  0  0  0
   -0.1070   48.1763   52.3188 H   0  0  0  0  0
   -2.0362   48.3938   53.4209 H   0  0  0  0  0
    4.4406   54.2180   52.1799 H   0  0  0  0  0
    4.4024   53.7883   50.4477 H   0  0  0  0  0
    7.9363   50.4961   50.0548 H   0  0  0  0  0
    5.6775   51.4950   49.8866 H   0  0  0  0  0
    6.4927   53.9929   53.2924 H   0  0  0  0  0
    8.7556   52.9522   53.5323 H   0  0  0  0  0
    9.4730   51.2370   51.8675 H   0  0  0  0  0
  1  2  4  0  0  0
  1  6  4  0  0  0
  9  1  1  0  0  0
  2  3  4  0  0  0
  3  4  4  0  0  0
  5  4  4  0  0  0
  4  7  1  0  0  0
  6  5  4  0  0  0
  7  8  1  0  0  0
  9 10  2  0  0  0
  9 11  2  0  0  0
 12  9  1  0  0  0
 12 13  1  0  0  0
 17 12  1  0  0  0
 14 13  1  0  0  0
 13 19  1  0  0  0
 15 14  1  0  0  0
 16 15  1  0  0  0
 15 18  2  0  0  0
 16 17  1  0  0  0
 23 16  1  0  0  0
 19 20  1  0  0  0
 19 22  2  0  0  0
 20 21  1  0  0  0
 26 23  1  0  0  0
 25 24  4  0  0  0
 26 25  4  0  0  0
 26 27  4  0  0  0
 27 28  4  0  0  0
 28 29  4  0  0  0
 29 24  4  0  0  0
  2 30  1  0  0  0
  3 31  1  0  0  0
  5 32  1  0  0  0
  6 33  1  0  0  0
  8 34  1  0  0  0
  8 35  1  0  0  0
  8 36  1  0  0  0
 13 37  1  0  0  0
 14 38  1  0  0  0
 14 39  1  0  0  0
 17 40  1  0  0  0
 17 41  1  0  0  0
 20 42  1  0  0  0
 21 43  1  0  0  0
 23 44  1  0  0  0
 23 45  1  0  0  0
 24 46  1  0  0  0
 25 47  1  0  0  0
 27 48  1  0  0  0
 28 49  1  0  0  0
 29 50  1  0  0  0
M  END
$$$$
