### 
### Created by X-TOOL on Mon Sep 10 21:12:59 2018
### 

@<TRIPOS>MOLECULE
2k3w_ligand
  189   192     1     0     0
SMALL
GAST_HUCK


@<TRIPOS>ATOM
      1 N          16.8720    3.5370   -7.3960 N.4       1 ILE         0.2381
      2 CA         15.6230    3.2370   -6.6890 C.3       1 ILE         0.0676
      3 C          14.4330    3.6800   -7.5160 C.2       1 ILE         0.2270
      4 O          14.2350    4.8740   -7.7490 O.2       1 ILE        -0.3907
      5 CB         15.6000    3.9580   -5.3390 C.3       1 ILE         0.0164
      6 CG1        16.7160    3.4030   -4.4730 C.3       1 ILE        -0.0460
      7 CG2        14.2570    3.7220   -4.6390 C.3       1 ILE        -0.0551
      8 CD1        16.8650    4.2490   -3.2240 C.3       1 ILE        -0.0647
      9 H1         17.6551    3.2379   -6.8362 H         1 ILE         0.2015
     10 H2         16.9355    4.5296   -7.5595 H         1 ILE         0.2015
     11 H3         16.8841    3.0497   -8.2783 H         1 ILE         0.2015
     12 H4         15.5595    2.1520   -6.5197 H         1 ILE         0.1101
     13 H5         15.7495    5.0367   -5.4938 H         1 ILE         0.0378
     14 H6         17.6592    3.4178   -5.0388 H         1 ILE         0.0269
     15 H7         16.4762    2.3683   -4.1868 H         1 ILE         0.0269
     16 H8         13.4435    4.1222   -5.2620 H         1 ILE         0.0236
     17 H9         14.2570    4.2316   -3.6642 H         1 ILE         0.0236
     18 H10        14.1066    2.6428   -4.4886 H         1 ILE         0.0236
     19 H11        17.6748    3.8425   -2.6003 H         1 ILE         0.0230
     20 N          13.6320    2.7110   -7.9520 N.am      1 GLU        -0.2609
     21 CA         12.4450    3.0080   -8.7540 C.3       1 GLU         0.1326
     22 C          11.2160    2.3860   -8.1230 C.2       1 GLU         0.2040
     23 O          11.0580    1.1630   -8.1230 O.2       1 GLU        -0.3944
     24 CB         12.6150    2.4680  -10.1700 C.3       1 GLU        -0.0008
     25 CG         13.7010    3.2660  -10.8900 C.3       1 GLU         0.0044
     26 CD         13.9330    2.6920  -12.2800 C.2       1 GLU         0.0350
     27 OE1        13.2410    1.7510  -12.6400 O.co2     1 GLU        -0.5690
     28 OE2        14.7980    3.2010  -12.9800 O.co2     1 GLU        -0.5690
     29 H12        15.9227    4.2344   -2.6567 H         1 ILE         0.0230
     30 H13        17.1057    5.2839   -3.5086 H         1 ILE         0.0230
     31 H14        13.8457    1.7604   -7.7269 H         1 GLU         0.1885
     32 H15        12.3112    4.0988   -8.8000 H         1 GLU         0.0801
     33 H16        11.6652    2.5649  -10.7163 H         1 GLU         0.0330
     34 H17        12.9064    1.4082  -10.1262 H         1 GLU         0.0330
     35 N          10.3420    3.2290   -7.5770 N.am      1 LEU        -0.2637
     36 CA          9.1280    2.7420   -6.9320 C.3       1 LEU         0.1314
     37 C           7.9060    2.9660   -7.8230 C.2       1 LEU         0.2064
     38 O           7.9410    3.7860   -8.7390 O.2       1 LEU        -0.3942
     39 CB          8.9140    3.4670   -5.6020 C.3       1 LEU        -0.0101
     40 CG         10.1640    3.2960   -4.7070 C.3       1 LEU        -0.0425
     41 CD1        10.3040    4.4820   -3.7510 C.3       1 LEU        -0.0625
     42 CD2        10.0460    1.9970   -3.8890 C.3       1 LEU        -0.0625
     43 H18        14.6359    3.2120  -10.3129 H         1 GLU         0.0433
     44 H19        13.3842    4.3157  -10.9776 H         1 GLU         0.0433
     45 H20        10.5209    4.2123   -7.6097 H         1 LEU         0.1883
     46 H21         9.2376    1.6642   -6.7413 H         1 LEU         0.0800
     47 H22         8.0376    3.0419   -5.0909 H         1 LEU         0.0315
     48 H23         8.7443    4.5371   -5.7922 H         1 LEU         0.0315
     49 H24        11.0574    3.2417   -5.3465 H         1 LEU         0.0298
     50 H25        11.1967    4.3436   -3.1234 H         1 LEU         0.0232
     51 H26         9.4117    4.5442   -3.1107 H         1 LEU         0.0232
     52 H27        10.4043    5.4110   -4.3314 H         1 LEU         0.0232
     53 H28         9.9451    1.1411   -4.5726 H         1 LEU         0.0232
     54 N           6.8330    2.2630   -7.5610 N.am      1 PRO        -0.2498
     55 CA          5.5710    2.4060   -8.3520 C.3       1 PRO         0.1338
     56 C           4.6560    3.4810   -7.7740 C.2       1 PRO         0.2041
     57 O           4.8510    3.9380   -6.6490 O.2       1 PRO        -0.3944
     58 CB          4.9180    1.0170   -8.2600 C.3       1 PRO        -0.0104
     59 CG          5.4890    0.4070   -7.0270 C.3       1 PRO        -0.0281
     60 CD          6.9080    0.9370   -6.9230 C.3       1 PRO         0.0369
     61 H29         9.1610    2.0527   -3.2381 H         1 LEU         0.0232
     62 H30        10.9476    1.8690   -3.2719 H         1 LEU         0.0232
     63 H31         5.8008    2.6564   -9.3982 H         1 PRO         0.0802
     64 H32         5.1693    0.4117   -9.1434 H         1 PRO         0.0313
     65 H33         3.8249    1.1078   -8.1765 H         1 PRO         0.0313
     66 H34         4.9030    0.7053   -6.1452 H         1 PRO         0.0287
     67 H35         5.4947   -0.6899   -7.1095 H         1 PRO         0.0287
     68 N           3.6490    3.8740   -8.5560 N.am      1 GLU        -0.2636
     69 CA          2.6920    4.8920   -8.1180 C.3       1 GLU         0.1325
     70 C           1.3010    4.2880   -7.9890 C.2       1 GLU         0.2040
     71 O           0.7890    3.6700   -8.9220 O.2       1 GLU        -0.3944
     72 CB          2.6580    6.0430   -9.1210 C.3       1 GLU        -0.0008
     73 CG          1.7550    7.1550   -8.5830 C.3       1 GLU         0.0044
     74 CD          1.7730    8.3440   -9.5360 C.2       1 GLU         0.0350
     75 OE1         2.6550    8.3910  -10.3700 O.co2     1 GLU        -0.5690
     76 OE2         0.9050    9.1920   -9.4090 O.co2     1 GLU        -0.5690
     77 H36         7.2179    1.0247   -5.8712 H         1 PRO         0.0524
     78 H37         7.6113    0.2829   -7.4592 H         1 PRO         0.0524
     79 H38         3.5454    3.4639   -9.4621 H         1 GLU         0.1883
     80 H39         3.0068    5.2790   -7.1376 H         1 GLU         0.0801
     81 H40         2.2632    5.6816  -10.0820 H         1 GLU         0.0330
     82 H41         3.6758    6.4341   -9.2664 H         1 GLU         0.0330
     83 N           0.7020    4.4630   -6.8200 N.am      1 VAL        -0.2635
     84 CA         -0.6210    3.9160   -6.5720 C.3       1 VAL         0.1334
     85 C          -1.5940    4.3190   -7.6870 C.2       1 VAL         0.2066
     86 O          -1.5360    5.4400   -8.1940 O.2       1 VAL        -0.3942
     87 CB         -1.1540    4.4110   -5.2080 C.3       1 VAL        -0.0062
     88 CG1        -0.7450    3.4410   -4.0840 C.3       1 VAL        -0.0584
     89 CG2        -0.5650    5.7900   -4.9120 C.3       1 VAL        -0.0584
     90 H42         2.1183    7.4740   -7.5949 H         1 GLU         0.0433
     91 H43         0.7261    6.7769   -8.4909 H         1 GLU         0.0433
     92 H44         1.1664    4.9780   -6.0995 H         1 VAL         0.1883
     93 H45        -0.5484    2.8187   -6.5474 H         1 VAL         0.0803
     94 H46        -2.2511    4.4789   -5.2491 H         1 VAL         0.0343
     95 H47        -1.1326    3.8094   -3.1227 H         1 VAL         0.0234
     96 H48         0.3521    3.3765   -4.0364 H         1 VAL         0.0234
     97 H49        -1.1623    2.4443   -4.2899 H         1 VAL         0.0234
     98 H50        -0.8521    6.4903   -5.7102 H         1 VAL         0.0234
     99 N          -2.4890    3.4350   -8.0570 N.am      1 PRO        -0.2498
    100 CA         -3.4950    3.7220   -9.1210 C.3       1 PRO         0.1338
    101 C          -4.6100    4.6330   -8.6160 C.2       1 PRO         0.2042
    102 O          -5.3210    4.2940   -7.6690 O.2       1 PRO        -0.3944
    103 CB         -4.0340    2.3320   -9.4870 C.3       1 PRO        -0.0104
    104 CG         -3.8550    1.5000   -8.2590 C.3       1 PRO        -0.0281
    105 CD         -2.6300    2.0590   -7.5420 C.3       1 PRO         0.0369
    106 H51         0.5316    5.7179   -4.8644 H         1 VAL         0.0234
    107 H52        -0.9507    6.1543   -3.9484 H         1 VAL         0.0234
    108 H53        -3.0136    4.1930   -9.9907 H         1 PRO         0.0802
    109 H54        -3.4637    1.9069  -10.3261 H         1 PRO         0.0313
    110 H55        -5.0980    2.3915   -9.7596 H         1 PRO         0.0313
    111 H56        -4.7426    1.5764   -7.6138 H         1 PRO         0.0287
    112 H57        -3.6898    0.4474   -8.5322 H         1 PRO         0.0287
    113 N          -4.7640    5.7900   -9.2560 N.am      1 SER        -0.2616
    114 CA         -5.8000    6.7310   -8.8580 C.3       1 SER         0.1539
    115 C          -7.1340    6.3240   -9.4610 C.2       1 SER         0.2062
    116 O          -7.5320    6.8250  -10.5100 O.2       1 SER        -0.3943
    117 CB         -5.4330    8.1340   -9.3420 C.3       1 SER         0.0843
    118 OG         -6.5140    9.0220   -9.0790 O.3       1 SER        -0.3903
    119 H58        -2.7878    2.0666   -6.4534 H         1 PRO         0.0524
    120 H59        -1.7365    1.4628   -7.7789 H         1 PRO         0.0524
    121 H60        -4.1598    6.0154  -10.0203 H         1 SER         0.1884
    122 H61        -5.8837    6.7342   -7.7612 H         1 SER         0.0823
    123 H62        -5.2335    8.1088  -10.4234 H         1 SER         0.0606
    124 N          -7.8270    5.4120   -8.7840 N.am      1 GLU        -0.2635
    125 CA         -9.1230    4.9460   -9.2610 C.3       1 GLU         0.1327
    126 C         -10.2400    5.8560   -8.7490 C.2       1 GLU         0.2065
    127 O         -10.0400    6.6490   -7.8300 O.2       1 GLU        -0.3942
    128 CB         -9.3710    3.5090   -8.7950 C.3       1 GLU        -0.0008
    129 CG         -8.5770    2.5420   -9.6750 C.3       1 GLU         0.0044
    130 CD         -8.6860    1.1260   -9.1230 C.2       1 GLU         0.0350
    131 OE1        -9.6370    0.4470   -9.4740 O.co2     1 GLU        -0.5690
    132 OE2        -7.8190    0.7420   -8.3570 O.co2     1 GLU        -0.5690
    133 H63        -4.5346    8.4821   -8.8113 H         1 SER         0.0606
    134 H64        -7.2892    8.7200   -9.5377 H         1 SER         0.2097
    135 H65        -7.4527    5.0404   -7.9344 H         1 GLU         0.1883
    136 H66        -9.1235    4.9684  -10.3608 H         1 GLU         0.0801
    137 H67       -10.4438    3.2785   -8.8728 H         1 GLU         0.0330
    138 H68        -9.0478    3.4020   -7.7490 H         1 GLU         0.0330
    139 N         -11.4300    5.7400   -9.3120 N.am      1 PRO        -0.2498
    140 CA        -12.6100    6.5590   -8.8850 C.3       1 PRO         0.1338
    141 C         -13.4400    5.8500   -7.8150 C.2       1 PRO         0.2041
    142 O         -14.6600    5.7320   -7.9260 O.2       1 PRO        -0.3944
    143 CB        -13.4100    6.7410  -10.1800 C.3       1 PRO        -0.0104
    144 CG        -13.0200    5.5800  -11.0400 C.3       1 PRO        -0.0281
    145 CD        -11.5700    5.2940  -10.7100 C.3       1 PRO         0.0369
    146 H69        -7.5202    2.8468   -9.6897 H         1 GLU         0.0433
    147 H70        -8.9799    2.5661  -10.6983 H         1 GLU         0.0433
    148 H71       -12.2804    7.5329   -8.4940 H         1 PRO         0.0802
    149 H72       -13.1452    7.6904  -10.6683 H         1 PRO         0.0313
    150 H73       -14.4902    6.7238   -9.9732 H         1 PRO         0.0313
    151 H74       -13.6455    4.7050  -10.8096 H         1 PRO         0.0287
    152 H75       -13.1275    5.8378  -12.1039 H         1 PRO         0.0287
    153 N         -12.7700    5.3640   -6.7860 N.am      1 LEU        -0.2637
    154 CA        -13.4400    4.6480   -5.7070 C.3       1 LEU         0.1314
    155 C         -13.9000    5.6310   -4.6290 C.2       1 LEU         0.2065
    156 O         -13.3300    6.7160   -4.4950 O.2       1 LEU        -0.3942
    157 CB        -12.5000    3.5730   -5.0970 C.3       1 LEU        -0.0101
    158 CG        -11.0900    3.7290   -5.6620 C.3       1 LEU        -0.0425
    159 CD1       -10.4500    5.0010   -5.0880 C.3       1 LEU        -0.0625
    160 CD2       -10.2600    2.5100   -5.2770 C.3       1 LEU        -0.0625
    161 H76       -11.3523    4.2197  -10.8018 H         1 PRO         0.0524
    162 H77       -10.8989    5.8619  -11.3711 H         1 PRO         0.0524
    163 H78       -11.7788    5.4902   -6.7459 H         1 LEU         0.1883
    164 H79       -14.3252    4.1423   -6.1201 H         1 LEU         0.0800
    165 H80       -12.8827    2.5719   -5.3447 H         1 LEU         0.0315
    166 H81       -12.4696    3.6939   -4.0041 H         1 LEU         0.0315
    167 H82       -11.1389    3.8072   -6.7581 H         1 LEU         0.0298
    168 H83        -9.4340    5.1154   -5.4937 H         1 LEU         0.0232
    169 H84       -10.4005    4.9240   -3.9918 H         1 LEU         0.0232
    170 H85       -11.0568    5.8749   -5.3672 H         1 LEU         0.0232
    171 H86       -10.7253    1.6037   -5.6920 H         1 LEU         0.0232
    172 N         -14.8900    5.2590   -3.8620 N.am      1 PRO        -0.2485
    173 CA        -15.4200    6.1260   -2.7700 C.3       1 PRO         0.1448
    174 C         -14.3300    6.9620   -2.1150 C.2       1 PRO         0.2573
    175 O         -13.2500    6.4590   -1.8150 O.2       1 PRO        -0.3680
    176 CB        -16.0100    5.1210   -1.7700 C.3       1 PRO        -0.0090
    177 CG        -16.3700    3.9110   -2.5780 C.3       1 PRO        -0.0280
    178 CD        -15.4300    3.8890   -3.7880 C.3       1 PRO         0.0371
    179 H87       -10.2136    2.4293   -4.1810 H         1 LEU         0.0232
    180 H88        -9.2422    2.6171   -5.6803 H         1 LEU         0.0232
    181 H89       -16.2019    6.7961   -3.1568 H         1 PRO         0.0818
    182 H90       -16.9051    5.5403   -1.2873 H         1 PRO         0.0314
    183 H91       -15.2663    4.8622   -1.0019 H         1 PRO         0.0314
    184 H92       -16.2339    3.0002   -1.9765 H         1 PRO         0.0287
    185 H93       -17.4159    3.9768   -2.9124 H         1 PRO         0.0287
    186 O1        -14.5487    8.2498   -1.8649 O.3       1 PRO        -0.2910
    187 H94       -14.6204    3.1597   -3.6379 H         1 PRO         0.0524
    188 H95       -15.9832    3.6392   -4.7054 H         1 PRO         0.0524
    189 H96       -15.4232    8.4832   -2.1534 H         1 PRO         0.2540
@<TRIPOS>BOND
     1    2    1 1  
     2    2    5 1  
     3    3    2 1  
     4    3    4 2  
     5    5    7 1  
     6    5    6 1  
     7    6    8 1  
     8    1    9 1  
     9    1   10 1  
    10    1   11 1  
    11    2   12 1  
    12    5   13 1  
    13    6   14 1  
    14    6   15 1  
    15    7   16 1  
    16    7   17 1  
    17    7   18 1  
    18    8   19 1  
    19   21   20 1  
    20   21   24 1  
    21   22   21 1  
    22   22   23 2  
    23   24   25 1  
    24   25   26 1  
    25   26   28 ar 
    26   26   27 ar 
    27    8   29 1  
    28    8   30 1  
    29   20   31 1  
    30   21   32 1  
    31   24   33 1  
    32   24   34 1  
    33   20    3 am 
    34   36   35 1  
    35   36   39 1  
    36   37   36 1  
    37   37   38 2  
    38   39   40 1  
    39   40   41 1  
    40   40   42 1  
    41   25   43 1  
    42   25   44 1  
    43   35   45 1  
    44   36   46 1  
    45   39   47 1  
    46   39   48 1  
    47   40   49 1  
    48   41   50 1  
    49   41   51 1  
    50   41   52 1  
    51   42   53 1  
    52   35   22 am 
    53   56   55 1  
    54   55   58 1  
    55   55   54 1  
    56   54   60 1  
    57   60   59 1  
    58   58   59 1  
    59   56   57 2  
    60   42   61 1  
    61   42   62 1  
    62   55   63 1  
    63   58   64 1  
    64   58   65 1  
    65   59   66 1  
    66   59   67 1  
    67   54   37 am 
    68   69   68 1  
    69   69   72 1  
    70   70   69 1  
    71   70   71 2  
    72   72   73 1  
    73   73   74 1  
    74   74   76 ar 
    75   74   75 ar 
    76   60   77 1  
    77   60   78 1  
    78   68   79 1  
    79   69   80 1  
    80   72   81 1  
    81   72   82 1  
    82   68   56 am 
    83   84   83 1  
    84   84   87 1  
    85   85   84 1  
    86   85   86 2  
    87   87   89 1  
    88   87   88 1  
    89   73   90 1  
    90   73   91 1  
    91   83   92 1  
    92   84   93 1  
    93   87   94 1  
    94   88   95 1  
    95   88   96 1  
    96   88   97 1  
    97   89   98 1  
    98   83   70 am 
    99  101  100 1  
   100  100  103 1  
   101  100   99 1  
   102   99  105 1  
   103  105  104 1  
   104  103  104 1  
   105  101  102 2  
   106   89  106 1  
   107   89  107 1  
   108  100  108 1  
   109  103  109 1  
   110  103  110 1  
   111  104  111 1  
   112  104  112 1  
   113   99   85 am 
   114  114  113 1  
   115  114  117 1  
   116  115  114 1  
   117  115  116 2  
   118  117  118 1  
   119  105  119 1  
   120  105  120 1  
   121  113  121 1  
   122  114  122 1  
   123  117  123 1  
   124  113  101 am 
   125  125  124 1  
   126  125  128 1  
   127  126  125 1  
   128  126  127 2  
   129  128  129 1  
   130  129  130 1  
   131  130  132 ar 
   132  130  131 ar 
   133  117  133 1  
   134  118  134 1  
   135  124  135 1  
   136  125  136 1  
   137  128  137 1  
   138  128  138 1  
   139  124  115 am 
   140  141  140 1  
   141  140  143 1  
   142  140  139 1  
   143  139  145 1  
   144  145  144 1  
   145  143  144 1  
   146  141  142 2  
   147  129  146 1  
   148  129  147 1  
   149  140  148 1  
   150  143  149 1  
   151  143  150 1  
   152  144  151 1  
   153  144  152 1  
   154  139  126 am 
   155  154  153 1  
   156  154  157 1  
   157  155  154 1  
   158  155  156 2  
   159  157  158 1  
   160  158  159 1  
   161  158  160 1  
   162  145  161 1  
   163  145  162 1  
   164  153  163 1  
   165  154  164 1  
   166  157  165 1  
   167  157  166 1  
   168  158  167 1  
   169  159  168 1  
   170  159  169 1  
   171  159  170 1  
   172  160  171 1  
   173  153  141 am 
   174  173  174 1  
   175  173  176 1  
   176  172  173 1  
   177  172  178 1  
   178  178  177 1  
   179  177  176 1  
   180  174  175 2  
   181  160  179 1  
   182  160  180 1  
   183  173  181 1  
   184  176  182 1  
   185  176  183 1  
   186  177  184 1  
   187  177  185 1  
   188  155  172 am 
   189  174  186 1  
   190  178  187 1  
   191  178  188 1  
   192  186  189 1  
@<TRIPOS>SUBSTRUCTURE
     1 ILE         1

