2k3w_ligand
  -I-interpret- 

192195  0  0  0  0  0  0  0  0999 V2000
   16.8720    3.5370   -7.3960 N   0  3  0  0  0
   15.6230    3.2370   -6.6890 C   0  0  0  0  0
   14.4330    3.6800   -7.5160 C   0  0  0  0  0
   14.2350    4.8740   -7.7490 O   0  0  0  0  0
   15.6000    3.9580   -5.3390 C   0  0  0  0  0
   16.7160    3.4030   -4.4730 C   0  0  0  0  0
   14.2570    3.7220   -4.6390 C   0  0  0  0  0
   16.8650    4.2490   -3.2240 C   0  0  0  0  0
   13.6320    2.7110   -7.9520 N   0  0  0  0  0
   12.4450    3.0080   -8.7540 C   0  0  0  0  0
   11.2160    2.3860   -8.1230 C   0  0  0  0  0
   11.0580    1.1630   -8.1230 O   0  0  0  0  0
   12.6150    2.4680  -10.1700 C   0  0  0  0  0
   13.7010    3.2660  -10.8900 C   0  0  0  0  0
   13.9330    2.6920  -12.2800 C   0  0  0  0  0
   13.2410    1.7510  -12.6400 O   0  0  0  0  0
   14.7980    3.2010  -12.9800 O   0  0  0  0  0
   10.3420    3.2290   -7.5770 N   0  0  0  0  0
    9.1280    2.7420   -6.9320 C   0  0  0  0  0
    7.9060    2.9660   -7.8230 C   0  0  0  0  0
    7.9410    3.7860   -8.7390 O   0  0  0  0  0
    8.9140    3.4670   -5.6020 C   0  0  0  0  0
   10.1640    3.2960   -4.7070 C   0  0  0  0  0
   10.3040    4.4820   -3.7510 C   0  0  0  0  0
   10.0460    1.9970   -3.8890 C   0  0  0  0  0
    6.8330    2.2630   -7.5610 N   0  0  0  0  0
    5.5710    2.4060   -8.3520 C   0  0  0  0  0
    4.6560    3.4810   -7.7740 C   0  0  0  0  0
    4.8510    3.9380   -6.6490 O   0  0  0  0  0
    4.9180    1.0170   -8.2600 C   0  0  0  0  0
    5.4890    0.4070   -7.0270 C   0  0  0  0  0
    6.9080    0.9370   -6.9230 C   0  0  0  0  0
    3.6490    3.8740   -8.5560 N   0  0  0  0  0
    2.6920    4.8920   -8.1180 C   0  0  0  0  0
    1.3010    4.2880   -7.9890 C   0  0  0  0  0
    0.7890    3.6700   -8.9220 O   0  0  0  0  0
    2.6580    6.0430   -9.1210 C   0  0  0  0  0
    1.7550    7.1550   -8.5830 C   0  0  0  0  0
    1.7730    8.3440   -9.5360 C   0  0  0  0  0
    2.6550    8.3910  -10.3700 O   0  0  0  0  0
    0.9050    9.1920   -9.4090 O   0  0  0  0  0
    0.7020    4.4630   -6.8200 N   0  0  0  0  0
   -0.6210    3.9160   -6.5720 C   0  0  0  0  0
   -1.5940    4.3190   -7.6870 C   0  0  0  0  0
   -1.5360    5.4400   -8.1940 O   0  0  0  0  0
   -1.1540    4.4110   -5.2080 C   0  0  0  0  0
   -0.7450    3.4410   -4.0840 C   0  0  0  0  0
   -0.5650    5.7900   -4.9120 C   0  0  0  0  0
   -2.4890    3.4350   -8.0570 N   0  0  0  0  0
   -3.4950    3.7220   -9.1210 C   0  0  0  0  0
   -4.6100    4.6330   -8.6160 C   0  0  0  0  0
   -5.3210    4.2940   -7.6690 O   0  0  0  0  0
   -4.0340    2.3320   -9.4870 C   0  0  0  0  0
   -3.8550    1.5000   -8.2590 C   0  0  0  0  0
   -2.6300    2.0590   -7.5420 C   0  0  0  0  0
   -4.7640    5.7900   -9.2560 N   0  0  0  0  0
   -5.8000    6.7310   -8.8580 C   0  0  0  0  0
   -7.1340    6.3240   -9.4610 C   0  0  0  0  0
   -7.5320    6.8250  -10.5100 O   0  0  0  0  0
   -5.4330    8.1340   -9.3420 C   0  0  0  0  0
   -6.5140    9.0220   -9.0790 O   0  0  0  0  0
   -7.8270    5.4120   -8.7840 N   0  0  0  0  0
   -9.1230    4.9460   -9.2610 C   0  0  0  0  0
  -10.2400    5.8560   -8.7490 C   0  0  0  0  0
  -10.0400    6.6490   -7.8300 O   0  0  0  0  0
   -9.3710    3.5090   -8.7950 C   0  0  0  0  0
   -8.5770    2.5420   -9.6750 C   0  0  0  0  0
   -8.6860    1.1260   -9.1230 C   0  0  0  0  0
   -9.6370    0.4470   -9.4740 O   0  0  0  0  0
   -7.8190    0.7420   -8.3570 O   0  0  0  0  0
  -11.4300    5.7400   -9.3120 N   0  0  0  0  0
  -12.6100    6.5590   -8.8850 C   0  0  0  0  0
  -13.4400    5.8500   -7.8150 C   0  0  0  0  0
  -14.6600    5.7320   -7.9260 O   0  0  0  0  0
  -13.4100    6.7410  -10.1800 C   0  0  0  0  0
  -13.0200    5.5800  -11.0400 C   0  0  0  0  0
  -11.5700    5.2940  -10.7100 C   0  0  0  0  0
  -12.7700    5.3640   -6.7860 N   0  0  0  0  0
  -13.4400    4.6480   -5.7070 C   0  0  0  0  0
  -13.9000    5.6310   -4.6290 C   0  0  0  0  0
  -13.3300    6.7160   -4.4950 O   0  0  0  0  0
  -12.5000    3.5730   -5.0970 C   0  0  0  0  0
  -11.0900    3.7290   -5.6620 C   0  0  0  0  0
  -10.4500    5.0010   -5.0880 C   0  0  0  0  0
  -10.2600    2.5100   -5.2770 C   0  0  0  0  0
  -14.8900    5.2590   -3.8620 N   0  0  0  0  0
  -15.4200    6.1260   -2.7700 C   0  0  0  0  0
  -14.3300    6.9620   -2.1150 C   0  0  0  0  0
  -13.2500    6.4590   -1.8150 O   0  0  0  0  0
  -16.0100    5.1210   -1.7700 C   0  0  0  0  0
  -16.3700    3.9110   -2.5780 C   0  0  0  0  0
  -15.4300    3.8890   -3.7880 C   0  0  0  0  0
  -14.5487    8.2498   -1.8649 O   0  0  0  0  0
   17.6637    3.2340   -6.8287 H   0  0  0  0  0
   16.8831    3.0434   -8.2885 H   0  0  0  0  0
   16.9351    4.5416   -7.5609 H   0  0  0  0  0
   15.5657    2.1607   -6.5267 H   0  0  0  0  0
   15.7359    5.0280   -5.4959 H   0  0  0  0  0
   17.6504    3.4205   -5.0340 H   0  0  0  0  0
   16.4760    2.3786   -4.1882 H   0  0  0  0  0
   14.1092    2.6523   -4.4905 H   0  0  0  0  0
   14.2583    4.2274   -3.6733 H   0  0  0  0  0
   13.4518    4.1190   -5.2572 H   0  0  0  0  0
   17.1035    5.2741   -3.5074 H   0  0  0  0  0
   15.9307    4.2338   -2.6628 H   0  0  0  0  0
   17.6676    3.8452   -2.6068 H   0  0  0  0  0
   13.8500    1.7414   -7.7224 H   0  0  0  0  0
   12.3202    4.0901   -8.7944 H   0  0  0  0  0
   11.6738    2.5631  -10.7115 H   0  0  0  0  0
   12.9030    1.4176  -10.1270 H   0  0  0  0  0
   14.6274    3.2077  -10.3186 H   0  0  0  0  0
   13.3832    4.3048  -10.9793 H   0  0  0  0  0
   15.2145    3.9203  -12.4997 H   0  0  0  0  0
   10.5245    4.2320   -7.6104 H   0  0  0  0  0
    9.2476    1.6727   -6.7576 H   0  0  0  0  0
    8.0467    3.0436   -5.0955 H   0  0  0  0  0
    8.7480    4.5275   -5.7915 H   0  0  0  0  0
   11.0443    3.2492   -5.3481 H   0  0  0  0  0
   10.4033    5.4018   -4.3273 H   0  0  0  0  0
    9.4193    4.5425   -3.1172 H   0  0  0  0  0
   11.1888    4.3437   -3.1297 H   0  0  0  0  0
    9.1562    2.0440   -3.2612 H   0  0  0  0  0
    9.9689    1.1475   -4.5676 H   0  0  0  0  0
   10.9296    1.8830   -3.2611 H   0  0  0  0  0
    5.7631    2.7182   -9.3785 H   0  0  0  0  0
    5.1242    0.4131   -9.1436 H   0  0  0  0  0
    3.8310    1.0827   -8.2135 H   0  0  0  0  0
    4.9022    0.6687   -6.1465 H   0  0  0  0  0
    5.4750   -0.6816   -7.0798 H   0  0  0  0  0
    7.2573    0.9908   -5.8919 H   0  0  0  0  0
    7.6328    0.2828   -7.4075 H   0  0  0  0  0
    3.5433    3.4557   -9.4803 H   0  0  0  0  0
    3.0075    5.2697   -7.1455 H   0  0  0  0  0
    2.2685    5.6854  -10.0742 H   0  0  0  0  0
    3.6665    6.4301   -9.2670 H   0  0  0  0  0
    2.1185    7.4721   -7.6055 H   0  0  0  0  0
    0.7354    6.7796   -8.4956 H   0  0  0  0  0
    0.3206    8.9447   -8.6887 H   0  0  0  0  0
    1.1756    4.9883   -6.0851 H   0  0  0  0  0
   -0.5432    2.8289   -6.5547 H   0  0  0  0  0
   -2.2418    4.4633   -5.2530 H   0  0  0  0  0
   -1.1591    2.4538   -4.2892 H   0  0  0  0  0
    0.3422    3.3780   -4.0379 H   0  0  0  0  0
   -1.1297    3.8071   -3.1321 H   0  0  0  0  0
    0.5222    5.7196   -4.8781 H   0  0  0  0  0
   -0.8610    6.4862   -5.6967 H   0  0  0  0  0
   -0.9376    6.1441   -3.9508 H   0  0  0  0  0
   -3.0646    4.2507   -9.9715 H   0  0  0  0  0
   -3.5016    1.9081  -10.3384 H   0  0  0  0  0
   -5.0797    2.3760   -9.7914 H   0  0  0  0  0
   -4.7381    1.5446   -7.6216 H   0  0  0  0  0
   -3.7166    0.4490   -8.5128 H   0  0  0  0  0
   -2.7496    2.0408   -6.4587 H   0  0  0  0  0
   -1.7392    1.4605   -7.7326 H   0  0  0  0  0
   -4.1477    6.0199  -10.0356 H   0  0  0  0  0
   -5.8816    6.7276   -7.7711 H   0  0  0  0  0
   -5.2343    8.1093  -10.4135 H   0  0  0  0  0
   -4.5422    8.4790   -8.8170 H   0  0  0  0  0
   -6.2840    9.9031   -9.3828 H   0  0  0  0  0
   -7.4452    5.0330   -7.9174 H   0  0  0  0  0
   -9.1192    4.9728  -10.3507 H   0  0  0  0  0
  -10.4340    3.2807   -8.8725 H   0  0  0  0  0
   -9.0503    3.4032   -7.7586 H   0  0  0  0  0
   -7.5296    2.8435   -9.6847 H   0  0  0  0  0
   -8.9807    2.5644  -10.6872 H   0  0  0  0  0
  -10.1859    0.9543  -10.0764 H   0  0  0  0  0
  -12.3159    7.5045   -8.4294 H   0  0  0  0  0
  -13.1893    7.6936  -10.6616 H   0  0  0  0  0
  -14.4836    6.7634   -9.9928 H   0  0  0  0  0
  -13.6504    4.7122  -10.8459 H   0  0  0  0  0
  -13.1493    5.8080  -12.0980 H   0  0  0  0  0
  -11.3166    4.2414  -10.8360 H   0  0  0  0  0
  -10.8832    5.8110  -11.3802 H   0  0  0  0  0
  -11.7590    5.4927   -6.7451 H   0  0  0  0  0
  -14.3148    4.1427   -6.1163 H   0  0  0  0  0
  -12.8787    2.5822   -5.3479 H   0  0  0  0  0
  -12.4679    3.6979   -4.0147 H   0  0  0  0  0
  -11.1315    3.8090   -6.7483 H   0  0  0  0  0
  -11.0522    5.8662   -5.3653 H   0  0  0  0  0
  -10.4016    4.9235   -4.0018 H   0  0  0  0  0
   -9.4434    5.1133   -5.4907 H   0  0  0  0  0
  -10.2136    2.4320   -4.1908 H   0  0  0  0  0
  -10.7227    1.6126   -5.6876 H   0  0  0  0  0
   -9.2522    2.6168   -5.6783 H   0  0  0  0  0
  -16.1457    6.8507   -3.1391 H   0  0  0  0  0
  -16.8808    5.5321   -1.2593 H   0  0  0  0  0
  -15.2962    4.8765   -0.9833 H   0  0  0  0  0
  -16.2592    3.0029   -1.9854 H   0  0  0  0  0
  -17.4112    3.9548   -2.8976 H   0  0  0  0  0
  -14.6413    3.1447   -3.6787 H   0  0  0  0  0
  -15.9493    3.6049   -4.7033 H   0  0  0  0  0
  -15.4324    8.4857   -2.1564 H   0  0  0  0  0
  2  1  1  0  0  0
  2  5  1  0  0  0
  3  2  1  0  0  0
  3  4  2  0  0  0
  5  7  1  0  0  0
  5  6  1  0  0  0
  6  8  1  0  0  0
 10  9  1  0  0  0
 10 13  1  0  0  0
 11 10  1  0  0  0
 11 12  2  0  0  0
 13 14  1  0  0  0
 14 15  1  0  0  0
 15 17  1  0  0  0
 15 16  2  0  0  0
  9  3  1  0  0  0
 19 18  1  0  0  0
 19 22  1  0  0  0
 20 19  1  0  0  0
 20 21  2  0  0  0
 22 23  1  0  0  0
 23 24  1  0  0  0
 23 25  1  0  0  0
 18 11  1  0  0  0
 28 27  1  0  0  0
 27 30  1  0  0  0
 27 26  1  0  0  0
 26 32  1  0  0  0
 32 31  1  0  0  0
 30 31  1  0  0  0
 28 29  2  0  0  0
 26 20  1  0  0  0
 34 33  1  0  0  0
 34 37  1  0  0  0
 35 34  1  0  0  0
 35 36  2  0  0  0
 37 38  1  0  0  0
 38 39  1  0  0  0
 39 41  1  0  0  0
 39 40  2  0  0  0
 33 28  1  0  0  0
 43 42  1  0  0  0
 43 46  1  0  0  0
 44 43  1  0  0  0
 44 45  2  0  0  0
 46 48  1  0  0  0
 46 47  1  0  0  0
 42 35  1  0  0  0
 51 50  1  0  0  0
 50 53  1  0  0  0
 50 49  1  0  0  0
 49 55  1  0  0  0
 55 54  1  0  0  0
 53 54  1  0  0  0
 51 52  2  0  0  0
 49 44  1  0  0  0
 57 56  1  0  0  0
 57 60  1  0  0  0
 58 57  1  0  0  0
 58 59  2  0  0  0
 60 61  1  0  0  0
 56 51  1  0  0  0
 63 62  1  0  0  0
 63 66  1  0  0  0
 64 63  1  0  0  0
 64 65  2  0  0  0
 66 67  1  0  0  0
 67 68  1  0  0  0
 68 70  2  0  0  0
 68 69  1  0  0  0
 62 58  1  0  0  0
 73 72  1  0  0  0
 72 75  1  0  0  0
 72 71  1  0  0  0
 71 77  1  0  0  0
 77 76  1  0  0  0
 75 76  1  0  0  0
 73 74  2  0  0  0
 71 64  1  0  0  0
 79 78  1  0  0  0
 79 82  1  0  0  0
 80 79  1  0  0  0
 80 81  2  0  0  0
 82 83  1  0  0  0
 83 84  1  0  0  0
 83 85  1  0  0  0
 78 73  1  0  0  0
 87 88  1  0  0  0
 87 90  1  0  0  0
 86 87  1  0  0  0
 86 92  1  0  0  0
 92 91  1  0  0  0
 91 90  1  0  0  0
 88 89  2  0  0  0
 80 86  1  0  0  0
 88 93  1  0  0  0
  1 94  1  0  0  0
  1 95  1  0  0  0
  1 96  1  0  0  0
  2 97  1  0  0  0
  5 98  1  0  0  0
  6 99  1  0  0  0
  6100  1  0  0  0
  7101  1  0  0  0
  7102  1  0  0  0
  7103  1  0  0  0
  8104  1  0  0  0
  8105  1  0  0  0
  8106  1  0  0  0
  9107  1  0  0  0
 10108  1  0  0  0
 13109  1  0  0  0
 13110  1  0  0  0
 14111  1  0  0  0
 14112  1  0  0  0
 17113  1  0  0  0
 18114  1  0  0  0
 19115  1  0  0  0
 22116  1  0  0  0
 22117  1  0  0  0
 23118  1  0  0  0
 24119  1  0  0  0
 24120  1  0  0  0
 24121  1  0  0  0
 25122  1  0  0  0
 25123  1  0  0  0
 25124  1  0  0  0
 27125  1  0  0  0
 30126  1  0  0  0
 30127  1  0  0  0
 31128  1  0  0  0
 31129  1  0  0  0
 32130  1  0  0  0
 32131  1  0  0  0
 33132  1  0  0  0
 34133  1  0  0  0
 37134  1  0  0  0
 37135  1  0  0  0
 38136  1  0  0  0
 38137  1  0  0  0
 41138  1  0  0  0
 42139  1  0  0  0
 43140  1  0  0  0
 46141  1  0  0  0
 47142  1  0  0  0
 47143  1  0  0  0
 47144  1  0  0  0
 48145  1  0  0  0
 48146  1  0  0  0
 48147  1  0  0  0
 50148  1  0  0  0
 53149  1  0  0  0
 53150  1  0  0  0
 54151  1  0  0  0
 54152  1  0  0  0
 55153  1  0  0  0
 55154  1  0  0  0
 56155  1  0  0  0
 57156  1  0  0  0
 60157  1  0  0  0
 60158  1  0  0  0
 61159  1  0  0  0
 62160  1  0  0  0
 63161  1  0  0  0
 66162  1  0  0  0
 66163  1  0  0  0
 67164  1  0  0  0
 67165  1  0  0  0
 69166  1  0  0  0
 72167  1  0  0  0
 75168  1  0  0  0
 75169  1  0  0  0
 76170  1  0  0  0
 76171  1  0  0  0
 77172  1  0  0  0
 77173  1  0  0  0
 78174  1  0  0  0
 79175  1  0  0  0
 82176  1  0  0  0
 82177  1  0  0  0
 83178  1  0  0  0
 84179  1  0  0  0
 84180  1  0  0  0
 84181  1  0  0  0
 85182  1  0  0  0
 85183  1  0  0  0
 85184  1  0  0  0
 87185  1  0  0  0
 90186  1  0  0  0
 90187  1  0  0  0
 91188  1  0  0  0
 91189  1  0  0  0
 92190  1  0  0  0
 92191  1  0  0  0
 93192  1  0  0  0
M  END
$$$$
