4lkg_ligand
  -I-interpret- 

 88 90  0  0  0  0  0  0  0  0999 V2000
   29.9380  -23.6890   34.6090 C   0  0  0  0  0
   30.2100  -23.4010   36.0630 C   0  0  0  0  0
   29.1160  -24.0290   36.9180 C   0  0  0  0  0
   29.1320  -25.5480   36.7930 C   0  0  0  0  0
   30.5390  -26.0990   36.9940 C   0  0  0  0  0
   31.5480  -25.3450   36.1370 C   0  0  0  0  0
   32.9650  -25.8430   36.3960 C   0  0  0  0  0
   33.9970  -24.8680   35.8420 C   0  0  0  0  0
   35.2860  -25.5900   35.4680 C   0  0  0  0  0
   31.2520  -28.3810   37.4080 C   0  0  0  0  0
   31.1650  -29.8140   36.9730 C   0  0  0  0  0
   30.5690  -27.5120   36.6690 N   0  0  0  0  0
   28.7570  -23.6480   34.2030 O   0  0  0  0  0
   30.9050  -23.9580   33.8630 O   0  0  0  0  0
   28.2530  -26.1160   37.7700 O   0  0  0  0  0
   31.4740  -23.9510   36.4280 O   0  0  0  0  0
   33.1650  -26.0000   37.8050 O   0  0  0  0  0
   33.4630  -24.2140   34.6860 O   0  0  0  0  0
   36.3100  -24.6270   35.1930 O   0  0  0  0  0
   31.9070  -28.0350   38.3770 O   0  0  0  0  0
   32.1270  -19.0370   35.5470 C   0  0  0  0  0
   31.6410  -20.2420   36.3560 C   0  0  0  0  0
   30.6720  -21.0930   35.5530 C   0  0  0  0  0
   29.5830  -20.2790   34.8850 C   0  0  0  0  0
   30.1940  -19.0840   34.1670 C   0  0  0  0  0
   29.1210  -18.1860   33.5650 C   0  0  0  0  0
   32.7310  -21.0490   36.7470 O   0  0  0  0  0
   30.0450  -22.0010   36.4110 O   0  0  0  0  0
   28.6530  -19.8760   35.8600 O   0  0  0  0  0
   30.9940  -18.3370   35.0630 O   0  0  0  0  0
   29.7410  -17.0330   33.0410 O   0  0  0  0  0
   36.5130  -16.3620   37.0360 C   0  0  0  0  0
   35.7160  -15.7340   35.8950 C   0  0  0  0  0
   34.3770  -16.4290   35.6230 C   0  0  0  0  0
   34.3180  -17.9300   35.9270 C   0  0  0  0  0
   35.2720  -18.3500   37.0420 C   0  0  0  0  0
   35.4510  -19.8630   37.0510 C   0  0  0  0  0
   35.8450  -13.3370   35.4640 C   0  0  0  0  0
   34.8790  -12.2010   35.2780 C   0  0  0  0  0
   35.4170  -14.3520   36.2090 N   0  0  0  0  0
   37.8340  -15.8690   37.0480 O   0  0  0  0  0
   34.0300  -16.2150   34.2690 O   0  0  0  0  0
   33.0020  -18.2170   36.3580 O   0  0  0  0  0
   36.5440  -17.7620   36.8920 O   0  0  0  0  0
   36.1890  -20.2590   38.1850 O   0  0  0  0  0
   36.9590  -13.3110   34.9390 O   0  0  0  0  0
   28.1490  -23.6595   36.5766 H   0  0  0  0  0
   29.2890  -23.7614   37.9604 H   0  0  0  0  0
   28.7980  -25.8147   35.7903 H   0  0  0  0  0
   30.8125  -25.9646   38.0405 H   0  0  0  0  0
   31.3067  -25.5196   35.0885 H   0  0  0  0  0
   33.0912  -26.8012   35.8920 H   0  0  0  0  0
   34.2258  -24.1330   36.6137 H   0  0  0  0  0
   35.1157  -26.2023   34.5824 H   0  0  0  0  0
   35.5989  -26.2269   36.2953 H   0  0  0  0  0
   32.1632  -30.1812   36.7344 H   0  0  0  0  0
   30.7396  -30.4119   37.7790 H   0  0  0  0  0
   30.5292  -29.8865   36.0906 H   0  0  0  0  0
   30.0542  -27.8469   35.8546 H   0  0  0  0  0
   31.7176  -23.9357   34.3737 H   0  0  0  0  0
   27.3673  -25.7684   37.6425 H   0  0  0  0  0
   32.5145  -26.6143   38.1529 H   0  0  0  0  0
   34.1138  -23.6001   34.3378 H   0  0  0  0  0
   37.1214  -25.0828   34.9575 H   0  0  0  0  0
   32.7174  -19.3516   34.6865 H   0  0  0  0  0
   31.1306  -19.8528   37.2370 H   0  0  0  0  0
   31.2572  -21.5879   34.7780 H   0  0  0  0  0
   29.0656  -20.8812   34.1382 H   0  0  0  0  0
   30.8125  -19.4647   33.3543 H   0  0  0  0  0
   28.4002  -17.9035   34.3323 H   0  0  0  0  0
   28.5947  -18.7172   32.7719 H   0  0  0  0  0
   32.4078  -21.7985   37.2524 H   0  0  0  0  0
   27.9590  -19.3591   35.4443 H   0  0  0  0  0
   29.0740  -16.4583   32.6582 H   0  0  0  0  0
   36.0251  -16.1012   37.9752 H   0  0  0  0  0
   36.3439  -15.8347   35.0097 H   0  0  0  0  0
   33.6701  -15.9798   36.3205 H   0  0  0  0  0
   34.6058  -18.4702   35.0251 H   0  0  0  0  0
   34.8272  -18.0114   37.9778 H   0  0  0  0  0
   35.9890  -20.1641   36.1521 H   0  0  0  0  0
   34.4705  -20.3382   37.0795 H   0  0  0  0  0
   35.3218  -11.2824   35.6631 H   0  0  0  0  0
   34.6590  -12.0828   34.2170 H   0  0  0  0  0
   33.9579  -12.4166   35.8195 H   0  0  0  0  0
   34.8550  -14.1489   37.0356 H   0  0  0  0  0
   38.3190  -16.2742   37.7706 H   0  0  0  0  0
   33.1921  -16.6450   34.0828 H   0  0  0  0  0
   36.2949  -21.2131   38.1793 H   0  0  0  0  0
  2  1  1  0  0  0
  1 13  2  0  0  0
  1 14  1  0  0  0
  2  3  1  0  0  0
  2 16  1  0  0  0
 28  2  1  0  0  0
  3  4  1  0  0  0
  4  5  1  0  0  0
  4 15  1  0  0  0
  6  5  1  0  0  0
  5 12  1  0  0  0
  6  7  1  0  0  0
 16  6  1  0  0  0
  7  8  1  0  0  0
  7 17  1  0  0  0
  8  9  1  0  0  0
  8 18  1  0  0  0
  9 19  1  0  0  0
 10 11  1  0  0  0
 12 10  1  0  0  0
 10 20  2  0  0  0
 21 22  1  0  0  0
 21 30  1  0  0  0
 43 21  1  0  0  0
 22 23  1  0  0  0
 22 27  1  0  0  0
 23 24  1  0  0  0
 23 28  1  0  0  0
 25 24  1  0  0  0
 24 29  1  0  0  0
 25 26  1  0  0  0
 30 25  1  0  0  0
 26 31  1  0  0  0
 33 32  1  0  0  0
 32 41  1  0  0  0
 32 44  1  0  0  0
 33 34  1  0  0  0
 40 33  1  0  0  0
 34 35  1  0  0  0
 34 42  1  0  0  0
 35 36  1  0  0  0
 35 43  1  0  0  0
 36 37  1  0  0  0
 44 36  1  0  0  0
 37 45  1  0  0  0
 38 39  1  0  0  0
 38 40  1  0  0  0
 38 46  2  0  0  0
  3 47  1  0  0  0
  3 48  1  0  0  0
  4 49  1  0  0  0
  5 50  1  0  0  0
  6 51  1  0  0  0
  7 52  1  0  0  0
  8 53  1  0  0  0
  9 54  1  0  0  0
  9 55  1  0  0  0
 11 56  1  0  0  0
 11 57  1  0  0  0
 11 58  1  0  0  0
 12 59  1  0  0  0
 14 60  1  0  0  0
 15 61  1  0  0  0
 17 62  1  0  0  0
 18 63  1  0  0  0
 19 64  1  0  0  0
 21 65  1  0  0  0
 22 66  1  0  0  0
 23 67  1  0  0  0
 24 68  1  0  0  0
 25 69  1  0  0  0
 26 70  1  0  0  0
 26 71  1  0  0  0
 27 72  1  0  0  0
 29 73  1  0  0  0
 31 74  1  0  0  0
 32 75  1  0  0  0
 33 76  1  0  0  0
 34 77  1  0  0  0
 35 78  1  0  0  0
 36 79  1  0  0  0
 37 80  1  0  0  0
 37 81  1  0  0  0
 39 82  1  0  0  0
 39 83  1  0  0  0
 39 84  1  0  0  0
 40 85  1  0  0  0
 41 86  1  0  0  0
 42 87  1  0  0  0
 45 88  1  0  0  0
M  END
$$$$
