2yek_ligand
  -I-interpret- 

 52 55  0  0  0  0  0  0  0  0999 V2000
   20.4090   17.3370  -11.3060 Cl  0  0  0  0  0
   20.3800   15.6030  -11.2500 C   0  0  0  0  0
   19.7700   15.0070  -10.1730 C   0  0  0  0  0
   19.7580   13.6420  -10.1240 C   0  0  0  0  0
   20.9640   14.9040  -12.2790 C   0  0  0  0  0
   20.9270   13.5370  -12.2040 C   0  0  0  0  0
   20.3390   12.9010  -11.1350 C   0  0  0  0  0
   20.3410   11.4140  -11.1200 C   0  0  0  0  0
   21.4520   10.8490  -11.4260 N   0  0  0  0  0
   19.0710   10.7350  -10.7770 C   0  0  0  0  0
   19.0270    9.6320   -9.9320 C   0  0  0  0  0
   17.8110    9.0410   -9.6470 C   0  0  0  0  0
   16.6360    9.5360  -10.1750 C   0  0  0  0  0
   16.7020   10.6380  -11.0060 C   0  0  0  0  0
   15.5670   11.2030  -11.5800 O   0  0  0  0  0
   14.2920   10.7650  -11.1250 C   0  0  0  0  0
   17.9020   11.2420  -11.3070 C   0  0  0  0  0
   20.2330    9.0820   -9.3680 N   0  0  0  0  0
   21.3880    8.8710  -10.0890 C   0  0  0  0  0
   22.2500    8.2170   -9.3500 N   0  0  0  0  0
   21.6820    7.9770   -8.1410 N   0  0  0  0  0
   20.4730    8.4930   -8.1530 C   0  0  0  0  0
   19.5270    8.4520   -7.0320 C   0  0  0  0  0
   21.5070    9.3850  -11.5080 C   0  0  0  0  0
   22.8210    9.0050  -12.2170 C   0  0  0  0  0
   22.7420    9.5950  -13.5980 C   0  0  0  0  0
   21.6660    9.7380  -14.1600 O   0  0  0  0  0
   23.8990    9.9380  -14.1500 N   0  0  0  0  0
   24.0190   10.4590  -15.4910 C   0  0  0  0  0
   25.3570   10.0170  -16.0250 C   0  0  0  0  0
   19.3111   15.6032   -9.3843 H   0  0  0  0  0
   19.2872   13.1343   -9.2822 H   0  0  0  0  0
   21.4360   15.4151  -13.1181 H   0  0  0  0  0
   21.3703   12.9436  -13.0037 H   0  0  0  0  0
   17.7793    8.1689   -8.9939 H   0  0  0  0  0
   15.6790    9.0690   -9.9422 H   0  0  0  0  0
   14.1928    9.6940  -11.3017 H   0  0  0  0  0
   14.1986   10.9688  -10.0583 H   0  0  0  0  0
   13.5112   11.2979  -11.6677 H   0  0  0  0  0
   17.9286   12.1147  -11.9595 H   0  0  0  0  0
   19.2804    9.4696   -6.7289 H   0  0  0  0  0
   18.6196    7.9341   -7.3427 H   0  0  0  0  0
   19.9807    7.9220   -6.1946 H   0  0  0  0  0
   20.7024    8.9356  -12.0900 H   0  0  0  0  0
   22.9444    7.9229  -12.2597 H   0  0  0  0  0
   23.6844    9.3907  -11.6749 H   0  0  0  0  0
   24.7491    9.8276  -13.5972 H   0  0  0  0  0
   23.9484   11.5467  -15.4871 H   0  0  0  0  0
   23.2123   10.0844  -16.1211 H   0  0  0  0  0
   26.1491   10.4112  -15.3884 H   0  0  0  0  0
   25.4024    8.9280  -16.0314 H   0  0  0  0  0
   25.4839   10.3932  -17.0401 H   0  0  0  0  0
  1  2  1  0  0  0
  2  3  4  0  0  0
  2  5  4  0  0  0
  3  4  4  0  0  0
  4  7  4  0  0  0
  5  6  4  0  0  0
  6  7  4  0  0  0
  7  8  1  0  0  0
  8  9  2  0  0  0
  8 10  1  0  0  0
  9 24  1  0  0  0
 10 11  4  0  0  0
 10 17  4  0  0  0
 11 12  4  0  0  0
 11 18  1  0  0  0
 12 13  4  0  0  0
 13 14  4  0  0  0
 14 15  1  0  0  0
 14 17  4  0  0  0
 15 16  1  0  0  0
 18 19  4  0  0  0
 18 22  4  0  0  0
 19 20  4  0  0  0
 19 24  1  0  0  0
 20 21  4  0  0  0
 21 22  4  0  0  0
 22 23  1  0  0  0
 24 25  1  0  0  0
 25 26  1  0  0  0
 26 27  2  0  0  0
 26 28  1  0  0  0
 28 29  1  0  0  0
 29 30  1  0  0  0
  3 31  1  0  0  0
  4 32  1  0  0  0
  5 33  1  0  0  0
  6 34  1  0  0  0
 12 35  1  0  0  0
 13 36  1  0  0  0
 16 37  1  0  0  0
 16 38  1  0  0  0
 16 39  1  0  0  0
 17 40  1  0  0  0
 23 41  1  0  0  0
 23 42  1  0  0  0
 23 43  1  0  0  0
 24 44  1  0  0  0
 25 45  1  0  0  0
 25 46  1  0  0  0
 28 47  1  0  0  0
 29 48  1  0  0  0
 29 49  1  0  0  0
 30 50  1  0  0  0
 30 51  1  0  0  0
 30 52  1  0  0  0
M  END
$$$$
