1rs4_ligand
  -I-interpret- 

 42 45  0  0  0  0  0  0  0  0999 V2000
   47.4820   45.1100   78.7760 N   0  0  0  0  0
   47.8440   45.6230   77.5690 C   0  0  0  0  0
   46.9410   46.4500   76.8920 N   0  0  0  0  0
   47.2390   46.9750   75.7190 C   0  0  0  0  0
   46.3340   47.7820   75.0800 O   0  0  0  0  0
   48.5500   46.6950   75.0920 C   0  0  0  0  0
   49.1380   47.0530   73.9660 N   0  0  0  0  0
   50.4500   46.4380   73.9230 N   0  0  0  0  0
   50.5800   45.6740   75.1490 N   0  0  0  0  0
   49.4700   45.8150   75.8480 C   0  0  0  0  0
   49.0340   45.3210   77.0830 N   0  0  0  0  0
   51.4110   46.5590   72.8920 C   0  0  0  0  0
   51.9640   47.8100   72.5940 C   0  0  0  0  0
   52.9150   47.9300   71.5730 C   0  0  0  0  0
   53.3120   46.8000   70.8510 C   0  0  0  0  0
   52.7590   45.5490   71.1480 C   0  0  0  0  0
   51.8090   45.4290   72.1690 C   0  0  0  0  0
   53.1800   44.3530   70.3840 C   0  0  0  0  0
   53.8670   44.4790   69.3730 O   0  0  0  0  0
   52.8140   43.1410   70.7930 N   0  0  0  0  0
   53.2900   41.9490   70.0760 C   0  0  0  0  0
   54.7970   41.9820   69.9900 C   0  0  0  0  0
   55.4280   41.9550   68.7400 C   0  0  0  0  0
   56.8240   41.9870   68.6590 C   0  0  0  0  0
   57.6080   41.9530   67.1060 Cl  0  0  0  0  0
   57.5920   42.0450   69.8300 C   0  0  0  0  0
   56.9620   42.0720   71.0790 C   0  0  0  0  0
   57.9150   42.1450   72.5330 Cl  0  0  0  0  0
   55.5640   42.0400   71.1600 C   0  0  0  0  0
   48.1252   44.5051   79.2867 H   0  0  0  0  0
   46.5674   45.3303   79.1702 H   0  0  0  0  0
   46.0343   46.6510   77.3138 H   0  0  0  0  0
   51.6544   48.6907   73.1567 H   0  0  0  0  0
   53.3457   48.9041   71.3411 H   0  0  0  0  0
   54.0524   46.8936   70.0566 H   0  0  0  0  0
   51.3790   44.4547   72.4010 H   0  0  0  0  0
   52.2034   43.0389   71.6037 H   0  0  0  0  0
   52.8688   41.9373   69.0707 H   0  0  0  0  0
   52.9761   41.0532   70.6118 H   0  0  0  0  0
   54.8307   41.9090   67.8294 H   0  0  0  0  0
   58.6799   42.0691   69.7677 H   0  0  0  0  0
   55.0735   42.0602   72.1332 H   0  0  0  0  0
  1  2  1  0  0  0
  2  3  1  0  0  0
  2 11  2  0  0  0
  3  4  1  0  0  0
  4  5  2  0  0  0
  4  6  1  0  0  0
  6  7  4  0  0  0
  6 10  4  0  0  0
  7  8  4  0  0  0
  8  9  4  0  0  0
  8 12  1  0  0  0
  9 10  4  0  0  0
 10 11  1  0  0  0
 12 13  4  0  0  0
 12 17  4  0  0  0
 13 14  4  0  0  0
 14 15  4  0  0  0
 15 16  4  0  0  0
 16 17  4  0  0  0
 16 18  1  0  0  0
 18 19  2  0  0  0
 18 20  1  0  0  0
 20 21  1  0  0  0
 21 22  1  0  0  0
 22 23  4  0  0  0
 22 29  4  0  0  0
 23 24  4  0  0  0
 24 25  1  0  0  0
 24 26  4  0  0  0
 26 27  4  0  0  0
 27 28  1  0  0  0
 27 29  4  0  0  0
  1 30  1  0  0  0
  1 31  1  0  0  0
  3 32  1  0  0  0
 13 33  1  0  0  0
 14 34  1  0  0  0
 15 35  1  0  0  0
 17 36  1  0  0  0
 20 37  1  0  0  0
 21 38  1  0  0  0
 21 39  1  0  0  0
 23 40  1  0  0  0
 26 41  1  0  0  0
 29 42  1  0  0  0
M  END
$$$$
