3e3b_ligand
  -I-interpret- 

 48 51  0  0  0  0  0  0  0  0999 V2000
  -24.5950   26.2430  -17.4690 N   0  0  0  0  0
  -24.9520   26.0670  -18.7360 C   0  0  0  0  0
  -25.8320   25.0290  -19.0460 C   0  0  0  0  0
  -26.3060   24.2390  -18.0770 N   0  0  0  0  0
  -25.9330   24.4470  -16.8370 C   0  0  0  0  0
  -25.0450   25.4720  -16.4930 C   0  0  0  0  0
  -26.2300   24.7880  -20.3010 N   0  0  0  0  0
  -26.4090   23.6530  -15.9480 N   0  0  0  0  0
  -26.8930   23.6610  -20.7010 C   0  0  0  0  0
  -27.3680   23.8630  -22.0180 C   0  0  0  0  0
  -26.8810   25.1810  -22.2890 C   0  0  0  0  0
  -26.1360   25.6140  -21.2340 N   0  0  0  0  0
  -27.1800   22.4520  -16.0950 C   0  0  0  0  0
  -27.3730   21.7560  -14.8950 C   0  0  0  0  0
  -26.5940   22.4160  -13.9150 C   0  0  0  0  0
  -26.1550   23.5900  -14.5260 C   0  0  0  0  0
  -28.1200   22.9210  -22.7500 C   0  0  0  0  0
  -28.3730   21.7040  -22.0690 C   0  0  0  0  0
  -27.8980   21.4540  -20.7440 C   0  0  0  0  0
  -27.1550   22.4360  -20.0460 C   0  0  0  0  0
  -28.1840   20.2220  -20.1880 N   0  0  0  0  0
  -28.6280   19.9080  -18.8200 C   0  0  0  0  0
  -29.3950   18.6080  -18.8340 C   0  0  0  0  0
  -29.6620   20.8830  -18.3420 C   0  0  0  0  0
  -28.2700   20.5610  -14.6890 C   0  0  0  0  0
  -27.8430   19.5900  -13.5940 C   0  0  0  0  0
  -28.6620   18.7210  -13.2910 O   0  0  0  0  0
  -26.7330   19.6770  -13.0540 O   0  0  0  0  0
  -24.5654   26.7202  -19.5183 H   0  0  0  0  0
  -24.7357   25.6292  -15.4597 H   0  0  0  0  0
  -27.0759   25.7499  -23.1981 H   0  0  0  0  0
  -27.5783   22.1129  -17.0513 H   0  0  0  0  0
  -26.3825   22.0789  -12.9002 H   0  0  0  0  0
  -25.6618   24.3927  -13.9778 H   0  0  0  0  0
  -28.4788   23.1139  -23.7610 H   0  0  0  0  0
  -28.9510   20.9302  -22.5741 H   0  0  0  0  0
  -26.7955   22.2530  -19.0334 H   0  0  0  0  0
  -28.0723   19.4212  -20.8098 H   0  0  0  0  0
  -27.7315   19.9057  -18.2000 H   0  0  0  0  0
  -30.2619   18.7061  -19.4874 H   0  0  0  0  0
  -28.7494   17.8106  -19.2021 H   0  0  0  0  0
  -29.7257   18.3718  -17.8226 H   0  0  0  0  0
  -29.2413   21.8885  -18.3471 H   0  0  0  0  0
  -30.5274   20.8465  -19.0037 H   0  0  0  0  0
  -29.9664   20.6203  -17.3289 H   0  0  0  0  0
  -28.2520   19.9986  -15.6226 H   0  0  0  0  0
  -29.2416   20.9540  -14.3895 H   0  0  0  0  0
  -26.2517   20.4168  -13.4318 H   0  0  0  0  0
  1  2  4  0  0  0
  1  6  4  0  0  0
  2  3  4  0  0  0
  3  4  4  0  0  0
  3  7  1  0  0  0
  4  5  4  0  0  0
  5  6  4  0  0  0
  5  8  1  0  0  0
  7  9  4  0  0  0
  7 12  4  0  0  0
  8 13  4  0  0  0
  8 16  4  0  0  0
  9 10  4  0  0  0
  9 20  4  0  0  0
 10 11  4  0  0  0
 10 17  4  0  0  0
 11 12  4  0  0  0
 13 14  4  0  0  0
 14 15  4  0  0  0
 14 25  1  0  0  0
 15 16  4  0  0  0
 17 18  4  0  0  0
 18 19  4  0  0  0
 19 20  4  0  0  0
 19 21  1  0  0  0
 21 22  1  0  0  0
 22 23  1  0  0  0
 22 24  1  0  0  0
 25 26  1  0  0  0
 26 27  2  0  0  0
 26 28  1  0  0  0
  2 29  1  0  0  0
  6 30  1  0  0  0
 11 31  1  0  0  0
 13 32  1  0  0  0
 15 33  1  0  0  0
 16 34  1  0  0  0
 17 35  1  0  0  0
 18 36  1  0  0  0
 20 37  1  0  0  0
 21 38  1  0  0  0
 22 39  1  0  0  0
 23 40  1  0  0  0
 23 41  1  0  0  0
 23 42  1  0  0  0
 24 43  1  0  0  0
 24 44  1  0  0  0
 24 45  1  0  0  0
 25 46  1  0  0  0
 25 47  1  0  0  0
 28 48  1  0  0  0
M  END
$$$$
