6aam_ligand
  -I-interpret- 

 45 49  0  0  0  0  0  0  0  0999 V2000
   -5.1580   25.0400  -30.9900 C   0  0  0  0  0
   -8.0100   23.4410  -33.4110 C   0  0  0  0  0
   -5.5970   26.3330  -30.9980 C   0  0  0  0  0
   -6.0440   24.2670  -31.7950 C   0  0  0  0  0
   -7.0850   22.5070  -32.9590 C   0  0  0  0  0
   -6.0640   22.9290  -32.1210 C   0  0  0  0  0
   -7.0120   25.0970  -32.2950 C   0  0  0  0  0
   -7.2940   21.1260  -33.4390 C   0  0  0  0  0
   -5.1710   21.8720  -28.5020 C   0  0  0  0  0
   -2.8800   21.9930  -29.5200 C   0  0  0  0  0
   -3.3640   20.3120  -27.8040 C   0  0  0  0  0
   -5.3000   19.4760  -29.1960 C   0  0  0  0  0
   -3.0010   19.6030  -30.1830 C   0  0  0  0  0
   -3.6640   21.7520  -28.2300 C   0  0  0  0  0
   -5.6390   20.9140  -29.6030 C   0  0  0  0  0
   -3.3160   21.0180  -30.6350 C   0  0  0  0  0
   -4.8270   21.0850  -30.8910 C   0  0  0  0  0
   -3.8040   19.3440  -28.8970 C   0  0  0  0  0
   -8.0330   24.7540  -33.1100 N   0  0  0  0  0
   -6.7090   26.3320  -31.7820 N   0  0  0  0  0
   -8.4010   21.0150  -34.2370 N   0  0  0  0  0
   -4.9510   22.3560  -31.5230 N   0  0  0  0  0
   -6.5820   20.1700  -33.1740 O   0  0  0  0  0
   -3.5370   18.0470  -28.4180 O   0  0  0  0  0
   -4.2825   24.6646  -30.4602 H   0  0  0  0  0
   -8.7938   23.0751  -34.0742 H   0  0  0  0  0
   -5.1511   27.1852  -30.4851 H   0  0  0  0  0
   -5.3763   22.8911  -28.8296 H   0  0  0  0  0
   -5.7023   21.6193  -27.5844 H   0  0  0  0  0
   -1.8210   21.8344  -29.3161 H   0  0  0  0  0
   -3.0721   23.0118  -29.8565 H   0  0  0  0  0
   -3.9076   20.0884  -26.8861 H   0  0  0  0  0
   -2.2924   20.2026  -27.6374 H   0  0  0  0  0
   -5.5587   18.8050  -30.0151 H   0  0  0  0  0
   -5.8650   19.2181  -28.3003 H   0  0  0  0  0
   -1.9330   19.4893  -29.9969 H   0  0  0  0  0
   -3.2738   18.8845  -30.9560 H   0  0  0  0  0
   -3.3838   22.4769  -27.4658 H   0  0  0  0  0
   -6.7003   21.1166  -29.7470 H   0  0  0  0  0
   -2.7864   21.2926  -31.5473 H   0  0  0  0  0
   -5.2289   20.2805  -31.5069 H   0  0  0  0  0
   -8.6556   20.1101  -34.6330 H   0  0  0  0  0
   -8.9711   21.8372  -34.4355 H   0  0  0  0  0
   -4.1036   22.9235  -31.5378 H   0  0  0  0  0
   -3.8005   17.4025  -29.0789 H   0  0  0  0  0
  1  3  4  0  0  0
  4  1  4  0  0  0
  5  2  4  0  0  0
  2 19  4  0  0  0
 20  3  4  0  0  0
  6  4  4  0  0  0
  4  7  4  0  0  0
  6  5  4  0  0  0
  5  8  1  0  0  0
 22  6  1  0  0  0
  7 19  4  0  0  0
  7 20  4  0  0  0
  8 21  1  0  0  0
  8 23  2  0  0  0
  9 14  1  0  0  0
 15  9  1  0  0  0
 10 14  1  0  0  0
 16 10  1  0  0  0
 14 11  1  0  0  0
 18 11  1  0  0  0
 15 12  1  0  0  0
 12 18  1  0  0  0
 16 13  1  0  0  0
 13 18  1  0  0  0
 17 15  1  0  0  0
 17 16  1  0  0  0
 17 22  1  0  0  0
 18 24  1  0  0  0
  1 25  1  0  0  0
  2 26  1  0  0  0
  3 27  1  0  0  0
  9 28  1  0  0  0
  9 29  1  0  0  0
 10 30  1  0  0  0
 10 31  1  0  0  0
 11 32  1  0  0  0
 11 33  1  0  0  0
 12 34  1  0  0  0
 12 35  1  0  0  0
 13 36  1  0  0  0
 13 37  1  0  0  0
 14 38  1  0  0  0
 15 39  1  0  0  0
 16 40  1  0  0  0
 17 41  1  0  0  0
 21 42  1  0  0  0
 21 43  1  0  0  0
 22 44  1  0  0  0
 24 45  1  0  0  0
M  END
$$$$
