1elb_ligand
  -I-interpret- 

 69 69  0  0  0  0  0  0  0  0999 V2000
   43.2350   20.8140   35.7780 C   0  0  0  0  0
   42.9080   19.9720   34.9160 O   0  0  0  0  0
   44.0100   22.1540   35.4490 C   0  0  0  0  0
   45.1590   22.3250   36.0450 F   0  0  0  0  0
   44.2650   22.4010   34.1750 F   0  0  0  0  0
   43.2850   23.1710   35.8590 F   0  0  0  0  0
   43.0130   20.5400   37.0850 N   0  0  0  0  0
   42.0630   19.5230   37.5010 C   0  0  0  0  0
   41.0600   20.3810   38.2600 C   0  0  0  0  0
   40.6280   20.0570   39.3690 O   0  0  0  0  0
   42.6420   18.4860   38.4520 C   0  0  0  0  0
   42.4980   17.0670   37.9460 C   0  0  0  0  0
   41.0750   16.5680   38.1170 C   0  0  0  0  0
   40.9830   15.0620   37.8910 C   0  0  0  0  0
   39.6060   14.6180   38.0590 N   0  3  0  0  0
   40.7660   21.5380   37.6270 N   0  0  0  0  0
   39.7140   22.4420   38.0170 C   0  0  0  0  0
   38.5900   21.6150   37.3970 C   0  0  0  0  0
   38.1910   21.7400   36.2420 O   0  0  0  0  0
   39.9830   23.8480   37.3740 C   0  0  0  0  0
   41.0410   24.8200   37.9770 C   0  0  0  0  0
   40.4360   26.1060   38.4180 C   0  0  0  0  0
   41.4610   24.4040   39.3330 C   0  0  0  0  0
   38.0760   20.8720   38.3950 N   0  0  0  0  0
   37.5070   19.6690   38.1880 C   0  0  0  0  0
   36.7500   19.3150   37.0760 C   0  0  0  0  0
   36.3940   17.9830   36.8960 C   0  0  0  0  0
   36.7790   17.0180   37.8240 C   0  0  0  0  0
   37.5040   17.3890   38.9220 C   0  0  0  0  0
   37.8600   18.6990   39.0980 C   0  0  0  0  0
   36.4700   15.5280   37.6480 C   0  0  0  0  0
   36.6970   15.1050   36.1960 C   0  0  0  0  0
   35.0870   15.2850   38.2240 C   0  0  0  0  0
   43.5261   21.0612   37.7960 H   0  0  0  0  0
   41.6860   18.9391   36.6613 H   0  0  0  0  0
   42.0955   18.5585   39.3923 H   0  0  0  0  0
   43.7070   18.6926   38.5574 H   0  0  0  0  0
   43.1648   16.4229   38.5192 H   0  0  0  0  0
   42.7495   17.0475   36.8856 H   0  0  0  0  0
   40.4422   17.0676   37.3835 H   0  0  0  0  0
   40.7515   16.7859   39.1348 H   0  0  0  0  0
   41.6163   14.5506   38.6159 H   0  0  0  0  0
   41.3144   14.8297   36.8789 H   0  0  0  0  0
   39.5537   13.6109   37.9063 H   0  0  0  0  0
   39.2926   14.8364   39.0048 H   0  0  0  0  0
   39.0107   15.0969   37.3832 H   0  0  0  0  0
   41.3293   21.7895   36.8147 H   0  0  0  0  0
   39.5547   22.7048   39.0628 H   0  0  0  0  0
   39.0385   24.3783   37.4957 H   0  0  0  0  0
   40.3742   23.6143   36.3838 H   0  0  0  0  0
   41.7996   24.8586   37.1953 H   0  0  0  0  0
   39.9704   26.5986   37.5644 H   0  0  0  0  0
   39.6827   25.9090   39.1808 H   0  0  0  0  0
   41.2133   26.7491   38.8307 H   0  0  0  0  0
   40.5933   24.3904   39.9926 H   0  0  0  0  0
   41.8992   23.4071   39.2864 H   0  0  0  0  0
   42.1989   25.1091   39.7157 H   0  0  0  0  0
   38.1193   21.2351   39.3472 H   0  0  0  0  0
   36.4400   20.0717   36.3553 H   0  0  0  0  0
   35.8098   17.6920   36.0230 H   0  0  0  0  0
   37.7989   16.6410   39.6580 H   0  0  0  0  0
   38.4364   18.9803   39.9793 H   0  0  0  0  0
   37.1499   14.8785   38.1994 H   0  0  0  0  0
   36.0427   15.6835   35.5438 H   0  0  0  0  0
   37.7367   15.2873   35.9241 H   0  0  0  0  0
   36.4728   14.0437   36.0888 H   0  0  0  0  0
   35.0818   15.5560   39.2797 H   0  0  0  0  0
   34.3593   15.8939   37.6876 H   0  0  0  0  0
   34.8302   14.2311   38.1169 H   0  0  0  0  0
  1  3  1  0  0  0
  1  2  2  0  0  0
  3  6  1  0  0  0
  3  5  1  0  0  0
  3  4  1  0  0  0
  9  8  1  0  0  0
  8 11  1  0  0  0
  8  7  1  0  0  0
 11 12  1  0  0  0
 12 13  1  0  0  0
 13 14  1  0  0  0
 14 15  1  0  0  0
  9 10  2  0  0  0
 18 17  1  0  0  0
 17 20  1  0  0  0
 17 16  1  0  0  0
 20 21  1  0  0  0
 21 23  1  0  0  0
 21 22  1  0  0  0
 18 19  2  0  0  0
 24 25  1  0  0  0
 25 30  4  0  0  0
 25 26  4  0  0  0
 26 27  4  0  0  0
 27 28  4  0  0  0
 28 31  1  0  0  0
 29 28  4  0  0  0
 30 29  4  0  0  0
 31 33  1  0  0  0
 31 32  1  0  0  0
 16  9  1  0  0  0
  7  1  1  0  0  0
 18 24  1  0  0  0
  7 34  1  0  0  0
  8 35  1  0  0  0
 11 36  1  0  0  0
 11 37  1  0  0  0
 12 38  1  0  0  0
 12 39  1  0  0  0
 13 40  1  0  0  0
 13 41  1  0  0  0
 14 42  1  0  0  0
 14 43  1  0  0  0
 15 44  1  0  0  0
 15 45  1  0  0  0
 15 46  1  0  0  0
 16 47  1  0  0  0
 17 48  1  0  0  0
 20 49  1  0  0  0
 20 50  1  0  0  0
 21 51  1  0  0  0
 22 52  1  0  0  0
 22 53  1  0  0  0
 22 54  1  0  0  0
 23 55  1  0  0  0
 23 56  1  0  0  0
 23 57  1  0  0  0
 24 58  1  0  0  0
 26 59  1  0  0  0
 27 60  1  0  0  0
 29 61  1  0  0  0
 30 62  1  0  0  0
 31 63  1  0  0  0
 32 64  1  0  0  0
 32 65  1  0  0  0
 32 66  1  0  0  0
 33 67  1  0  0  0
 33 68  1  0  0  0
 33 69  1  0  0  0
M  END
$$$$
