4fk6_ligand
  -I-interpret- 

 45 49  0  0  0  0  0  0  0  0999 V2000
    9.6870   55.9770    0.3100 C   0  0  0  0  0
    5.4370   54.9300    1.2690 C   0  0  0  0  0
    8.5470   56.9800    0.4140 C   0  0  0  0  0
    5.9420   55.5030    3.5830 C   0  0  0  0  0
    6.9140   55.3810    1.3970 C   0  0  0  0  0
    7.3020   55.1230    2.8940 C   0  0  0  0  0
    5.0850   54.4910    2.7340 C   0  0  0  0  0
   10.8900   56.5150   -0.3520 N   0  0  0  0  0
   11.7140   54.2480   -1.7760 C   0  0  0  0  0
   11.3130   56.0130   -1.8900 S   0  0  0  0  0
    7.2910   56.7280    0.9130 N   0  0  0  0  0
    7.3700   53.5630    3.0580 C   0  0  0  0  0
    5.8410   53.1370    2.9900 C   0  0  0  0  0
    6.5720   57.9230    0.8690 C   0  0  0  0  0
    5.2770   58.4160    1.2120 C   0  0  0  0  0
    4.0620   57.8610    1.8170 C   0  0  0  0  0
    3.1510   58.8490    1.9220 C   0  0  0  0  0
    3.6780   60.0110    1.4140 N   0  0  0  0  0
    4.9630   59.7830    0.9730 C   0  0  0  0  0
    5.8650   60.6010    0.4250 N   0  0  0  0  0
    7.0730   60.1980    0.1080 C   0  0  0  0  0
    7.4750   58.8650    0.3180 C   0  0  0  0  0
    8.6320   58.2230    0.0710 N   0  0  0  0  0
   12.4770   56.7780   -2.1570 O   0  0  0  0  0
   10.1400   56.1930   -2.6690 O   0  0  0  0  0
    9.3312   55.1396   -0.2902 H   0  0  0  0  0
    9.9701   55.6984    1.3250 H   0  0  0  0  0
    5.2967   54.1321    0.5397 H   0  0  0  0  0
    4.7828   55.7155    0.8907 H   0  0  0  0  0
    5.6453   56.5516    3.5633 H   0  0  0  0  0
    5.8885   55.4185    4.6684 H   0  0  0  0  0
    7.4985   54.7919    0.6903 H   0  0  0  0  0
    8.2073   55.6199    3.2426 H   0  0  0  0  0
    4.0145   54.4388    2.9323 H   0  0  0  0  0
   11.4697   57.2000    0.1330 H   0  0  0  0  0
   12.1464   53.9133   -2.7189 H   0  0  0  0  0
   12.4308   54.0909   -0.9700 H   0  0  0  0  0
   10.8049   53.6827   -1.5707 H   0  0  0  0  0
    7.8566   53.2538    3.9831 H   0  0  0  0  0
    7.9797   53.0815    2.2935 H   0  0  0  0  0
    5.6498   52.4011    2.2090 H   0  0  0  0  0
    5.5075   52.6417    3.9019 H   0  0  0  0  0
    3.9198   56.8262    2.1286 H   0  0  0  0  0
    2.1518   58.7423    2.3443 H   0  0  0  0  0
    7.7776   60.9077   -0.3255 H   0  0  0  0  0
  3  1  1  0  0  0
  1  8  1  0  0  0
  5  2  1  0  0  0
  2  7  1  0  0  0
 11  3  4  0  0  0
  3 23  4  0  0  0
  6  4  1  0  0  0
  4  7  1  0  0  0
  5  6  1  0  0  0
  5 11  1  0  0  0
  6 12  1  0  0  0
  7 13  1  0  0  0
  8 10  1  0  0  0
 10  9  1  0  0  0
 10 24  2  0  0  0
 10 25  2  0  0  0
 11 14  4  0  0  0
 12 13  1  0  0  0
 14 15  4  0  0  0
 14 22  4  0  0  0
 15 16  4  0  0  0
 15 19  4  0  0  0
 16 17  4  0  0  0
 17 18  4  0  0  0
 18 19  4  0  0  0
 19 20  4  0  0  0
 20 21  4  0  0  0
 21 22  4  0  0  0
 22 23  4  0  0  0
  1 26  1  0  0  0
  1 27  1  0  0  0
  2 28  1  0  0  0
  2 29  1  0  0  0
  4 30  1  0  0  0
  4 31  1  0  0  0
  5 32  1  0  0  0
  6 33  1  0  0  0
  7 34  1  0  0  0
  8 35  1  0  0  0
  9 36  1  0  0  0
  9 37  1  0  0  0
  9 38  1  0  0  0
 12 39  1  0  0  0
 12 40  1  0  0  0
 13 41  1  0  0  0
 13 42  1  0  0  0
 16 43  1  0  0  0
 17 44  1  0  0  0
 21 45  1  0  0  0
M  END
$$$$
