4cga_ligand
  -I-interpret- 

 49 51  0  0  0  0  0  0  0  0999 V2000
  -21.0850   14.9330    9.3320 C   0  0  0  0  0
  -21.3620   13.4850    9.2920 N   0  3  0  0  0
  -22.7110   12.9600    8.9580 C   0  0  0  0  0
  -20.3220   12.6450    9.4650 C   0  0  0  0  0
  -19.0480   13.1630    9.7400 C   0  0  0  0  0
  -17.9390   12.3430    9.9060 C   0  0  0  0  0
  -20.4740   11.2680    9.3490 C   0  0  0  0  0
  -19.3780   10.4250    9.5020 C   0  0  0  0  0
  -18.1070   10.9560    9.7820 N   0  0  0  0  0
  -16.9660   10.0420    9.9200 C   0  0  0  0  0
  -16.7900    9.3090    8.7060 C   0  0  0  0  0
  -16.3270    9.9370    7.5500 C   0  0  0  0  0
  -16.1390    9.2230    6.3550 C   0  0  0  0  0
  -17.0770    7.9420    8.6400 C   0  0  0  0  0
  -16.9070    7.2180    7.4520 C   0  0  0  0  0
  -16.4480    7.8550    6.2950 C   0  0  0  0  0
  -16.2470    7.1140    5.1080 C   0  0  0  0  0
  -17.4270    7.1340    4.1280 C   0  0  0  0  0
  -17.1550    6.3010    3.0220 C   0  0  0  0  0
  -16.0300    6.5140    2.2130 C   0  0  0  0  0
  -15.7700    5.6830    1.1190 C   0  0  0  0  0
  -16.6410    4.6300    0.8210 C   0  0  0  0  0
  -17.7650    4.4190    1.6200 C   0  0  0  0  0
  -18.0200    5.2500    2.7150 C   0  0  0  0  0
  -20.6625   15.1941   10.3023 H   0  0  0  0  0
  -20.3754   15.1877    8.5449 H   0  0  0  0  0
  -22.0131   15.4835    9.1783 H   0  0  0  0  0
  -22.6633   12.4113    8.0174 H   0  0  0  0  0
  -23.0470   12.2935    9.7523 H   0  0  0  0  0
  -23.4090   13.7914    8.8601 H   0  0  0  0  0
  -18.9242   14.2425    9.8262 H   0  0  0  0  0
  -16.9601   12.7680   10.1277 H   0  0  0  0  0
  -21.4568   10.8468    9.1371 H   0  0  0  0  0
  -19.5055    9.3469    9.4042 H   0  0  0  0  0
  -17.1550    9.3474   10.7385 H   0  0  0  0  0
  -16.0643   10.6172   10.1299 H   0  0  0  0  0
  -16.1064   11.0042    7.5743 H   0  0  0  0  0
  -15.7523    9.7323    5.4723 H   0  0  0  0  0
  -17.4403    7.4291    9.5305 H   0  0  0  0  0
  -17.1339    6.1521    7.4299 H   0  0  0  0  0
  -16.1003    6.0755    5.4048 H   0  0  0  0  0
  -15.4002    7.5669    4.5923 H   0  0  0  0  0
  -17.5825    8.1542    3.7770 H   0  0  0  0  0
  -18.3201    6.7715    4.6370 H   0  0  0  0  0
  -15.3509    7.3360    2.4392 H   0  0  0  0  0
  -14.8900    5.8555    0.4994 H   0  0  0  0  0
  -16.4429    3.9784   -0.0300 H   0  0  0  0  0
  -18.4482    3.6017    1.3893 H   0  0  0  0  0
  -18.9006    5.0757    3.3332 H   0  0  0  0  0
  1  2  1  0  0  0
  2  3  1  0  0  0
  2  4  2  0  0  0
  4  5  1  0  0  0
  4  7  1  0  0  0
  5  6  2  0  0  0
  6  9  1  0  0  0
  7  8  2  0  0  0
  8  9  1  0  0  0
  9 10  1  0  0  0
 10 11  1  0  0  0
 11 12  4  0  0  0
 11 14  4  0  0  0
 12 13  4  0  0  0
 13 16  4  0  0  0
 14 15  4  0  0  0
 15 16  4  0  0  0
 16 17  1  0  0  0
 17 18  1  0  0  0
 18 19  1  0  0  0
 19 20  4  0  0  0
 19 24  4  0  0  0
 20 21  4  0  0  0
 21 22  4  0  0  0
 22 23  4  0  0  0
 23 24  4  0  0  0
  1 25  1  0  0  0
  1 26  1  0  0  0
  1 27  1  0  0  0
  3 28  1  0  0  0
  3 29  1  0  0  0
  3 30  1  0  0  0
  5 31  1  0  0  0
  6 32  1  0  0  0
  7 33  1  0  0  0
  8 34  1  0  0  0
 10 35  1  0  0  0
 10 36  1  0  0  0
 12 37  1  0  0  0
 13 38  1  0  0  0
 14 39  1  0  0  0
 15 40  1  0  0  0
 17 41  1  0  0  0
 17 42  1  0  0  0
 18 43  1  0  0  0
 18 44  1  0  0  0
 20 45  1  0  0  0
 21 46  1  0  0  0
 22 47  1  0  0  0
 23 48  1  0  0  0
 24 49  1  0  0  0
M  END
$$$$
