4d7b_ligand
  -I-interpret- 

 31 32  0  0  0  0  0  0  0  0999 V2000
    1.7990    2.1050   -7.2780 O   0  0  0  0  0
    0.8760    1.3270   -7.0120 C   0  0  0  0  0
    0.6550    0.8870   -5.5970 C   0  0  0  0  0
    1.2620    1.6000   -4.5610 C   0  0  0  0  0
    1.0340    1.2260   -3.2370 C   0  0  0  0  0
    1.6740    1.8700   -2.2110 O   0  0  0  0  0
   -0.2100   -0.1670   -5.2980 C   0  0  0  0  0
   -0.4120   -0.5680   -3.9660 C   0  0  0  0  0
   -1.3170   -1.7420   -3.7200 N   0  0  0  0  0
   -1.2210   -2.3830   -2.7270 O   0  0  0  0  0
   -2.0990   -2.0060   -4.5570 O   0  0  0  0  0
    0.2190    0.1290   -2.9190 C   0  0  0  0  0
    0.0150   -0.2410   -1.6420 O   0  0  0  0  0
    0.0070    0.8310   -8.1350 C   0  0  0  0  0
    0.5730    0.4310   -9.3460 C   0  0  0  0  0
   -0.1690   -0.0550  -10.4130 C   0  0  0  0  0
   -1.5440   -0.1080  -10.3400 C   0  0  0  0  0
   -2.3120   -0.5850  -11.4770 C   0  0  0  0  0
   -2.1150    0.3240   -9.1460 C   0  0  0  0  0
   -1.4010    0.7640   -8.0350 C   0  0  0  0  0
    1.9116    2.4458   -4.7864 H   0  0  0  0  0
    1.4012    1.4865   -1.3743 H   0  0  0  0  0
   -0.7327   -0.6829   -6.1034 H   0  0  0  0  0
   -0.5651   -1.0056   -1.6203 H   0  0  0  0  0
    1.6546    0.5041   -9.4598 H   0  0  0  0  0
    0.3390   -0.3970  -11.3147 H   0  0  0  0  0
   -2.1168    0.0529  -12.3390 H   0  0  0  0  0
   -2.0192   -1.6093  -11.7076 H   0  0  0  0  0
   -3.3743   -0.5553  -11.2345 H   0  0  0  0  0
   -3.2027    0.3172   -9.0759 H   0  0  0  0  0
   -1.9126    1.0483   -7.1155 H   0  0  0  0  0
  1  2  2  0  0  0
  2  3  1  0  0  0
  2 14  1  0  0  0
  3  4  4  0  0  0
  3  7  4  0  0  0
  4  5  4  0  0  0
  5  6  1  0  0  0
  5 12  4  0  0  0
  7  8  4  0  0  0
  8  9  1  0  0  0
  8 12  4  0  0  0
  9 10  2  0  0  0
  9 11  2  0  0  0
 12 13  1  0  0  0
 14 15  4  0  0  0
 14 20  4  0  0  0
 15 16  4  0  0  0
 16 17  4  0  0  0
 17 18  1  0  0  0
 17 19  4  0  0  0
 19 20  4  0  0  0
  4 21  1  0  0  0
  6 22  1  0  0  0
  7 23  1  0  0  0
 13 24  1  0  0  0
 15 25  1  0  0  0
 16 26  1  0  0  0
 18 27  1  0  0  0
 18 28  1  0  0  0
 18 29  1  0  0  0
 19 30  1  0  0  0
 20 31  1  0  0  0
M  END
$$$$
