5knt_ligand
  -I-interpret- 

 45 46  0  0  0  0  0  0  0  0999 V2000
   26.9320   -9.6280  -12.4360 C   0  0  0  0  0
   26.1200  -10.1810  -11.3970 C   0  0  0  0  0
   25.8380   -9.3570  -10.2500 C   0  0  0  0  0
   26.3790  -11.6750  -13.0020 C   0  0  0  0  0
   26.3520   -8.1010  -10.2180 N   0  0  0  0  0
   27.4110   -8.3360  -12.3120 N   0  0  0  0  0
   25.1620   -9.7700   -9.3490 O   0  0  0  0  0
   27.1150   -7.6180  -11.2270 C   0  0  0  0  0
   25.8080  -11.4640  -11.8100 N   0  0  0  0  0
   27.0760  -10.5900  -13.4190 N   0  0  0  0  0
   27.7970  -10.4850  -14.6480 C   0  0  0  0  0
   29.3200  -10.8180  -14.4960 C   0  0  0  0  0
   30.0010  -10.7830  -15.7440 N   0  3  0  0  0
   29.6680  -11.9600  -16.5560 C   0  0  0  0  0
   30.3700  -13.2020  -16.0110 C   0  0  0  0  0
   29.9880  -14.6840  -17.0200 P   0  0  0  0  0
   30.5800  -14.5220  -18.4000 O   0  0  0  0  0
   30.5640  -15.8650  -16.3960 O   0  0  0  0  0
   28.4740  -14.8560  -17.1040 O   0  0  0  0  0
   31.4450  -10.7670  -15.5350 C   0  0  0  0  0
   32.0710   -9.5430  -16.2420 C   0  0  0  0  0
   33.5050   -9.5830  -16.0840 O   0  0  0  0  0
   31.5730   -8.3460  -15.6070 C   0  0  0  0  0
   32.1920   -8.2820  -14.3180 O   0  0  0  0  0
   26.2941  -12.6034  -13.5668 H   0  0  0  0  0
   26.1584   -7.5055   -9.4128 H   0  0  0  0  0
   27.5028   -6.6023  -11.1498 H   0  0  0  0  0
   27.7158   -9.4543  -14.9931 H   0  0  0  0  0
   27.3685  -11.2039  -15.3463 H   0  0  0  0  0
   29.4093  -11.8246  -14.0874 H   0  0  0  0  0
   29.7685  -10.0700  -13.8423 H   0  0  0  0  0
   29.7060   -9.9361  -16.2299 H   0  0  0  0  0
   29.9975  -11.7880  -17.5807 H   0  0  0  0  0
   28.5902  -12.1194  -16.5232 H   0  0  0  0  0
   30.0219  -13.3774  -14.9931 H   0  0  0  0  0
   31.4462  -13.0318  -16.0400 H   0  0  0  0  0
   30.2045  -13.7440  -18.8187 H   0  0  0  0  0
   28.0872  -14.0795  -17.5152 H   0  0  0  0  0
   31.8763  -11.6784  -15.9490 H   0  0  0  0  0
   31.6510  -10.7067  -14.4663 H   0  0  0  0  0
   31.8145   -9.5532  -17.3014 H   0  0  0  0  0
   33.8954   -8.8235  -16.5225 H   0  0  0  0  0
   30.4871   -8.3747  -15.5174 H   0  0  0  0  0
   31.8115   -7.4622  -16.1987 H   0  0  0  0  0
   31.8881   -7.4967  -13.8570 H   0  0  0  0  0
  1  2  4  0  0  0
  1  6  1  0  0  0
  1 10  4  0  0  0
  2  3  1  0  0  0
  2  9  4  0  0  0
  3  5  1  0  0  0
  3  7  2  0  0  0
  9  4  4  0  0  0
  4 10  4  0  0  0
  5  8  1  0  0  0
  6  8  2  0  0  0
 10 11  1  0  0  0
 11 12  1  0  0  0
 12 13  1  0  0  0
 13 14  1  0  0  0
 13 20  1  0  0  0
 14 15  1  0  0  0
 15 16  1  0  0  0
 16 17  1  0  0  0
 16 18  2  0  0  0
 16 19  1  0  0  0
 20 21  1  0  0  0
 21 22  1  0  0  0
 21 23  1  0  0  0
 23 24  1  0  0  0
  4 25  1  0  0  0
  5 26  1  0  0  0
  8 27  1  0  0  0
 11 28  1  0  0  0
 11 29  1  0  0  0
 12 30  1  0  0  0
 12 31  1  0  0  0
 13 32  1  0  0  0
 14 33  1  0  0  0
 14 34  1  0  0  0
 15 35  1  0  0  0
 15 36  1  0  0  0
 17 37  1  0  0  0
 19 38  1  0  0  0
 20 39  1  0  0  0
 20 40  1  0  0  0
 21 41  1  0  0  0
 22 42  1  0  0  0
 23 43  1  0  0  0
 23 44  1  0  0  0
 24 45  1  0  0  0
M  END
$$$$
