### 
### Created by X-TOOL on Mon Sep 10 21:13:31 2018
### 

@<TRIPOS>MOLECULE
5knt_ligand
   43    44     1     0     0
SMALL
GAST_HUCK


@<TRIPOS>ATOM
      1 C4         26.9320   -9.6280  -12.4360 C.2       1 6WB         0.1335
      2 C5         26.1200  -10.1810  -11.3970 C.2       1 6WB         0.1043
      3 C6         25.8380   -9.3570  -10.2500 C.2       1 6WB         0.2200
      4 C8         26.3790  -11.6750  -13.0020 C.2       1 6WB         0.0981
      5 N1         26.3520   -8.1010  -10.2180 N.am      1 6WB        -0.2042
      6 N3         27.4110   -8.3360  -12.3120 N.2       1 6WB        -0.2684
      7 O6         25.1620   -9.7700   -9.3490 O.2       1 6WB        -0.4066
      8 C2         27.1150   -7.6180  -11.2270 C.2       1 6WB         0.1273
      9 N7         25.8080  -11.4640  -11.8100 N.2       1 6WB        -0.3156
     10 N9         27.0760  -10.5900  -13.4190 N.pl3     1 6WB        -0.2286
     11 CAL        27.7970  -10.4850  -14.6480 C.3       1 6WB         0.0993
     12 CAJ        29.3200  -10.8180  -14.4960 C.3       1 6WB        -0.0032
     13 NAV        30.0010  -10.7830  -15.7440 N.4       1 6WB         0.2401
     14 CAK        29.6680  -11.9600  -16.5560 C.3       1 6WB        -0.0164
     15 CAM        30.3700  -13.2020  -16.0110 C.3       1 6WB         0.0596
     16 PAX        29.9880  -14.6840  -17.0200 P.3       1 6WB         0.0628
     17 OAE        30.5800  -14.5220  -18.4000 O.co2     1 6WB        -0.5621
     18 OAF        30.5640  -15.8650  -16.3960 O.co2     1 6WB        -0.5621
     19 OAB        28.4740  -14.8560  -17.1040 O.co2     1 6WB        -0.5621
     20 CAN        31.4450  -10.7670  -15.5350 C.3       1 6WB        -0.0029
     21 CAU        32.0710   -9.5430  -16.2420 C.3       1 6WB         0.1177
     22 OAD        33.5050   -9.5830  -16.0840 O.3       1 6WB        -0.3842
     23 CAI        31.5730   -8.3460  -15.6070 C.3       1 6WB         0.0751
     24 OAC        32.1920   -8.2820  -14.3180 O.3       1 6WB        -0.3923
     25 H1         26.2942  -12.6025  -13.5663 H         1 6WB         0.1212
     26 H2         26.1622   -7.5172   -9.4286 H         1 6WB         0.2557
     27 H3         27.5025   -6.6032  -11.1499 H         1 6WB         0.1493
     28 H4         27.6993   -9.4561  -15.0246 H         1 6WB         0.0672
     29 H5         27.3563  -11.1845  -15.3736 H         1 6WB         0.0672
     30 H6         29.4219  -11.8245  -14.0642 H         1 6WB         0.0842
     31 H7         29.7788  -10.0810  -13.8205 H         1 6WB         0.0842
     32 H8         29.7267   -9.9495  -16.2400 H         1 6WB         0.2036
     33 H9         29.9912  -11.7874  -17.5932 H         1 6WB         0.0828
     34 H10        28.5799  -12.1198  -16.5327 H         1 6WB         0.0828
     35 H11        30.0363  -13.3771  -14.9776 H         1 6WB         0.0504
     36 H12        31.4568  -13.0324  -16.0217 H         1 6WB         0.0504
     37 H13        31.8825  -11.6882  -15.9473 H         1 6WB         0.0841
     38 H14        31.6559  -10.7115  -14.4569 H         1 6WB         0.0841
     39 H15        31.8076   -9.5464  -17.3100 H         1 6WB         0.0670
     40 H16        33.7213   -9.5619  -15.1592 H         1 6WB         0.2101
     41 H17        30.4794   -8.3989  -15.5011 H         1 6WB         0.0585
     42 H18        31.8415   -7.4605  -16.2018 H         1 6WB         0.0585
     43 H19        33.1355   -8.2440  -14.4226 H         1 6WB         0.2095
@<TRIPOS>BOND
     1    1    2 2  
     2    1    6 1  
     3    1   10 1  
     4    2    3 1  
     5    2    9 1  
     6    3    5 am 
     7    3    7 2  
     8    9    4 2  
     9    4   10 1  
    10    5    8 1  
    11    6    8 2  
    12   10   11 1  
    13   11   12 1  
    14   12   13 1  
    15   13   14 1  
    16   13   20 1  
    17   14   15 1  
    18   15   16 1  
    19   16   17 ar 
    20   16   18 ar 
    21   16   19 ar 
    22   20   21 1  
    23   21   22 1  
    24   21   23 1  
    25   23   24 1  
    26    4   25 1  
    27    5   26 1  
    28    8   27 1  
    29   11   28 1  
    30   11   29 1  
    31   12   30 1  
    32   12   31 1  
    33   13   32 1  
    34   14   33 1  
    35   14   34 1  
    36   15   35 1  
    37   15   36 1  
    38   20   37 1  
    39   20   38 1  
    40   21   39 1  
    41   22   40 1  
    42   23   41 1  
    43   23   42 1  
    44   24   43 1  
@<TRIPOS>SUBSTRUCTURE
     1 6WB         1

