6f2n_ligand
  -I-interpret- 

 39 41  0  0  0  0  0  0  0  0999 V2000
   15.8360   13.2620   41.3330 C   0  0  0  0  0
   17.0420   13.9180   41.3490 C   0  0  0  0  0
   17.3650   14.7220   42.4040 C   0  0  0  0  0
   16.4730   14.8940   43.4530 C   0  0  0  0  0
   15.2440   14.2330   43.4760 C   0  0  0  0  0
   14.2710   14.4710   44.6290 C   0  0  0  0  0
   12.8690   14.9420   44.2330 C   0  0  0  0  0
   11.7690   14.1970   44.5570 C   0  0  0  0  0
   10.4580   14.6030   44.2070 C   0  0  0  0  0
    9.3000   13.8570   44.5690 C   0  0  0  0  0
    8.0530   14.2820   44.1960 C   0  0  0  0  0
    7.8930   15.4670   43.4860 C   0  0  0  0  0
   13.3870   11.5400   43.3050 C   0  0  0  0  0
   11.8380    9.9050   43.7910 O   0  0  0  0  0
   12.0800   10.8890   43.0680 C   0  0  0  0  0
    8.9790   16.2260   43.1430 C   0  0  0  0  0
   10.2900   15.8130   43.4880 C   0  0  0  0  0
   11.4450   16.5580   43.1530 C   0  0  0  0  0
   12.6910   16.1230   43.5190 C   0  0  0  0  0
   13.7330   12.5380   42.4310 C   0  0  0  0  0
   14.9400   13.3710   42.4040 C   0  0  0  0  0
   11.3070   11.1470   42.0880 O   0  0  0  0  0
   14.4440   11.0650   44.6260 S   0  0  0  0  0
   15.5716   12.6466   40.4731 H   0  0  0  0  0
   17.7403   13.7971   40.5208 H   0  0  0  0  0
   18.3285   15.2314   42.4225 H   0  0  0  0  0
   16.7375   15.5586   44.2755 H   0  0  0  0  0
   14.7026   15.2668   45.2361 H   0  0  0  0  0
   14.1432   13.5097   45.1267 H   0  0  0  0  0
   11.9053   13.2624   45.1011 H   0  0  0  0  0
    9.4074   12.9398   45.1480 H   0  0  0  0  0
    7.1784   13.6865   44.4578 H   0  0  0  0  0
    6.8934   15.7944   43.2000 H   0  0  0  0  0
    8.8339   17.1589   42.5982 H   0  0  0  0  0
   11.3420   17.4897   42.5967 H   0  0  0  0  0
   13.5636   16.7158   43.2446 H   0  0  0  0  0
   13.0073   12.7416   41.6435 H   0  0  0  0  0
   11.6230   11.9293   41.6300 H   0  0  0  0  0
   13.8735   10.0820   45.3167 H   0  0  0  0  0
  1  2  4  0  0  0
 21  1  4  0  0  0
  2  3  4  0  0  0
  4  3  4  0  0  0
  5  4  4  0  0  0
  5  6  1  0  0  0
 21  5  4  0  0  0
  6  7  1  0  0  0
  7  8  4  0  0  0
  7 19  4  0  0  0
  8  9  4  0  0  0
  9 10  4  0  0  0
  9 17  4  0  0  0
 10 11  4  0  0  0
 11 12  4  0  0  0
 16 12  4  0  0  0
 13 15  1  0  0  0
 20 13  2  0  0  0
 13 23  1  0  0  0
 15 14  2  0  0  0
 15 22  1  0  0  0
 17 16  4  0  0  0
 18 17  4  0  0  0
 19 18  4  0  0  0
 20 21  1  0  0  0
  1 24  1  0  0  0
  2 25  1  0  0  0
  3 26  1  0  0  0
  4 27  1  0  0  0
  6 28  1  0  0  0
  6 29  1  0  0  0
  8 30  1  0  0  0
 10 31  1  0  0  0
 11 32  1  0  0  0
 12 33  1  0  0  0
 16 34  1  0  0  0
 18 35  1  0  0  0
 19 36  1  0  0  0
 20 37  1  0  0  0
 22 38  1  0  0  0
 23 39  1  0  0  0
M  END
$$$$
