2iw8_ligand
  -I-interpret- 

 49 52  0  0  0  0  0  0  0  0999 V2000
    8.2220   44.0290   50.0230 C   0  0  0  0  0
   11.0250   46.8000   52.1870 C   0  0  0  0  0
    5.2950   46.0300   52.0110 C   0  0  0  0  0
    4.4120   46.4980   53.1380 C   0  0  0  0  0
    2.9660   46.2020   52.7200 C   0  0  0  0  0
    1.9720   46.4300   53.8610 C   0  0  0  0  0
    2.4070   45.7380   55.1520 C   0  0  0  0  0
    3.8420   46.1550   55.5260 C   0  0  0  0  0
    4.8150   45.7570   54.4270 C   0  0  0  0  0
    4.5350   41.5910   50.1310 C   0  0  0  0  0
    4.2290   40.8110   49.0050 C   0  0  0  0  0
    5.1580   40.8040   47.9430 C   0  0  0  0  0
    6.3390   41.5510   48.0210 C   0  0  0  0  0
    1.6910   40.5510   49.6590 N   0  0  0  0  0
    7.2930   44.7030   50.7500 N   0  0  0  0  0
    7.6160   45.6970   51.6130 C   0  0  0  0  0
    6.6500   46.3330   52.3110 O   0  0  0  0  0
    9.0200   46.0680   51.7620 C   0  0  0  0  0
    9.7070   46.9640   52.4940 N   0  0  0  0  0
   11.1660   45.7940   51.2670 N   0  0  0  0  0
    9.9130   45.3500   50.9890 C   0  0  0  0  0
    9.5340   44.3580   50.1440 N   0  0  0  0  0
    7.8180   43.0320   49.1710 N   0  0  0  0  0
    6.6350   42.3310   49.1500 C   0  0  0  0  0
    5.7220   42.3300   50.2050 C   0  0  0  0  0
    2.8610   39.9350   48.9110 S   0  0  0  0  0
    3.0650   38.5930   49.5070 O   0  0  0  0  0
    2.5520   39.7690   47.4760 O   0  0  0  0  0
   11.8440   47.3818   52.6099 H   0  0  0  0  0
    5.0058   46.5359   51.0899 H   0  0  0  0  0
    5.1834   44.9529   51.8864 H   0  0  0  0  0
    4.5147   47.5647   53.3372 H   0  0  0  0  0
    2.9074   45.1542   52.4254 H   0  0  0  0  0
    2.7052   46.8771   51.9049 H   0  0  0  0  0
    1.0100   46.0145   53.5609 H   0  0  0  0  0
    1.9157   47.5015   54.0528 H   0  0  0  0  0
    2.3777   44.6585   55.0040 H   0  0  0  0  0
    1.7313   46.0288   55.9563 H   0  0  0  0  0
    4.1272   45.6533   56.4507 H   0  0  0  0  0
    3.8748   47.2370   55.6536 H   0  0  0  0  0
    5.8325   46.0250   54.7115 H   0  0  0  0  0
    4.7800   44.6794   54.2669 H   0  0  0  0  0
    3.8341   41.6221   50.9652 H   0  0  0  0  0
    4.9536   40.2103   47.0520 H   0  0  0  0  0
    7.0426   41.5266   47.1889 H   0  0  0  0  0
    1.2300   40.0286   50.4039 H   0  0  0  0  0
    1.3664   41.4870   49.4163 H   0  0  0  0  0
    8.4917   42.7739   48.4499 H   0  0  0  0  0
    5.9360   42.9134   51.1005 H   0  0  0  0  0
  1 15  4  0  0  0
  1 22  4  0  0  0
 23  1  1  0  0  0
  2 19  4  0  0  0
 20  2  4  0  0  0
  3  4  1  0  0  0
 17  3  1  0  0  0
  4  5  1  0  0  0
  4  9  1  0  0  0
  5  6  1  0  0  0
  6  7  1  0  0  0
  8  7  1  0  0  0
  9  8  1  0  0  0
 11 10  4  0  0  0
 10 25  4  0  0  0
 12 11  4  0  0  0
 11 26  1  0  0  0
 13 12  4  0  0  0
 24 13  4  0  0  0
 26 14  1  0  0  0
 15 16  4  0  0  0
 16 17  1  0  0  0
 16 18  4  0  0  0
 18 19  4  0  0  0
 21 18  4  0  0  0
 21 20  4  0  0  0
 22 21  4  0  0  0
 23 24  1  0  0  0
 24 25  4  0  0  0
 26 27  2  0  0  0
 26 28  2  0  0  0
  2 29  1  0  0  0
  3 30  1  0  0  0
  3 31  1  0  0  0
  4 32  1  0  0  0
  5 33  1  0  0  0
  5 34  1  0  0  0
  6 35  1  0  0  0
  6 36  1  0  0  0
  7 37  1  0  0  0
  7 38  1  0  0  0
  8 39  1  0  0  0
  8 40  1  0  0  0
  9 41  1  0  0  0
  9 42  1  0  0  0
 10 43  1  0  0  0
 12 44  1  0  0  0
 13 45  1  0  0  0
 14 46  1  0  0  0
 14 47  1  0  0  0
 23 48  1  0  0  0
 25 49  1  0  0  0
M  END
$$$$
