4jin_ligand
  -I-interpret- 

 33 34  0  0  0  0  0  0  0  0999 V2000
    9.7030   -3.0230    7.2510 C   0  0  0  0  0
    9.1460   -0.9330    8.7890 N   0  0  0  0  0
    8.8140   -3.6310    6.4790 C   0  0  0  0  0
    7.6950   -2.0000    4.8750 C   0  0  0  0  0
   15.9550   -2.4780   10.6780 C   0  0  0  0  0
   15.2630   -1.4830   11.3760 C   0  0  0  0  0
   14.0060   -1.0730   10.9880 C   0  0  0  0  0
   13.4460   -1.6520    9.8870 C   0  0  0  0  0
   14.1490   -2.6330    9.2000 C   0  0  0  0  0
   15.4050   -3.0630    9.5850 C   0  0  0  0  0
   13.4750   -3.2640    7.9510 C   0  0  0  0  0
   12.1150   -2.7450    7.9460 N   0  0  0  0  0
   11.1110   -3.5330    7.2590 C   0  0  0  0  0
    9.3840   -1.8280    8.1310 C   0  0  0  0  0
    7.5810   -2.9410    5.9240 C   0  0  0  0  0
    6.5010   -1.4020    4.4010 C   0  0  0  0  0
    5.3060   -1.6970    4.9050 N   0  0  0  0  0
    5.1730   -2.5870    5.8890 C   0  0  0  0  0
    6.2880   -3.2480    6.4420 C   0  0  0  0  0
   11.4250   -4.5810    6.7120 O   0  0  0  0  0
    8.9763   -4.6797    6.2299 H   0  0  0  0  0
    8.6644   -1.7443    4.4472 H   0  0  0  0  0
   16.9447   -2.7859   11.0153 H   0  0  0  0  0
   15.7286   -1.0214   12.2467 H   0  0  0  0  0
   13.4721   -0.3047   11.5472 H   0  0  0  0  0
   12.4554   -1.3473    9.5495 H   0  0  0  0  0
   15.9321   -3.8408    9.0325 H   0  0  0  0  0
   13.4890   -4.3530    7.9944 H   0  0  0  0  0
   14.0064   -3.0064    7.0348 H   0  0  0  0  0
   11.8790   -1.8656    8.4057 H   0  0  0  0  0
    6.5642   -0.6730    3.5931 H   0  0  0  0  0
    4.1780   -2.8086    6.2749 H   0  0  0  0  0
    6.1655   -3.9750    7.2448 H   0  0  0  0  0
  1  3  2  0  0  0
 13  1  1  0  0  0
  1 14  1  0  0  0
 14  2  3  0  0  0
  3 15  1  0  0  0
 15  4  4  0  0  0
  4 16  4  0  0  0
  5  6  4  0  0  0
 10  5  4  0  0  0
  7  6  4  0  0  0
  8  7  4  0  0  0
  9  8  4  0  0  0
  9 10  4  0  0  0
 11  9  1  0  0  0
 12 11  1  0  0  0
 12 13  1  0  0  0
 13 20  2  0  0  0
 15 19  4  0  0  0
 16 17  4  0  0  0
 17 18  4  0  0  0
 18 19  4  0  0  0
  3 21  1  0  0  0
  4 22  1  0  0  0
  5 23  1  0  0  0
  6 24  1  0  0  0
  7 25  1  0  0  0
  8 26  1  0  0  0
 10 27  1  0  0  0
 11 28  1  0  0  0
 11 29  1  0  0  0
 12 30  1  0  0  0
 16 31  1  0  0  0
 18 32  1  0  0  0
 19 33  1  0  0  0
M  END
$$$$
