1n46_ligand
  -I-interpret- 

 48 50  0  0  0  0  0  0  0  0999 V2000
   17.2230    5.2550    6.1390 O   0  0  0  0  0
   18.0230    4.3770    6.2680 C   0  0  0  0  0
   17.9770    3.3560    7.1890 N   0  0  0  0  0
   18.9470    2.3970    7.2460 C   0  0  0  0  0
   18.9550    1.4890    8.0470 O   0  0  0  0  0
   19.0230    4.4100    5.4000 N   0  0  0  0  0
   20.0320    3.4130    5.4060 N   0  0  0  0  0
   20.0190    2.4460    6.2520 C   0  0  0  0  0
   19.2990    5.4070    4.4430 C   0  0  0  0  0
   20.4930    6.1760    4.7530 C   0  0  0  0  0
   20.8590    7.2330    3.8770 C   0  0  0  0  0
   22.0400    8.0590    4.1150 C   0  0  0  0  0
   18.5530    5.7190    3.3210 C   0  0  0  0  0
   18.9560    6.7020    2.3970 C   0  0  0  0  0
   18.0880    7.0200    1.1620 C   0  0  0  0  0
   20.1030    7.4820    2.6960 C   0  0  0  0  0
   20.3800    8.5040    1.8130 O   0  0  0  0  0
   21.4190    8.3390    0.9100 C   0  0  0  0  0
   21.6800    7.0750    0.2610 C   0  0  0  0  0
   22.2200    9.5120    0.6640 C   0  0  0  0  0
   23.2950    9.4250   -0.2570 C   0  0  0  0  0
   24.2110   10.6460   -0.5040 C   0  0  0  0  0
   23.2930   11.8890   -0.7160 C   0  0  0  0  0
   25.0970   10.7800    0.7600 C   0  0  0  0  0
   23.5830    8.1750   -0.8550 C   0  0  0  0  0
   22.7560    7.0450   -0.6370 C   0  0  0  0  0
   24.6370    8.0360   -1.7310 O   0  0  0  0  0
   17.1981    3.3145    7.8462 H   0  0  0  0  0
   20.7915    1.6774    6.2294 H   0  0  0  0  0
   21.0919    5.9476    5.6346 H   0  0  0  0  0
   21.9427    8.5611    5.0776 H   0  0  0  0  0
   22.9283    7.4273    4.1214 H   0  0  0  0  0
   22.1272    8.8028    3.3230 H   0  0  0  0  0
   17.6193    5.1846    3.1457 H   0  0  0  0  0
   17.9807    6.1218    0.5539 H   0  0  0  0  0
   17.1048    7.3591    1.4881 H   0  0  0  0  0
   18.5674    7.8030    0.5745 H   0  0  0  0  0
   21.0727    6.1918    0.4590 H   0  0  0  0  0
   22.0033   10.4492    1.1767 H   0  0  0  0  0
   24.8485   10.5479   -1.3827 H   0  0  0  0  0
   22.6458   11.7186   -1.5763 H   0  0  0  0  0
   22.6831   12.0447    0.1739 H   0  0  0  0  0
   23.9108   12.7694   -0.8932 H   0  0  0  0  0
   24.4621   10.9341    1.6325 H   0  0  0  0  0
   25.6815    9.8693    0.8907 H   0  0  0  0  0
   25.7685   11.6305    0.6429 H   0  0  0  0  0
   22.9628    6.1251   -1.1839 H   0  0  0  0  0
   24.6811    7.1265   -2.0351 H   0  0  0  0  0
  1  2  2  0  0  0
  2  3  1  0  0  0
  2  6  1  0  0  0
  3  4  1  0  0  0
  4  5  2  0  0  0
  4  8  1  0  0  0
  6  7  1  0  0  0
  6  9  1  0  0  0
  7  8  2  0  0  0
  9 10  4  0  0  0
  9 13  4  0  0  0
 10 11  4  0  0  0
 11 12  1  0  0  0
 11 16  4  0  0  0
 13 14  4  0  0  0
 14 15  1  0  0  0
 14 16  4  0  0  0
 16 17  1  0  0  0
 17 18  1  0  0  0
 18 19  4  0  0  0
 18 20  4  0  0  0
 19 26  4  0  0  0
 20 21  4  0  0  0
 21 22  1  0  0  0
 21 25  4  0  0  0
 22 23  1  0  0  0
 22 24  1  0  0  0
 25 26  4  0  0  0
 25 27  1  0  0  0
  3 28  1  0  0  0
  8 29  1  0  0  0
 10 30  1  0  0  0
 12 31  1  0  0  0
 12 32  1  0  0  0
 12 33  1  0  0  0
 13 34  1  0  0  0
 15 35  1  0  0  0
 15 36  1  0  0  0
 15 37  1  0  0  0
 19 38  1  0  0  0
 20 39  1  0  0  0
 22 40  1  0  0  0
 23 41  1  0  0  0
 23 42  1  0  0  0
 23 43  1  0  0  0
 24 44  1  0  0  0
 24 45  1  0  0  0
 24 46  1  0  0  0
 26 47  1  0  0  0
 27 48  1  0  0  0
M  END
$$$$
