2o9v_ligand
  -I-interpret- 

145151  0  0  0  0  0  0  0  0999 V2000
   21.1750    4.3420  -23.4990 N   0  3  0  0  0
   20.9900    2.8510  -23.5700 C   0  0  0  0  0
   21.6120    2.2780  -22.3140 C   0  0  0  0  0
   22.7210    2.6850  -21.9690 O   0  0  0  0  0
   21.7220    2.2890  -24.8100 C   0  0  0  0  0
   21.6230    0.7430  -24.8850 C   0  0  0  0  0
   21.1970    2.9360  -26.0940 C   0  0  0  0  0
   20.9280    1.3330  -21.6290 N   0  0  0  0  0
   21.5360    0.6980  -20.4470 C   0  0  0  0  0
   22.8050   -0.0890  -20.8380 C   0  0  0  0  0
   22.7690   -0.8180  -21.8560 O   0  0  0  0  0
   20.4520   -0.2590  -19.9600 C   0  0  0  0  0
   19.2020    0.1100  -20.7190 C   0  0  0  0  0
   19.5840    0.7850  -21.9610 C   0  0  0  0  0
   23.9110    0.0620  -20.0620 N   0  0  0  0  0
   25.1820   -0.6160  -20.3370 C   0  0  0  0  0
   25.0270   -2.1340  -20.0910 C   0  0  0  0  0
   24.1130   -2.5670  -19.4280 O   0  0  0  0  0
   26.1400   -0.0300  -19.2890 C   0  0  0  0  0
   25.2720    0.4150  -18.1970 C   0  0  0  0  0
   23.9730    0.8560  -18.8190 C   0  0  0  0  0
   25.9680   -2.9250  -20.6120 N   0  0  0  0  0
   25.8770   -4.3780  -20.4220 C   0  0  0  0  0
   26.0830   -4.6660  -18.9500 C   0  0  0  0  0
   26.7760   -3.9040  -18.2530 O   0  0  0  0  0
   27.0690   -4.9000  -21.2140 C   0  0  0  0  0
   28.1090   -3.7070  -21.1350 C   0  0  0  0  0
   27.1930   -2.5080  -21.3310 C   0  0  0  0  0
   25.4640   -5.7190  -18.4610 N   0  0  0  0  0
   25.5880   -6.0930  -17.0580 C   0  0  0  0  0
   26.8120   -6.9770  -16.9620 C   0  0  0  0  0
   26.9320   -7.9650  -17.7290 O   0  0  0  0  0
   24.3360   -6.8940  -16.5820 C   0  0  0  0  0
   24.4340   -7.2400  -15.1200 C   0  0  0  0  0
   23.0550   -6.1110  -16.8930 C   0  0  0  0  0
   27.7350   -6.6290  -16.0510 N   0  0  0  0  0
   28.9630   -7.4070  -15.8520 C   0  0  0  0  0
   28.6920   -8.7190  -15.0910 C   0  0  0  0  0
   27.6220   -8.8700  -14.5100 O   0  0  0  0  0
   29.8130   -6.4780  -14.9630 C   0  0  0  0  0
   28.8040   -5.7550  -14.1430 C   0  0  0  0  0
   27.6590   -5.4770  -15.1180 C   0  0  0  0  0
   29.6660   -9.6450  -15.0630 N   0  0  0  0  0
   29.5940  -10.8500  -14.2040 C   0  0  0  0  0
   29.3990  -10.4010  -12.7660 C   0  0  0  0  0
   29.9050   -9.3140  -12.3810 O   0  0  0  0  0
   30.9930  -11.5190  -14.3850 C   0  0  0  0  0
   31.4800  -11.0050  -15.7170 C   0  0  0  0  0
   30.9290   -9.5830  -15.8300 C   0  0  0  0  0
   28.6380  -11.1610  -11.9800 N   0  0  0  0  0
   28.4530  -10.8200  -10.5610 C   0  0  0  0  0
   29.7990  -10.8380   -9.8440 C   0  0  0  0  0
   30.7890  -11.3480  -10.4130 O   0  0  0  0  0
   27.6310  -12.0010  -10.0220 C   0  0  0  0  0
   27.1670  -12.7930  -11.1830 C   0  0  0  0  0
   27.8710  -12.3540  -12.3980 C   0  0  0  0  0
   29.8580  -10.3560   -8.5970 N   0  0  0  0  0
   31.0950  -10.4000   -7.8470 C   0  0  0  0  0
   31.5920  -11.8250   -7.6100 C   0  0  0  0  0
   30.7840  -12.7670   -7.4610 O   0  0  0  0  0
   30.7140   -9.7730   -6.5030 C   0  0  0  0  0
   29.4860   -9.0330   -6.7140 C   0  0  0  0  0
   28.7790   -9.7280   -7.8110 C   0  0  0  0  0
   32.9140  -11.9650   -7.5940 N   0  0  0  0  0
   33.5720  -13.2700   -7.3580 C   0  0  0  0  0
   33.5760  -13.6840   -5.8930 C   0  0  0  0  0
   34.4690  -14.4470   -5.5000 O   0  0  0  0  0
   35.0540  -13.2860   -7.8430 C   0  0  0  0  0
   35.1690  -13.0850   -9.2400 O   0  0  0  0  0
   32.6438  -13.2375   -5.0560 O   0  0  0  0  0
   20.7691    4.7737  -24.3292 H   0  0  0  0  0
   20.7101    4.7018  -22.6654 H   0  0  0  0  0
   22.1708    4.5581  -23.4544 H   0  0  0  0  0
   19.9346    2.5898  -23.6480 H   0  0  0  0  0
   22.7775    2.5414  -24.7081 H   0  0  0  0  0
   20.5812    0.4531  -25.0222 H   0  0  0  0  0
   22.2155    0.3826  -25.7259 H   0  0  0  0  0
   22.0029    0.3105  -23.9594 H   0  0  0  0  0
   21.7870    2.5884  -26.9420 H   0  0  0  0  0
   20.1527    2.6589  -26.2383 H   0  0  0  0  0
   21.2787    4.0199  -26.0128 H   0  0  0  0  0
   21.8445    1.4214  -19.6923 H   0  0  0  0  0
   20.3015   -0.1712  -18.8840 H   0  0  0  0  0
   20.7315   -1.2971  -20.1395 H   0  0  0  0  0
   18.6311   -0.7896  -20.9488 H   0  0  0  0  0
   18.5852    0.7738  -20.1132 H   0  0  0  0  0
   19.5954    0.1185  -22.8234 H   0  0  0  0  0
   18.8730    1.5528  -22.2662 H   0  0  0  0  0
   25.5242   -0.4781  -21.3627 H   0  0  0  0  0
   26.7341    0.7888  -19.6948 H   0  0  0  0  0
   26.8719   -0.7643  -18.9524 H   0  0  0  0  0
   25.1039   -0.3925  -17.4844 H   0  0  0  0  0
   25.7340    1.2346  -17.6466 H   0  0  0  0  0
   23.1152    0.6875  -18.1679 H   0  0  0  0  0
   23.9365    1.9298  -19.0024 H   0  0  0  0  0
   24.9302   -4.8190  -20.7338 H   0  0  0  0  0
   26.8091   -5.1632  -22.2393 H   0  0  0  0  0
   27.4665   -5.8309  -20.8097 H   0  0  0  0  0
   28.6780   -3.6794  -20.2057 H   0  0  0  0  0
   28.9116   -3.7729  -21.8696 H   0  0  0  0  0
   27.6170   -1.5782  -20.9517 H   0  0  0  0  0
   27.0148   -2.2718  -22.3801 H   0  0  0  0  0
   24.8837   -6.2869  -19.0784 H   0  0  0  0  0
   25.6706   -5.2054  -16.4307 H   0  0  0  0  0
   24.2983   -7.8350  -17.1309 H   0  0  0  0  0
   25.3220   -7.8490  -14.9508 H   0  0  0  0  0
   24.5039   -6.3231  -14.5348 H   0  0  0  0  0
   23.5468   -7.7975  -14.8196 H   0  0  0  0  0
   23.0826   -5.1517  -16.3762 H   0  0  0  0  0
   22.9845   -5.9443  -17.9679 H   0  0  0  0  0
   22.1904   -6.6824  -16.5552 H   0  0  0  0  0
   29.4286   -7.6910  -16.7957 H   0  0  0  0  0
   30.4374   -5.8011  -15.5462 H   0  0  0  0  0
   30.5290   -7.0277  -14.3520 H   0  0  0  0  0
   28.4788   -6.3387  -13.2818 H   0  0  0  0  0
   29.2060   -4.8398  -13.7085 H   0  0  0  0  0
   26.6911   -5.3945  -14.6235 H   0  0  0  0  0
   27.7550   -4.5154  -15.6223 H   0  0  0  0  0
   28.7791  -11.5292  -14.4545 H   0  0  0  0  0
   30.9346  -12.6072  -14.3607 H   0  0  0  0  0
   31.6762  -11.2693  -13.5732 H   0  0  0  0  0
   32.5682  -11.0185  -15.7775 H   0  0  0  0  0
   31.1364  -11.6337  -16.5384 H   0  0  0  0  0
   31.6190   -8.8337  -15.4420 H   0  0  0  0  0
   30.7771   -9.2730  -16.8639 H   0  0  0  0  0
   27.9951   -9.8407  -10.4220 H   0  0  0  0  0
   26.7799  -11.6390   -9.4452 H   0  0  0  0  0
   28.2407  -12.6175   -9.3614 H   0  0  0  0  0
   27.3758  -13.8482  -11.0065 H   0  0  0  0  0
   26.0949  -12.6464  -11.3144 H   0  0  0  0  0
   28.5196  -13.1346  -12.7955 H   0  0  0  0  0
   27.1785  -12.1276  -13.2088 H   0  0  0  0  0
   31.8989   -9.8908   -8.3786 H   0  0  0  0  0
   31.5054   -9.1136   -6.1468 H   0  0  0  0  0
   30.5750  -10.5427   -5.7438 H   0  0  0  0  0
   28.8804   -9.0040   -5.8082 H   0  0  0  0  0
   29.6891   -7.9931   -6.9698 H   0  0  0  0  0
   28.0618  -10.4598   -7.4393 H   0  0  0  0  0
   28.1778   -9.0446   -8.4107 H   0  0  0  0  0
   33.4967  -11.1425   -7.7502 H   0  0  0  0  0
   32.9742  -13.9745   -7.9363 H   0  0  0  0  0
   35.4745  -14.2638   -7.6080 H   0  0  0  0  0
   35.5809  -12.4741   -7.3417 H   0  0  0  0  0
   36.0958  -13.1030   -9.4895 H   0  0  0  0  0
   32.0388  -12.6623   -5.5300 H   0  0  0  0  0
  2  1  1  0  0  0
  2  5  1  0  0  0
  3  2  1  0  0  0
  3  4  2  0  0  0
  5  7  1  0  0  0
  5  6  1  0  0  0
 10  9  1  0  0  0
  9 12  1  0  0  0
  9  8  1  0  0  0
  8 14  1  0  0  0
 14 13  1  0  0  0
 12 13  1  0  0  0
 10 11  2  0  0  0
  8  3  1  0  0  0
 17 16  1  0  0  0
 16 19  1  0  0  0
 16 15  1  0  0  0
 15 21  1  0  0  0
 21 20  1  0  0  0
 19 20  1  0  0  0
 17 18  2  0  0  0
 15 10  1  0  0  0
 24 23  1  0  0  0
 23 26  1  0  0  0
 23 22  1  0  0  0
 22 28  1  0  0  0
 28 27  1  0  0  0
 26 27  1  0  0  0
 24 25  2  0  0  0
 22 17  1  0  0  0
 30 29  1  0  0  0
 30 33  1  0  0  0
 31 30  1  0  0  0
 31 32  2  0  0  0
 33 35  1  0  0  0
 33 34  1  0  0  0
 29 24  1  0  0  0
 38 37  1  0  0  0
 37 40  1  0  0  0
 37 36  1  0  0  0
 36 42  1  0  0  0
 42 41  1  0  0  0
 40 41  1  0  0  0
 38 39  2  0  0  0
 36 31  1  0  0  0
 45 44  1  0  0  0
 44 47  1  0  0  0
 44 43  1  0  0  0
 43 49  1  0  0  0
 49 48  1  0  0  0
 47 48  1  0  0  0
 45 46  2  0  0  0
 43 38  1  0  0  0
 52 51  1  0  0  0
 51 54  1  0  0  0
 51 50  1  0  0  0
 50 56  1  0  0  0
 56 55  1  0  0  0
 54 55  1  0  0  0
 52 53  2  0  0  0
 50 45  1  0  0  0
 59 58  1  0  0  0
 58 61  1  0  0  0
 58 57  1  0  0  0
 57 63  1  0  0  0
 63 62  1  0  0  0
 61 62  1  0  0  0
 59 60  2  0  0  0
 57 52  1  0  0  0
 64 65  1  0  0  0
 65 68  1  0  0  0
 65 66  1  0  0  0
 66 67  2  0  0  0
 68 69  1  0  0  0
 59 64  1  0  0  0
 66 70  1  0  0  0
  1 71  1  0  0  0
  1 72  1  0  0  0
  1 73  1  0  0  0
  2 74  1  0  0  0
  5 75  1  0  0  0
  6 76  1  0  0  0
  6 77  1  0  0  0
  6 78  1  0  0  0
  7 79  1  0  0  0
  7 80  1  0  0  0
  7 81  1  0  0  0
  9 82  1  0  0  0
 12 83  1  0  0  0
 12 84  1  0  0  0
 13 85  1  0  0  0
 13 86  1  0  0  0
 14 87  1  0  0  0
 14 88  1  0  0  0
 16 89  1  0  0  0
 19 90  1  0  0  0
 19 91  1  0  0  0
 20 92  1  0  0  0
 20 93  1  0  0  0
 21 94  1  0  0  0
 21 95  1  0  0  0
 23 96  1  0  0  0
 26 97  1  0  0  0
 26 98  1  0  0  0
 27 99  1  0  0  0
 27100  1  0  0  0
 28101  1  0  0  0
 28102  1  0  0  0
 29103  1  0  0  0
 30104  1  0  0  0
 33105  1  0  0  0
 34106  1  0  0  0
 34107  1  0  0  0
 34108  1  0  0  0
 35109  1  0  0  0
 35110  1  0  0  0
 35111  1  0  0  0
 37112  1  0  0  0
 40113  1  0  0  0
 40114  1  0  0  0
 41115  1  0  0  0
 41116  1  0  0  0
 42117  1  0  0  0
 42118  1  0  0  0
 44119  1  0  0  0
 47120  1  0  0  0
 47121  1  0  0  0
 48122  1  0  0  0
 48123  1  0  0  0
 49124  1  0  0  0
 49125  1  0  0  0
 51126  1  0  0  0
 54127  1  0  0  0
 54128  1  0  0  0
 55129  1  0  0  0
 55130  1  0  0  0
 56131  1  0  0  0
 56132  1  0  0  0
 58133  1  0  0  0
 61134  1  0  0  0
 61135  1  0  0  0
 62136  1  0  0  0
 62137  1  0  0  0
 63138  1  0  0  0
 63139  1  0  0  0
 64140  1  0  0  0
 65141  1  0  0  0
 68142  1  0  0  0
 68143  1  0  0  0
 69144  1  0  0  0
 70145  1  0  0  0
M  END
$$$$
