4zx5_ligand
  -I-interpret- 

 43 44  0  0  0  0  0  0  0  0999 V2000
   91.0160  116.5100   10.3560 C   0  0  0  0  0
   91.7920  117.8240   10.1920 C   0  0  0  0  0
   91.5530  118.3860    8.7790 C   0  0  0  0  0
   93.2950  117.5620   10.3470 C   0  0  0  0  0
   91.2710  118.9010   11.1770 C   0  0  0  0  0
   92.0150  119.7730   11.6240 O   0  0  0  0  0
   89.9600  118.8470   11.4640 N   0  0  0  0  0
   89.2950  119.9420   12.2010 C   0  0  0  0  0
   88.2700  120.4580   11.1820 C   0  0  0  0  0
   87.3030  119.7750   10.8530 O   0  0  0  0  0
   88.6220  121.6050   10.5920 N   0  0  0  0  0
   87.7310  122.1550    9.6050 O   0  0  0  0  0
   88.7550  119.7350   13.4990 C   0  0  0  0  0
   89.0460  118.6210   14.2890 C   0  0  0  0  0
   88.5060  118.5320   15.5750 C   0  0  0  0  0
   87.9430  120.7390   14.0320 C   0  0  0  0  0
   87.3960  120.6460   15.3230 C   0  0  0  0  0
   87.6780  119.5220   16.1090 C   0  0  0  0  0
   87.2000  119.3940   17.3670 C   0  0  0  0  0
   86.4230  120.3220   17.9800 C   0  0  0  0  0
   86.0340  120.0510   19.2560 C   0  0  0  0  0
   86.7250  118.5900   19.6340 S   0  0  0  0  0
   87.5000  118.3280   18.1330 C   0  0  0  0  0
   91.1381  116.1422   11.3748 H   0  0  0  0  0
   89.9591  116.6863   10.1562 H   0  0  0  0  0
   91.4017  115.7716    9.6531 H   0  0  0  0  0
   90.4876  118.5668    8.6367 H   0  0  0  0  0
   92.1001  119.3217    8.6642 H   0  0  0  0  0
   91.9027  117.6660    8.0391 H   0  0  0  0  0
   93.8447  118.4840   10.1576 H   0  0  0  0  0
   93.4998  117.2171   11.3605 H   0  0  0  0  0
   93.6051  116.7994    9.6326 H   0  0  0  0  0
   89.4146  118.0373   11.1686 H   0  0  0  0  0
   90.0618  120.6477   12.5206 H   0  0  0  0  0
   89.4943  122.0752   10.8338 H   0  0  0  0  0
   88.0998  122.9726    9.2628 H   0  0  0  0  0
   89.6885  117.8280   13.9062 H   0  0  0  0  0
   88.7395  117.6582   16.1833 H   0  0  0  0  0
   87.7273  121.6207   13.4285 H   0  0  0  0  0
   86.7582  121.4413   15.7089 H   0  0  0  0  0
   86.1245  121.2406   17.4749 H   0  0  0  0  0
   85.4008  120.6654   19.8961 H   0  0  0  0  0
   88.1130  117.4714   17.8527 H   0  0  0  0  0
  1  2  1  0  0  0
  2  3  1  0  0  0
  2  4  1  0  0  0
  2  5  1  0  0  0
  5  6  2  0  0  0
  5  7  1  0  0  0
  7  8  1  0  0  0
  8  9  1  0  0  0
  8 13  1  0  0  0
  9 10  2  0  0  0
  9 11  1  0  0  0
 11 12  1  0  0  0
 13 14  4  0  0  0
 13 16  4  0  0  0
 14 15  4  0  0  0
 15 18  4  0  0  0
 16 17  4  0  0  0
 17 18  4  0  0  0
 18 19  1  0  0  0
 19 20  4  0  0  0
 19 23  4  0  0  0
 20 21  4  0  0  0
 21 22  4  0  0  0
 22 23  4  0  0  0
  1 24  1  0  0  0
  1 25  1  0  0  0
  1 26  1  0  0  0
  3 27  1  0  0  0
  3 28  1  0  0  0
  3 29  1  0  0  0
  4 30  1  0  0  0
  4 31  1  0  0  0
  4 32  1  0  0  0
  7 33  1  0  0  0
  8 34  1  0  0  0
 11 35  1  0  0  0
 12 36  1  0  0  0
 14 37  1  0  0  0
 15 38  1  0  0  0
 16 39  1  0  0  0
 17 40  1  0  0  0
 20 41  1  0  0  0
 21 42  1  0  0  0
 23 43  1  0  0  0
M  END
$$$$
