6fmi_ligand
  -I-interpret- 

 56 58  0  0  0  0  0  0  0  0999 V2000
    0.8470   52.7060  405.7450 C   0  0  0  0  0
    1.6700   53.4610  404.6980 C   0  0  0  0  0
    1.2760   54.5460  404.2680 O   0  0  0  0  0
    2.8100   52.8450  404.3210 N   0  0  0  0  0
    3.7230   53.4280  403.3190 C   0  0  0  0  0
    5.1280   52.8560  403.5200 C   0  0  0  0  0
    3.2450   53.0760  401.8900 C   0  0  0  0  0
    2.5820   52.0560  401.7060 O   0  0  0  0  0
    3.6370   53.8860  400.8750 N   0  0  0  0  0
    4.4480   55.1520  400.9350 C   0  0  0  0  0
    4.1220   55.9140  399.6730 C   0  0  0  0  0
    2.9560   56.7360  399.8730 O   0  0  0  0  0
    3.8120   54.8600  398.6520 C   0  0  0  0  0
    3.2600   53.6520  399.4250 C   0  0  0  0  0
    3.8170   52.5030  398.8330 C   0  0  0  0  0
    5.2110   51.8170  399.5280 S   0  0  0  0  0
    3.2620   52.0680  397.6760 N   0  0  0  0  0
    3.7840   50.9350  396.9140 C   0  0  0  0  0
    4.5130   51.4170  395.7920 C   0  0  0  0  0
    5.4900   50.5810  395.2350 C   0  0  0  0  0
    6.2540   50.9840  394.1370 C   0  0  0  0  0
    4.3250   52.6820  395.1990 C   0  0  0  0  0
    5.0930   53.0780  394.0990 C   0  0  0  0  0
    6.0620   52.2350  393.5460 C   0  0  0  0  0
    6.7920   52.6360  392.4900 C   0  0  0  0  0
    7.5690   54.1030  392.3770 S   0  0  0  0  0
    8.2040   53.8600  390.8780 C   0  0  0  0  0
    7.8140   52.6460  390.4720 N   0  0  0  0  0
    7.0400   51.9750  391.3460 C   0  0  0  0  0
    6.5270   50.5720  390.9960 C   0  0  0  0  0
    0.7450   53.3220  406.6384 H   0  0  0  0  0
   -0.1404   52.4857  405.3393 H   0  0  0  0  0
    1.3525   51.7746  406.0001 H   0  0  0  0  0
    3.0483   51.9472  404.7424 H   0  0  0  0  0
    3.7333   54.5110  403.4419 H   0  0  0  0  0
    5.0997   51.7737  403.3941 H   0  0  0  0  0
    5.8047   53.2911  402.7845 H   0  0  0  0  0
    5.4769   53.0973  404.5241 H   0  0  0  0  0
    5.5142   54.9355  401.0016 H   0  0  0  0  0
    4.2046   55.7355  401.8229 H   0  0  0  0  0
    4.9417   56.5664  399.3719 H   0  0  0  0  0
    2.7604   57.2142  399.0639 H   0  0  0  0  0
    4.7047   54.5879  398.0888 H   0  0  0  0  0
    3.0856   55.2229  397.9249 H   0  0  0  0  0
    2.1788   53.5184  399.3899 H   0  0  0  0  0
    2.4398   52.5549  397.3193 H   0  0  0  0  0
    2.9562   50.3142  396.5712 H   0  0  0  0  0
    4.4423   50.3416  397.5485 H   0  0  0  0  0
    5.6575   49.5948  395.6679 H   0  0  0  0  0
    7.0119   50.3116  393.7351 H   0  0  0  0  0
    3.5724   53.3595  395.6024 H   0  0  0  0  0
    4.9328   54.0644  393.6637 H   0  0  0  0  0
    8.8269   54.5586  390.3194 H   0  0  0  0  0
    6.8955   49.8576  391.7322 H   0  0  0  0  0
    5.4370   50.5729  391.0027 H   0  0  0  0  0
    6.8853   50.2922  390.0053 H   0  0  0  0  0
  1  2  1  0  0  0
  2  3  2  0  0  0
  2  4  1  0  0  0
  4  5  1  0  0  0
  5  6  1  0  0  0
  5  7  1  0  0  0
  7  8  2  0  0  0
  7  9  1  0  0  0
  9 10  1  0  0  0
  9 14  1  0  0  0
 10 11  1  0  0  0
 11 12  1  0  0  0
 11 13  1  0  0  0
 13 14  1  0  0  0
 14 15  1  0  0  0
 15 16  2  0  0  0
 15 17  1  0  0  0
 17 18  1  0  0  0
 18 19  1  0  0  0
 19 20  4  0  0  0
 19 22  4  0  0  0
 20 21  4  0  0  0
 21 24  4  0  0  0
 22 23  4  0  0  0
 23 24  4  0  0  0
 24 25  1  0  0  0
 25 26  4  0  0  0
 25 29  4  0  0  0
 26 27  4  0  0  0
 27 28  4  0  0  0
 28 29  4  0  0  0
 29 30  1  0  0  0
  1 31  1  0  0  0
  1 32  1  0  0  0
  1 33  1  0  0  0
  4 34  1  0  0  0
  5 35  1  0  0  0
  6 36  1  0  0  0
  6 37  1  0  0  0
  6 38  1  0  0  0
 10 39  1  0  0  0
 10 40  1  0  0  0
 11 41  1  0  0  0
 12 42  1  0  0  0
 13 43  1  0  0  0
 13 44  1  0  0  0
 14 45  1  0  0  0
 17 46  1  0  0  0
 18 47  1  0  0  0
 18 48  1  0  0  0
 20 49  1  0  0  0
 21 50  1  0  0  0
 22 51  1  0  0  0
 23 52  1  0  0  0
 27 53  1  0  0  0
 30 54  1  0  0  0
 30 55  1  0  0  0
 30 56  1  0  0  0
M  END
$$$$
