1c5c_ligand
  -I-interpret- 

 33 34  0  0  0  0  0  0  0  0999 V2000
   20.2450   15.1870  158.0290 C   0  0  0  0  0
   20.6260   15.3070  159.3580 C   0  0  0  0  0
   21.9260   15.8510  159.6800 C   0  0  0  0  0
   22.7730   16.2440  158.6590 C   0  0  0  0  0
   23.2240   16.5140  156.1820 C   0  0  0  0  0
   22.8280   16.3870  154.8610 C   0  0  0  0  0
   21.5430   15.8490  154.5560 C   0  0  0  0  0
   20.6860   15.4520  155.5710 C   0  0  0  0  0
   21.1110   15.5890  156.9510 C   0  0  0  0  0
   22.3850   16.1220  157.2830 C   0  0  0  0  0
   18.6070   14.5040  157.5330 S   0  0  0  0  0
   17.8370   14.2390  158.8350 O   0  0  0  0  0
   17.8300   15.4390  156.7020 O   0  0  0  0  0
   18.9410   13.1800  156.9470 O   0  0  0  0  0
   19.7160   14.8860  160.4130 N   0  0  0  0  0
   20.1450   14.4100  161.6830 C   0  0  0  0  0
   21.3250   14.4200  162.0140 O   0  0  0  0  0
   19.0790   13.8670  162.6070 C   0  0  0  0  0
   24.8620   17.1990  156.5780 S   0  0  0  0  0
   25.5410   17.4740  155.2690 O   0  0  0  0  0
   24.7390   18.4600  157.3680 O   0  0  0  0  0
   25.5630   16.1140  157.3150 O   0  0  0  0  0
   22.2368   15.9509  160.7200 H   0  0  0  0  0
   23.7528   16.6537  158.9044 H   0  0  0  0  0
   23.4960   16.6971  154.0574 H   0  0  0  0  0
   21.2319   15.7491  153.5161 H   0  0  0  0  0
   19.7042   15.0417  155.3346 H   0  0  0  0  0
   17.6035   15.0759  159.2433 H   0  0  0  0  0
   18.7135   14.9351  160.2314 H   0  0  0  0  0
   19.2890   12.8202  162.8265 H   0  0  0  0  0
   19.0769   14.4405  163.5339 H   0  0  0  0  0
   18.1051   13.9501  162.1246 H   0  0  0  0  0
   25.0746   18.1759  154.8091 H   0  0  0  0  0
  1 11  1  0  0  0
  1  9  4  0  0  0
  1  2  4  0  0  0
  2 15  1  0  0  0
  2  3  4  0  0  0
  3  4  4  0  0  0
  4 10  4  0  0  0
 10  9  4  0  0  0
 10  5  4  0  0  0
  5 19  1  0  0  0
  5  6  4  0  0  0
  6  7  4  0  0  0
  7  8  4  0  0  0
  8  9  4  0  0  0
 19 22  2  0  0  0
 19 21  2  0  0  0
 19 20  1  0  0  0
 15 16  1  0  0  0
 16 18  1  0  0  0
 16 17  2  0  0  0
 11 14  2  0  0  0
 11 13  2  0  0  0
 11 12  1  0  0  0
  3 23  1  0  0  0
  4 24  1  0  0  0
  6 25  1  0  0  0
  7 26  1  0  0  0
  8 27  1  0  0  0
 12 28  1  0  0  0
 15 29  1  0  0  0
 18 30  1  0  0  0
 18 31  1  0  0  0
 18 32  1  0  0  0
 20 33  1  0  0  0
M  END
$$$$
