### 
### Created by X-TOOL on Mon Sep 10 21:13:25 2018
### 

@<TRIPOS>MOLECULE
4ym4_ligand
  171   171     1     0     0
SMALL
GAST_HUCK


@<TRIPOS>ATOM
      1 N          48.6760   15.4370    5.5650 N.4       1 MET         0.2379
      2 CA         48.7610   14.0670    5.1020 C.3       1 MET         0.0658
      3 C          48.3550   13.1460    6.2100 C.2       1 MET         0.2268
      4 O          48.2210   13.5720    7.3250 O.2       1 MET        -0.3907
      5 CB         50.1770   13.7250    4.6300 C.3       1 MET         0.0168
      6 CG         51.2550   14.7000    5.0690 C.3       1 MET         0.0007
      7 SD         52.7940   14.5810    4.1790 S.3       1 MET        -0.1638
      8 CE         52.2660   13.8150    2.6880 C.3       1 MET        -0.0181
      9 N          48.1430   11.8880    5.8620 N.am      1 THR        -0.2586
     10 CA         47.6530   10.8360    6.7430 C.3       1 THR         0.1566
     11 C          48.6960   10.3420    7.7280 C.2       1 THR         0.2065
     12 O          49.8360   10.2430    7.3730 O.2       1 THR        -0.3943
     13 CB         47.0290    9.7120    5.8690 C.3       1 THR         0.0924
     14 OG1        45.6130    9.6770    6.0690 O.3       1 THR        -0.3874
     15 CG2        47.6200    8.2990    6.0760 C.3       1 THR        -0.0346
     16 N          48.2940    9.9900    8.9410 N.am      1 SER        -0.2615
     17 CA         49.2140    9.3960    9.9070 C.3       1 SER         0.1539
     18 C          48.8570    7.9380   10.0250 C.2       1 SER         0.2063
     19 O          47.7380    7.6240   10.3630 O.2       1 SER        -0.3943
     20 CB         49.0480   10.0630   11.2570 C.3       1 SER         0.0843
     21 OG         49.5220    9.2420   12.2940 O.3       1 SER        -0.3903
     22 N          49.7930    7.0540    9.7030 N.am      1 PHE        -0.2619
     23 CA         49.4760    5.6480    9.5030 C.3       1 PHE         0.1404
     24 C          49.0700    4.7640   10.6530 C.2       1 PHE         0.2060
     25 O          48.0910    4.0680   10.5650 O.2       1 PHE        -0.3942
     26 CB         50.6700    4.9900    8.8840 C.3       1 PHE         0.0214
     27 CG         50.3310    3.8450    8.0190 C.ar      1 PHE        -0.0386
     28 CD1        49.5510    4.0290    6.9210 C.ar      1 PHE        -0.0601
     29 CD2        50.7950    2.5950    8.3010 C.ar      1 PHE        -0.0601
     30 CE1        49.2400    2.9900    6.1040 C.ar      1 PHE        -0.0686
     31 CE2        50.4890    1.5530    7.4960 C.ar      1 PHE        -0.0686
     32 CZ         49.7070    1.7520    6.3970 C.ar      1 PHE        -0.0687
     33 N          49.8520    4.7230   11.7050 N.am      1 GLU        -0.2635
     34 CA         49.5190    3.8620   12.8070 C.3       1 GLU         0.1325
     35 C          48.2230    4.2820   13.4510 C.2       1 GLU         0.2041
     36 O          47.5070    3.4550   13.9440 O.2       1 GLU        -0.3944
     37 CB         50.6490    3.7490   13.8160 C.3       1 GLU        -0.0008
     38 CG         52.0470    3.7450   13.2310 C.3       1 GLU         0.0044
     39 CD         52.6360    2.3640   13.0630 C.2       1 GLU         0.0350
     40 OE1        53.1440    1.7760   14.0380 O.co2     1 GLU        -0.5690
     41 OE2        52.6100    1.8700   11.9300 O.co2     1 GLU        -0.5690
     42 N          47.9380    5.5730   13.5110 N.am      1 ASP        -0.2622
     43 CA         46.7320    6.0670   14.1710 C.3       1 ASP         0.1423
     44 C          45.4630    6.1890   13.3420 C.2       1 ASP         0.2056
     45 O          44.4050    6.4430   13.8940 O.2       1 ASP        -0.3943
     46 CB         46.9680    7.4370   14.8020 C.3       1 ASP         0.0406
     47 CG         48.4020    7.6840   15.1620 C.2       1 ASP         0.0393
     48 OD1        49.1000    6.7090   15.4500 O.co2     1 ASP        -0.5688
     49 OD2        48.8290    8.8500   15.1490 O.co2     1 ASP        -0.5688
     50 N          45.5530    6.0510   12.0360 N.am      1 ALA        -0.2639
     51 CA         44.4020    6.2850   11.1990 C.3       1 ALA         0.1282
     52 C          43.2490    5.4020   11.5810 C.2       1 ALA         0.2037
     53 O          43.4160    4.4480   12.2910 O.2       1 ALA        -0.3944
     54 CB         44.7660    6.0580    9.7690 C.3       1 ALA        -0.0244
     55 N          42.0610    5.7210   11.1070 N.am      1 ASP        -0.2622
     56 CA         40.9550    4.8010   11.2130 C.3       1 ASP         0.1423
     57 C          41.2470    3.5900   10.3520 C.2       1 ASP         0.2057
     58 O          42.1590    3.6070    9.5370 O.2       1 ASP        -0.3943
     59 CB         39.6570    5.4680   10.7780 C.3       1 ASP         0.0406
     60 CG         39.2460    6.5940   11.6970 C.2       1 ASP         0.0393
     61 OD1        39.4080    6.4560   12.9310 O.co2     1 ASP        -0.5688
     62 OD2        38.7620    7.6210   11.1780 O.co2     1 ASP        -0.5688
     63 N          40.4620    2.5480   10.5400 N.am      1 TPO        -0.2610
     64 CA         40.6720    1.3130    9.8600 C.3       1 TPO         0.1612
     65 CB         40.2060    0.1960   10.7440 C.3       1 TPO         0.1262
     66 CG2        40.3090   -1.0970    9.9850 C.3       1 TPO        -0.0298
     67 OG1        41.0690    0.1310   11.8380 O.3       1 TPO        -0.2685
     68 P          40.5070    0.1710   13.2720 P.3       1 TPO         0.2014
     69 O1P        41.5700    0.6630   14.1360 O.co2     1 TPO        -0.5537
     70 O2P        39.3780    1.0770   13.1610 O.co2     1 TPO        -0.5537
     71 O3P        40.2050   -1.2300   13.5150 O.co2     1 TPO        -0.5537
     72 C          39.8200    1.4760    8.6840 C.2       1 TPO         0.2068
     73 O          38.7840    2.1100    8.7930 O.2       1 TPO        -0.3943
     74 N          40.2410    0.9610    7.5560 N.am      1 GLU        -0.2635
     75 CA         39.6090    1.2670    6.3200 C.3       1 GLU         0.1325
     76 C          39.0250   -0.0090    5.8540 C.2       1 GLU         0.2040
     77 O          39.6680   -1.0170    5.8960 O.2       1 GLU        -0.3944
     78 CB         40.6620    1.7630    5.3390 C.3       1 GLU        -0.0008
     79 CG         40.3880    1.5110    3.8660 C.3       1 GLU         0.0044
     80 CD         41.6430    1.2880    3.0500 C.2       1 GLU         0.0350
     81 OE1        42.5570    2.1210    3.1410 O.co2     1 GLU        -0.5690
     82 OE2        41.7140    0.2910    2.3080 O.co2     1 GLU        -0.5690
     83 N          37.7930    0.0320    5.3980 N.am      1 GLU        -0.2636
     84 CA         37.1660   -1.1540    4.8910 C.3       1 GLU         0.1324
     85 C          37.0500   -1.0030    3.4120 C.2       1 GLU         0.2034
     86 O          36.8630    0.0930    2.9200 O.2       1 GLU        -0.3944
     87 CB         35.7910   -1.3250    5.4760 C.3       1 GLU        -0.0008
     88 CG         34.9930   -2.4110    4.8000 C.3       1 GLU         0.0044
     89 CD         35.7580   -3.7030    4.7160 C.2       1 GLU         0.0350
     90 OE1        36.0980   -4.1130    3.5940 O.co2     1 GLU        -0.5690
     91 OE2        36.0300   -4.3010    5.7730 O.co2     1 GLU        -0.5690
     92 N          37.1880   -2.1120    2.7010 N.am      1 THR        -0.2698
     93 CA         37.0410   -2.1350    1.2580 C.3       1 THR         0.0916
     94 C          37.6020   -3.4310    0.7260 C.2       1 THR         0.0598
     95 O          37.3200   -4.4860    1.2710 O.co2     1 THR        -0.5666
     96 CB         37.7600   -0.9590    0.5970 C.3       1 THR        -0.0300
     97 OXT        38.3370   -3.4220   -0.2480 O.co2     1 THR        -0.5666
     98 H1         48.9487   16.0605    4.8214 H         1 MET         0.2015
     99 H2         49.2917   15.5642    6.3529 H         1 MET         0.2015
    100 H3         47.7285   15.6396    5.8428 H         1 MET         0.2015
    101 H4         48.0692   13.9367    4.2568 H         1 MET         0.1098
    102 H5         50.1719   13.6951    3.5304 H         1 MET         0.0354
    103 H6         50.4364   12.7308    5.0227 H         1 MET         0.0354
    104 H7         51.4631   14.5202    6.1341 H         1 MET         0.0380
    105 H8         50.8647   15.7201    4.9387 H         1 MET         0.0380
    106 H9         53.1303   13.6737    2.0224 H         1 MET         0.0340
    107 H10        51.5212   14.4541    2.1912 H         1 MET         0.0340
    108 H11        51.8161   12.8377    2.9172 H         1 MET         0.0340
    109 H12        48.3354   11.6373    4.9132 H         1 THR         0.1885
    110 H13        46.8404   11.2670    7.3462 H         1 THR         0.0826
    111 H14        47.2168    9.9841    4.8199 H         1 THR         0.0639
    112 H15        45.2356    8.9891    5.5334 H         1 THR         0.2101
    113 H16        47.1085    7.5867    5.4119 H         1 THR         0.0257
    114 H17        47.4777    7.9917    7.1226 H         1 THR         0.0257
    115 H18        48.6945    8.3128    5.8408 H         1 THR         0.0257
    116 H19        47.3391   10.1345    9.2005 H         1 SER         0.1884
    117 H20        50.2522    9.5085    9.5614 H         1 SER         0.0823
    118 H21        47.9811   10.2719   11.4247 H         1 SER         0.0606
    119 H22        49.6118   11.0075   11.2617 H         1 SER         0.0606
    120 H23        49.4051    9.6854   13.1260 H         1 SER         0.2097
    121 H24        50.7385    7.3614    9.5953 H         1 PHE         0.1885
    122 H25        48.6416    5.6256    8.7865 H         1 PHE         0.0823
    123 H26        51.3278    4.6337    9.6904 H         1 PHE         0.0474
    124 H27        51.2039    5.7372    8.2784 H         1 PHE         0.0474
    125 H28        49.1720    5.0190    6.6945 H         1 PHE         0.0557
    126 H29        51.4136    2.4352    9.1767 H         1 PHE         0.0557
    127 H30        48.6243    3.1492    5.2261 H         1 PHE         0.0599
    128 H31        50.8644    0.5619    7.7236 H         1 PHE         0.0599
    129 H32        49.4575    0.9156    5.7542 H         1 PHE         0.0559
    130 H33        50.6762    5.2881   11.7404 H         1 GLU         0.1883
    131 H34        49.3617    2.8554   12.3923 H         1 GLU         0.0801
    132 H35        50.5125    2.8111   14.3743 H         1 GLU         0.0330
    133 H36        50.5731    4.6015   14.5070 H         1 GLU         0.0330
    134 H37        52.7034    4.3227   13.8983 H         1 GLU         0.0433
    135 H38        52.0108    4.2285   12.2437 H         1 GLU         0.0433
    136 H39        48.5661    6.2291   13.0926 H         1 ASP         0.1884
    137 H40        46.5163    5.3510   14.9777 H         1 ASP         0.0819
    138 H41        46.3609    7.5097   15.7164 H         1 ASP         0.0478
    139 H42        46.6491    8.2102   14.0876 H         1 ASP         0.0478
    140 H43        46.4231    5.7828   11.6225 H         1 ALA         0.1883
    141 H44        44.0908    7.3328   11.3221 H         1 ALA         0.0797
    142 H45        43.8860    6.2373    9.1338 H         1 ALA         0.0277
    143 H46        45.1076    5.0207    9.6378 H         1 ALA         0.0277
    144 H47        45.5724    6.7488    9.4818 H         1 ALA         0.0277
    145 H48        41.9251    6.6099   10.6695 H         1 ASP         0.1884
    146 H49        40.8528    4.4812   12.2605 H         1 ASP         0.0819
    147 H50        38.8583    4.7118   10.7685 H         1 ASP         0.0478
    148 H51        39.7913    5.8723    9.7639 H         1 ASP         0.0478
    149 H52        39.6964    2.6262   11.1786 H         1 TPO         0.1884
    150 H53        41.7251    1.1630    9.5798 H         1 TPO         0.0830
    151 H54        39.1709    0.3685   11.0739 H         1 TPO         0.0695
    152 H55        39.9693   -1.9254   10.6241 H         1 TPO         0.0260
    153 H56        41.3550   -1.2667    9.6899 H         1 TPO         0.0260
    154 H57        39.6780   -1.0454    9.0855 H         1 TPO         0.0260
    155 H58        41.0240    0.3390    7.5643 H         1 GLU         0.1883
    156 H59        38.8269    2.0292    6.4521 H         1 GLU         0.0801
    157 H60        41.6124    1.2700    5.5912 H         1 GLU         0.0330
    158 H61        40.7639    2.8493    5.4789 H         1 GLU         0.0330
    159 H62        39.8562    2.3824    3.4563 H         1 GLU         0.0433
    160 H63        39.7516    0.6182    3.7776 H         1 GLU         0.0433
    161 H64        37.2895    0.8960    5.4046 H         1 GLU         0.1883
    162 H65        37.7803   -2.0332    5.1351 H         1 GLU         0.0801
    163 H66        35.2462   -0.3749    5.3740 H         1 GLU         0.0330
    164 H67        35.8926   -1.5768    6.5419 H         1 GLU         0.0330
    165 H68        34.7378   -2.0826    3.7817 H         1 GLU         0.0433
    166 H69        34.0694   -2.5818    5.3725 H         1 GLU         0.0433
    167 H70        37.4015   -2.9653    3.1767 H         1 THR         0.1875
    168 H71        35.9707   -2.0763    1.0112 H         1 THR         0.0723
    169 H72        37.6249   -1.0127   -0.4934 H         1 THR         0.0270
    170 H73        38.8327   -1.0038    0.8361 H         1 THR         0.0270
    171 H74        37.3397   -0.0143    0.9725 H         1 THR         0.0270
@<TRIPOS>BOND
     1    1    2 1  
     2    2    3 1  
     3    2    5 1  
     4    3    4 2  
     5    3    9 am 
     6    5    6 1  
     7    6    7 1  
     8    7    8 1  
     9    9   10 1  
    10   10   11 1  
    11   10   13 1  
    12   11   12 2  
    13   11   16 am 
    14   13   14 1  
    15   13   15 1  
    16   16   17 1  
    17   17   18 1  
    18   17   20 1  
    19   18   19 2  
    20   18   22 am 
    21   20   21 1  
    22   22   23 1  
    23   23   24 1  
    24   23   26 1  
    25   24   25 2  
    26   24   33 am 
    27   26   27 1  
    28   27   28 ar 
    29   27   29 ar 
    30   28   30 ar 
    31   29   31 ar 
    32   30   32 ar 
    33   31   32 ar 
    34   33   34 1  
    35   34   35 1  
    36   34   37 1  
    37   35   36 2  
    38   35   42 am 
    39   37   38 1  
    40   38   39 1  
    41   39   40 ar 
    42   39   41 ar 
    43   42   43 1  
    44   43   44 1  
    45   43   46 1  
    46   44   45 2  
    47   44   50 am 
    48   46   47 1  
    49   47   48 ar 
    50   47   49 ar 
    51   50   51 1  
    52   51   52 1  
    53   51   54 1  
    54   52   53 2  
    55   52   55 am 
    56   55   56 1  
    57   56   57 1  
    58   56   59 1  
    59   57   58 2  
    60   57   63 am 
    61   59   60 1  
    62   60   61 ar 
    63   60   62 ar 
    64   63   64 1  
    65   64   65 1  
    66   64   72 1  
    67   65   66 1  
    68   65   67 1  
    69   67   68 1  
    70   68   69 ar 
    71   68   70 ar 
    72   68   71 ar 
    73   72   73 2  
    74   72   74 am 
    75   74   75 1  
    76   75   76 1  
    77   75   78 1  
    78   76   77 2  
    79   76   83 am 
    80   78   79 1  
    81   79   80 1  
    82   80   81 ar 
    83   80   82 ar 
    84   83   84 1  
    85   84   85 1  
    86   84   87 1  
    87   85   86 2  
    88   85   92 am 
    89   87   88 1  
    90   88   89 1  
    91   89   90 ar 
    92   89   91 ar 
    93   92   93 1  
    94   93   94 1  
    95   93   96 1  
    96   94   95 ar 
    97   94   97 ar 
    98    1   98 1  
    99    1   99 1  
   100    1  100 1  
   101    2  101 1  
   102    5  102 1  
   103    5  103 1  
   104    6  104 1  
   105    6  105 1  
   106    8  106 1  
   107    8  107 1  
   108    8  108 1  
   109    9  109 1  
   110   10  110 1  
   111   13  111 1  
   112   14  112 1  
   113   15  113 1  
   114   15  114 1  
   115   15  115 1  
   116   16  116 1  
   117   17  117 1  
   118   20  118 1  
   119   20  119 1  
   120   21  120 1  
   121   22  121 1  
   122   23  122 1  
   123   26  123 1  
   124   26  124 1  
   125   28  125 1  
   126   29  126 1  
   127   30  127 1  
   128   31  128 1  
   129   32  129 1  
   130   33  130 1  
   131   34  131 1  
   132   37  132 1  
   133   37  133 1  
   134   38  134 1  
   135   38  135 1  
   136   42  136 1  
   137   43  137 1  
   138   46  138 1  
   139   46  139 1  
   140   50  140 1  
   141   51  141 1  
   142   54  142 1  
   143   54  143 1  
   144   54  144 1  
   145   55  145 1  
   146   56  146 1  
   147   59  147 1  
   148   59  148 1  
   149   63  149 1  
   150   64  150 1  
   151   65  151 1  
   152   66  152 1  
   153   66  153 1  
   154   66  154 1  
   155   74  155 1  
   156   75  156 1  
   157   78  157 1  
   158   78  158 1  
   159   79  159 1  
   160   79  160 1  
   161   83  161 1  
   162   84  162 1  
   163   87  163 1  
   164   87  164 1  
   165   88  165 1  
   166   88  166 1  
   167   92  167 1  
   168   93  168 1  
   169   96  169 1  
   170   96  170 1  
   171   96  171 1  
@<TRIPOS>SUBSTRUCTURE
     1 MET         1

