4ym4_ligand
  -I-interpret- 

179179  0  0  0  0  0  0  0  0999 V2000
   48.6760   15.4370    5.5650 N   0  3  0  0  0
   48.7610   14.0670    5.1020 C   0  0  0  0  0
   48.3550   13.1460    6.2100 C   0  0  0  0  0
   48.2210   13.5720    7.3250 O   0  0  0  0  0
   50.1770   13.7250    4.6300 C   0  0  0  0  0
   51.2550   14.7000    5.0690 C   0  0  0  0  0
   52.7940   14.5810    4.1790 S   0  0  0  0  0
   52.2660   13.8150    2.6880 C   0  0  0  0  0
   48.1430   11.8880    5.8620 N   0  0  0  0  0
   47.6530   10.8360    6.7430 C   0  0  0  0  0
   48.6960   10.3420    7.7280 C   0  0  0  0  0
   49.8360   10.2430    7.3730 O   0  0  0  0  0
   47.0290    9.7120    5.8690 C   0  0  0  0  0
   45.6130    9.6770    6.0690 O   0  0  0  0  0
   47.6200    8.2990    6.0760 C   0  0  0  0  0
   48.2940    9.9900    8.9410 N   0  0  0  0  0
   49.2140    9.3960    9.9070 C   0  0  0  0  0
   48.8570    7.9380   10.0250 C   0  0  0  0  0
   47.7380    7.6240   10.3630 O   0  0  0  0  0
   49.0480   10.0630   11.2570 C   0  0  0  0  0
   49.5220    9.2420   12.2940 O   0  0  0  0  0
   49.7930    7.0540    9.7030 N   0  0  0  0  0
   49.4760    5.6480    9.5030 C   0  0  0  0  0
   49.0700    4.7640   10.6530 C   0  0  0  0  0
   48.0910    4.0680   10.5650 O   0  0  0  0  0
   50.6700    4.9900    8.8840 C   0  0  0  0  0
   50.3310    3.8450    8.0190 C   0  0  0  0  0
   49.5510    4.0290    6.9210 C   0  0  0  0  0
   50.7950    2.5950    8.3010 C   0  0  0  0  0
   49.2400    2.9900    6.1040 C   0  0  0  0  0
   50.4890    1.5530    7.4960 C   0  0  0  0  0
   49.7070    1.7520    6.3970 C   0  0  0  0  0
   49.8520    4.7230   11.7050 N   0  0  0  0  0
   49.5190    3.8620   12.8070 C   0  0  0  0  0
   48.2230    4.2820   13.4510 C   0  0  0  0  0
   47.5070    3.4550   13.9440 O   0  0  0  0  0
   50.6490    3.7490   13.8160 C   0  0  0  0  0
   52.0470    3.7450   13.2310 C   0  0  0  0  0
   52.6360    2.3640   13.0630 C   0  0  0  0  0
   53.1440    1.7760   14.0380 O   0  0  0  0  0
   52.6100    1.8700   11.9300 O   0  0  0  0  0
   47.9380    5.5730   13.5110 N   0  0  0  0  0
   46.7320    6.0670   14.1710 C   0  0  0  0  0
   45.4630    6.1890   13.3420 C   0  0  0  0  0
   44.4050    6.4430   13.8940 O   0  0  0  0  0
   46.9680    7.4370   14.8020 C   0  0  0  0  0
   48.4020    7.6840   15.1620 C   0  0  0  0  0
   49.1000    6.7090   15.4500 O   0  0  0  0  0
   48.8290    8.8500   15.1490 O   0  0  0  0  0
   45.5530    6.0510   12.0360 N   0  0  0  0  0
   44.4020    6.2850   11.1990 C   0  0  0  0  0
   43.2490    5.4020   11.5810 C   0  0  0  0  0
   43.4160    4.4480   12.2910 O   0  0  0  0  0
   44.7660    6.0580    9.7690 C   0  0  0  0  0
   42.0610    5.7210   11.1070 N   0  0  0  0  0
   40.9550    4.8010   11.2130 C   0  0  0  0  0
   41.2470    3.5900   10.3520 C   0  0  0  0  0
   42.1590    3.6070    9.5370 O   0  0  0  0  0
   39.6570    5.4680   10.7780 C   0  0  0  0  0
   39.2460    6.5940   11.6970 C   0  0  0  0  0
   39.4080    6.4560   12.9310 O   0  0  0  0  0
   38.7620    7.6210   11.1780 O   0  0  0  0  0
   40.4620    2.5480   10.5400 N   0  0  0  0  0
   40.6720    1.3130    9.8600 C   0  0  0  0  0
   40.2060    0.1960   10.7440 C   0  0  0  0  0
   40.3090   -1.0970    9.9850 C   0  0  0  0  0
   41.0690    0.1310   11.8380 O   0  0  0  0  0
   40.5070    0.1710   13.2720 P   0  0  0  0  0
   41.5700    0.6630   14.1360 O   0  0  0  0  0
   39.3780    1.0770   13.1610 O   0  0  0  0  0
   40.2050   -1.2300   13.5150 O   0  0  0  0  0
   39.8200    1.4760    8.6840 C   0  0  0  0  0
   38.7840    2.1100    8.7930 O   0  0  0  0  0
   40.2410    0.9610    7.5560 N   0  0  0  0  0
   39.6090    1.2670    6.3200 C   0  0  0  0  0
   39.0250   -0.0090    5.8540 C   0  0  0  0  0
   39.6680   -1.0170    5.8960 O   0  0  0  0  0
   40.6620    1.7630    5.3390 C   0  0  0  0  0
   40.3880    1.5110    3.8660 C   0  0  0  0  0
   41.6430    1.2880    3.0500 C   0  0  0  0  0
   42.5570    2.1210    3.1410 O   0  0  0  0  0
   41.7140    0.2910    2.3080 O   0  0  0  0  0
   37.7930    0.0320    5.3980 N   0  0  0  0  0
   37.1660   -1.1540    4.8910 C   0  0  0  0  0
   37.0500   -1.0030    3.4120 C   0  0  0  0  0
   36.8630    0.0930    2.9200 O   0  0  0  0  0
   35.7910   -1.3250    5.4760 C   0  0  0  0  0
   34.9930   -2.4110    4.8000 C   0  0  0  0  0
   35.7580   -3.7030    4.7160 C   0  0  0  0  0
   36.0980   -4.1130    3.5940 O   0  0  0  0  0
   36.0300   -4.3010    5.7730 O   0  0  0  0  0
   37.1880   -2.1120    2.7010 N   0  0  0  0  0
   37.0410   -2.1350    1.2580 C   0  0  0  0  0
   37.6020   -3.4310    0.7260 C   0  0  0  0  0
   37.3200   -4.4860    1.2710 O   0  0  0  0  0
   37.7600   -0.9590    0.5970 C   0  0  0  0  0
   38.3370   -3.4220   -0.2480 O   0  0  0  0  0
   47.7230   15.6325    5.8715 H   0  0  0  0  0
   49.3196   15.5716    6.3448 H   0  0  0  0  0
   48.9258   16.0681    4.8036 H   0  0  0  0  0
   48.0887   13.9459    4.2526 H   0  0  0  0  0
   50.1586   13.7471    3.5404 H   0  0  0  0  0
   50.4295   12.7596    5.0685 H   0  0  0  0  0
   51.4778   14.4716    6.1112 H   0  0  0  0  0
   50.8646   15.7011    4.8864 H   0  0  0  0  0
   51.8204   12.8468    2.9164 H   0  0  0  0  0
   51.5281   14.4492    2.1967 H   0  0  0  0  0
   53.1232   13.6755    2.0293 H   0  0  0  0  0
   48.3392   11.6323    4.8943 H   0  0  0  0  0
   46.8759   11.2438    7.3894 H   0  0  0  0  0
   47.2821    9.9769    4.8424 H   0  0  0  0  0
   45.2316    8.9819    5.5278 H   0  0  0  0  0
   48.6846    8.3141    5.8427 H   0  0  0  0  0
   47.4784    7.9957    7.1133 H   0  0  0  0  0
   47.1124    7.5942    5.4175 H   0  0  0  0  0
   47.3200   10.1374    9.2057 H   0  0  0  0  0
   50.2463    9.5242    9.5815 H   0  0  0  0  0
   47.9874   10.2529   11.4221 H   0  0  0  0  0
   49.6214   10.9900   11.2588 H   0  0  0  0  0
   49.4039    9.6901   13.1348 H   0  0  0  0  0
   50.7574    7.3676    9.5931 H   0  0  0  0  0
   48.5657    5.7214    8.9079 H   0  0  0  0  0
   51.2929    4.6134    9.6954 H   0  0  0  0  0
   51.1670    5.7340    8.2614 H   0  0  0  0  0
   49.1699    5.0245    6.6932 H   0  0  0  0  0
   51.4170    2.4343    9.1816 H   0  0  0  0  0
   48.6209    3.1501    5.2213 H   0  0  0  0  0
   50.8664    0.5564    7.7249 H   0  0  0  0  0
   49.4561    0.9109    5.7507 H   0  0  0  0  0
   50.6927    5.2994   11.7411 H   0  0  0  0  0
   49.3751    2.8604   12.4018 H   0  0  0  0  0
   50.5205    2.7913   14.3203 H   0  0  0  0  0
   50.5827    4.6285   14.4564 H   0  0  0  0  0
   52.6896    4.2896   13.9228 H   0  0  0  0  0
   51.9850    4.1939   12.2397 H   0  0  0  0  0
   53.0618    2.3262   14.8204 H   0  0  0  0  0
   48.5787    6.2422   13.0842 H   0  0  0  0  0
   46.5512    5.2731   14.8956 H   0  0  0  0  0
   46.3848    7.4812   15.7218 H   0  0  0  0  0
   46.6769    8.1913   14.0709 H   0  0  0  0  0
   48.1197    9.4466   14.8987 H   0  0  0  0  0
   46.4405    5.7774   11.6142 H   0  0  0  0  0
   44.0879    7.3192   11.3401 H   0  0  0  0  0
   45.5651    6.7430    9.4857 H   0  0  0  0  0
   45.1044    5.0299    9.6403 H   0  0  0  0  0
   43.8933    6.2360    9.1406 H   0  0  0  0  0
   41.9224    6.6277   10.6607 H   0  0  0  0  0
   40.8351    4.4920   12.2514 H   0  0  0  0  0
   38.8697    4.7145   10.7980 H   0  0  0  0  0
   39.8118    5.8864    9.7835 H   0  0  0  0  0
   39.7925    5.5943   13.1077 H   0  0  0  0  0
   39.6811    2.6278   11.1914 H   0  0  0  0  0
   41.7050    1.0821    9.5999 H   0  0  0  0  0
   39.1775    0.3626   11.0641 H   0  0  0  0  0
   39.6834   -1.0446    9.0940 H   0  0  0  0  0
   41.3459   -1.2639    9.6932 H   0  0  0  0  0
   39.9722   -1.9170   10.6193 H   0  0  0  0  0
   42.2814    0.0190   14.1647 H   0  0  0  0  0
   41.0239   -1.7280   13.5691 H   0  0  0  0  0
   41.0397    0.3266    7.5644 H   0  0  0  0  0
   38.8467    2.0406    6.4127 H   0  0  0  0  0
   41.5751    1.2161    5.5741 H   0  0  0  0  0
   40.6995    2.8458    5.4582 H   0  0  0  0  0
   39.8908    2.3958    3.4685 H   0  0  0  0  0
   39.7847    0.6060    3.7944 H   0  0  0  0  0
   40.9062   -0.2220    2.3850 H   0  0  0  0  0
   37.2794    0.9132    5.4048 H   0  0  0  0  0
   37.7609   -2.0274    5.1583 H   0  0  0  0  0
   35.2541   -0.3861    5.3412 H   0  0  0  0  0
   35.9084   -1.6028    6.5235 H   0  0  0  0  0
   34.7635   -2.0842    3.7858 H   0  0  0  0  0
   34.0911   -2.5864    5.3864 H   0  0  0  0  0
   35.6732   -3.8110    6.5175 H   0  0  0  0  0
   37.4058   -2.9824    3.1862 H   0  0  0  0  0
   35.9801   -2.0522    1.0221 H   0  0  0  0  0
   36.7371   -4.3151    2.0144 H   0  0  0  0  0
   37.3427   -0.0236    0.9699 H   0  0  0  0  0
   38.8228   -1.0045    0.8347 H   0  0  0  0  0
   37.6254   -1.0133   -0.4833 H   0  0  0  0  0
  1  2  1  0  0  0
  2  3  1  0  0  0
  2  5  1  0  0  0
  3  4  2  0  0  0
  3  9  1  0  0  0
  5  6  1  0  0  0
  6  7  1  0  0  0
  7  8  1  0  0  0
  9 10  1  0  0  0
 10 11  1  0  0  0
 10 13  1  0  0  0
 11 12  2  0  0  0
 11 16  1  0  0  0
 13 14  1  0  0  0
 13 15  1  0  0  0
 16 17  1  0  0  0
 17 18  1  0  0  0
 17 20  1  0  0  0
 18 19  2  0  0  0
 18 22  1  0  0  0
 20 21  1  0  0  0
 22 23  1  0  0  0
 23 24  1  0  0  0
 23 26  1  0  0  0
 24 25  2  0  0  0
 24 33  1  0  0  0
 26 27  1  0  0  0
 27 28  4  0  0  0
 27 29  4  0  0  0
 28 30  4  0  0  0
 29 31  4  0  0  0
 30 32  4  0  0  0
 31 32  4  0  0  0
 33 34  1  0  0  0
 34 35  1  0  0  0
 34 37  1  0  0  0
 35 36  2  0  0  0
 35 42  1  0  0  0
 37 38  1  0  0  0
 38 39  1  0  0  0
 39 40  1  0  0  0
 39 41  2  0  0  0
 42 43  1  0  0  0
 43 44  1  0  0  0
 43 46  1  0  0  0
 44 45  2  0  0  0
 44 50  1  0  0  0
 46 47  1  0  0  0
 47 48  2  0  0  0
 47 49  1  0  0  0
 50 51  1  0  0  0
 51 52  1  0  0  0
 51 54  1  0  0  0
 52 53  2  0  0  0
 52 55  1  0  0  0
 55 56  1  0  0  0
 56 57  1  0  0  0
 56 59  1  0  0  0
 57 58  2  0  0  0
 57 63  1  0  0  0
 59 60  1  0  0  0
 60 61  1  0  0  0
 60 62  2  0  0  0
 63 64  1  0  0  0
 64 65  1  0  0  0
 64 72  1  0  0  0
 65 66  1  0  0  0
 65 67  1  0  0  0
 67 68  1  0  0  0
 68 69  1  0  0  0
 68 70  2  0  0  0
 68 71  1  0  0  0
 72 73  2  0  0  0
 72 74  1  0  0  0
 74 75  1  0  0  0
 75 76  1  0  0  0
 75 78  1  0  0  0
 76 77  2  0  0  0
 76 83  1  0  0  0
 78 79  1  0  0  0
 79 80  1  0  0  0
 80 81  2  0  0  0
 80 82  1  0  0  0
 83 84  1  0  0  0
 84 85  1  0  0  0
 84 87  1  0  0  0
 85 86  2  0  0  0
 85 92  1  0  0  0
 87 88  1  0  0  0
 88 89  1  0  0  0
 89 90  2  0  0  0
 89 91  1  0  0  0
 92 93  1  0  0  0
 93 94  1  0  0  0
 93 96  1  0  0  0
 94 95  1  0  0  0
 94 97  2  0  0  0
  1 98  1  0  0  0
  1 99  1  0  0  0
  1100  1  0  0  0
  2101  1  0  0  0
  5102  1  0  0  0
  5103  1  0  0  0
  6104  1  0  0  0
  6105  1  0  0  0
  8106  1  0  0  0
  8107  1  0  0  0
  8108  1  0  0  0
  9109  1  0  0  0
 10110  1  0  0  0
 13111  1  0  0  0
 14112  1  0  0  0
 15113  1  0  0  0
 15114  1  0  0  0
 15115  1  0  0  0
 16116  1  0  0  0
 17117  1  0  0  0
 20118  1  0  0  0
 20119  1  0  0  0
 21120  1  0  0  0
 22121  1  0  0  0
 23122  1  0  0  0
 26123  1  0  0  0
 26124  1  0  0  0
 28125  1  0  0  0
 29126  1  0  0  0
 30127  1  0  0  0
 31128  1  0  0  0
 32129  1  0  0  0
 33130  1  0  0  0
 34131  1  0  0  0
 37132  1  0  0  0
 37133  1  0  0  0
 38134  1  0  0  0
 38135  1  0  0  0
 40136  1  0  0  0
 42137  1  0  0  0
 43138  1  0  0  0
 46139  1  0  0  0
 46140  1  0  0  0
 49141  1  0  0  0
 50142  1  0  0  0
 51143  1  0  0  0
 54144  1  0  0  0
 54145  1  0  0  0
 54146  1  0  0  0
 55147  1  0  0  0
 56148  1  0  0  0
 59149  1  0  0  0
 59150  1  0  0  0
 61151  1  0  0  0
 63152  1  0  0  0
 64153  1  0  0  0
 65154  1  0  0  0
 66155  1  0  0  0
 66156  1  0  0  0
 66157  1  0  0  0
 69158  1  0  0  0
 71159  1  0  0  0
 74160  1  0  0  0
 75161  1  0  0  0
 78162  1  0  0  0
 78163  1  0  0  0
 79164  1  0  0  0
 79165  1  0  0  0
 82166  1  0  0  0
 83167  1  0  0  0
 84168  1  0  0  0
 87169  1  0  0  0
 87170  1  0  0  0
 88171  1  0  0  0
 88172  1  0  0  0
 91173  1  0  0  0
 92174  1  0  0  0
 93175  1  0  0  0
 95176  1  0  0  0
 96177  1  0  0  0
 96178  1  0  0  0
 96179  1  0  0  0
M  END
$$$$
