### 
### Created by X-TOOL on Mon Sep 10 21:12:47 2018
### 

@<TRIPOS>MOLECULE
1qf4_ligand
   50    51     1     0     0
SMALL
GAST_HUCK


@<TRIPOS>ATOM
      1 O1P        25.2120   11.7480   23.7840 O.co2     1 RPD        -0.5537
      2 O2P        27.2380   12.8770   23.0980 O.co2     1 RPD        -0.5537
      3 O3P        25.0680   13.5940   22.2750 O.co2     1 RPD        -0.5537
      4 P          25.7800   13.0510   23.4200 P.3       1 RPD         0.2008
      5 O5         25.6680   14.0530   24.6980 O.3       1 RPD        -0.2734
      6 C5         26.2400   13.7950   25.9570 C.3       1 RPD         0.1069
      7 C4         27.0530   14.9860   26.4370 C.3       1 RPD         0.1158
      8 O4         28.2890   15.0460   25.7440 O.3       1 RPD        -0.3387
      9 C3         26.3860   16.3200   26.2030 C.3       1 RPD         0.1134
     10 O3         26.8060   17.2530   27.2110 O.3       1 RPD        -0.3866
     11 C2         26.9580   16.7470   24.8050 C.3       1 RPD         0.1421
     12 O2         27.1060   18.1810   24.7780 O.3       1 RPD        -0.3851
     13 C1         28.3510   16.0740   24.6910 C.3       1 RPD         0.2716
     14 N1         28.4020   15.4320   23.4830 N.am      1 RPD        -0.2326
     15 C2         29.5070   15.8380   22.7560 C.2       1 RPD         0.2917
     16 O2         29.7870   15.4390   21.6860 O.2       1 RPD        -0.3910
     17 N3         30.2130   16.7690   23.4730 N.am      1 RPD        -0.1665
     18 C4         29.5130   16.9360   24.6750 C.2       1 RPD         0.2857
     19 O4         29.9090   17.7310   25.5420 O.2       1 RPD        -0.3282
     20 C5A        31.4540   17.4470   23.0390 C.3       1 RPD         0.0596
     21 C6A        31.1480   18.8920   22.5950 C.3       1 RPD        -0.0214
     22 C7A        30.0010   18.9310   21.5550 C.3       1 RPD         0.0059
     23 C8A        29.7780   20.4020   21.1120 C.3       1 RPD         0.0657
     24 C9A        28.3310   20.6550   20.7000 C.2       1 RPD         0.0858
     25 O91A       27.3080   20.0360   21.3320 O.co2     1 RPD        -0.5642
     26 O92A       28.0870   21.5190   19.6850 O.co2     1 RPD        -0.5642
     27 N10A       30.6230   20.7980   19.9310 N.4       1 RPD         0.4221
     28 O10A       31.4190   21.9640   20.2970 O.3       1 RPD        -0.3371
     29 C11A       31.5140   19.7160   19.4970 C.3       1 RPD         0.1046
     30 O11A       32.3020   20.1140   18.3790 O.3       1 RPD        -0.3545
     31 H1         26.8981   12.9169   25.8806 H         1 RPD         0.0639
     32 H2         25.4383   13.5905   26.6819 H         1 RPD         0.0639
     33 H3         27.2367   14.8626   27.5145 H         1 RPD         0.0648
     34 H4         25.2894   16.2354   26.1893 H         1 RPD         0.0646
     35 H5         26.5613   16.9234   28.0677 H         1 RPD         0.2100
     36 H6         26.2962   16.4172   23.9906 H         1 RPD         0.0658
     37 H7         27.7041   18.4495   25.4655 H         1 RPD         0.2099
     38 H8         27.7312   14.7603   23.1685 H         1 RPD         0.1863
     39 H9         31.8938   16.8939   22.1960 H         1 RPD         0.0576
     40 H10        32.1676   17.4681   23.8759 H         1 RPD         0.0576
     41 H11        32.0529   19.3282   22.1467 H         1 RPD         0.0291
     42 H12        30.8536   19.4824   23.4752 H         1 RPD         0.0291
     43 H13        29.0787   18.5370   22.0067 H         1 RPD         0.0339
     44 H14        30.2723   18.3190   20.6821 H         1 RPD         0.0339
     45 H15        30.0298   21.0512   21.9636 H         1 RPD         0.1037
     46 H16        30.0141   21.0384   19.1645 H         1 RPD         0.2428
     47 H17        31.9761   21.7467   21.0351 H         1 RPD         0.2697
     48 H18        30.9072   18.8428   19.2154 H         1 RPD         0.1158
     49 H19        32.1817   19.4459   20.3284 H         1 RPD         0.1158
     50 H20        32.8678   19.3961   18.1201 H         1 RPD         0.2151
@<TRIPOS>BOND
     1    1    4 ar 
     2    4    2 ar 
     3    4    3 ar 
     4    4    5 1  
     5    5    6 1  
     6    6    7 1  
     7    7    8 1  
     8    7    9 1  
     9    8   13 1  
    10    9   10 1  
    11    9   11 1  
    12   11   12 1  
    13   11   13 1  
    14   13   14 1  
    15   13   18 1  
    16   14   15 am 
    17   15   16 2  
    18   15   17 am 
    19   17   18 am 
    20   17   20 1  
    21   18   19 2  
    22   20   21 1  
    23   21   22 1  
    24   22   23 1  
    25   23   24 1  
    26   23   27 1  
    27   24   25 ar 
    28   24   26 ar 
    29   27   28 1  
    30   27   29 1  
    31   29   30 1  
    32    6   31 1  
    33    6   32 1  
    34    7   33 1  
    35    9   34 1  
    36   10   35 1  
    37   11   36 1  
    38   12   37 1  
    39   14   38 1  
    40   20   39 1  
    41   20   40 1  
    42   21   41 1  
    43   21   42 1  
    44   22   43 1  
    45   22   44 1  
    46   23   45 1  
    47   27   46 1  
    48   28   47 1  
    49   29   48 1  
    50   29   49 1  
    51   30   50 1  
@<TRIPOS>SUBSTRUCTURE
     1 RPD         1

