1qf4_ligand
  -I-interpret- 

 53 54  0  0  0  0  0  0  0  0999 V2000
   25.2120   11.7480   23.7840 O   0  0  0  0  0
   27.2380   12.8770   23.0980 O   0  0  0  0  0
   25.0680   13.5940   22.2750 O   0  0  0  0  0
   25.7800   13.0510   23.4200 P   0  0  0  0  0
   25.6680   14.0530   24.6980 O   0  0  0  0  0
   26.2400   13.7950   25.9570 C   0  0  0  0  0
   27.0530   14.9860   26.4370 C   0  0  0  0  0
   28.2890   15.0460   25.7440 O   0  0  0  0  0
   26.3860   16.3200   26.2030 C   0  0  0  0  0
   26.8060   17.2530   27.2110 O   0  0  0  0  0
   26.9580   16.7470   24.8050 C   0  0  0  0  0
   27.1060   18.1810   24.7780 O   0  0  0  0  0
   28.3510   16.0740   24.6910 C   0  0  0  0  0
   28.4020   15.4320   23.4830 N   0  0  0  0  0
   29.5070   15.8380   22.7560 C   0  0  0  0  0
   29.7870   15.4390   21.6860 O   0  0  0  0  0
   30.2130   16.7690   23.4730 N   0  0  0  0  0
   29.5130   16.9360   24.6750 C   0  0  0  0  0
   29.9090   17.7310   25.5420 O   0  0  0  0  0
   31.4540   17.4470   23.0390 C   0  0  0  0  0
   31.1480   18.8920   22.5950 C   0  0  0  0  0
   30.0010   18.9310   21.5550 C   0  0  0  0  0
   29.7780   20.4020   21.1120 C   0  0  0  0  0
   28.3310   20.6550   20.7000 C   0  0  0  0  0
   27.3080   20.0360   21.3320 O   0  0  0  0  0
   28.0870   21.5190   19.6850 O   0  0  0  0  0
   30.6230   20.7980   19.9310 N   0  3  0  0  0
   31.4190   21.9640   20.2970 O   0  0  0  0  0
   31.5140   19.7160   19.4970 C   0  0  0  0  0
   32.3020   20.1140   18.3790 O   0  0  0  0  0
   25.6854   11.3938   24.5403 H   0  0  0  0  0
   27.6930   12.5182   23.8634 H   0  0  0  0  0
   26.8996   12.9314   25.8722 H   0  0  0  0  0
   25.4406   13.6046   26.6731 H   0  0  0  0  0
   27.1706   14.8270   27.5089 H   0  0  0  0  0
   25.2972   16.2823   26.2365 H   0  0  0  0  0
   26.3800   18.0998   27.0591 H   0  0  0  0  0
   26.3043   16.4504   23.9847 H   0  0  0  0  0
   27.4557   18.4495   23.9252 H   0  0  0  0  0
   27.7178   14.7469   23.1622 H   0  0  0  0  0
   31.8830   16.9002   22.1993 H   0  0  0  0  0
   32.1557   17.4722   23.8727 H   0  0  0  0  0
   32.0444   19.3116   22.1384 H   0  0  0  0  0
   30.8426   19.4662   23.4697 H   0  0  0  0  0
   29.0868   18.5358   21.9980 H   0  0  0  0  0
   30.2645   18.3208   20.6911 H   0  0  0  0  0
   30.0546   20.9914   21.9862 H   0  0  0  0  0
   28.9190   21.8643   19.3532 H   0  0  0  0  0
   29.9998   21.0098   19.1518 H   0  0  0  0  0
   31.9627   22.2260   19.5505 H   0  0  0  0  0
   30.9053   18.8599   19.2062 H   0  0  0  0  0
   32.1817   19.4638   20.3209 H   0  0  0  0  0
   32.8737   19.3885   18.1174 H   0  0  0  0  0
  1  4  1  0  0  0
  4  2  1  0  0  0
  4  3  2  0  0  0
  4  5  1  0  0  0
  5  6  1  0  0  0
  6  7  1  0  0  0
  7  8  1  0  0  0
  7  9  1  0  0  0
  8 13  1  0  0  0
  9 10  1  0  0  0
  9 11  1  0  0  0
 11 12  1  0  0  0
 11 13  1  0  0  0
 13 14  1  0  0  0
 13 18  1  0  0  0
 14 15  1  0  0  0
 15 16  2  0  0  0
 15 17  1  0  0  0
 17 18  1  0  0  0
 17 20  1  0  0  0
 18 19  2  0  0  0
 20 21  1  0  0  0
 21 22  1  0  0  0
 22 23  1  0  0  0
 23 24  1  0  0  0
 23 27  1  0  0  0
 24 25  2  0  0  0
 24 26  1  0  0  0
 27 28  1  0  0  0
 27 29  1  0  0  0
 29 30  1  0  0  0
  1 31  1  0  0  0
  2 32  1  0  0  0
  6 33  1  0  0  0
  6 34  1  0  0  0
  7 35  1  0  0  0
  9 36  1  0  0  0
 10 37  1  0  0  0
 11 38  1  0  0  0
 12 39  1  0  0  0
 14 40  1  0  0  0
 20 41  1  0  0  0
 20 42  1  0  0  0
 21 43  1  0  0  0
 21 44  1  0  0  0
 22 45  1  0  0  0
 22 46  1  0  0  0
 23 47  1  0  0  0
 26 48  1  0  0  0
 27 49  1  0  0  0
 28 50  1  0  0  0
 29 51  1  0  0  0
 29 52  1  0  0  0
 30 53  1  0  0  0
M  END
$$$$
