5cqt_ligand
  -I-interpret- 

 47 50  0  0  0  0  0  0  0  0999 V2000
    5.6900    9.2340   -2.9330 C   0  0  0  0  0
    5.7910    7.8790   -3.5590 C   0  0  0  0  0
    4.4170    7.1420   -3.4500 C   0  0  0  0  0
    3.9350    6.9990   -2.0000 C   0  0  0  0  0
    3.9560    8.2600   -1.1970 C   0  0  0  0  0
    4.5650    9.4530   -1.9440 C   0  0  0  0  0
    4.6460   10.6560   -1.0620 N   0  0  0  0  0
    5.7500   11.1840    0.1570 S   0  0  0  0  0
    7.1700   11.1670   -0.3430 O   0  0  0  0  0
    5.1730   12.5270    0.5360 O   0  0  0  0  0
    5.5540   10.2070    1.6100 C   0  0  0  0  0
    6.7160    9.6820    2.2070 C   0  0  0  0  0
    6.6190    8.9120    3.3770 C   0  0  0  0  0
    5.4240    8.6840    3.9430 C   0  0  0  0  0
    4.3120    9.1940    3.3560 C   0  0  0  0  0
    4.3150    9.9530    2.2410 C   0  0  0  0  0
    3.0520   10.3950    1.7670 C   0  0  0  0  0
    1.8960   10.0380    2.4900 C   0  0  0  0  0
    2.0280    9.2450    3.6570 C   0  0  0  0  0
    3.2390    8.8170    4.0680 C   0  0  0  0  0
    3.7300    8.0720    5.1090 C   0  0  0  0  0
    3.1180    7.4010    5.9460 O   0  0  0  0  0
    5.0510    7.9750    5.0180 N   0  0  0  0  0
    5.9400    7.2850    5.9230 C   0  0  0  0  0
    6.1120    5.8300    5.4180 C   0  0  0  0  0
    5.5039    9.9273   -3.7533 H   0  0  0  0  0
    6.6126    9.3703   -2.3687 H   0  0  0  0  0
    6.5537    7.2982   -3.0403 H   0  0  0  0  0
    6.0600    7.9865   -4.6098 H   0  0  0  0  0
    4.5409    6.1404   -3.8618 H   0  0  0  0  0
    3.6773    7.7312   -3.9920 H   0  0  0  0  0
    4.6166    6.3037   -1.5100 H   0  0  0  0  0
    2.8958    6.6734   -2.0456 H   0  0  0  0  0
    4.5717    8.0767   -0.3165 H   0  0  0  0  0
    2.9227    8.5147   -0.9612 H   0  0  0  0  0
    3.8316    9.6678   -2.7212 H   0  0  0  0  0
    3.8790   11.3111   -1.2132 H   0  0  0  0  0
    7.6917    9.8735    1.7605 H   0  0  0  0  0
    7.5201    8.4968    3.8284 H   0  0  0  0  0
    2.9777   10.9983    0.8622 H   0  0  0  0  0
    0.9124   10.3679    2.1556 H   0  0  0  0  0
    1.1398    8.9777    4.2295 H   0  0  0  0  0
    5.5232    7.2851    6.9302 H   0  0  0  0  0
    6.9068    7.7875    5.9541 H   0  0  0  0  0
    5.1403    5.3365    5.3978 H   0  0  0  0  0
    6.5353    5.8430    4.4136 H   0  0  0  0  0
    6.7809    5.2907    6.0886 H   0  0  0  0  0
  1  2  1  0  0  0
  1  6  1  0  0  0
  2  3  1  0  0  0
  3  4  1  0  0  0
  4  5  1  0  0  0
  5  6  1  0  0  0
  6  7  1  0  0  0
  7  8  1  0  0  0
  8  9  2  0  0  0
  8 10  2  0  0  0
  8 11  1  0  0  0
 11 12  4  0  0  0
 11 16  4  0  0  0
 12 13  4  0  0  0
 13 14  4  0  0  0
 14 15  4  0  0  0
 14 23  1  0  0  0
 15 16  4  0  0  0
 15 20  4  0  0  0
 16 17  4  0  0  0
 17 18  4  0  0  0
 18 19  4  0  0  0
 19 20  4  0  0  0
 20 21  1  0  0  0
 21 22  2  0  0  0
 21 23  1  0  0  0
 23 24  1  0  0  0
 24 25  1  0  0  0
  1 26  1  0  0  0
  1 27  1  0  0  0
  2 28  1  0  0  0
  2 29  1  0  0  0
  3 30  1  0  0  0
  3 31  1  0  0  0
  4 32  1  0  0  0
  4 33  1  0  0  0
  5 34  1  0  0  0
  5 35  1  0  0  0
  6 36  1  0  0  0
  7 37  1  0  0  0
 12 38  1  0  0  0
 13 39  1  0  0  0
 17 40  1  0  0  0
 18 41  1  0  0  0
 19 42  1  0  0  0
 24 43  1  0  0  0
 24 44  1  0  0  0
 25 45  1  0  0  0
 25 46  1  0  0  0
 25 47  1  0  0  0
M  END
$$$$
