4oq6_ligand
  -I-interpret- 

 35 36  0  0  0  0  0  0  0  0999 V2000
   14.3780    9.4410   10.2100 C   0  0  0  0  0
   12.9100   11.0950   10.9600 C   0  0  0  0  0
   11.9800    7.8870    9.2710 C   0  0  0  0  0
   15.4270   10.1540   10.7470 C   0  0  0  0  0
   13.9520   11.8350   11.4860 C   0  0  0  0  0
   10.8690    7.2610    8.7350 C   0  0  0  0  0
   10.7790    9.9000    9.4880 C   0  0  0  0  0
   13.0870    9.8980   10.2880 C   0  0  0  0  0
   11.9620    9.2130    9.6690 C   0  0  0  0  0
    9.6600    9.3100    8.9290 C   0  0  0  0  0
   15.2480   11.3710   11.3620 C   0  0  0  0  0
    9.6990    7.9710    8.5880 C   0  0  0  0  0
    8.4180   10.0920    8.7830 C   0  0  0  0  0
   18.0980   13.8840   11.4220 C   0  0  0  0  0
   16.4060   12.1330   11.9410 C   0  0  0  0  0
   17.0140   12.9890   10.8550 C   0  0  0  0  0
    8.4300   11.2970    9.1250 O   0  0  0  0  0
    8.5900    7.3720    8.0130 O   0  0  0  0  0
    7.4370    9.4900    8.2820 O   0  0  0  0  0
   14.5782    8.4924    9.7119 H   0  0  0  0  0
   11.8952   11.4741   11.0807 H   0  0  0  0  0
   12.9018    7.3164    9.3840 H   0  0  0  0  0
   16.4331    9.7396   10.6823 H   0  0  0  0  0
   13.7531   12.7780   11.9951 H   0  0  0  0  0
   10.9196    6.2152    8.4319 H   0  0  0  0  0
   10.7246   10.9441    9.7963 H   0  0  0  0  0
   17.6688   14.5338   12.1847 H   0  0  0  0  0
   18.8805   13.2684   11.8657 H   0  0  0  0  0
   18.5214   14.4912   10.6219 H   0  0  0  0  0
   17.1520   11.4373   12.3253 H   0  0  0  0  0
   16.0615   12.7639   12.7604 H   0  0  0  0  0
   17.4537   12.3389   10.0987 H   0  0  0  0  0
   16.2335   13.6132   10.4200 H   0  0  0  0  0
    7.8654    8.0012    7.9868 H   0  0  0  0  0
    7.6781    8.5773    8.1077 H   0  0  0  0  0
  4  1  4  0  0  0
  1  8  4  0  0  0
  5  2  4  0  0  0
  2  8  4  0  0  0
  3  6  4  0  0  0
  9  3  4  0  0  0
 11  4  4  0  0  0
 11  5  4  0  0  0
  6 12  4  0  0  0
  9  7  4  0  0  0
  7 10  4  0  0  0
  8  9  1  0  0  0
 10 12  4  0  0  0
 10 13  1  0  0  0
 15 11  1  0  0  0
 12 18  1  0  0  0
 13 17  2  0  0  0
 13 19  1  0  0  0
 16 14  1  0  0  0
 15 16  1  0  0  0
  1 20  1  0  0  0
  2 21  1  0  0  0
  3 22  1  0  0  0
  4 23  1  0  0  0
  5 24  1  0  0  0
  6 25  1  0  0  0
  7 26  1  0  0  0
 14 27  1  0  0  0
 14 28  1  0  0  0
 14 29  1  0  0  0
 15 30  1  0  0  0
 15 31  1  0  0  0
 16 32  1  0  0  0
 16 33  1  0  0  0
 18 34  1  0  0  0
 19 35  1  0  0  0
M  END
$$$$
