4jxw_ligand
  -I-interpret- 

 39 40  0  0  0  0  0  0  0  0999 V2000
   20.9990    3.8200    9.1250 C   0  0  0  0  0
   19.8250    3.0870    8.7820 C   0  0  0  0  0
   19.0500    2.5750    9.8490 C   0  0  0  0  0
   17.7110    1.7830    9.7010 C   0  0  0  0  0
   17.3260    1.1450   10.7240 O   0  0  0  0  0
   17.0780    1.8740    8.5910 O   0  0  0  0  0
   19.4350    2.7900   11.1470 C   0  0  0  0  0
   20.5630    3.5150   11.4470 C   0  0  0  0  0
   21.3910    4.0260   10.4740 C   0  0  0  0  0
   22.6410    4.7840   10.9670 C   0  0  0  0  0
   23.1970    4.1090   12.2620 C   0  0  0  0  0
   23.2380    5.0240   13.5570 C   0  0  0  0  0
   24.3010    4.6020   14.5150 N   0  0  0  0  0
   25.7680    5.5610   14.5290 S   0  0  0  0  0
   25.7660    6.3050   13.2100 O   0  0  0  0  0
   27.0070    4.7360   14.7300 O   0  0  0  0  0
   25.6210    6.6280   15.8960 C   0  0  0  0  0
   25.6620    7.9740   15.7320 C   0  0  0  0  0
   25.4880    8.7160   16.8550 C   0  0  0  0  0
   25.2730    7.6450   18.1970 S   0  0  0  0  0
   25.4150    6.2190   17.2350 C   0  0  0  0  0
   25.2920    4.8390   17.8800 C   0  0  0  0  0
   25.1060    4.8860   19.1340 O   0  0  0  0  0
   25.3860    3.7940   17.1910 O   0  0  0  0  0
   21.6145    4.2350    8.3269 H   0  0  0  0  0
   19.5372    2.9281    7.7428 H   0  0  0  0  0
   17.5838    2.4134    7.9788 H   0  0  0  0  0
   18.8341    2.3775   11.9575 H   0  0  0  0  0
   20.8109    3.6917   12.4936 H   0  0  0  0  0
   22.3711    5.8167   11.1877 H   0  0  0  0  0
   23.4063    4.7577   10.1913 H   0  0  0  0  0
   24.2299    3.8355   12.0465 H   0  0  0  0  0
   22.5238    3.2829   12.4909 H   0  0  0  0  0
   22.2754    4.9396   14.0613 H   0  0  0  0  0
   23.4522    6.0455   13.2427 H   0  0  0  0  0
   24.1803    3.7972   15.1299 H   0  0  0  0  0
   25.8250    8.4322   14.7565 H   0  0  0  0  0
   25.4843    9.8049   16.9035 H   0  0  0  0  0
   25.0713    5.8027   19.4171 H   0  0  0  0  0
  1  2  4  0  0  0
  1  9  4  0  0  0
  2  3  4  0  0  0
  3  4  1  0  0  0
  3  7  4  0  0  0
  4  5  2  0  0  0
  4  6  1  0  0  0
  7  8  4  0  0  0
  8  9  4  0  0  0
  9 10  1  0  0  0
 10 11  1  0  0  0
 11 12  1  0  0  0
 12 13  1  0  0  0
 13 14  1  0  0  0
 14 15  2  0  0  0
 14 16  2  0  0  0
 14 17  1  0  0  0
 17 18  4  0  0  0
 17 21  4  0  0  0
 18 19  4  0  0  0
 19 20  4  0  0  0
 20 21  4  0  0  0
 21 22  1  0  0  0
 22 23  1  0  0  0
 22 24  2  0  0  0
  1 25  1  0  0  0
  2 26  1  0  0  0
  6 27  1  0  0  0
  7 28  1  0  0  0
  8 29  1  0  0  0
 10 30  1  0  0  0
 10 31  1  0  0  0
 11 32  1  0  0  0
 11 33  1  0  0  0
 12 34  1  0  0  0
 12 35  1  0  0  0
 13 36  1  0  0  0
 18 37  1  0  0  0
 19 38  1  0  0  0
 23 39  1  0  0  0
M  END
$$$$
