2jt6_ligand
  -I-interpret- 

 35 36  0  0  0  0  0  0  0  0999 V2000
   11.3940    0.0520   -1.5700 C   0  0  0  0  0
   11.4410   -0.9730   -0.5830 C   0  0  0  0  0
   10.7990   -0.8480    0.6580 C   0  0  0  0  0
   10.1130    0.3370    1.0590 C   0  0  0  0  0
    8.1800   -0.6010    4.2810 C   0  0  0  0  0
    8.8550   -0.6810    3.0540 C   0  0  0  0  0
    9.1540    1.6970    3.0210 C   0  0  0  0  0
    8.4960    1.8230    4.2480 C   0  0  0  0  0
   10.7850    1.2690   -1.1540 C   0  0  0  0  0
    7.8510    0.6890    4.8380 C   0  0  0  0  0
   10.1770    1.4090    0.1030 C   0  0  0  0  0
    5.4980   -2.0410    6.6150 C   0  0  0  0  0
    5.7720    0.5180    6.1630 C   0  0  0  0  0
    5.9300   -0.6420    7.1120 C   0  0  0  0  0
    4.2080   -2.2570    6.5280 N   0  0  0  0  0
    6.4120   -2.8490    6.3150 O   0  0  0  0  0
    3.4930   -3.2480    6.1500 O   0  0  0  0  0
    7.0120    0.9740    5.8020 O   0  0  0  0  0
    9.3810    0.4480    2.3670 C   0  0  0  0  0
   11.9330   -0.1310   -2.9080 C   0  0  0  0  0
   12.3630   -0.2780   -3.9770 N   0  0  0  0  0
   11.9950   -1.8865   -0.7991 H   0  0  0  0  0
   10.8254   -1.6931    1.3459 H   0  0  0  0  0
    7.9044   -1.5116    4.8129 H   0  0  0  0  0
    8.9838   -1.6641    2.6013 H   0  0  0  0  0
    9.5144    2.6040    2.5357 H   0  0  0  0  0
    8.4739    2.7868    4.7567 H   0  0  0  0  0
   10.7910    2.1207   -1.8342 H   0  0  0  0  0
    9.7350    2.3702    0.3654 H   0  0  0  0  0
    5.2151    1.3178    6.6511 H   0  0  0  0  0
    5.2278    0.1943    5.2758 H   0  0  0  0  0
    7.0003   -0.7182    7.3039 H   0  0  0  0  0
    5.2785   -0.4186    7.9569 H   0  0  0  0  0
    3.6506   -1.4573    6.8284 H   0  0  0  0  0
    2.5639   -3.0207    6.2323 H   0  0  0  0  0
  2  1  4  0  0  0
  9  1  4  0  0  0
  1 20  1  0  0  0
  3  2  4  0  0  0
  4  3  4  0  0  0
  4 11  4  0  0  0
 19  4  1  0  0  0
  5  6  4  0  0  0
 10  5  4  0  0  0
  6 19  4  0  0  0
  8  7  4  0  0  0
  7 19  4  0  0  0
 10  8  4  0  0  0
 11  9  4  0  0  0
 18 10  1  0  0  0
 14 12  1  0  0  0
 12 15  1  0  0  0
 12 16  2  0  0  0
 13 14  1  0  0  0
 13 18  1  0  0  0
 15 17  1  0  0  0
 20 21  3  0  0  0
  2 22  1  0  0  0
  3 23  1  0  0  0
  5 24  1  0  0  0
  6 25  1  0  0  0
  7 26  1  0  0  0
  8 27  1  0  0  0
  9 28  1  0  0  0
 11 29  1  0  0  0
 13 30  1  0  0  0
 13 31  1  0  0  0
 14 32  1  0  0  0
 14 33  1  0  0  0
 15 34  1  0  0  0
 17 35  1  0  0  0
M  END
$$$$
