5g0q_ligand
  -I-interpret- 

 53 53  0  0  0  0  0  0  0  0999 V2000
  -30.7950   10.9490   23.5590 O   0  0  0  0  0
  -31.4670   11.2580   22.5150 C   0  0  0  0  0
  -31.6090   12.4390   22.0680 O   0  0  0  0  0
  -32.1160   10.0930   21.7820 C   0  0  0  0  0
  -31.3880    9.9180   20.4450 C   0  0  0  0  0
  -30.0170    9.5910   20.7700 O   0  0  0  0  0
  -32.0260    8.8670   19.5760 C   0  0  0  0  0
  -31.2740    8.7310   18.3170 O   0  0  0  0  0
  -33.4930    9.2050   19.3240 C   0  0  0  0  0
  -34.0230    8.2720   18.4290 O   0  0  0  0  0
  -34.2040    9.1680   20.6560 C   0  0  0  0  0
  -33.6290   10.2740   21.5230 C   0  0  0  0  0
  -34.0480   11.6340   21.0070 N   0  3  0  0  0
  -35.0220   12.3670   21.8920 C   0  0  0  0  0
  -35.2100   13.7910   21.5020 C   0  0  0  0  0
  -36.1920   14.5210   22.4210 C   0  0  0  0  0
  -36.2870   16.0350   22.0830 C   0  0  0  0  0
  -37.2810   16.6860   23.0400 C   0  0  0  0  0
  -37.9250   18.0090   22.5590 C   0  0  0  0  0
  -39.3370   18.1700   23.1830 C   0  0  0  0  0
  -39.3990   18.0610   24.7420 C   0  0  0  0  0
  -39.8320   16.7060   25.1810 N   0  0  0  0  0
  -39.3350   15.9810   26.0030 N   0  0  0  0  0
  -38.8460   15.2530   26.8210 N   0  0  0  0  0
  -30.8344    9.9994   23.6941 H   0  0  0  0  0
  -32.0276    9.2141   22.4206 H   0  0  0  0  0
  -31.4434   10.8340   19.8569 H   0  0  0  0  0
  -29.6467   10.2828   21.3231 H   0  0  0  0  0
  -31.9949    7.9064   20.0902 H   0  0  0  0  0
  -30.3586    8.5190   18.5137 H   0  0  0  0  0
  -33.6133   10.1948   18.8836 H   0  0  0  0  0
  -34.9463    8.4769   18.2644 H   0  0  0  0  0
  -34.0590    8.1994   21.1344 H   0  0  0  0  0
  -35.2749    9.3159   20.5165 H   0  0  0  0  0
  -34.0624   10.2031   22.5206 H   0  0  0  0  0
  -34.5141   11.4826   20.1124 H   0  0  0  0  0
  -33.2048   12.2055   20.9546 H   0  0  0  0  0
  -34.6232   12.3518   22.9063 H   0  0  0  0  0
  -35.9879   11.8697   21.8037 H   0  0  0  0  0
  -35.6139   13.8136   20.4899 H   0  0  0  0  0
  -34.2443   14.2913   21.5739 H   0  0  0  0  0
  -35.8378   14.4217   23.4471 H   0  0  0  0  0
  -37.1790   14.0785   22.2866 H   0  0  0  0  0
  -36.6227   16.1652   21.0542 H   0  0  0  0  0
  -35.3078   16.5015   22.1911 H   0  0  0  0  0
  -36.7202   16.9304   23.9421 H   0  0  0  0  0
  -38.0985   15.9752   23.1603 H   0  0  0  0  0
  -38.0131   17.9907   21.4727 H   0  0  0  0  0
  -37.2988   18.8458   22.8684 H   0  0  0  0  0
  -39.9453   17.3554   22.7900 H   0  0  0  0  0
  -39.6771   19.1736   22.9278 H   0  0  0  0  0
  -40.1224   18.7890   25.1092 H   0  0  0  0  0
  -38.4018   18.2491   25.1399 H   0  0  0  0  0
  1  2  1  0  0  0
  2  3  2  0  0  0
  2  4  1  0  0  0
  4  5  1  0  0  0
  4 12  1  0  0  0
  5  6  1  0  0  0
  5  7  1  0  0  0
  7  8  1  0  0  0
  7  9  1  0  0  0
  9 10  1  0  0  0
  9 11  1  0  0  0
 11 12  1  0  0  0
 12 13  1  0  0  0
 13 14  1  0  0  0
 14 15  1  0  0  0
 15 16  1  0  0  0
 16 17  1  0  0  0
 17 18  1  0  0  0
 18 19  1  0  0  0
 19 20  1  0  0  0
 20 21  1  0  0  0
 21 22  1  0  0  0
 22 23  2  0  0  0
 23 24  3  0  0  0
  1 25  1  0  0  0
  4 26  1  0  0  0
  5 27  1  0  0  0
  6 28  1  0  0  0
  7 29  1  0  0  0
  8 30  1  0  0  0
  9 31  1  0  0  0
 10 32  1  0  0  0
 11 33  1  0  0  0
 11 34  1  0  0  0
 12 35  1  0  0  0
 13 36  1  0  0  0
 13 37  1  0  0  0
 14 38  1  0  0  0
 14 39  1  0  0  0
 15 40  1  0  0  0
 15 41  1  0  0  0
 16 42  1  0  0  0
 16 43  1  0  0  0
 17 44  1  0  0  0
 17 45  1  0  0  0
 18 46  1  0  0  0
 18 47  1  0  0  0
 19 48  1  0  0  0
 19 49  1  0  0  0
 20 50  1  0  0  0
 20 51  1  0  0  0
 21 52  1  0  0  0
 21 53  1  0  0  0
M  END
$$$$
