6fu4_ligand
  -I-interpret- 

 17 17  0  0  0  0  0  0  0  0999 V2000
   48.3070   21.3010   90.7990 N   0  3  0  0  0
   47.6910   22.2590   91.7040 C   0  0  0  0  0
   47.7730   21.7770   93.1550 C   0  0  0  0  0
   49.2410   21.7400   93.5970 C   0  0  0  0  0
   50.1800   22.5850   93.2320 N   0  0  0  0  0
   49.8140   20.8360   94.4450 C   0  0  0  0  0
   51.3340   22.2320   93.8210 C   0  0  0  0  0
   51.0920   21.1450   94.5710 N   0  0  0  0  0
   48.2383   21.6466   89.8418 H   0  0  0  0  0
   49.2887   21.1816   91.0490 H   0  0  0  0  0
   47.8245   20.4055   90.8739 H   0  0  0  0  0
   46.6414   22.3709   91.4322 H   0  0  0  0  0
   48.2207   23.2080   91.6210 H   0  0  0  0  0
   47.3445   20.7777   93.2314 H   0  0  0  0  0
   47.2165   22.4595   93.7973 H   0  0  0  0  0
   49.3054   20.0044   94.9328 H   0  0  0  0  0
   52.2937   22.7367   93.7102 H   0  0  0  0  0
  1  2  1  0  0  0
  2  3  1  0  0  0
  3  4  1  0  0  0
  4  5  4  0  0  0
  4  6  4  0  0  0
  5  7  4  0  0  0
  6  8  4  0  0  0
  7  8  4  0  0  0
  1  9  1  0  0  0
  1 10  1  0  0  0
  1 11  1  0  0  0
  2 12  1  0  0  0
  2 13  1  0  0  0
  3 14  1  0  0  0
  3 15  1  0  0  0
  6 16  1  0  0  0
  7 17  1  0  0  0
M  END
$$$$
