4j1p_ligand
  -I-interpret- 

 49 51  0  0  0  0  0  0  0  0999 V2000
   14.5830   21.1100   -7.3150 O   0  0  0  0  0
   15.5120   22.0300   -6.7020 C   0  0  0  0  0
   13.3790   20.9580   -6.7520 C   0  0  0  0  0
   12.5510   20.0230   -7.3590 C   0  0  0  0  0
   11.3090   19.7610   -6.8550 C   0  0  0  0  0
    9.2490   20.9720   -3.9930 N   0  0  0  0  0
   10.7910   18.4110   -8.7730 C   0  0  0  0  0
   10.4280   18.9030   -7.4710 O   0  0  0  0  0
   10.8260   20.4160   -5.6890 C   0  0  0  0  0
    8.6570   24.6660    1.1930 O   0  0  0  0  0
   11.2900   22.1520   -4.0120 N   0  0  0  0  0
    9.5800   20.1500   -5.0640 C   0  0  0  0  0
   10.1050   21.9130   -3.4900 C   0  0  0  0  0
    7.1620   25.0360    3.5290 O   0  0  0  0  0
    8.7870   19.2520   -5.3630 O   0  0  0  0  0
    9.6680   22.6690   -2.2800 C   0  0  0  0  0
    8.4030   22.7770   -1.9070 C   0  0  0  0  0
    8.0130   23.3830   -0.7220 C   0  0  0  0  0
    6.5660   23.4710   -0.2940 C   0  0  0  0  0
    9.0330   24.0140    0.0230 C   0  0  0  0  0
    8.7930   23.8560    2.3780 C   0  0  0  0  0
    8.4990   24.6730    3.6170 C   0  0  0  0  0
   10.3550   23.9730   -0.3440 C   0  0  0  0  0
   11.3840   24.6510    0.4600 C   0  0  0  0  0
   10.6650   23.3210   -1.5340 C   0  0  0  0  0
   11.7010   21.4130   -5.1390 C   0  0  0  0  0
   12.9480   21.6510   -5.6430 C   0  0  0  0  0
   15.0777   23.0297   -6.6912 H   0  0  0  0  0
   15.7170   21.7105   -5.6802 H   0  0  0  0  0
   16.4401   22.0418   -7.2734 H   0  0  0  0  0
   12.8958   19.4928   -8.2467 H   0  0  0  0  0
    8.3292   20.8692   -3.5642 H   0  0  0  0  0
   10.9073   19.2509   -9.4579 H   0  0  0  0  0
   11.7312   17.8638   -8.7041 H   0  0  0  0  0
   10.0086   17.7468   -9.1401 H   0  0  0  0  0
    6.9227   25.5601    4.2969 H   0  0  0  0  0
    7.6317   22.3709   -2.5614 H   0  0  0  0  0
    5.9997   24.0239   -1.0435 H   0  0  0  0  0
    6.1559   22.4659   -0.1953 H   0  0  0  0  0
    6.5026   23.9864    0.6644 H   0  0  0  0  0
    9.8153   23.4823    2.4353 H   0  0  0  0  0
    8.0853   23.0288    2.3239 H   0  0  0  0  0
    8.6929   24.0990    4.5231 H   0  0  0  0  0
    9.1430   25.5506    3.6727 H   0  0  0  0  0
   11.1645   25.7178    0.5040 H   0  0  0  0  0
   11.3863   24.2374    1.4685 H   0  0  0  0  0
   12.3608   24.4984    0.0011 H   0  0  0  0  0
   11.6945   23.3160   -1.8921 H   0  0  0  0  0
   13.5989   22.3861   -5.1695 H   0  0  0  0  0
  1  2  1  0  0  0
  3  1  1  0  0  0
  4  3  4  0  0  0
  3 27  4  0  0  0
  5  4  4  0  0  0
  5  8  1  0  0  0
  9  5  4  0  0  0
  6 12  1  0  0  0
 13  6  1  0  0  0
  8  7  1  0  0  0
 12  9  1  0  0  0
 26  9  4  0  0  0
 10 20  1  0  0  0
 21 10  1  0  0  0
 13 11  2  0  0  0
 11 26  1  0  0  0
 12 15  2  0  0  0
 16 13  1  0  0  0
 22 14  1  0  0  0
 17 16  4  0  0  0
 16 25  4  0  0  0
 18 17  4  0  0  0
 18 19  1  0  0  0
 20 18  4  0  0  0
 20 23  4  0  0  0
 21 22  1  0  0  0
 23 24  1  0  0  0
 23 25  4  0  0  0
 26 27  4  0  0  0
  2 28  1  0  0  0
  2 29  1  0  0  0
  2 30  1  0  0  0
  4 31  1  0  0  0
  6 32  1  0  0  0
  7 33  1  0  0  0
  7 34  1  0  0  0
  7 35  1  0  0  0
 14 36  1  0  0  0
 17 37  1  0  0  0
 19 38  1  0  0  0
 19 39  1  0  0  0
 19 40  1  0  0  0
 21 41  1  0  0  0
 21 42  1  0  0  0
 22 43  1  0  0  0
 22 44  1  0  0  0
 24 45  1  0  0  0
 24 46  1  0  0  0
 24 47  1  0  0  0
 25 48  1  0  0  0
 27 49  1  0  0  0
M  END
$$$$
