6b22_ligand
  -I-interpret- 

 28 28  0  0  0  0  0  0  0  0999 V2000
    2.9390  -32.0070  -11.2500 O   0  0  0  0  0
    2.1060  -31.9820  -10.0790 S   0  0  0  0  0
    2.7410  -30.9150   -9.3210 O   0  0  0  0  0
    2.1700  -33.2210   -9.2620 O   0  0  0  0  0
    0.6600  -31.5910  -10.4630 O   0  0  0  0  0
   -0.4280  -32.4360  -10.2470 N   0  3  0  0  0
   -1.5370  -32.2270  -11.1960 C   0  0  0  0  0
   -1.4980  -33.3840  -12.2310 C   0  0  0  0  0
   -0.4380  -33.1190  -13.3350 C   0  0  0  0  0
   -0.6930  -31.8240  -14.0990 C   0  0  0  0  0
   -1.9010  -31.7460  -14.6840 C   0  0  0  0  0
   -2.8070  -31.6870  -15.1020 N   0  0  0  0  0
   -0.7230  -30.7180  -13.1290 N   0  0  0  0  0
    0.3390  -29.8850  -13.1540 C   0  0  0  0  0
    1.4940  -29.9610  -13.6040 O   0  0  0  0  0
   -1.5870  -30.8590  -11.8850 C   0  0  0  0  0
    1.5913  -33.1316   -8.5013 H   0  0  0  0  0
   -0.7854  -32.2407   -9.3119 H   0  0  0  0  0
   -0.0993  -33.3940  -10.3677 H   0  0  0  0  0
   -2.4573  -32.2342  -10.6120 H   0  0  0  0  0
   -2.4778  -33.4608  -12.7023 H   0  0  0  0  0
   -1.2347  -34.3053  -11.7114 H   0  0  0  0  0
   -0.4849  -33.9423  -14.0478 H   0  0  0  0  0
    0.5350  -33.0353  -12.8509 H   0  0  0  0  0
    0.0909  -31.7828  -14.8552 H   0  0  0  0  0
    0.1371  -28.9296  -12.6697 H   0  0  0  0  0
   -1.2105  -30.1346  -11.1628 H   0  0  0  0  0
   -2.6182  -30.7114  -12.2059 H   0  0  0  0  0
  1  2  2  0  0  0
  2  3  2  0  0  0
  2  4  1  0  0  0
  2  5  1  0  0  0
  5  6  1  0  0  0
  6  7  1  0  0  0
  7  8  1  0  0  0
  7 16  1  0  0  0
  8  9  1  0  0  0
  9 10  1  0  0  0
 10 11  1  0  0  0
 10 13  1  0  0  0
 11 12  3  0  0  0
 13 14  1  0  0  0
 13 16  1  0  0  0
 14 15  2  0  0  0
  4 17  1  0  0  0
  6 18  1  0  0  0
  6 19  1  0  0  0
  7 20  1  0  0  0
  8 21  1  0  0  0
  8 22  1  0  0  0
  9 23  1  0  0  0
  9 24  1  0  0  0
 10 25  1  0  0  0
 14 26  1  0  0  0
 16 27  1  0  0  0
 16 28  1  0  0  0
M  END
$$$$
