3o9v_ligand
  -I-interpret- 

 48 49  0  0  0  0  0  0  0  0999 V2000
   45.6130   35.5110   18.2080 C   0  0  0  0  0
   44.6560   34.7670   17.3000 C   0  0  0  0  0
   44.2270   32.7070   16.2450 C   0  0  0  0  0
   44.6810   31.2860   15.9800 C   0  0  0  0  0
   42.1450   32.3820   14.8420 C   0  0  0  0  0
   43.4810   35.3130   16.7910 C   0  0  0  0  0
   41.3900   35.0200   15.3790 C   0  0  0  0  0
   41.3840   35.9930   14.3740 C   0  0  0  0  0
   40.1800   36.4640   13.8450 C   0  0  0  0  0
   37.6680   36.4380   13.7460 C   0  0  0  0  0
   40.1750   34.5150   15.8370 C   0  0  0  0  0
   41.5670   31.3640   15.3460 O   0  0  0  0  0
   42.0100   32.7630   13.6480 O   0  0  0  0  0
   43.0440   33.2140   15.7110 C   0  0  0  0  0
   42.6740   34.5150   15.9710 C   0  0  0  0  0
   38.9700   35.9550   14.3090 C   0  0  0  0  0
   38.9730   34.9880   15.3030 C   0  0  0  0  0
   43.0600   36.7500   17.0950 C   0  0  0  0  0
   41.7730   36.7760   17.7730 N   0  3  0  0  0
   46.5620   36.4680   17.4990 C   0  0  0  0  0
   47.4950   37.0540   18.5510 C   0  0  0  0  0
   47.3110   35.7840   16.3640 C   0  0  0  0  0
   44.9880   33.4940   17.0230 N   0  0  0  0  0
   46.2323   34.7585   18.6962 H   0  0  0  0  0
   45.0032   36.1140   18.8808 H   0  0  0  0  0
   43.9275   30.5903   16.3494 H   0  0  0  0  0
   44.8150   31.1427   14.9078 H   0  0  0  0  0
   45.6259   31.1062   16.4928 H   0  0  0  0  0
   42.3286   36.3877   13.9998 H   0  0  0  0  0
   40.1878   37.2297   13.0693 H   0  0  0  0  0
   37.5762   37.5109   13.9150 H   0  0  0  0  0
   37.6383   36.2336   12.6757 H   0  0  0  0  0
   36.8457   35.9196   14.2392 H   0  0  0  0  0
   40.1618   33.7497   16.6131 H   0  0  0  0  0
   41.8231   31.2753   16.2669 H   0  0  0  0  0
   38.0269   34.5922   15.6722 H   0  0  0  0  0
   42.9753   37.2984   16.1568 H   0  0  0  0  0
   43.8086   37.2072   17.7421 H   0  0  0  0  0
   41.5113   37.7427   17.9662 H   0  0  0  0  0
   41.0671   36.3441   17.1767 H   0  0  0  0  0
   41.8415   36.2593   18.6498 H   0  0  0  0  0
   46.0029   37.2731   17.0222 H   0  0  0  0  0
   48.1002   36.2568   18.9826 H   0  0  0  0  0
   48.1456   37.7946   18.0858 H   0  0  0  0  0
   46.9044   37.5285   19.3347 H   0  0  0  0  0
   47.9592   36.5078   15.8699 H   0  0  0  0  0
   47.9138   34.9701   16.7668 H   0  0  0  0  0
   46.5945   35.3861   15.6454 H   0  0  0  0  0
  2  1  1  0  0  0
  1 20  1  0  0  0
  6  2  4  0  0  0
  2 23  4  0  0  0
  3  4  1  0  0  0
  3 14  4  0  0  0
 23  3  4  0  0  0
  5 12  1  0  0  0
  5 13  2  0  0  0
 14  5  1  0  0  0
 15  6  4  0  0  0
  6 18  1  0  0  0
  7  8  4  0  0  0
  7 11  4  0  0  0
  7 15  1  0  0  0
  8  9  4  0  0  0
  9 16  4  0  0  0
 16 10  1  0  0  0
 11 17  4  0  0  0
 14 15  4  0  0  0
 16 17  4  0  0  0
 18 19  1  0  0  0
 20 21  1  0  0  0
 20 22  1  0  0  0
  1 24  1  0  0  0
  1 25  1  0  0  0
  4 26  1  0  0  0
  4 27  1  0  0  0
  4 28  1  0  0  0
  8 29  1  0  0  0
  9 30  1  0  0  0
 10 31  1  0  0  0
 10 32  1  0  0  0
 10 33  1  0  0  0
 11 34  1  0  0  0
 12 35  1  0  0  0
 17 36  1  0  0  0
 18 37  1  0  0  0
 18 38  1  0  0  0
 19 39  1  0  0  0
 19 40  1  0  0  0
 19 41  1  0  0  0
 20 42  1  0  0  0
 21 43  1  0  0  0
 21 44  1  0  0  0
 21 45  1  0  0  0
 22 46  1  0  0  0
 22 47  1  0  0  0
 22 48  1  0  0  0
M  END
$$$$
