3h0j_ligand
  -I-interpret- 

 62 67  0  0  0  0  0  0  0  0999 V2000
    6.5240   32.5150   25.8920 C   0  0  0  0  0
    7.8060   32.4530   25.2030 C   0  0  0  0  0
    8.6730   33.5970   25.1630 C   0  0  0  0  0
    8.3000   34.8280   25.7980 C   0  0  0  0  0
    7.0550   34.9390   26.4860 C   0  0  0  0  0
    6.1630   33.8090   26.5460 C   0  0  0  0  0
    4.9280   33.9660   27.2550 C   0  0  0  0  0
    4.0130   32.8660   27.3440 C   0  0  0  0  0
    2.7910   33.0580   28.0830 C   0  0  0  0  0
    1.8540   31.9880   28.2060 C   0  0  0  0  0
    2.1130   30.7190   27.5920 C   0  0  0  0  0
    3.3180   30.4950   26.8520 C   0  0  0  0  0
    4.3110   31.5540   26.7040 C   0  0  0  0  0
    5.5830   31.3550   25.9620 C   0  0  0  0  0
    5.8880   29.9950   25.3190 C   0  0  0  0  0
    6.3270   29.0870   26.0320 O   0  0  0  0  0
    5.6460   29.7640   23.9330 N   0  0  0  0  0
    5.1110   30.7960   22.9850 C   0  0  0  0  0
    6.0300   30.9120   21.7590 C   0  0  0  0  0
    5.9210   28.3900   23.3310 C   0  0  0  0  0
    6.7060   28.4490   21.9790 C   0  0  0  0  0
    6.1410   29.5330   21.0180 C   0  0  0  0  0
    7.0010   29.5510   19.6930 C   0  0  0  0  0
    6.6170   30.6250   18.6680 C   0  0  0  0  0
    5.2430   30.9470   18.3300 C   0  0  0  0  0
    4.9580   32.0140   17.4150 C   0  0  0  0  0
    3.5960   32.3430   17.1260 C   0  0  0  0  0
    3.3010   33.4240   16.2390 C   0  0  0  0  0
    4.3840   34.1560   15.6490 C   0  0  0  0  0
    4.1030   35.3050   14.7220 C   0  0  0  0  0
    5.7080   33.8340   15.9230 N   0  0  0  0  0
    6.0580   32.7840   16.7960 C   0  0  0  0  0
    7.4050   32.4430   17.1240 C   0  0  0  0  0
    7.6730   31.3870   18.0500 C   0  0  0  0  0
    8.1104   31.5284   24.7126 H   0  0  0  0  0
    9.6283   33.5290   24.6426 H   0  0  0  0  0
    8.9725   35.6847   25.7546 H   0  0  0  0  0
    6.7789   35.8779   26.9659 H   0  0  0  0  0
    4.6849   34.9188   27.7253 H   0  0  0  0  0
    2.5818   34.0211   28.5485 H   0  0  0  0  0
    0.9342   32.1373   28.7714 H   0  0  0  0  0
    1.3837   29.9148   27.6896 H   0  0  0  0  0
    3.4957   29.5221   26.3938 H   0  0  0  0  0
    5.0672   31.7598   23.4922 H   0  0  0  0  0
    4.1141   30.4998   22.6586 H   0  0  0  0  0
    7.0232   31.2156   22.0900 H   0  0  0  0  0
    5.6117   31.6485   21.0729 H   0  0  0  0  0
    4.9579   27.9204   23.1312 H   0  0  0  0  0
    6.5338   27.8365   24.0425 H   0  0  0  0  0
    6.6115   27.4796   21.4896 H   0  0  0  0  0
    7.7435   28.6996   22.2001 H   0  0  0  0  0
    5.1216   29.2980   20.7118 H   0  0  0  0  0
    6.8411   28.5884   19.2072 H   0  0  0  0  0
    8.0273   29.7626   19.9931 H   0  0  0  0  0
    4.4260   30.3769   18.7723 H   0  0  0  0  0
    2.7867   31.7715   17.5805 H   0  0  0  0  0
    2.2677   33.6884   16.0141 H   0  0  0  0  0
    3.5306   34.9479   13.8659 H   0  0  0  0  0
    3.5300   36.0659   15.2519 H   0  0  0  0  0
    5.0453   35.7317   14.3782 H   0  0  0  0  0
    8.2308   32.9888   16.6676 H   0  0  0  0  0
    8.7082   31.1508   18.2963 H   0  0  0  0  0
  1  2  4  0  0  0
  1  6  4  0  0  0
  1 14  4  0  0  0
  2  3  4  0  0  0
  3  4  4  0  0  0
  4  5  4  0  0  0
  5  6  4  0  0  0
  6  7  4  0  0  0
  7  8  4  0  0  0
  8  9  4  0  0  0
  8 13  4  0  0  0
  9 10  4  0  0  0
 10 11  4  0  0  0
 11 12  4  0  0  0
 12 13  4  0  0  0
 13 14  4  0  0  0
 14 15  1  0  0  0
 15 16  2  0  0  0
 15 17  1  0  0  0
 17 18  1  0  0  0
 17 20  1  0  0  0
 18 19  1  0  0  0
 19 22  1  0  0  0
 20 21  1  0  0  0
 21 22  1  0  0  0
 22 23  1  0  0  0
 23 24  1  0  0  0
 24 25  4  0  0  0
 24 34  4  0  0  0
 25 26  4  0  0  0
 26 27  4  0  0  0
 26 32  4  0  0  0
 27 28  4  0  0  0
 28 29  4  0  0  0
 29 30  1  0  0  0
 29 31  4  0  0  0
 31 32  4  0  0  0
 32 33  4  0  0  0
 33 34  4  0  0  0
  2 35  1  0  0  0
  3 36  1  0  0  0
  4 37  1  0  0  0
  5 38  1  0  0  0
  7 39  1  0  0  0
  9 40  1  0  0  0
 10 41  1  0  0  0
 11 42  1  0  0  0
 12 43  1  0  0  0
 18 44  1  0  0  0
 18 45  1  0  0  0
 19 46  1  0  0  0
 19 47  1  0  0  0
 20 48  1  0  0  0
 20 49  1  0  0  0
 21 50  1  0  0  0
 21 51  1  0  0  0
 22 52  1  0  0  0
 23 53  1  0  0  0
 23 54  1  0  0  0
 25 55  1  0  0  0
 27 56  1  0  0  0
 28 57  1  0  0  0
 30 58  1  0  0  0
 30 59  1  0  0  0
 30 60  1  0  0  0
 33 61  1  0  0  0
 34 62  1  0  0  0
M  END
$$$$
