1igj_ligand
  -I-interpret- 

 81 86  0  0  0  0  0  0  0  0999 V2000
  -12.8600   30.5530   29.6030 C   0  0  0  0  0
  -14.2370   30.8280   29.0050 C   0  0  0  0  0
  -15.3450   30.5190   30.0030 C   0  0  0  0  0
  -15.1660   31.2820   31.2080 O   0  0  0  0  0
  -15.2960   29.0440   30.3670 C   0  0  0  0  0
  -13.9590   28.7200   31.0240 C   0  0  0  0  0
  -13.9130   27.2940   31.5560 C   0  0  0  0  0
  -13.8200   26.2810   30.4260 C   0  0  0  0  0
  -12.6190   26.5950   29.5330 C   0  0  0  0  0
  -12.6130   28.0400   29.0220 C   0  0  0  0  0
  -12.7320   29.1170   30.1400 C   0  0  0  0  0
  -11.3790   28.2690   28.1660 C   0  0  0  0  0
  -11.3900   27.3040   26.9990 C   0  0  0  0  0
  -10.3850   27.6410   26.0380 O   0  0  0  0  0
  -11.2700   25.8240   27.4610 C   0  0  0  0  0
  -12.4620   25.5100   28.4310 C   0  0  0  0  0
  -12.2830   24.2320   29.0970 O   0  0  0  0  0
  -13.6570   25.3010   27.4800 C   0  0  0  0  0
  -13.0990   24.8230   26.1400 C   0  0  0  0  0
  -11.5760   25.0010   26.1700 C   0  0  0  0  0
   -9.8900   25.5860   28.1160 C   0  0  0  0  0
  -11.4340   29.2170   30.9610 C   0  0  0  0  0
  -10.7520   23.7710   25.9440 C   0  0  0  0  0
  -11.1790   22.4050   26.3180 C   0  0  0  0  0
  -10.0260   21.5670   26.0760 O   0  0  0  0  0
   -9.5050   23.6880   25.4600 C   0  0  0  0  0
   -9.0660   22.3070   25.5210 C   0  0  0  0  0
   -7.9940   21.8000   25.2150 O   0  0  0  0  0
  -16.2710   32.0600   31.6780 C   0  0  0  0  0
  -16.4780   33.2600   30.7520 C   0  0  0  0  0
  -17.6850   34.0700   31.2070 C   0  0  0  0  0
  -17.4590   34.7030   32.4860 O   0  0  0  0  0
  -18.9040   33.1420   31.2570 C   0  0  0  0  0
  -19.9870   33.8440   31.8870 O   0  0  0  0  0
  -18.6400   31.8370   32.0270 C   0  0  0  0  0
  -17.4280   31.2400   31.6130 O   0  0  0  0  0
  -19.6710   30.7790   31.6820 C   0  0  0  0  0
  -12.1172   30.6871   28.8166 H   0  0  0  0  0
  -12.7101   31.2399   30.4360 H   0  0  0  0  0
  -14.3694   30.1904   28.1309 H   0  0  0  0  0
  -14.2949   31.8831   28.7377 H   0  0  0  0  0
  -16.3011   30.7749   29.5463 H   0  0  0  0  0
  -15.4085   28.4452   29.4632 H   0  0  0  0  0
  -16.1042   28.8167   31.0621 H   0  0  0  0  0
  -13.8747   29.3588   31.9032 H   0  0  0  0  0
  -14.8290   27.1043   32.1155 H   0  0  0  0  0
  -13.0307   27.1891   32.1874 H   0  0  0  0  0
  -14.7307   26.3279   29.8288 H   0  0  0  0  0
  -13.6987   25.2840   30.8496 H   0  0  0  0  0
  -11.7160   26.5427   30.1413 H   0  0  0  0  0
  -13.5141   28.1635   28.4212 H   0  0  0  0  0
  -10.4841   28.1042   28.7661 H   0  0  0  0  0
  -11.3806   29.2927   27.7917 H   0  0  0  0  0
  -12.3597   27.4013   26.5109 H   0  0  0  0  0
  -10.4154   27.0141   25.3116 H   0  0  0  0  0
  -12.1831   23.5405   28.4386 H   0  0  0  0  0
  -14.2102   26.2315   27.3526 H   0  0  0  0  0
  -14.3468   24.5637   27.8907 H   0  0  0  0  0
  -13.5299   25.4033   25.3241 H   0  0  0  0  0
  -13.3525   23.7752   25.9788 H   0  0  0  0  0
  -11.2448   25.5514   25.2894 H   0  0  0  0  0
   -9.1038   25.8018   27.3925 H   0  0  0  0  0
   -9.7810   26.2423   28.9795 H   0  0  0  0  0
   -9.8156   24.5468   28.4362 H   0  0  0  0  0
  -11.2254   28.2541   31.4272 H   0  0  0  0  0
  -10.6092   29.4896   30.3026 H   0  0  0  0  0
  -11.5514   29.9779   31.7326 H   0  0  0  0  0
  -12.0413   22.0800   25.7358 H   0  0  0  0  0
  -11.5007   22.3552   27.3583 H   0  0  0  0  0
   -8.9159   24.5234   25.0816 H   0  0  0  0  0
  -16.0864   32.4094   32.6938 H   0  0  0  0  0
  -16.6490   32.9029   29.7364 H   0  0  0  0  0
  -15.5907   33.8924   30.7822 H   0  0  0  0  0
  -17.8619   34.8752   30.4939 H   0  0  0  0  0
  -18.2397   35.2021   32.7372 H   0  0  0  0  0
  -19.1448   32.8639   30.2310 H   0  0  0  0  0
  -20.7579   33.2732   31.9248 H   0  0  0  0  0
  -18.6466   32.1170   33.0804 H   0  0  0  0  0
  -20.6647   31.1430   31.9433 H   0  0  0  0  0
  -19.6294   30.5678   30.6135 H   0  0  0  0  0
  -19.4571   29.8688   32.2422 H   0  0  0  0  0
 11  1  1  0  0  0
  1  2  1  0  0  0
  2  3  1  0  0  0
  3  5  1  0  0  0
  3  4  1  0  0  0
  4 29  1  0  0  0
 29 36  1  0  0  0
 29 30  1  0  0  0
 30 31  1  0  0  0
 31 33  1  0  0  0
 31 32  1  0  0  0
 33 35  1  0  0  0
 33 34  1  0  0  0
 35 37  1  0  0  0
 36 35  1  0  0  0
  5  6  1  0  0  0
 11  6  1  0  0  0
  6  7  1  0  0  0
  7  8  1  0  0  0
  8  9  1  0  0  0
  9 16  1  0  0  0
  9 10  1  0  0  0
 10 12  1  0  0  0
 10 11  1  0  0  0
 11 22  1  0  0  0
 12 13  1  0  0  0
 13 15  1  0  0  0
 13 14  1  0  0  0
 15 21  1  0  0  0
 15 20  1  0  0  0
 15 16  1  0  0  0
 16 18  1  0  0  0
 16 17  1  0  0  0
 18 19  1  0  0  0
 20 19  1  0  0  0
 20 23  1  0  0  0
 23 26  2  0  0  0
 23 24  1  0  0  0
 24 25  1  0  0  0
 25 27  1  0  0  0
 27 28  2  0  0  0
 27 26  1  0  0  0
  1 38  1  0  0  0
  1 39  1  0  0  0
  2 40  1  0  0  0
  2 41  1  0  0  0
  3 42  1  0  0  0
  5 43  1  0  0  0
  5 44  1  0  0  0
  6 45  1  0  0  0
  7 46  1  0  0  0
  7 47  1  0  0  0
  8 48  1  0  0  0
  8 49  1  0  0  0
  9 50  1  0  0  0
 10 51  1  0  0  0
 12 52  1  0  0  0
 12 53  1  0  0  0
 13 54  1  0  0  0
 14 55  1  0  0  0
 17 56  1  0  0  0
 18 57  1  0  0  0
 18 58  1  0  0  0
 19 59  1  0  0  0
 19 60  1  0  0  0
 20 61  1  0  0  0
 21 62  1  0  0  0
 21 63  1  0  0  0
 21 64  1  0  0  0
 22 65  1  0  0  0
 22 66  1  0  0  0
 22 67  1  0  0  0
 24 68  1  0  0  0
 24 69  1  0  0  0
 26 70  1  0  0  0
 29 71  1  0  0  0
 30 72  1  0  0  0
 30 73  1  0  0  0
 31 74  1  0  0  0
 32 75  1  0  0  0
 33 76  1  0  0  0
 34 77  1  0  0  0
 35 78  1  0  0  0
 37 79  1  0  0  0
 37 80  1  0  0  0
 37 81  1  0  0  0
M  END
$$$$
