4nxr_ligand
  -I-interpret- 

149150  0  0  0  0  0  0  0  0999 V2000
   10.9340    0.5470  -26.2360 N   0  3  0  0  0
   10.0370    1.6960  -26.3830 C   0  0  0  0  0
    8.7900    1.5700  -25.5290 C   0  0  0  0  0
    7.7750    1.0400  -25.9740 O   0  0  0  0  0
    9.6090    1.8800  -27.8390 C   0  0  0  0  0
   10.7540    2.2390  -28.7390 C   0  0  0  0  0
   10.9430    1.6450  -29.8070 O   0  0  0  0  0
   11.5330    3.2210  -28.3200 N   0  0  0  0  0
    8.8640    2.0730  -24.3060 N   0  0  0  0  0
    7.7340    2.0200  -23.3960 C   0  0  0  0  0
    6.8680    3.2790  -23.5760 C   0  0  0  0  0
    7.3870    4.3930  -23.5810 O   0  0  0  0  0
    8.2510    1.8850  -21.9610 C   0  0  0  0  0
    7.2390    1.4350  -20.9590 C   0  0  0  0  0
    7.7840    1.5900  -19.5460 C   0  0  0  0  0
    8.9850    0.7140  -19.2820 C   0  0  0  0  0
    9.4200    0.9870  -17.8770 N   0  3  0  0  0
    5.5610    3.1380  -23.7560 N   0  0  0  0  0
    4.7670    4.3610  -23.8580 C   0  0  0  0  0
    3.8200    4.5980  -22.6810 C   0  0  0  0  0
    3.2790    5.6850  -22.5460 O   0  0  0  0  0
    3.9920    4.3970  -25.1710 C   0  0  0  0  0
    3.3750    3.0820  -25.5120 C   0  0  0  0  0
    2.7390    2.4870  -24.6160 O   0  0  0  0  0
    3.5390    2.6370  -26.6770 O   0  0  0  0  0
    3.6480    3.6070  -21.8130 N   0  0  0  0  0
    2.8860    3.8200  -20.5780 C   0  0  0  0  0
    3.2220    2.7470  -19.5460 C   0  0  0  0  0
    3.5360    1.6060  -19.8890 O   0  0  0  0  0
    1.3640    3.8460  -20.8500 C   0  0  0  0  0
    0.4970    4.0940  -19.6070 C   0  0  0  0  0
   -0.9730    4.3110  -19.9630 C   0  0  0  0  0
   -1.1980    5.7340  -20.4560 C   0  0  0  0  0
   -2.5770    5.9030  -21.0020 N   0  3  0  0  0
    3.1500    3.1310  -18.2770 N   0  0  0  0  0
    3.3510    2.2070  -17.1740 C   0  0  0  0  0
    2.1270    2.3120  -16.2510 C   0  0  0  0  0
    1.7860    3.4120  -15.8210 O   0  0  0  0  0
    4.6460    2.5640  -16.4450 C   0  0  0  0  0
    5.1190    1.6170  -15.3770 C   0  0  0  0  0
    5.7850    0.4000  -15.9480 C   0  0  0  0  0
    6.9170    0.0880  -15.5620 O   0  0  0  0  0
    5.1530   -0.2790  -16.7650 O   0  0  0  0  0
    1.4400    1.2000  -15.9850 N   0  0  0  0  0
    0.3120    1.2080  -15.0420 C   0  0  0  0  0
    0.8200    0.6900  -13.7030 C   0  0  0  0  0
    1.4030   -0.3760  -13.6550 O   0  0  0  0  0
   -0.8500    0.3320  -15.5290 C   0  0  0  0  0
   -1.6160    0.8250  -16.7400 C   0  0  0  0  0
   -1.2000    0.5010  -18.0240 C   0  0  0  0  0
   -2.7650    1.5920  -16.6010 C   0  0  0  0  0
   -1.8900    0.9390  -19.1360 C   0  0  0  0  0
   -3.4790    2.0260  -17.7240 C   0  0  0  0  0
   -3.0270    1.6890  -18.9830 C   0  0  0  0  0
   -3.6900    2.1100  -20.1110 O   0  0  0  0  0
    0.6430    1.4300  -12.6170 N   0  0  0  0  0
    1.1210    0.9340  -11.3280 C   0  0  0  0  0
   -0.0700    0.4300  -10.5420 C   0  0  0  0  0
   -0.9290    1.2200  -10.1420 O   0  0  0  0  0
    1.8660    2.0230  -10.5490 C   0  0  0  0  0
    3.2070    2.4080  -11.1520 C   0  0  0  0  0
    3.3000    3.4080  -12.1250 C   0  0  0  0  0
    4.3800    1.7720  -10.7490 C   0  0  0  0  0
    4.5350    3.7610  -12.6810 C   0  0  0  0  0
    5.6240    2.1290  -11.2970 C   0  0  0  0  0
    5.6910    3.1240  -12.2640 C   0  0  0  0  0
    6.9160    3.4780  -12.8220 O   0  0  0  0  0
   -0.1460   -0.8820  -10.3280 N   0  0  0  0  0
   -1.3610   -1.4540   -9.7560 C   0  0  0  0  0
   -1.1130   -2.2670   -8.4800 C   0  0  0  0  0
   -2.0890   -2.6750   -7.8420 O   0  0  0  0  0
   -2.0990   -2.3300  -10.7970 C   0  0  0  0  0
   -2.5440   -1.4760  -11.9800 C   0  0  0  0  0
   -1.2150   -3.4590  -11.2800 C   0  0  0  0  0
    0.0200   -2.5100   -8.0330 O   0  0  0  0  0
   11.2020    0.4495  -25.2567 H   0  0  0  0  0
   10.4545   -0.2988  -26.5443 H   0  0  0  0  0
   11.7678    0.6931  -26.8050 H   0  0  0  0  0
   10.6058    2.5632  -26.0475 H   0  0  0  0  0
    8.8871    2.6959  -27.8747 H   0  0  0  0  0
    9.1936    0.9344  -28.1874 H   0  0  0  0  0
   12.3287    3.5174  -28.8852 H   0  0  0  0  0
   11.3385    3.6825  -27.4314 H   0  0  0  0  0
    9.7337    2.5070  -23.9968 H   0  0  0  0  0
    7.1091    1.1540  -23.6144 H   0  0  0  0  0
    8.5771    2.8780  -21.6516 H   0  0  0  0  0
    9.0315    1.1243  -21.9802 H   0  0  0  0  0
    7.0071    0.3848  -21.1364 H   0  0  0  0  0
    6.3421    2.0458  -21.0621 H   0  0  0  0  0
    6.9975    1.2960  -18.8510 H   0  0  0  0  0
    8.0937    2.6274  -19.4199 H   0  0  0  0  0
    9.7876    0.9351  -19.9856 H   0  0  0  0  0
    8.7325   -0.3384  -19.4115 H   0  0  0  0  0
   10.2334    0.4125  -17.6565 H   0  0  0  0  0
    9.6632    1.9731  -17.7832 H   0  0  0  0  0
    8.6589    0.7609  -17.2367 H   0  0  0  0  0
    5.1291    2.2162  -23.8204 H   0  0  0  0  0
    5.4904    5.1759  -23.8314 H   0  0  0  0  0
    4.6921    4.6542  -25.9658 H   0  0  0  0  0
    3.1887    5.1262  -25.0655 H   0  0  0  0  0
    4.0576    3.2632  -27.1875 H   0  0  0  0  0
    4.0495    2.6897  -22.0072 H   0  0  0  0  0
    3.1722    4.7928  -20.1782 H   0  0  0  0  0
    1.0929    2.8634  -21.2363 H   0  0  0  0  0
    1.1776    4.6708  -21.5377 H   0  0  0  0  0
    0.8627    4.9938  -19.1123 H   0  0  0  0  0
    0.5646    3.2154  -18.9654 H   0  0  0  0  0
   -1.5810    4.1440  -19.0739 H   0  0  0  0  0
   -1.2526    3.6142  -20.7532 H   0  0  0  0  0
   -0.4809    5.9454  -21.2492 H   0  0  0  0  0
   -1.0692    6.4178  -19.6170 H   0  0  0  0  0
   -2.6987    6.8632  -21.3238 H   0  0  0  0  0
   -2.7130    5.2615  -21.7833 H   0  0  0  0  0
   -3.2583    5.6993  -20.2707 H   0  0  0  0  0
    2.9465    4.1087  -18.0693 H   0  0  0  0  0
    3.4470    1.1789  -17.5231 H   0  0  0  0  0
    4.4481    3.5076  -15.9364 H   0  0  0  0  0
    5.4246    2.5615  -17.2078 H   0  0  0  0  0
    4.2498    1.2900  -14.8064 H   0  0  0  0  0
    5.8472    2.1418  -14.7586 H   0  0  0  0  0
    4.3016    0.1324  -16.9307 H   0  0  0  0  0
    1.7021    0.3278  -16.4444 H   0  0  0  0  0
   -0.0693    2.2253  -14.9537 H   0  0  0  0  0
   -1.5690    0.3060  -14.7102 H   0  0  0  0  0
   -0.4054   -0.6189  -15.8227 H   0  0  0  0  0
   -0.3090   -0.1127  -18.1569 H   0  0  0  0  0
   -3.1156    1.8597  -15.6043 H   0  0  0  0  0
   -1.5313    0.6889  -20.1345 H   0  0  0  0  0
   -4.3826    2.6239  -17.6050 H   0  0  0  0  0
   -4.4615    2.6209  -19.8554 H   0  0  0  0  0
    0.1782    2.3357  -12.6806 H   0  0  0  0  0
    1.8308    0.1233  -11.4928 H   0  0  0  0  0
    2.0614    1.6301   -9.5512 H   0  0  0  0  0
    1.2389    2.9145  -10.5602 H   0  0  0  0  0
    2.3966    3.9206  -12.4556 H   0  0  0  0  0
    4.3317    0.9849   -9.9965 H   0  0  0  0  0
    4.5865    4.5384  -13.4433 H   0  0  0  0  0
    6.5326    1.6271  -10.9645 H   0  0  0  0  0
    7.6115    2.9469  -12.4274 H   0  0  0  0  0
    0.6422   -1.4853  -10.5630 H   0  0  0  0  0
   -1.9846   -0.6050   -9.4761 H   0  0  0  0  0
   -2.9760   -2.7628  -10.3157 H   0  0  0  0  0
   -3.2167   -0.6935  -11.6289 H   0  0  0  0  0
   -1.6703   -1.0227  -12.4482 H   0  0  0  0  0
   -3.0618   -2.1037  -12.7052 H   0  0  0  0  0
   -0.3193   -3.0448  -11.7429 H   0  0  0  0  0
   -0.9319   -4.0847  -10.4336 H   0  0  0  0  0
   -1.7592   -4.0579  -12.0103 H   0  0  0  0  0
    0.6814   -2.1391   -8.6218 H   0  0  0  0  0
  1  2  1  0  0  0
  2  3  1  0  0  0
  2  5  1  0  0  0
  3  4  2  0  0  0
  3  9  1  0  0  0
  5  6  1  0  0  0
  6  7  2  0  0  0
  6  8  1  0  0  0
  9 10  1  0  0  0
 10 11  1  0  0  0
 10 13  1  0  0  0
 11 12  2  0  0  0
 11 18  1  0  0  0
 13 14  1  0  0  0
 14 15  1  0  0  0
 15 16  1  0  0  0
 16 17  1  0  0  0
 18 19  1  0  0  0
 19 20  1  0  0  0
 19 22  1  0  0  0
 20 21  2  0  0  0
 20 26  1  0  0  0
 22 23  1  0  0  0
 23 24  2  0  0  0
 23 25  1  0  0  0
 26 27  1  0  0  0
 27 28  1  0  0  0
 27 30  1  0  0  0
 28 29  2  0  0  0
 28 35  1  0  0  0
 30 31  1  0  0  0
 31 32  1  0  0  0
 32 33  1  0  0  0
 33 34  1  0  0  0
 35 36  1  0  0  0
 36 37  1  0  0  0
 36 39  1  0  0  0
 37 38  2  0  0  0
 37 44  1  0  0  0
 39 40  1  0  0  0
 40 41  1  0  0  0
 41 42  2  0  0  0
 41 43  1  0  0  0
 44 45  1  0  0  0
 45 46  1  0  0  0
 45 48  1  0  0  0
 46 47  2  0  0  0
 46 56  1  0  0  0
 48 49  1  0  0  0
 49 50  4  0  0  0
 49 51  4  0  0  0
 50 52  4  0  0  0
 51 53  4  0  0  0
 52 54  4  0  0  0
 53 54  4  0  0  0
 54 55  1  0  0  0
 56 57  1  0  0  0
 57 58  1  0  0  0
 57 60  1  0  0  0
 58 59  2  0  0  0
 58 68  1  0  0  0
 60 61  1  0  0  0
 61 62  4  0  0  0
 61 63  4  0  0  0
 62 64  4  0  0  0
 63 65  4  0  0  0
 64 66  4  0  0  0
 65 66  4  0  0  0
 66 67  1  0  0  0
 68 69  1  0  0  0
 69 70  1  0  0  0
 69 72  1  0  0  0
 70 71  2  0  0  0
 70 75  1  0  0  0
 72 73  1  0  0  0
 72 74  1  0  0  0
  1 76  1  0  0  0
  1 77  1  0  0  0
  1 78  1  0  0  0
  2 79  1  0  0  0
  5 80  1  0  0  0
  5 81  1  0  0  0
  8 82  1  0  0  0
  8 83  1  0  0  0
  9 84  1  0  0  0
 10 85  1  0  0  0
 13 86  1  0  0  0
 13 87  1  0  0  0
 14 88  1  0  0  0
 14 89  1  0  0  0
 15 90  1  0  0  0
 15 91  1  0  0  0
 16 92  1  0  0  0
 16 93  1  0  0  0
 17 94  1  0  0  0
 17 95  1  0  0  0
 17 96  1  0  0  0
 18 97  1  0  0  0
 19 98  1  0  0  0
 22 99  1  0  0  0
 22100  1  0  0  0
 25101  1  0  0  0
 26102  1  0  0  0
 27103  1  0  0  0
 30104  1  0  0  0
 30105  1  0  0  0
 31106  1  0  0  0
 31107  1  0  0  0
 32108  1  0  0  0
 32109  1  0  0  0
 33110  1  0  0  0
 33111  1  0  0  0
 34112  1  0  0  0
 34113  1  0  0  0
 34114  1  0  0  0
 35115  1  0  0  0
 36116  1  0  0  0
 39117  1  0  0  0
 39118  1  0  0  0
 40119  1  0  0  0
 40120  1  0  0  0
 43121  1  0  0  0
 44122  1  0  0  0
 45123  1  0  0  0
 48124  1  0  0  0
 48125  1  0  0  0
 50126  1  0  0  0
 51127  1  0  0  0
 52128  1  0  0  0
 53129  1  0  0  0
 55130  1  0  0  0
 56131  1  0  0  0
 57132  1  0  0  0
 60133  1  0  0  0
 60134  1  0  0  0
 62135  1  0  0  0
 63136  1  0  0  0
 64137  1  0  0  0
 65138  1  0  0  0
 67139  1  0  0  0
 68140  1  0  0  0
 69141  1  0  0  0
 72142  1  0  0  0
 73143  1  0  0  0
 73144  1  0  0  0
 73145  1  0  0  0
 74146  1  0  0  0
 74147  1  0  0  0
 74148  1  0  0  0
 75149  1  0  0  0
M  END
$$$$
