### 
### Created by X-TOOL on Mon Sep 10 21:13:20 2018
### 

@<TRIPOS>MOLECULE
4nxr_ligand
  146   147     1     0     0
SMALL
GAST_HUCK


@<TRIPOS>ATOM
      1 N          10.9340    0.5470  -26.2360 N.4       1 ASN         0.2396
      2 CA         10.0370    1.6960  -26.3830 C.3       1 ASN         0.0818
      3 C           8.7900    1.5700  -25.5290 C.2       1 ASN         0.2291
      4 O           7.7750    1.0400  -25.9740 O.2       1 ASN        -0.3905
      5 CB          9.6090    1.8800  -27.8390 C.3       1 ASN         0.0972
      6 CG         10.7540    2.2390  -28.7390 C.2       1 ASN         0.1813
      7 OD1        10.9430    1.6450  -29.8070 O.2       1 ASN        -0.3969
      8 ND2        11.5330    3.2210  -28.3200 N.am      1 ASN        -0.3006
      9 N           8.8640    2.0730  -24.3060 N.am      1 LYS        -0.2609
     10 CA          7.7340    2.0200  -23.3960 C.3       1 LYS         0.1311
     11 C           6.8680    3.2790  -23.5760 C.2       1 LYS         0.2040
     12 O           7.3870    4.3930  -23.5810 O.2       1 LYS        -0.3944
     13 CB          8.2510    1.8850  -21.9610 C.3       1 LYS        -0.0122
     14 CG          7.2390    1.4350  -20.9590 C.3       1 LYS        -0.0440
     15 CD          7.7840    1.5900  -19.5460 C.3       1 LYS        -0.0124
     16 CE          8.9850    0.7140  -19.2820 C.3       1 LYS        -0.0354
     17 NZ          9.4200    0.9870  -17.8770 N.4       1 LYS         0.2185
     18 N           5.5610    3.1380  -23.7560 N.am      1 ASP        -0.2622
     19 CA          4.7670    4.3610  -23.8580 C.3       1 ASP         0.1423
     20 C           3.8200    4.5980  -22.6810 C.2       1 ASP         0.2056
     21 O           3.2790    5.6850  -22.5460 O.2       1 ASP        -0.3943
     22 CB          3.9920    4.3970  -25.1710 C.3       1 ASP         0.0406
     23 CG          3.3750    3.0820  -25.5120 C.2       1 ASP         0.0393
     24 OD1         2.7390    2.4870  -24.6160 O.co2     1 ASP        -0.5688
     25 OD2         3.5390    2.6370  -26.6770 O.co2     1 ASP        -0.5688
     26 N           3.6480    3.6070  -21.8130 N.am      1 LYS        -0.2636
     27 CA          2.8860    3.8200  -20.5780 C.3       1 LYS         0.1310
     28 C           3.2220    2.7470  -19.5460 C.2       1 LYS         0.2039
     29 O           3.5360    1.6060  -19.8890 O.2       1 LYS        -0.3944
     30 CB          1.3640    3.8460  -20.8500 C.3       1 LYS        -0.0122
     31 CG          0.4970    4.0940  -19.6070 C.3       1 LYS        -0.0440
     32 CD         -0.9730    4.3110  -19.9630 C.3       1 LYS        -0.0124
     33 CE         -1.1980    5.7340  -20.4560 C.3       1 LYS        -0.0354
     34 NZ         -2.5770    5.9030  -21.0020 N.4       1 LYS         0.2185
     35 N           3.1500    3.1310  -18.2770 N.am      1 GLU        -0.2636
     36 CA          3.3510    2.2070  -17.1740 C.3       1 GLU         0.1325
     37 C           2.1270    2.3120  -16.2510 C.2       1 GLU         0.2041
     38 O           1.7860    3.4120  -15.8210 O.2       1 GLU        -0.3944
     39 CB          4.6460    2.5640  -16.4450 C.3       1 GLU        -0.0008
     40 CG          5.1190    1.6170  -15.3770 C.3       1 GLU         0.0044
     41 CD          5.7850    0.4000  -15.9480 C.2       1 GLU         0.0350
     42 OE1         6.9170    0.0880  -15.5620 O.co2     1 GLU        -0.5690
     43 OE2         5.1530   -0.2790  -16.7650 O.co2     1 GLU        -0.5690
     44 N           1.4400    1.2000  -15.9850 N.am      1 TYR        -0.2621
     45 CA          0.3120    1.2080  -15.0420 C.3       1 TYR         0.1390
     46 C           0.8200    0.6900  -13.7030 C.2       1 TYR         0.2058
     47 O           1.4030   -0.3760  -13.6550 O.2       1 TYR        -0.3942
     48 CB         -0.8500    0.3320  -15.5290 C.3       1 TYR         0.0163
     49 CG         -1.6160    0.8250  -16.7400 C.ar      1 TYR        -0.0493
     50 CD1        -1.2000    0.5010  -18.0240 C.ar      1 TYR        -0.0685
     51 CD2        -2.7650    1.5920  -16.6010 C.ar      1 TYR        -0.0685
     52 CE1        -1.8900    0.9390  -19.1360 C.ar      1 TYR        -0.0398
     53 CE2        -3.4790    2.0260  -17.7240 C.ar      1 TYR        -0.0398
     54 CZ         -3.0270    1.6890  -18.9830 C.ar      1 TYR         0.0805
     55 OH         -3.6900    2.1100  -20.1110 O.3       1 TYR        -0.3376
     56 N           0.6430    1.4300  -12.6170 N.am      1 TYR        -0.2620
     57 CA          1.1210    0.9340  -11.3280 C.3       1 TYR         0.1390
     58 C          -0.0700    0.4300  -10.5420 C.2       1 TYR         0.2052
     59 O          -0.9290    1.2200  -10.1420 O.2       1 TYR        -0.3943
     60 CB          1.8660    2.0230  -10.5490 C.3       1 TYR         0.0163
     61 CG          3.2070    2.4080  -11.1520 C.ar      1 TYR        -0.0493
     62 CD1         3.3000    3.4080  -12.1250 C.ar      1 TYR        -0.0685
     63 CD2         4.3800    1.7720  -10.7490 C.ar      1 TYR        -0.0685
     64 CE1         4.5350    3.7610  -12.6810 C.ar      1 TYR        -0.0398
     65 CE2         5.6240    2.1290  -11.2970 C.ar      1 TYR        -0.0398
     66 CZ          5.6910    3.1240  -12.2640 C.ar      1 TYR         0.0805
     67 OH          6.9160    3.4780  -12.8220 O.3       1 TYR        -0.3376
     68 N          -0.1460   -0.8820  -10.3280 N.am      1 VAL        -0.2691
     69 CA         -1.3610   -1.4540   -9.7560 C.3       1 VAL         0.0967
     70 C          -1.1130   -2.2670   -8.4800 C.2       1 VAL         0.0603
     71 O          -2.0890   -2.6750   -7.8420 O.co2     1 VAL        -0.5666
     72 CB         -2.0990   -2.3300  -10.7970 C.3       1 VAL        -0.0118
     73 CG1        -2.5440   -1.4760  -11.9800 C.3       1 VAL        -0.0590
     74 CG2        -1.2150   -3.4590  -11.2800 C.3       1 VAL        -0.0590
     75 OXT         0.0200   -2.5100   -8.0330 O.co2     1 VAL        -0.5666
     76 H1         11.7448    0.6768  -26.8207 H         1 ASN         0.2017
     77 H2         10.4514   -0.2936  -26.5126 H         1 ASN         0.2017
     78 H3         11.2230    0.4673  -25.2736 H         1 ASN         0.2017
     79 H4         10.5860    2.5939  -26.0631 H         1 ASN         0.1125
     80 H5          8.8592    2.6834  -27.8864 H         1 ASN         0.0585
     81 H6          9.1625    0.9402  -28.1958 H         1 ASN         0.0585
     82 H7         12.3145    3.5099  -28.8730 H         1 ASN         0.1814
     83 H8         11.3409    3.6751  -27.4500 H         1 ASN         0.1814
     84 H9          9.7167    2.4985  -24.0028 H         1 LYS         0.1885
     85 H10         7.1220    1.1374  -23.6335 H         1 LYS         0.0800
     86 H11         8.6313    2.8668  -21.6427 H         1 LYS         0.0312
     87 H12         9.0746    1.1559  -21.9634 H         1 LYS         0.0312
     88 H13         6.9960    0.3775  -21.1395 H         1 LYS         0.0269
     89 H14         6.3289    2.0436  -21.0649 H         1 LYS         0.0269
     90 H15         6.9908    1.3230  -18.8322 H         1 LYS         0.0317
     91 H16         8.0751    2.6400  -19.3949 H         1 LYS         0.0317
     92 H17         9.7952    0.9610  -19.9838 H         1 LYS         0.0813
     93 H18         8.7126   -0.3458  -19.3947 H         1 LYS         0.0813
     94 H19        10.2239    0.4197  -17.6580 H         1 LYS         0.1994
     95 H20         8.6686    0.7639  -17.2432 H         1 LYS         0.1994
     96 H21         9.6607    1.9613  -17.7831 H         1 LYS         0.1994
     97 H22         5.1376    2.2343  -23.8191 H         1 ASP         0.1884
     98 H23         5.4781    5.2001  -23.8693 H         1 ASP         0.0819
     99 H24         4.6818    4.6821  -25.9790 H         1 ASP         0.0478
    100 H25         3.1937    5.1492  -25.0879 H         1 ASP         0.0478
    101 H26         4.0417    2.7077  -22.0034 H         1 LYS         0.1883
    102 H27         3.1752    4.7974  -20.1645 H         1 LYS         0.0800
    103 H28         1.0758    2.8760  -21.2814 H         1 LYS         0.0312
    104 H29         1.1588    4.6459  -21.5766 H         1 LYS         0.0312
    105 H30         0.8712    4.9880  -19.0866 H         1 LYS         0.0269
    106 H31         0.5752    3.2222  -18.9408 H         1 LYS         0.0269
    107 H32        -1.5914    4.1352  -19.0704 H         1 LYS         0.0317
    108 H33        -1.2620    3.6038  -20.7544 H         1 LYS         0.0317
    109 H34        -0.4683    5.9593  -21.2477 H         1 LYS         0.0813
    110 H35        -1.0560    6.4313  -19.6172 H         1 LYS         0.0813
    111 H36        -2.6984    6.8517  -21.3204 H         1 LYS         0.1994
    112 H37        -3.2512    5.7020  -20.2801 H         1 LYS         0.1994
    113 H38        -2.7126    5.2695  -21.7743 H         1 LYS         0.1994
    114 H39         2.9505    4.0895  -18.0734 H         1 GLU         0.1883
    115 H40         3.4292    1.1793  -17.5583 H         1 GLU         0.0801
    116 H41         4.4999    3.5472  -15.9738 H         1 GLU         0.0330
    117 H42         5.4422    2.6342  -17.2007 H         1 GLU         0.0330
    118 H43         4.2530    1.2980  -14.7785 H         1 GLU         0.0433
    119 H44         5.8375    2.1429  -14.7311 H         1 GLU         0.0433
    120 H45         1.6970    0.3449  -16.4354 H         1 TYR         0.1885
    121 H46        -0.0501    2.2399  -14.9236 H         1 TYR         0.0821
    122 H47        -1.5654    0.2365  -14.6989 H         1 TYR         0.0453
    123 H48        -0.4397   -0.6584  -15.7753 H         1 TYR         0.0453
    124 H49        -0.3139   -0.1093  -18.1561 H         1 TYR         0.0530
    125 H50        -3.1137    1.8582  -15.6097 H         1 TYR         0.0530
    126 H51        -1.5333    0.6903  -20.1290 H         1 TYR         0.0525
    127 H52        -4.3776    2.6206  -17.6056 H         1 TYR         0.0525
    128 H53        -3.2390    1.7857  -20.8816 H         1 TYR         0.2458
    129 H54         0.1873    2.3180  -12.6793 H         1 TYR         0.1885
    130 H55         1.8140    0.0980  -11.5035 H         1 TYR         0.0821
    131 H56         2.0389    1.6590   -9.5255 H         1 TYR         0.0453
    132 H57         1.2311    2.9207  -10.5166 H         1 TYR         0.0453
    133 H58         2.4016    3.9177  -12.4538 H         1 TYR         0.0530
    134 H59         4.3320    0.9892  -10.0007 H         1 TYR         0.0530
    135 H60         4.5863    4.5342  -13.4391 H         1 TYR         0.0525
    136 H61         6.5276    1.6298  -10.9664 H         1 TYR         0.0525
    137 H62         6.7839    4.1684  -13.4611 H         1 TYR         0.2458
    138 H63         0.6267   -1.4735  -10.5584 H         1 VAL         0.1876
    139 H64        -2.0211   -0.6155   -9.4892 H         1 VAL         0.0729
    140 H65        -2.9901   -2.7634  -10.3195 H         1 VAL         0.0336
    141 H66        -3.0668   -2.1084  -12.7126 H         1 VAL         0.0234
    142 H67        -1.6631   -1.0179  -12.4535 H         1 VAL         0.0234
    143 H68        -3.2231   -0.6859  -11.6270 H         1 VAL         0.0234
    144 H69        -0.8985   -4.0698  -10.4216 H         1 VAL         0.0234
    145 H70        -0.3284   -3.0422  -11.7802 H         1 VAL         0.0234
    146 H71        -1.7754   -4.0858  -11.9892 H         1 VAL         0.0234
@<TRIPOS>BOND
     1    1    2 1  
     2    2    3 1  
     3    2    5 1  
     4    3    4 2  
     5    3    9 am 
     6    5    6 1  
     7    6    7 2  
     8    6    8 am 
     9    9   10 1  
    10   10   11 1  
    11   10   13 1  
    12   11   12 2  
    13   11   18 am 
    14   13   14 1  
    15   14   15 1  
    16   15   16 1  
    17   16   17 1  
    18   18   19 1  
    19   19   20 1  
    20   19   22 1  
    21   20   21 2  
    22   20   26 am 
    23   22   23 1  
    24   23   24 ar 
    25   23   25 ar 
    26   26   27 1  
    27   27   28 1  
    28   27   30 1  
    29   28   29 2  
    30   28   35 am 
    31   30   31 1  
    32   31   32 1  
    33   32   33 1  
    34   33   34 1  
    35   35   36 1  
    36   36   37 1  
    37   36   39 1  
    38   37   38 2  
    39   37   44 am 
    40   39   40 1  
    41   40   41 1  
    42   41   42 ar 
    43   41   43 ar 
    44   44   45 1  
    45   45   46 1  
    46   45   48 1  
    47   46   47 2  
    48   46   56 am 
    49   48   49 1  
    50   49   50 ar 
    51   49   51 ar 
    52   50   52 ar 
    53   51   53 ar 
    54   52   54 ar 
    55   53   54 ar 
    56   54   55 1  
    57   56   57 1  
    58   57   58 1  
    59   57   60 1  
    60   58   59 2  
    61   58   68 am 
    62   60   61 1  
    63   61   62 ar 
    64   61   63 ar 
    65   62   64 ar 
    66   63   65 ar 
    67   64   66 ar 
    68   65   66 ar 
    69   66   67 1  
    70   68   69 1  
    71   69   70 1  
    72   69   72 1  
    73   70   71 ar 
    74   70   75 ar 
    75   72   73 1  
    76   72   74 1  
    77    1   76 1  
    78    1   77 1  
    79    1   78 1  
    80    2   79 1  
    81    5   80 1  
    82    5   81 1  
    83    8   82 1  
    84    8   83 1  
    85    9   84 1  
    86   10   85 1  
    87   13   86 1  
    88   13   87 1  
    89   14   88 1  
    90   14   89 1  
    91   15   90 1  
    92   15   91 1  
    93   16   92 1  
    94   16   93 1  
    95   17   94 1  
    96   17   95 1  
    97   17   96 1  
    98   18   97 1  
    99   19   98 1  
   100   22   99 1  
   101   22  100 1  
   102   26  101 1  
   103   27  102 1  
   104   30  103 1  
   105   30  104 1  
   106   31  105 1  
   107   31  106 1  
   108   32  107 1  
   109   32  108 1  
   110   33  109 1  
   111   33  110 1  
   112   34  111 1  
   113   34  112 1  
   114   34  113 1  
   115   35  114 1  
   116   36  115 1  
   117   39  116 1  
   118   39  117 1  
   119   40  118 1  
   120   40  119 1  
   121   44  120 1  
   122   45  121 1  
   123   48  122 1  
   124   48  123 1  
   125   50  124 1  
   126   51  125 1  
   127   52  126 1  
   128   53  127 1  
   129   55  128 1  
   130   56  129 1  
   131   57  130 1  
   132   60  131 1  
   133   60  132 1  
   134   62  133 1  
   135   63  134 1  
   136   64  135 1  
   137   65  136 1  
   138   67  137 1  
   139   68  138 1  
   140   69  139 1  
   141   72  140 1  
   142   73  141 1  
   143   73  142 1  
   144   73  143 1  
   145   74  144 1  
   146   74  145 1  
   147   74  146 1  
@<TRIPOS>SUBSTRUCTURE
     1 ASN         1

