6afj_ligand
  -I-interpret- 

 36 37  0  0  0  0  0  0  0  0999 V2000
  -38.6160   13.7850  -10.1020 O   0  0  0  0  0
  -37.8960   13.6980  -11.0970 C   0  0  0  0  0
  -37.2140   12.5510  -11.5380 C   0  0  0  0  0
  -38.0320   11.3900  -11.5440 O   0  0  0  0  0
  -36.6200   12.9250  -12.7640 C   0  0  0  0  0
  -35.9130   12.2220  -13.7020 C   0  0  0  0  0
  -35.4030   12.8800  -14.8380 C   0  0  0  0  0
  -35.6430   14.2630  -14.9080 C   0  0  0  0  0
  -36.3530   14.9270  -13.9270 C   0  0  0  0  0
  -36.8150   14.2650  -12.8770 C   0  0  0  0  0
  -37.5520   14.7270  -11.8470 N   0  0  0  0  0
  -38.2710   15.9920  -11.6800 C   0  0  0  0  0
  -37.3260   17.1390  -11.4070 C   0  0  0  0  0
  -36.2040   16.9660  -10.9720 O   0  0  0  0  0
  -37.8340   18.3710  -11.7510 O   0  0  0  0  0
  -37.0850   19.4240  -11.1660 C   0  0  0  0  0
  -38.1270   20.4950  -10.9440 C   0  0  0  0  0
  -38.0040   20.9160   -9.4880 C   0  0  0  0  0
  -38.8460   19.9160   -8.6590 C   0  0  0  0  0
  -36.4290   12.2283  -10.8541 H   0  0  0  0  0
  -38.3768   11.2383  -10.6610 H   0  0  0  0  0
  -35.7448   11.1532  -13.5697 H   0  0  0  0  0
  -34.8551   12.3486  -15.6161 H   0  0  0  0  0
  -35.2588   14.8261  -15.7585 H   0  0  0  0  0
  -36.5335   15.9982  -14.0171 H   0  0  0  0  0
  -38.9468   15.8937  -10.8305 H   0  0  0  0  0
  -38.8120   16.2043  -12.6022 H   0  0  0  0  0
  -36.2611   19.7587  -11.7962 H   0  0  0  0  0
  -36.5815   19.1257  -10.2464 H   0  0  0  0  0
  -39.1271   20.1193  -11.1600 H   0  0  0  0  0
  -37.9669   21.3417  -11.6115 H   0  0  0  0  0
  -38.3649   21.9350   -9.3480 H   0  0  0  0  0
  -36.9621   20.9030   -9.1681 H   0  0  0  0  0
  -39.8845   19.9576   -8.9875 H   0  0  0  0  0
  -38.4577   18.9080   -8.8045 H   0  0  0  0  0
  -38.7866   20.1807   -7.6033 H   0  0  0  0  0
  1  2  2  0  0  0
  2  3  1  0  0  0
  2 11  1  0  0  0
  3  4  1  0  0  0
  3  5  1  0  0  0
  5  6  4  0  0  0
  5 10  4  0  0  0
  6  7  4  0  0  0
  7  8  4  0  0  0
  8  9  4  0  0  0
  9 10  4  0  0  0
 10 11  1  0  0  0
 11 12  1  0  0  0
 12 13  1  0  0  0
 13 14  2  0  0  0
 13 15  1  0  0  0
 15 16  1  0  0  0
 16 17  1  0  0  0
 17 18  1  0  0  0
 18 19  1  0  0  0
  3 20  1  0  0  0
  4 21  1  0  0  0
  6 22  1  0  0  0
  7 23  1  0  0  0
  8 24  1  0  0  0
  9 25  1  0  0  0
 12 26  1  0  0  0
 12 27  1  0  0  0
 16 28  1  0  0  0
 16 29  1  0  0  0
 17 30  1  0  0  0
 17 31  1  0  0  0
 18 32  1  0  0  0
 18 33  1  0  0  0
 19 34  1  0  0  0
 19 35  1  0  0  0
 19 36  1  0  0  0
M  END
$$$$
