4b0c_ligand
  -I-interpret- 

 23 23  0  0  0  0  0  0  0  0999 V2000
   20.1220  -14.2410   29.3770 C   0  0  0  0  0
   18.2440  -21.0500   24.7670 C   0  0  0  0  0
   21.4320  -14.9680   29.0570 C   0  0  0  0  0
   21.4680  -15.4430   27.5890 C   0  0  0  0  0
   21.9530  -16.8930   27.4560 C   0  0  0  0  0
   20.8260  -17.8790   27.1170 C   0  0  0  0  0
   17.5430  -19.9350   25.0240 N   0  0  0  0  0
   18.3000  -18.9900   25.2470 N   0  0  0  0  0
   19.5290  -20.7420   24.8520 N   0  0  0  0  0
   20.9980  -18.5020   25.3920 S   0  0  0  0  0
   19.5430  -19.4510   25.1560 C   0  0  0  0  0
   20.0233  -13.3705   28.7285 H   0  0  0  0  0
   19.2830  -14.9166   29.2106 H   0  0  0  0  0
   20.1310  -13.9204   30.4188 H   0  0  0  0  0
   17.8308  -22.0307   24.5312 H   0  0  0  0  0
   21.5110  -15.8407   29.7053 H   0  0  0  0  0
   22.2596  -14.2771   29.2178 H   0  0  0  0  0
   22.1624  -14.8034   27.0442 H   0  0  0  0  0
   20.4545  -15.3882   27.1915 H   0  0  0  0  0
   22.3739  -17.1900   28.4166 H   0  0  0  0  0
   22.6767  -16.9259   26.6416 H   0  0  0  0  0
   19.8694  -17.3650   27.2111 H   0  0  0  0  0
   20.8807  -18.7244   27.8029 H   0  0  0  0  0
  3  1  1  0  0  0
  2  7  4  0  0  0
  9  2  4  0  0  0
  4  3  1  0  0  0
  5  4  1  0  0  0
  6  5  1  0  0  0
 10  6  1  0  0  0
  8  7  4  0  0  0
 11  8  4  0  0  0
 11  9  4  0  0  0
 10 11  1  0  0  0
  1 12  1  0  0  0
  1 13  1  0  0  0
  1 14  1  0  0  0
  2 15  1  0  0  0
  3 16  1  0  0  0
  3 17  1  0  0  0
  4 18  1  0  0  0
  4 19  1  0  0  0
  5 20  1  0  0  0
  5 21  1  0  0  0
  6 22  1  0  0  0
  6 23  1  0  0  0
M  END
$$$$
