1j07_ligand
  -I-interpret- 

 80 83  0  0  0  0  0  0  0  0999 V2000
   39.1110   24.0780    4.9510 C   0  0  0  0  0
   38.8710   24.0030    3.4080 C   0  0  0  0  0
   39.0990   22.6660    2.6670 C   0  0  0  0  0
   40.5850   22.2530    2.7240 C   0  0  0  0  0
   41.3310   22.5260    1.4350 C   0  0  0  0  0
   42.6340   21.9620    1.3120 C   0  0  0  0  0
   43.3210   22.1700   -0.0310 C   0  0  0  0  0
   44.8520   22.3810    0.0780 C   0  0  0  0  0
   45.5940   21.6890   -1.0650 C   0  0  0  0  0
   46.8360   22.4100   -1.6650 C   0  0  0  0  0
   48.1670   21.7190   -1.4410 N   0  3  0  0  0
   49.2410   22.5990   -1.9150 C   0  0  0  0  0
   48.2580   20.4360   -2.1980 C   0  0  0  0  0
   48.4280   21.4380   -0.0070 C   0  0  0  0  0
   41.1840   27.2100    9.4870 C   0  0  0  0  0
   40.5310   26.6970    8.3210 C   0  0  0  0  0
   41.3240   26.6900    7.0560 C   0  0  0  0  0
   42.6540   27.2670    7.1170 C   0  0  0  0  0
   43.2470   27.7800    8.3040 C   0  0  0  0  0
   42.5070   27.7480    9.5050 C   0  0  0  0  0
   40.8850   25.8360    5.9780 C   0  0  0  0  0
   39.6310   25.1270    6.0400 N   0  0  0  0  0
   38.7860   25.3030    7.1850 C   0  0  0  0  0
   39.2080   26.1640    8.3120 C   0  0  0  0  0
   37.5680   24.5520    7.4130 C   0  0  0  0  0
   36.7870   24.5880    8.5990 C   0  0  0  0  0
   37.2100   25.4110    9.6390 C   0  0  0  0  0
   38.3960   26.1710    9.4660 C   0  0  0  0  0
   41.7560   25.7440    4.7550 C   0  0  0  0  0
   42.7740   24.7330    4.6830 C   0  0  0  0  0
   43.6430   24.6720    3.5560 C   0  0  0  0  0
   43.5050   25.6050    2.5000 C   0  0  0  0  0
   42.4920   26.6070    2.5640 C   0  0  0  0  0
   41.6180   26.6730    3.6940 C   0  0  0  0  0
   44.5400   28.3370    8.3040 N   0  0  0  0  0
   35.6220   23.8150    8.7690 N   0  0  0  0  0
   39.9721   23.4106    4.9856 H   0  0  0  0  0
   38.0628   24.0826    5.2499 H   0  0  0  0  0
   39.6054   24.6854    2.9801 H   0  0  0  0  0
   37.8084   24.2113    3.2827 H   0  0  0  0  0
   38.8085   22.7889    1.6236 H   0  0  0  0  0
   38.5008   21.8918    3.1475 H   0  0  0  0  0
   40.6221   21.1789    2.9055 H   0  0  0  0  0
   41.0603   22.8389    3.5107 H   0  0  0  0  0
   41.4684   23.6065    1.3929 H   0  0  0  0  0
   40.7341   22.0734    0.6432 H   0  0  0  0  0
   42.5166   20.8853    1.4346 H   0  0  0  0  0
   43.2562   22.4584    2.0566 H   0  0  0  0  0
   42.8990   23.0708   -0.4767 H   0  0  0  0  0
   43.1576   21.2697   -0.6233 H   0  0  0  0  0
   45.1937   21.9539    1.0208 H   0  0  0  0  0
   45.0582   23.4501    0.0270 H   0  0  0  0  0
   44.8742   21.6218   -1.8808 H   0  0  0  0  0
   45.9732   20.7577   -0.6442 H   0  0  0  0  0
   46.9022   23.3776   -1.1676 H   0  0  0  0  0
   46.6828   22.4440   -2.7436 H   0  0  0  0  0
   49.1021   22.7999   -2.9773 H   0  0  0  0  0
   49.2124   23.5366   -1.3598 H   0  0  0  0  0
   50.2036   22.1120   -1.7588 H   0  0  0  0  0
   47.4635   19.7654   -1.8707 H   0  0  0  0  0
   48.1501   20.6362   -3.2640 H   0  0  0  0  0
   49.2266   19.9727   -2.0102 H   0  0  0  0  0
   48.4381   22.3751    0.5496 H   0  0  0  0  0
   47.6432   20.7903    0.3837 H   0  0  0  0  0
   49.3937   20.9430    0.0950 H   0  0  0  0  0
   40.6329   27.1886   10.4272 H   0  0  0  0  0
   43.2350   27.3101    6.1958 H   0  0  0  0  0
   42.9380   28.1277   10.4314 H   0  0  0  0  0
   37.2220   23.9051    6.6068 H   0  0  0  0  0
   36.6419   25.4705   10.5673 H   0  0  0  0  0
   38.7047   26.8122   10.2916 H   0  0  0  0  0
   42.8817   24.0110    5.4925 H   0  0  0  0  0
   44.4161   23.9052    3.5064 H   0  0  0  0  0
   44.1721   25.5576    1.6393 H   0  0  0  0  0
   42.3838   27.3238    1.7500 H   0  0  0  0  0
   40.8442   27.4394    3.7392 H   0  0  0  0  0
   45.0767   28.3802    7.4377 H   0  0  0  0  0
   44.9401   28.6973    9.1703 H   0  0  0  0  0
   35.3071   23.1961    8.0219 H   0  0  0  0  0
   35.0932   23.8741    9.6392 H   0  0  0  0  0
  1  2  1  0  0  0
 22  1  1  0  0  0
  2  3  1  0  0  0
  3  4  1  0  0  0
  4  5  1  0  0  0
  5  6  1  0  0  0
  6  7  1  0  0  0
  7  8  1  0  0  0
  8  9  1  0  0  0
  9 10  1  0  0  0
 10 11  1  0  0  0
 11 12  1  0  0  0
 11 13  1  0  0  0
 11 14  1  0  0  0
 16 15  4  0  0  0
 15 20  4  0  0  0
 17 16  4  0  0  0
 16 24  4  0  0  0
 17 18  4  0  0  0
 21 17  4  0  0  0
 18 19  4  0  0  0
 19 20  4  0  0  0
 19 35  1  0  0  0
 22 21  4  0  0  0
 21 29  1  0  0  0
 22 23  4  0  0  0
 23 24  4  0  0  0
 23 25  4  0  0  0
 24 28  4  0  0  0
 25 26  4  0  0  0
 26 27  4  0  0  0
 26 36  1  0  0  0
 27 28  4  0  0  0
 29 30  4  0  0  0
 29 34  4  0  0  0
 30 31  4  0  0  0
 31 32  4  0  0  0
 32 33  4  0  0  0
 33 34  4  0  0  0
  1 37  1  0  0  0
  1 38  1  0  0  0
  2 39  1  0  0  0
  2 40  1  0  0  0
  3 41  1  0  0  0
  3 42  1  0  0  0
  4 43  1  0  0  0
  4 44  1  0  0  0
  5 45  1  0  0  0
  5 46  1  0  0  0
  6 47  1  0  0  0
  6 48  1  0  0  0
  7 49  1  0  0  0
  7 50  1  0  0  0
  8 51  1  0  0  0
  8 52  1  0  0  0
  9 53  1  0  0  0
  9 54  1  0  0  0
 10 55  1  0  0  0
 10 56  1  0  0  0
 12 57  1  0  0  0
 12 58  1  0  0  0
 12 59  1  0  0  0
 13 60  1  0  0  0
 13 61  1  0  0  0
 13 62  1  0  0  0
 14 63  1  0  0  0
 14 64  1  0  0  0
 14 65  1  0  0  0
 15 66  1  0  0  0
 18 67  1  0  0  0
 20 68  1  0  0  0
 25 69  1  0  0  0
 27 70  1  0  0  0
 28 71  1  0  0  0
 30 72  1  0  0  0
 31 73  1  0  0  0
 32 74  1  0  0  0
 33 75  1  0  0  0
 34 76  1  0  0  0
 35 77  1  0  0  0
 35 78  1  0  0  0
 36 79  1  0  0  0
 36 80  1  0  0  0
M  END
$$$$
