5vew_ligand
  -I-interpret- 

 65 68  0  0  0  0  0  0  0  0999 V2000
   22.0530   32.3510   30.4030 C   0  0  0  0  0
   22.8030   32.6810   32.7920 C   0  0  0  0  0
   21.0420   32.9710   29.4010 C   0  0  0  0  0
   22.1450   29.9500   29.3900 C   0  0  0  0  0
   22.2790   23.6820   24.9200 C   0  0  0  0  0
   22.1730   25.7830   26.4490 C   0  0  0  0  0
   22.9830   29.3340   27.2400 C   0  0  0  0  0
   19.6650   32.8230   29.5950 C   0  0  0  0  0
   22.8440   30.3090   28.2320 C   0  0  0  0  0
   22.2220   23.5350   23.5590 F   0  0  0  0  0
   23.2940   22.9040   25.3940 F   0  0  0  0  0
   21.1020   23.2960   25.5090 F   0  0  0  0  0
   18.6300   35.4830   25.7590 O   0  0  0  0  0
   13.1990   34.2410   26.7400 O   0  0  0  0  0
   12.8210   34.0950   24.5940 O   0  0  0  0  0
   22.6190   27.0260   26.3800 N   0  0  0  0  0
   21.9140   30.8820   30.4900 N   0  0  0  0  0
   23.2180   26.0270   24.5580 N   0  0  0  0  0
   21.8360   27.7440   28.5520 N   0  0  0  0  0
   16.8020   34.7940   26.9710 N   0  0  0  0  0
   21.7560   32.9210   31.7380 C   0  0  0  0  0
   22.6880   34.1390   33.1910 C   0  0  0  0  0
   22.0270   34.4040   31.8630 C   0  0  0  0  0
   22.5590   25.1400   25.2830 C   0  0  0  0  0
   22.4540   28.0500   27.4140 C   0  0  0  0  0
   23.2580   27.1650   25.2260 C   0  0  0  0  0
   21.5140   33.7690   28.3570 C   0  0  0  0  0
   21.6690   28.6450   29.5130 C   0  0  0  0  0
   21.7580   34.4020   34.3870 C   0  0  0  0  0
   24.0510   34.8130   33.3200 C   0  0  0  0  0
   19.2320   34.1980   27.6580 C   0  0  0  0  0
   20.6110   34.3750   27.4830 C   0  0  0  0  0
   18.7630   33.4300   28.7260 C   0  0  0  0  0
   18.2330   34.8770   26.7050 C   0  0  0  0  0
   15.8290   35.4410   26.1070 C   0  0  0  0  0
   15.1190   34.4120   25.2400 C   0  0  0  0  0
   13.6270   34.2470   25.5500 C   0  0  0  0  0
   23.0651   32.5755   30.0664 H   0  0  0  0  0
   23.7691   32.2501   32.5293 H   0  0  0  0  0
   22.6779   31.8898   33.5312 H   0  0  0  0  0
   21.6066   25.3449   27.2708 H   0  0  0  0  0
   23.5109   29.5772   26.3179 H   0  0  0  0  0
   19.2961   32.2291   30.4312 H   0  0  0  0  0
   23.2628   31.3077   28.1087 H   0  0  0  0  0
   13.9343   34.3679   27.3440 H   0  0  0  0  0
   21.6349   30.4886   31.3887 H   0  0  0  0  0
   16.4760   34.2694   27.7827 H   0  0  0  0  0
   20.7511   32.5134   31.8483 H   0  0  0  0  0
   21.2155   35.1269   31.7798 H   0  0  0  0  0
   22.5557   34.9414   31.0757 H   0  0  0  0  0
   23.7421   28.0790   24.8819 H   0  0  0  0  0
   22.5857   33.9182   28.2251 H   0  0  0  0  0
   21.1449   28.3563   30.4241 H   0  0  0  0  0
   21.4404   35.4447   34.3763 H   0  0  0  0  0
   20.8844   33.7540   34.3157 H   0  0  0  0  0
   22.2922   34.1931   35.3138 H   0  0  0  0  0
   24.7138   34.4420   32.5383 H   0  0  0  0  0
   23.9328   35.8916   33.2163 H   0  0  0  0  0
   24.4765   34.5852   34.2973 H   0  0  0  0  0
   20.9796   34.9885   26.6609 H   0  0  0  0  0
   17.6909   33.3060   28.8790 H   0  0  0  0  0
   16.3455   36.1518   25.4619 H   0  0  0  0  0
   15.0914   35.9527   26.7252 H   0  0  0  0  0
   15.5943   33.4497   25.4303 H   0  0  0  0  0
   15.1960   34.7544   24.2080 H   0  0  0  0  0
  3  1  1  0  0  0
  1 17  1  0  0  0
  1 21  1  0  0  0
 21  2  1  0  0  0
  2 22  1  0  0  0
  8  3  4  0  0  0
 27  3  4  0  0  0
  4  9  4  0  0  0
 17  4  1  0  0  0
  4 28  4  0  0  0
  5 10  1  0  0  0
  5 11  1  0  0  0
  5 12  1  0  0  0
 24  5  1  0  0  0
 16  6  4  0  0  0
  6 24  4  0  0  0
  9  7  4  0  0  0
  7 25  4  0  0  0
 33  8  4  0  0  0
 34 13  2  0  0  0
 37 14  1  0  0  0
 37 15  2  0  0  0
 25 16  1  0  0  0
 16 26  4  0  0  0
 18 24  4  0  0  0
 26 18  4  0  0  0
 19 25  4  0  0  0
 28 19  4  0  0  0
 20 34  1  0  0  0
 35 20  1  0  0  0
 21 23  1  0  0  0
 23 22  1  0  0  0
 22 29  1  0  0  0
 22 30  1  0  0  0
 32 27  4  0  0  0
 31 32  4  0  0  0
 31 33  4  0  0  0
 34 31  1  0  0  0
 36 35  1  0  0  0
 36 37  1  0  0  0
  1 38  1  0  0  0
  2 39  1  0  0  0
  2 40  1  0  0  0
  6 41  1  0  0  0
  7 42  1  0  0  0
  8 43  1  0  0  0
  9 44  1  0  0  0
 14 45  1  0  0  0
 17 46  1  0  0  0
 20 47  1  0  0  0
 21 48  1  0  0  0
 23 49  1  0  0  0
 23 50  1  0  0  0
 26 51  1  0  0  0
 27 52  1  0  0  0
 28 53  1  0  0  0
 29 54  1  0  0  0
 29 55  1  0  0  0
 29 56  1  0  0  0
 30 57  1  0  0  0
 30 58  1  0  0  0
 30 59  1  0  0  0
 32 60  1  0  0  0
 33 61  1  0  0  0
 35 62  1  0  0  0
 35 63  1  0  0  0
 36 64  1  0  0  0
 36 65  1  0  0  0
M  END
$$$$
