### 
### Created by X-TOOL on Mon Aug  2 16:14:28 2021
### 

@<TRIPOS>MOLECULE
6jax_ligand
  187   194     1     0     0
SMALL
GAST_HUCK


@<TRIPOS>ATOM
      1 C1         -1.9790    3.7170   -6.0150 C.3       1 GCS         0.2058
      2 C2         -1.6750    2.3190   -6.5390 C.3       1 GCS         0.0567
      3 C3         -0.3070    2.2020   -7.1030 C.3       1 GCS         0.1304
      4 C4         -0.0390    3.2400   -8.1560 C.3       1 GCS         0.1147
      5 C5         -0.3720    4.6660   -7.6970 C.3       1 GCS         0.1132
      6 C6         -0.4420    5.5550   -8.9030 C.3       1 GCS         0.0730
      7 N2         -1.8240    1.3430   -5.4130 N.4       1 GCS         0.2263
      8 O3         -0.1610    0.8770   -7.6930 O.3       1 GCS        -0.3834
      9 O4          1.3470    3.1920   -8.5080 O.3       1 GCS        -0.3864
     10 O5         -1.6720    4.7920   -7.0180 O.3       1 GCS        -0.3381
     11 O6         -1.7350    6.1000   -8.9820 O.3       1 GCS        -0.3924
     12 C1         -5.8400    6.4650   -3.6220 C.3       1 GCS         0.2058
     13 C2         -5.5860    6.6500   -5.1220 C.3       1 GCS         0.0568
     14 C3         -4.5060    5.8370   -5.7720 C.3       1 GCS         0.1308
     15 C4         -3.6590    4.9540   -4.8920 C.3       1 GCS         0.1214
     16 C5         -4.3830    4.5740   -3.6020 C.3       1 GCS         0.1136
     17 C6         -3.5280    3.7130   -2.7220 C.3       1 GCS         0.0730
     18 N2         -6.8730    6.3210   -5.8220 N.4       1 GCS         0.2263
     19 O3         -3.6330    6.7490   -6.5040 O.3       1 GCS        -0.3834
     20 O4         -3.3600    3.7510   -5.6080 O.3       1 GCS        -0.3376
     21 O5         -4.7100    5.8080   -2.8940 O.3       1 GCS        -0.3381
     22 O6         -2.5660    4.5060   -2.0780 O.3       1 GCS        -0.3924
     23 C1         -8.2470    8.9050    0.3120 C.3       1 GCS         0.2058
     24 C2         -7.0810    7.9560    0.5610 C.3       1 GCS         0.0568
     25 C3         -6.2040    7.8500   -0.6410 C.3       1 GCS         0.1308
     26 C4         -6.9630    7.5250   -1.8970 C.3       1 GCS         0.1214
     27 C5         -8.1740    8.4380   -2.0760 C.3       1 GCS         0.1136
     28 C6         -9.0500    7.9480   -3.1820 C.3       1 GCS         0.0730
     29 N2         -6.2710    8.4170    1.7390 N.4       1 GCS         0.2263
     30 O3         -5.2190    6.8060   -0.4060 O.3       1 GCS        -0.3834
     31 O4         -6.1150    7.7470   -3.0260 O.3       1 GCS        -0.3376
     32 O5         -9.0090    8.4530   -0.8770 O.3       1 GCS        -0.3381
     33 O6        -10.2280    8.7110   -3.1510 O.3       1 GCS        -0.3924
     34 C1        -12.1180   11.2270    3.1030 C.3       1 GCS         0.2058
     35 C2        -12.4510   10.5860    1.7660 C.3       1 GCS         0.0568
     36 C3        -11.4210    9.5620    1.4160 C.3       1 GCS         0.1308
     37 C4        -10.0080   10.0770    1.4330 C.3       1 GCS         0.1214
     38 C5         -9.7250   10.8230    2.7370 C.3       1 GCS         0.1136
     39 C6         -8.4050   11.5340    2.6710 C.3       1 GCS         0.0730
     40 N2        -13.7720    9.8950    1.8930 N.4       1 GCS         0.2263
     41 O3        -11.7160    8.9950    0.1070 O.3       1 GCS        -0.3834
     42 O4         -9.0960    8.9780    1.4630 O.3       1 GCS        -0.3376
     43 O5        -10.7530   11.8190    3.0600 O.3       1 GCS        -0.3381
     44 O6         -8.2800   12.3040    3.8410 O.3       1 GCS        -0.3924
     45 C1        -13.7600   14.2170    7.1160 C.3       1 GCS         0.2058
     46 C2        -12.3080   14.0170    6.7150 C.3       1 GCS         0.0568
     47 C3        -12.1770   13.6460    5.2780 C.3       1 GCS         0.1308
     48 C4        -13.0230   12.4580    4.8910 C.3       1 GCS         0.1214
     49 C5        -14.4730   12.7430    5.2910 C.3       1 GCS         0.1136
     50 C6        -15.3610   11.5690    5.0360 C.3       1 GCS         0.0730
     51 N2        -11.5550   15.2830    6.9910 N.4       1 GCS         0.2263
     52 O3        -10.7630   13.4240    5.0180 O.3       1 GCS        -0.3834
     53 O4        -13.0470   12.2540    3.4700 O.3       1 GCS        -0.3376
     54 O5        -14.5710   13.0370    6.7160 O.3       1 GCS        -0.3381
     55 O6        -16.5910   11.8130    5.6750 O.3       1 GCS        -0.3924
     56 C1        -16.6820   15.3840   11.3650 C.3       1 GCS         0.2058
     57 C2        -17.2030   14.7110   10.1090 C.3       1 GCS         0.0568
     58 C3        -16.0860   14.0960    9.3290 C.3       1 GCS         0.1308
     59 C4        -15.0370   15.1010    8.9360 C.3       1 GCS         0.1214
     60 C5        -14.6020   15.9680   10.1230 C.3       1 GCS         0.1136
     61 C6        -13.9080   17.1910    9.6070 C.3       1 GCS         0.0730
     62 N2        -18.2260   13.6820   10.4840 N.4       1 GCS         0.2263
     63 O3        -16.6850   13.5300    8.1260 O.3       1 GCS        -0.3834
     64 O4        -13.8240   14.4630    8.5260 O.3       1 GCS        -0.3376
     65 O5        -15.7040   16.4380   10.9720 O.3       1 GCS        -0.3381
     66 O6        -13.1990   17.7400   10.6780 O.3       1 GCS        -0.3924
     67 C1        -18.1900   17.3030   16.1640 C.3       1 GCS         0.2058
     68 C2        -17.0580   17.7800   15.2580 C.3       1 GCS         0.0568
     69 C3        -17.3970   17.5540   13.8340 C.3       1 GCS         0.1308
     70 C4        -17.4580   16.0900   13.5470 C.3       1 GCS         0.1214
     71 C5        -18.5460   15.4970   14.4540 C.3       1 GCS         0.1136
     72 C6        -18.6130   14.0080   14.2700 C.3       1 GCS         0.0730
     73 N2        -16.7160   19.2250   15.4190 N.4       1 GCS         0.2263
     74 O3        -16.4040   18.1960   12.9840 O.3       1 GCS        -0.3834
     75 O4        -17.7720   15.9100   12.1480 O.3       1 GCS        -0.3376
     76 O5        -18.3640   15.8100   15.8940 O.3       1 GCS        -0.3381
     77 O6        -17.4210   13.4360   14.7350 O.3       1 GCS        -0.3924
     78 C1        -18.8440   20.2870   20.6850 C.3       1 GCS         0.2030
     79 C2        -19.6420   19.0030   20.6360 C.3       1 GCS         0.0566
     80 C3        -19.1800   18.0470   19.5780 C.3       1 GCS         0.1308
     81 C4        -18.8660   18.6090   18.2010 C.3       1 GCS         0.1214
     82 C5        -18.2560   20.0320   18.2990 C.3       1 GCS         0.1136
     83 C6        -18.5220   20.8930   17.1110 C.3       1 GCS         0.0730
     84 N2        -19.5360   18.3950   22.0040 N.4       1 GCS         0.2263
     85 O1        -19.4450   21.1430   21.5590 O.3       1 GCS        -0.3627
     86 O3        -20.2310   17.0550   19.4410 O.3       1 GCS        -0.3834
     87 O4        -17.9470   17.6750   17.5560 O.3       1 GCS        -0.3376
     88 O5        -18.8310   20.9100   19.3320 O.3       1 GCS        -0.3383
     89 O6        -18.2430   22.2090   17.5370 O.3       1 GCS        -0.3924
     90 H1         -1.3501    3.8981   -5.1309 H         1 GCS         0.0970
     91 H2         -2.4002    2.0759   -7.3295 H         1 GCS         0.0927
     92 H3          0.4245    2.3246   -6.2907 H         1 GCS         0.0679
     93 H4         -0.6497    3.0053   -9.0403 H         1 GCS         0.0648
     94 H5          0.4223    5.0098   -7.0181 H         1 GCS         0.0647
     95 H6         -0.2310    4.9681   -9.8091 H         1 GCS         0.0584
     96 H7          0.2967    6.3648   -8.8102 H         1 GCS         0.0584
     97 H8         -2.7513    1.4169   -5.0248 H         1 GCS         0.2000
     98 H9         -1.1433    1.5480   -4.6983 H         1 GCS         0.2000
     99 H10        -1.6777    0.4072   -5.7579 H         1 GCS         0.2000
    100 H11         0.7230    0.7753   -8.0256 H         1 GCS         0.2102
    101 H12         1.5695    2.3141   -8.7949 H         1 GCS         0.2100
    102 H13        -1.9136    6.6039   -8.1967 H         1 GCS         0.2095
    103 H14        -6.7283    5.8263   -3.5080 H         1 GCS         0.0970
    104 H15        -5.3380    7.7094   -5.2838 H         1 GCS         0.0927
    105 H16        -5.0027    5.1734   -6.4951 H         1 GCS         0.0679
    106 H17        -2.7269    5.4818   -4.6418 H         1 GCS         0.0652
    107 H18        -5.3064    4.0298   -3.8493 H         1 GCS         0.0647
    108 H19        -3.0237    2.9509   -3.3342 H         1 GCS         0.0584
    109 H20        -4.1592    3.2192   -1.9685 H         1 GCS         0.0584
    110 H21        -7.6247    6.8513   -5.4099 H         1 GCS         0.2000
    111 H22        -7.0651    5.3361   -5.7267 H         1 GCS         0.2000
    112 H23        -6.7933    6.5548   -6.7993 H         1 GCS         0.2000
    113 H24        -3.0286    6.2469   -7.0378 H         1 GCS         0.2102
    114 H25        -3.0020    5.1638   -1.5491 H         1 GCS         0.2095
    115 H26        -7.8464    9.9097    0.1118 H         1 GCS         0.0970
    116 H27        -7.4886    6.9589    0.7838 H         1 GCS         0.0927
    117 H28        -5.6894    8.8117   -0.7837 H         1 GCS         0.0679
    118 H29        -7.2890    6.4750   -1.8641 H         1 GCS         0.0652
    119 H30        -7.8225    9.4562   -2.2990 H         1 GCS         0.0647
    120 H31        -9.2865    6.8843   -3.0317 H         1 GCS         0.0584
    121 H32        -8.5429    8.0778   -4.1495 H         1 GCS         0.0584
    122 H33        -6.8665    8.4875    2.5493 H         1 GCS         0.2000
    123 H34        -5.8690    9.3192    1.5380 H         1 GCS         0.2000
    124 H35        -5.5341    7.7536    1.9204 H         1 GCS         0.2000
    125 H36        -4.6208    6.7648   -1.1430 H         1 GCS         0.2102
    126 H37       -10.0135    9.6279   -3.2763 H         1 GCS         0.2095
    127 H38       -12.1435   10.4431    3.8742 H         1 GCS         0.0970
    128 H39       -12.4964   11.3560    0.9818 H         1 GCS         0.0927
    129 H40       -11.4883    8.7586    2.1643 H         1 GCS         0.0679
    130 H41        -9.8309   10.7215    0.5593 H         1 GCS         0.0652
    131 H42        -9.6902   10.0819    3.5491 H         1 GCS         0.0647
    132 H43        -8.3742   12.1873    1.7866 H         1 GCS         0.0584
    133 H44        -7.5864   10.8015    2.6145 H         1 GCS         0.0584
    134 H45       -14.4827   10.5696    2.1294 H         1 GCS         0.2000
    135 H46       -13.7175    9.1965    2.6177 H         1 GCS         0.2000
    136 H47       -14.0058    9.4535    1.0175 H         1 GCS         0.2000
    137 H48       -11.6152    9.6663   -0.5577 H         1 GCS         0.2102
    138 H49        -8.9929   12.9303    3.8842 H         1 GCS         0.2095
    139 H50       -14.1549   15.0991    6.5907 H         1 GCS         0.0970
    140 H51       -11.8821   13.2059    7.3239 H         1 GCS         0.0927
    141 H52       -12.5132   14.4986    4.6697 H         1 GCS         0.0679
    142 H53       -12.6466   11.5567    5.3969 H         1 GCS         0.0652
    143 H54       -14.8327   13.6057    4.7110 H         1 GCS         0.0647
    144 H55       -14.9017   10.6567    5.4444 H         1 GCS         0.0584
    145 H56       -15.5190   11.4473    3.9542 H         1 GCS         0.0584
    146 H57       -11.6500   15.5249    7.9649 H         1 GCS         0.2000
    147 H58       -11.9282   16.0268    6.4222 H         1 GCS         0.2000
    148 H59       -10.5803   15.1489    6.7717 H         1 GCS         0.2000
    149 H60       -10.6346   13.2597    4.0912 H         1 GCS         0.2102
    150 H61       -16.4461   11.9209    6.6076 H         1 GCS         0.2095
    151 H62       -16.1567   14.6344   11.9750 H         1 GCS         0.0970
    152 H63       -17.6860   15.4718    9.4782 H         1 GCS         0.0927
    153 H64       -15.6141   13.3023    9.9268 H         1 GCS         0.0679
    154 H65       -15.4339   15.7304    8.1259 H         1 GCS         0.0652
    155 H66       -13.9082   15.3796   10.7414 H         1 GCS         0.0647
    156 H67       -14.6466   17.9148    9.2322 H         1 GCS         0.0584
    157 H68       -13.2166   16.9192    8.7958 H         1 GCS         0.0584
    158 H69       -18.9671   14.1204   11.0080 H         1 GCS         0.2000
    159 H70       -17.7929   12.9676   11.0480 H         1 GCS         0.2000
    160 H71       -18.6061   13.2659    9.6483 H         1 GCS         0.2000
    161 H72       -16.0119   13.1027    7.6094 H         1 GCS         0.2102
    162 H73       -12.7436   18.5215   10.3875 H         1 GCS         0.2095
    163 H74       -19.1189   17.8072   15.8591 H         1 GCS         0.0970
    164 H75       -16.1645   17.1886   15.5067 H         1 GCS         0.0927
    165 H76       -18.3823   17.9972   13.6272 H         1 GCS         0.0679
    166 H77       -16.4907   15.6157   13.7690 H         1 GCS         0.0652
    167 H78       -19.5081   15.9279   14.1400 H         1 GCS         0.0647
    168 H79       -18.7426   13.7738   13.2031 H         1 GCS         0.0584
    169 H80       -19.4626   13.6039   14.8399 H         1 GCS         0.0584
    170 H81       -16.4801   19.4092   16.3815 H         1 GCS         0.2000
    171 H82       -17.5078   19.7893   15.1532 H         1 GCS         0.2000
    172 H83       -15.9293   19.4516   14.8310 H         1 GCS         0.2000
    173 H84       -16.6388   18.0681   12.0724 H         1 GCS         0.2102
    174 H85       -17.3111   13.6406   15.6561 H         1 GCS         0.2095
    175 H86       -17.8146   20.0770   21.0108 H         1 GCS         0.0968
    176 H87       -20.6941   19.2485   20.4293 H         1 GCS         0.0927
    177 H88       -18.2640   17.5620   19.9464 H         1 GCS         0.0679
    178 H89       -19.7937   18.6687   17.6129 H         1 GCS         0.0652
    179 H90       -17.1741   19.9134   18.4584 H         1 GCS         0.0647
    180 H91       -19.5726   20.8038   16.7976 H         1 GCS         0.0584
    181 H92       -17.8648   20.6108   16.2753 H         1 GCS         0.0584
    182 H93       -19.8528   19.0596   22.6925 H         1 GCS         0.2000
    183 H94       -18.5758   18.1508   22.1897 H         1 GCS         0.2000
    184 H95       -20.1082   17.5663   22.0487 H         1 GCS         0.2000
    185 H96       -20.3354   21.3116   21.2738 H         1 GCS         0.2127
    186 H97       -21.0052   17.4643   19.0727 H         1 GCS         0.2102
    187 H98       -18.8114   22.4323   18.2647 H         1 GCS         0.2095
@<TRIPOS>BOND
     1    1    2 1  
     2    1   10 1  
     3   20    1 1  
     4    2    3 1  
     5    2    7 1  
     6    3    4 1  
     7    3    8 1  
     8    5    4 1  
     9    4    9 1  
    10    5    6 1  
    11   10    5 1  
    12    6   11 1  
    13   12   13 1  
    14   12   21 1  
    15   31   12 1  
    16   13   14 1  
    17   13   18 1  
    18   14   15 1  
    19   14   19 1  
    20   16   15 1  
    21   15   20 1  
    22   16   17 1  
    23   21   16 1  
    24   17   22 1  
    25   23   24 1  
    26   23   32 1  
    27   42   23 1  
    28   24   25 1  
    29   24   29 1  
    30   25   26 1  
    31   25   30 1  
    32   27   26 1  
    33   26   31 1  
    34   27   28 1  
    35   32   27 1  
    36   28   33 1  
    37   34   35 1  
    38   34   43 1  
    39   53   34 1  
    40   35   36 1  
    41   35   40 1  
    42   36   37 1  
    43   36   41 1  
    44   38   37 1  
    45   37   42 1  
    46   38   39 1  
    47   43   38 1  
    48   39   44 1  
    49   45   46 1  
    50   45   54 1  
    51   64   45 1  
    52   46   47 1  
    53   46   51 1  
    54   47   48 1  
    55   47   52 1  
    56   49   48 1  
    57   48   53 1  
    58   49   50 1  
    59   54   49 1  
    60   50   55 1  
    61   56   57 1  
    62   56   65 1  
    63   75   56 1  
    64   57   58 1  
    65   57   62 1  
    66   58   59 1  
    67   58   63 1  
    68   60   59 1  
    69   59   64 1  
    70   60   61 1  
    71   65   60 1  
    72   61   66 1  
    73   67   68 1  
    74   67   76 1  
    75   87   67 1  
    76   68   69 1  
    77   68   73 1  
    78   69   70 1  
    79   69   74 1  
    80   71   70 1  
    81   70   75 1  
    82   71   72 1  
    83   76   71 1  
    84   72   77 1  
    85   79   78 1  
    86   78   85 1  
    87   78   88 1  
    88   80   79 1  
    89   79   84 1  
    90   81   80 1  
    91   80   86 1  
    92   81   82 1  
    93   81   87 1  
    94   82   83 1  
    95   82   88 1  
    96   83   89 1  
    97    1   90 1  
    98    2   91 1  
    99    3   92 1  
   100    4   93 1  
   101    5   94 1  
   102    6   95 1  
   103    6   96 1  
   104    7   97 1  
   105    7   98 1  
   106    7   99 1  
   107    8  100 1  
   108    9  101 1  
   109   11  102 1  
   110   12  103 1  
   111   13  104 1  
   112   14  105 1  
   113   15  106 1  
   114   16  107 1  
   115   17  108 1  
   116   17  109 1  
   117   18  110 1  
   118   18  111 1  
   119   18  112 1  
   120   19  113 1  
   121   22  114 1  
   122   23  115 1  
   123   24  116 1  
   124   25  117 1  
   125   26  118 1  
   126   27  119 1  
   127   28  120 1  
   128   28  121 1  
   129   29  122 1  
   130   29  123 1  
   131   29  124 1  
   132   30  125 1  
   133   33  126 1  
   134   34  127 1  
   135   35  128 1  
   136   36  129 1  
   137   37  130 1  
   138   38  131 1  
   139   39  132 1  
   140   39  133 1  
   141   40  134 1  
   142   40  135 1  
   143   40  136 1  
   144   41  137 1  
   145   44  138 1  
   146   45  139 1  
   147   46  140 1  
   148   47  141 1  
   149   48  142 1  
   150   49  143 1  
   151   50  144 1  
   152   50  145 1  
   153   51  146 1  
   154   51  147 1  
   155   51  148 1  
   156   52  149 1  
   157   55  150 1  
   158   56  151 1  
   159   57  152 1  
   160   58  153 1  
   161   59  154 1  
   162   60  155 1  
   163   61  156 1  
   164   61  157 1  
   165   62  158 1  
   166   62  159 1  
   167   62  160 1  
   168   63  161 1  
   169   66  162 1  
   170   67  163 1  
   171   68  164 1  
   172   69  165 1  
   173   70  166 1  
   174   71  167 1  
   175   72  168 1  
   176   72  169 1  
   177   73  170 1  
   178   73  171 1  
   179   73  172 1  
   180   74  173 1  
   181   77  174 1  
   182   78  175 1  
   183   79  176 1  
   184   80  177 1  
   185   81  178 1  
   186   82  179 1  
   187   83  180 1  
   188   83  181 1  
   189   84  182 1  
   190   84  183 1  
   191   84  184 1  
   192   85  185 1  
   193   86  186 1  
   194   89  187 1  
@<TRIPOS>SUBSTRUCTURE
     1 GCS         1

