6jax_ligand
  -I-interpret- 

187194  0  0  0  0  0  0  0  0999 V2000
   -1.9790    3.7170   -6.0150 C   0  0  0  0  0
   -1.6750    2.3190   -6.5390 C   0  0  0  0  0
   -0.3070    2.2020   -7.1030 C   0  0  0  0  0
   -0.0390    3.2400   -8.1560 C   0  0  0  0  0
   -0.3720    4.6660   -7.6970 C   0  0  0  0  0
   -0.4420    5.5550   -8.9030 C   0  0  0  0  0
   -1.8240    1.3430   -5.4130 N   0  3  0  0  0
   -0.1610    0.8770   -7.6930 O   0  0  0  0  0
    1.3470    3.1920   -8.5080 O   0  0  0  0  0
   -1.6720    4.7920   -7.0180 O   0  0  0  0  0
   -1.7350    6.1000   -8.9820 O   0  0  0  0  0
   -5.8400    6.4650   -3.6220 C   0  0  0  0  0
   -5.5860    6.6500   -5.1220 C   0  0  0  0  0
   -4.5060    5.8370   -5.7720 C   0  0  0  0  0
   -3.6590    4.9540   -4.8920 C   0  0  0  0  0
   -4.3830    4.5740   -3.6020 C   0  0  0  0  0
   -3.5280    3.7130   -2.7220 C   0  0  0  0  0
   -6.8730    6.3210   -5.8220 N   0  3  0  0  0
   -3.6330    6.7490   -6.5040 O   0  0  0  0  0
   -3.3600    3.7510   -5.6080 O   0  0  0  0  0
   -4.7100    5.8080   -2.8940 O   0  0  0  0  0
   -2.5660    4.5060   -2.0780 O   0  0  0  0  0
   -8.2470    8.9050    0.3120 C   0  0  0  0  0
   -7.0810    7.9560    0.5610 C   0  0  0  0  0
   -6.2040    7.8500   -0.6410 C   0  0  0  0  0
   -6.9630    7.5250   -1.8970 C   0  0  0  0  0
   -8.1740    8.4380   -2.0760 C   0  0  0  0  0
   -9.0500    7.9480   -3.1820 C   0  0  0  0  0
   -6.2710    8.4170    1.7390 N   0  3  0  0  0
   -5.2190    6.8060   -0.4060 O   0  0  0  0  0
   -6.1150    7.7470   -3.0260 O   0  0  0  0  0
   -9.0090    8.4530   -0.8770 O   0  0  0  0  0
  -10.2280    8.7110   -3.1510 O   0  0  0  0  0
  -12.1180   11.2270    3.1030 C   0  0  0  0  0
  -12.4510   10.5860    1.7660 C   0  0  0  0  0
  -11.4210    9.5620    1.4160 C   0  0  0  0  0
  -10.0080   10.0770    1.4330 C   0  0  0  0  0
   -9.7250   10.8230    2.7370 C   0  0  0  0  0
   -8.4050   11.5340    2.6710 C   0  0  0  0  0
  -13.7720    9.8950    1.8930 N   0  3  0  0  0
  -11.7160    8.9950    0.1070 O   0  0  0  0  0
   -9.0960    8.9780    1.4630 O   0  0  0  0  0
  -10.7530   11.8190    3.0600 O   0  0  0  0  0
   -8.2800   12.3040    3.8410 O   0  0  0  0  0
  -13.7600   14.2170    7.1160 C   0  0  0  0  0
  -12.3080   14.0170    6.7150 C   0  0  0  0  0
  -12.1770   13.6460    5.2780 C   0  0  0  0  0
  -13.0230   12.4580    4.8910 C   0  0  0  0  0
  -14.4730   12.7430    5.2910 C   0  0  0  0  0
  -15.3610   11.5690    5.0360 C   0  0  0  0  0
  -11.5550   15.2830    6.9910 N   0  3  0  0  0
  -10.7630   13.4240    5.0180 O   0  0  0  0  0
  -13.0470   12.2540    3.4700 O   0  0  0  0  0
  -14.5710   13.0370    6.7160 O   0  0  0  0  0
  -16.5910   11.8130    5.6750 O   0  0  0  0  0
  -16.6820   15.3840   11.3650 C   0  0  0  0  0
  -17.2030   14.7110   10.1090 C   0  0  0  0  0
  -16.0860   14.0960    9.3290 C   0  0  0  0  0
  -15.0370   15.1010    8.9360 C   0  0  0  0  0
  -14.6020   15.9680   10.1230 C   0  0  0  0  0
  -13.9080   17.1910    9.6070 C   0  0  0  0  0
  -18.2260   13.6820   10.4840 N   0  3  0  0  0
  -16.6850   13.5300    8.1260 O   0  0  0  0  0
  -13.8240   14.4630    8.5260 O   0  0  0  0  0
  -15.7040   16.4380   10.9720 O   0  0  0  0  0
  -13.1990   17.7400   10.6780 O   0  0  0  0  0
  -18.1900   17.3030   16.1640 C   0  0  0  0  0
  -17.0580   17.7800   15.2580 C   0  0  0  0  0
  -17.3970   17.5540   13.8340 C   0  0  0  0  0
  -17.4580   16.0900   13.5470 C   0  0  0  0  0
  -18.5460   15.4970   14.4540 C   0  0  0  0  0
  -18.6130   14.0080   14.2700 C   0  0  0  0  0
  -16.7160   19.2250   15.4190 N   0  3  0  0  0
  -16.4040   18.1960   12.9840 O   0  0  0  0  0
  -17.7720   15.9100   12.1480 O   0  0  0  0  0
  -18.3640   15.8100   15.8940 O   0  0  0  0  0
  -17.4210   13.4360   14.7350 O   0  0  0  0  0
  -18.8440   20.2870   20.6850 C   0  0  0  0  0
  -19.6420   19.0030   20.6360 C   0  0  0  0  0
  -19.1800   18.0470   19.5780 C   0  0  0  0  0
  -18.8660   18.6090   18.2010 C   0  0  0  0  0
  -18.2560   20.0320   18.2990 C   0  0  0  0  0
  -18.5220   20.8930   17.1110 C   0  0  0  0  0
  -19.5360   18.3950   22.0040 N   0  3  0  0  0
  -19.4450   21.1430   21.5590 O   0  0  0  0  0
  -20.2310   17.0550   19.4410 O   0  0  0  0  0
  -17.9470   17.6750   17.5560 O   0  0  0  0  0
  -18.8310   20.9100   19.3320 O   0  0  0  0  0
  -18.2430   22.2090   17.5370 O   0  0  0  0  0
   -1.3309    3.9251   -5.1637 H   0  0  0  0  0
   -2.3768    2.1082   -7.3459 H   0  0  0  0  0
    0.4087    2.3571   -6.2956 H   0  0  0  0  0
   -0.6839    3.0095   -9.0040 H   0  0  0  0  0
    0.4116    4.9418   -6.9913 H   0  0  0  0  0
   -0.2259    4.9787   -9.8026 H   0  0  0  0  0
    0.2939    6.3546   -8.8185 H   0  0  0  0  0
   -2.7626    1.4186   -5.0210 H   0  0  0  0  0
   -1.6757    0.3965   -5.7632 H   0  0  0  0  0
   -1.1348    1.5514   -4.6906 H   0  0  0  0  0
   -0.3312    0.2096   -7.0242 H   0  0  0  0  0
    1.5718    2.3049   -8.7979 H   0  0  0  0  0
   -1.7935    6.6720   -9.7508 H   0  0  0  0  0
   -6.6951    5.7954   -3.5302 H   0  0  0  0  0
   -5.2332    7.6772   -5.2143 H   0  0  0  0  0
   -5.0433    5.1277   -6.4015 H   0  0  0  0  0
   -2.7551    5.5040   -4.6303 H   0  0  0  0  0
   -5.2795    4.0061   -3.8506 H   0  0  0  0  0
   -3.0276    2.9589   -3.3295 H   0  0  0  0  0
   -4.1539    3.2250   -1.9748 H   0  0  0  0  0
   -6.7491    6.4314   -6.8284 H   0  0  0  0  0
   -7.1350    5.3574   -5.6141 H   0  0  0  0  0
   -7.6061    6.9515   -5.4973 H   0  0  0  0  0
   -2.9329    6.2481   -6.9288 H   0  0  0  0  0
   -2.0204    3.9515   -1.5154 H   0  0  0  0  0
   -7.8572    9.9053    0.1234 H   0  0  0  0  0
   -7.4964    6.9708    0.7732 H   0  0  0  0  0
   -5.7354    8.8229   -0.7895 H   0  0  0  0  0
   -7.2896    6.4879   -1.8205 H   0  0  0  0  0
   -7.7783    9.4308   -2.2899 H   0  0  0  0  0
   -9.2758    6.8897   -3.0513 H   0  0  0  0  0
   -8.5489    8.0563   -4.1439 H   0  0  0  0  0
   -5.4962    7.7713    1.8909 H   0  0  0  0  0
   -5.9054    9.3511    1.5541 H   0  0  0  0  0
   -6.8633    8.4405    2.5691 H   0  0  0  0  0
   -4.6477    6.7280   -1.1736 H   0  0  0  0  0
  -10.8151    8.4198   -3.8525 H   0  0  0  0  0
  -12.1746   10.4346    3.8493 H   0  0  0  0  0
  -12.4782   11.3539    0.9929 H   0  0  0  0  0
  -11.4777    8.8009    2.1943 H   0  0  0  0  0
   -9.8900   10.7119    0.5549 H   0  0  0  0  0
   -9.7179   10.0594    3.5148 H   0  0  0  0  0
   -8.3597   12.1720    1.7884 H   0  0  0  0  0
   -7.5885   10.8155    2.5988 H   0  0  0  0  0
  -14.0126    9.4579    1.0034 H   0  0  0  0  0
  -13.7124    9.1809    2.6189 H   0  0  0  0  0
  -14.4883   10.5768    2.1430 H   0  0  0  0  0
  -11.0516    8.3380   -0.1130 H   0  0  0  0  0
   -7.4419   12.7720    3.8267 H   0  0  0  0  0
  -14.1786   15.0805    6.5990 H   0  0  0  0  0
  -11.8951   13.1945    7.2990 H   0  0  0  0  0
  -12.5567   14.4571    4.6566 H   0  0  0  0  0
  -12.5994   11.5846    5.3868 H   0  0  0  0  0
  -14.7886   13.5946    4.6883 H   0  0  0  0  0
  -14.9060   10.6586    5.4261 H   0  0  0  0  0
  -15.5113   11.4339    3.9649 H   0  0  0  0  0
  -10.5778   15.1607    6.7255 H   0  0  0  0  0
  -11.9630   16.0449    6.4492 H   0  0  0  0  0
  -11.6135   15.5021    7.9855 H   0  0  0  0  0
  -10.6423   13.1821    4.0969 H   0  0  0  0  0
  -17.1809   11.0705    5.5254 H   0  0  0  0  0
  -16.1703   14.6588   11.9977 H   0  0  0  0  0
  -17.6707   15.4612    9.4714 H   0  0  0  0  0
  -15.5856   13.3459    9.9415 H   0  0  0  0  0
  -15.4993   15.6841    8.1395 H   0  0  0  0  0
  -13.9616   15.3275   10.7294 H   0  0  0  0  0
  -14.6296   17.9073    9.2142 H   0  0  0  0  0
  -13.2347   16.9362    8.7886 H   0  0  0  0  0
  -18.5765   13.2293    9.6398 H   0  0  0  0  0
  -17.7976   12.9844   11.0924 H   0  0  0  0  0
  -18.9977   14.1344   10.9741 H   0  0  0  0  0
  -16.0006   13.1216    7.5909 H   0  0  0  0  0
  -12.7388   18.5297   10.3844 H   0  0  0  0  0
  -19.1387   17.7935   15.9462 H   0  0  0  0  0
  -16.1914   17.1929   15.5619 H   0  0  0  0  0
  -18.3745   17.9889   13.6255 H   0  0  0  0  0
  -16.5113   15.5874   13.7452 H   0  0  0  0  0
  -19.4813   15.9662   14.1488 H   0  0  0  0  0
  -18.7451   13.7740   13.2136 H   0  0  0  0  0
  -19.4566   13.6061   14.8312 H   0  0  0  0  0
  -15.9553   19.4660   14.7836 H   0  0  0  0  0
  -17.5348   19.7932   15.2019 H   0  0  0  0  0
  -16.4251   19.3992   16.3810 H   0  0  0  0  0
  -16.6284   18.0465   12.0626 H   0  0  0  0  0
  -17.4581   12.4837   14.6198 H   0  0  0  0  0
  -17.8230   20.0770   21.0036 H   0  0  0  0  0
  -20.6743   19.2240   20.3648 H   0  0  0  0  0
  -18.2171   17.6689   19.9214 H   0  0  0  0  0
  -19.7773   18.7117   17.6119 H   0  0  0  0  0
  -17.2158   19.7548   18.4703 H   0  0  0  0  0
  -19.5504   20.7925   16.7641 H   0  0  0  0  0
  -17.9035   20.6064   16.2604 H   0  0  0  0  0
  -20.0599   17.5202   22.0275 H   0  0  0  0  0
  -18.5558   18.2115   22.2182 H   0  0  0  0  0
  -19.9205   19.0416   22.6928 H   0  0  0  0  0
  -18.9457   21.9620   21.5975 H   0  0  0  0  0
  -19.9805   16.4156   18.7701 H   0  0  0  0  0
  -18.3961   22.8183   16.8111 H   0  0  0  0  0
  1  2  1  0  0  0
  1 10  1  0  0  0
 20  1  1  0  0  0
  2  3  1  0  0  0
  2  7  1  0  0  0
  3  4  1  0  0  0
  3  8  1  0  0  0
  5  4  1  0  0  0
  4  9  1  0  0  0
  5  6  1  0  0  0
 10  5  1  0  0  0
  6 11  1  0  0  0
 12 13  1  0  0  0
 12 21  1  0  0  0
 31 12  1  0  0  0
 13 14  1  0  0  0
 13 18  1  0  0  0
 14 15  1  0  0  0
 14 19  1  0  0  0
 16 15  1  0  0  0
 15 20  1  0  0  0
 16 17  1  0  0  0
 21 16  1  0  0  0
 17 22  1  0  0  0
 23 24  1  0  0  0
 23 32  1  0  0  0
 42 23  1  0  0  0
 24 25  1  0  0  0
 24 29  1  0  0  0
 25 26  1  0  0  0
 25 30  1  0  0  0
 27 26  1  0  0  0
 26 31  1  0  0  0
 27 28  1  0  0  0
 32 27  1  0  0  0
 28 33  1  0  0  0
 34 35  1  0  0  0
 34 43  1  0  0  0
 53 34  1  0  0  0
 35 36  1  0  0  0
 35 40  1  0  0  0
 36 37  1  0  0  0
 36 41  1  0  0  0
 38 37  1  0  0  0
 37 42  1  0  0  0
 38 39  1  0  0  0
 43 38  1  0  0  0
 39 44  1  0  0  0
 45 46  1  0  0  0
 45 54  1  0  0  0
 64 45  1  0  0  0
 46 47  1  0  0  0
 46 51  1  0  0  0
 47 48  1  0  0  0
 47 52  1  0  0  0
 49 48  1  0  0  0
 48 53  1  0  0  0
 49 50  1  0  0  0
 54 49  1  0  0  0
 50 55  1  0  0  0
 56 57  1  0  0  0
 56 65  1  0  0  0
 75 56  1  0  0  0
 57 58  1  0  0  0
 57 62  1  0  0  0
 58 59  1  0  0  0
 58 63  1  0  0  0
 60 59  1  0  0  0
 59 64  1  0  0  0
 60 61  1  0  0  0
 65 60  1  0  0  0
 61 66  1  0  0  0
 67 68  1  0  0  0
 67 76  1  0  0  0
 87 67  1  0  0  0
 68 69  1  0  0  0
 68 73  1  0  0  0
 69 70  1  0  0  0
 69 74  1  0  0  0
 71 70  1  0  0  0
 70 75  1  0  0  0
 71 72  1  0  0  0
 76 71  1  0  0  0
 72 77  1  0  0  0
 79 78  1  0  0  0
 78 85  1  0  0  0
 78 88  1  0  0  0
 80 79  1  0  0  0
 79 84  1  0  0  0
 81 80  1  0  0  0
 80 86  1  0  0  0
 81 82  1  0  0  0
 81 87  1  0  0  0
 82 83  1  0  0  0
 82 88  1  0  0  0
 83 89  1  0  0  0
  1 90  1  0  0  0
  2 91  1  0  0  0
  3 92  1  0  0  0
  4 93  1  0  0  0
  5 94  1  0  0  0
  6 95  1  0  0  0
  6 96  1  0  0  0
  7 97  1  0  0  0
  7 98  1  0  0  0
  7 99  1  0  0  0
  8100  1  0  0  0
  9101  1  0  0  0
 11102  1  0  0  0
 12103  1  0  0  0
 13104  1  0  0  0
 14105  1  0  0  0
 15106  1  0  0  0
 16107  1  0  0  0
 17108  1  0  0  0
 17109  1  0  0  0
 18110  1  0  0  0
 18111  1  0  0  0
 18112  1  0  0  0
 19113  1  0  0  0
 22114  1  0  0  0
 23115  1  0  0  0
 24116  1  0  0  0
 25117  1  0  0  0
 26118  1  0  0  0
 27119  1  0  0  0
 28120  1  0  0  0
 28121  1  0  0  0
 29122  1  0  0  0
 29123  1  0  0  0
 29124  1  0  0  0
 30125  1  0  0  0
 33126  1  0  0  0
 34127  1  0  0  0
 35128  1  0  0  0
 36129  1  0  0  0
 37130  1  0  0  0
 38131  1  0  0  0
 39132  1  0  0  0
 39133  1  0  0  0
 40134  1  0  0  0
 40135  1  0  0  0
 40136  1  0  0  0
 41137  1  0  0  0
 44138  1  0  0  0
 45139  1  0  0  0
 46140  1  0  0  0
 47141  1  0  0  0
 48142  1  0  0  0
 49143  1  0  0  0
 50144  1  0  0  0
 50145  1  0  0  0
 51146  1  0  0  0
 51147  1  0  0  0
 51148  1  0  0  0
 52149  1  0  0  0
 55150  1  0  0  0
 56151  1  0  0  0
 57152  1  0  0  0
 58153  1  0  0  0
 59154  1  0  0  0
 60155  1  0  0  0
 61156  1  0  0  0
 61157  1  0  0  0
 62158  1  0  0  0
 62159  1  0  0  0
 62160  1  0  0  0
 63161  1  0  0  0
 66162  1  0  0  0
 67163  1  0  0  0
 68164  1  0  0  0
 69165  1  0  0  0
 70166  1  0  0  0
 71167  1  0  0  0
 72168  1  0  0  0
 72169  1  0  0  0
 73170  1  0  0  0
 73171  1  0  0  0
 73172  1  0  0  0
 74173  1  0  0  0
 77174  1  0  0  0
 78175  1  0  0  0
 79176  1  0  0  0
 80177  1  0  0  0
 81178  1  0  0  0
 82179  1  0  0  0
 83180  1  0  0  0
 83181  1  0  0  0
 84182  1  0  0  0
 84183  1  0  0  0
 84184  1  0  0  0
 85185  1  0  0  0
 86186  1  0  0  0
 89187  1  0  0  0
M  END
$$$$
