### 
### Created by X-TOOL on Mon Sep 10 21:12:51 2018
### 

@<TRIPOS>MOLECULE
1n7t_ligand
  117   120     1     0     0
SMALL
GAST_HUCK


@<TRIPOS>ATOM
      1 N          -2.2440   -7.6330    5.3410 N.4       1 THR         0.2398
      2 CA         -1.0530   -8.2790    4.7300 C.3       1 THR         0.0910
      3 C           0.1040   -7.2940    4.6020 C.2       1 THR         0.2291
      4 O           1.1520   -7.4670    5.2260 O.2       1 THR        -0.3906
      5 CB         -1.4430   -8.8200    3.3550 C.3       1 THR         0.1120
      6 OG1        -2.7430   -9.3820    3.3880 O.3       1 THR        -0.3840
      7 CG2        -0.4970   -9.8860    2.8420 C.3       1 THR        -0.0314
      8 H1         -2.0008   -7.2711    6.2498 H         1 THR         0.2016
      9 H2         -2.9827   -8.3121    5.4365 H         1 THR         0.2016
     10 H3         -2.5562   -6.8776    4.7511 H         1 THR         0.2016
     11 H4         -0.7331   -9.1153    5.3689 H         1 THR         0.1125
     12 H5         -1.4355   -7.9781    2.6471 H         1 THR         0.0674
     13 H6         -2.9662   -9.7119    2.5255 H         1 THR         0.2102
     14 H7         -0.8341  -10.2302    1.8531 H         1 THR         0.0258
     15 H8         -0.4867  -10.7347    3.5417 H         1 THR         0.0258
     16 H9          0.5167   -9.4673    2.7585 H         1 THR         0.0258
     17 N          -0.0950   -6.2590    3.7900 N.am      1 GLY        -0.2636
     18 CA          0.9370   -5.2570    3.5920 C.3       1 GLY         0.1202
     19 C           2.0270   -5.7230    2.6460 C.2       1 GLY         0.2008
     20 O           2.5680   -6.8160    2.8030 O.2       1 GLY        -0.3947
     21 H10        -0.9674   -6.1699    3.3094 H         1 GLY         0.1882
     22 H11         1.3919   -5.0223    4.5656 H         1 GLY         0.0763
     23 H12         0.4731   -4.3505    3.1760 H         1 GLY         0.0763
     24 N           2.3510   -4.8880    1.6620 N.am      1 TRP        -0.2629
     25 CA          3.3880   -5.2180    0.6880 C.3       1 TRP         0.1352
     26 C           3.7380   -4.0080   -0.1730 C.2       1 TRP         0.2052
     27 O           4.9090   -3.7500   -0.4480 O.2       1 TRP        -0.3942
     28 CB          2.9530   -6.3890   -0.2050 C.3       1 TRP         0.0042
     29 CG          1.5260   -6.3110   -0.6630 C.2       1 TRP        -0.0418
     30 CD1         0.4260   -6.7700    0.0030 C.2       1 TRP         0.0167
     31 CD2         1.0460   -5.7520   -1.8920 C.ar      1 TRP        -0.0214
     32 NE1        -0.7090   -6.5270   -0.7350 N.pl3     1 TRP        -0.2890
     33 CE2        -0.3540   -5.9030   -1.9020 C.ar      1 TRP         0.0603
     34 CE3         1.6630   -5.1370   -2.9860 C.ar      1 TRP        -0.0747
     35 CZ2        -1.1450   -5.4610   -2.9600 C.ar      1 TRP        -0.0443
     36 CZ3         0.8770   -4.6990   -4.0350 C.ar      1 TRP        -0.0792
     37 CH2        -0.5130   -4.8620   -4.0150 C.ar      1 TRP        -0.0768
     38 H13         1.8727   -4.0130    1.5876 H         1 TRP         0.1884
     39 H14         4.2900   -5.5213    1.2397 H         1 TRP         0.0815
     40 H15         3.0837   -7.3229    0.3613 H         1 TRP         0.0397
     41 H16         3.6009   -6.4053   -1.0938 H         1 TRP         0.0397
     42 H17         0.4446   -7.2575    0.9766 H         1 TRP         0.0795
     43 H18        -1.6692   -6.7739   -0.4559 H         1 TRP         0.2216
     44 H19         2.7388   -5.0061   -3.0108 H         1 TRP         0.0540
     45 H20        -2.2216   -5.5871   -2.9478 H         1 TRP         0.0541
     46 H21         1.3451   -4.2210   -4.8879 H         1 TRP         0.0510
     47 H22        -1.1011   -4.5061   -4.8532 H         1 TRP         0.0530
     48 N           2.7190   -3.2660   -0.5980 N.am      1 GLU        -0.2635
     49 CA          2.9350   -2.0820   -1.4270 C.3       1 GLU         0.1325
     50 C           3.5430   -0.9480   -0.6070 C.2       1 GLU         0.2041
     51 O           3.0560   -0.6220    0.4760 O.2       1 GLU        -0.3944
     52 CB          1.6190   -1.6180   -2.0530 C.3       1 GLU        -0.0008
     53 CG          0.4980   -1.4420   -1.0420 C.3       1 GLU         0.0044
     54 CD         -0.4560   -2.6210   -1.0130 C.2       1 GLU         0.0350
     55 OE1        -1.1370   -2.8580   -2.0320 O.co2     1 GLU        -0.5690
     56 OE2        -0.5210   -3.3060    0.0290 O.co2     1 GLU        -0.5690
     57 H23         1.7864   -3.5236   -0.3451 H         1 GLU         0.1883
     58 H24         3.6347   -2.3454   -2.2339 H         1 GLU         0.0801
     59 H25         1.3039   -2.3653   -2.7962 H         1 GLU         0.0330
     60 H26         1.7918   -0.6537   -2.5532 H         1 GLU         0.0330
     61 H27        -0.0700   -0.5363   -1.3008 H         1 GLU         0.0433
     62 H28         0.9413   -1.3237   -0.0423 H         1 GLU         0.0433
     63 N           4.6070   -0.3490   -1.1340 N.am      1 THR        -0.2613
     64 CA          5.2860    0.7530   -0.4590 C.3       1 THR         0.1565
     65 C           5.3230    1.9890   -1.3520 C.2       1 THR         0.2066
     66 O           5.8740    1.9550   -2.4520 O.2       1 THR        -0.3943
     67 CB          6.7090    0.3440   -0.0750 C.3       1 THR         0.0924
     68 OG1         6.7200   -0.9510    0.4990 O.3       1 THR        -0.3874
     69 CG2         7.3560    1.2890    0.9140 C.3       1 THR        -0.0346
     70 H29         4.9521   -0.6627   -2.0186 H         1 THR         0.1884
     71 H30         4.7299    0.9982    0.4579 H         1 THR         0.0826
     72 H31         7.3153    0.3329   -0.9927 H         1 THR         0.0639
     73 H32         7.6110   -1.1862    0.7302 H         1 THR         0.2101
     74 H33         8.3723    0.9378    1.1457 H         1 THR         0.0257
     75 H34         6.7589    1.3186    1.8374 H         1 THR         0.0257
     76 H35         7.4072    2.2976    0.4779 H         1 THR         0.0257
     77 N           4.7310    3.0780   -0.8740 N.am      1 TRP        -0.2626
     78 CA          4.6940    4.3220   -1.6320 C.3       1 TRP         0.1351
     79 C           5.9650    5.1350   -1.4080 C.2       1 TRP         0.2046
     80 O           6.2270    5.6040   -0.3000 O.2       1 TRP        -0.3943
     81 CB          3.4660    5.1440   -1.2380 C.3       1 TRP         0.0042
     82 CG          2.1760    4.4940   -1.6350 C.2       1 TRP        -0.0418
     83 CD1         1.4240    3.6370   -0.8850 C.2       1 TRP         0.0167
     84 CD2         1.4900    4.6440   -2.8840 C.ar      1 TRP        -0.0214
     85 NE1         0.3120    3.2440   -1.5900 N.pl3     1 TRP        -0.2890
     86 CE2         0.3300    3.8490   -2.8200 C.ar      1 TRP         0.0603
     87 CE3         1.7440    5.3740   -4.0480 C.ar      1 TRP        -0.0747
     88 CZ2        -0.5720    3.7640   -3.8770 C.ar      1 TRP        -0.0443
     89 CZ3         0.8460    5.2880   -5.0970 C.ar      1 TRP        -0.0792
     90 CH2        -0.3000    4.4890   -5.0050 C.ar      1 TRP        -0.0768
     91 H36         4.3003    3.0432    0.0278 H         1 TRP         0.1884
     92 H37         4.6225    4.0756   -2.7017 H         1 TRP         0.0815
     93 H38         3.5293    6.1264   -1.7288 H         1 TRP         0.0397
     94 H39         3.4695    5.2786   -0.1463 H         1 TRP         0.0397
     95 H40         1.6695    3.3120    0.1250 H         1 TRP         0.0795
     96 H41        -0.4163    2.5999   -1.2498 H         1 TRP         0.2216
     97 H42         2.6281    5.9961   -4.1277 H         1 TRP         0.0540
     98 H43        -1.4592    3.1448   -3.8087 H         1 TRP         0.0541
     99 H44         1.0329    5.8488   -6.0056 H         1 TRP         0.0510
    100 H45        -0.9851    4.4439   -5.8438 H         1 TRP         0.0530
    101 N           6.7520    5.2930   -2.4680 N.am      1 VAL        -0.2691
    102 CA          7.9980    6.0450   -2.3910 C.3       1 VAL         0.0967
    103 C           7.7720    7.5200   -2.7100 C.2       1 VAL         0.0603
    104 O           8.4120    8.3690   -2.0550 O.co2     1 VAL        -0.5666
    105 CB          9.0530    5.4760   -3.3600 C.3       1 VAL        -0.0118
    106 CG1         9.4740    4.0780   -2.9300 C.3       1 VAL        -0.0590
    107 CG2         8.5230    5.4650   -4.7860 C.3       1 VAL        -0.0590
    108 OXT         6.9580    7.8130   -3.6090 O.co2     1 VAL        -0.5666
    109 H46         6.4820    4.8854   -3.3404 H         1 VAL         0.1875
    110 H47         8.3849    5.9636   -1.3645 H         1 VAL         0.0729
    111 H48         9.9384    6.1279   -3.3272 H         1 VAL         0.0336
    112 H49        10.2260    3.6892   -3.6324 H         1 VAL         0.0234
    113 H50         8.5963    3.4149   -2.9285 H         1 VAL         0.0234
    114 H51         9.9040    4.1194   -1.9184 H         1 VAL         0.0234
    115 H52         8.2255    6.4840   -5.0744 H         1 VAL         0.0234
    116 H53         7.6512    4.7971   -4.8480 H         1 VAL         0.0234
    117 H54         9.3091    5.1061   -5.4666 H         1 VAL         0.0234
@<TRIPOS>BOND
     1    1    2 1  
     2    1    8 1  
     3    1    9 1  
     4    1   10 1  
     5    2    3 1  
     6    2    5 1  
     7    2   11 1  
     8    3    4 2  
     9    3   17 am 
    10    5    6 1  
    11    5    7 1  
    12    5   12 1  
    13    6   13 1  
    14    7   14 1  
    15    7   15 1  
    16    7   16 1  
    17   17   18 1  
    18   17   21 1  
    19   18   19 1  
    20   18   22 1  
    21   18   23 1  
    22   19   20 2  
    23   19   24 am 
    24   24   25 1  
    25   24   38 1  
    26   25   26 1  
    27   25   28 1  
    28   25   39 1  
    29   26   27 2  
    30   26   48 am 
    31   28   29 1  
    32   28   40 1  
    33   28   41 1  
    34   29   30 2  
    35   29   31 1  
    36   30   32 1  
    37   30   42 1  
    38   31   33 ar 
    39   31   34 ar 
    40   32   33 1  
    41   32   43 1  
    42   33   35 ar 
    43   34   36 ar 
    44   34   44 1  
    45   35   37 ar 
    46   35   45 1  
    47   36   37 ar 
    48   36   46 1  
    49   37   47 1  
    50   48   49 1  
    51   48   57 1  
    52   49   50 1  
    53   49   52 1  
    54   49   58 1  
    55   50   51 2  
    56   50   63 am 
    57   52   53 1  
    58   52   59 1  
    59   52   60 1  
    60   53   54 1  
    61   53   61 1  
    62   53   62 1  
    63   54   55 ar 
    64   54   56 ar 
    65   63   64 1  
    66   63   70 1  
    67   64   65 1  
    68   64   67 1  
    69   64   71 1  
    70   65   66 2  
    71   65   77 am 
    72   67   68 1  
    73   67   69 1  
    74   67   72 1  
    75   68   73 1  
    76   69   74 1  
    77   69   75 1  
    78   69   76 1  
    79   77   78 1  
    80   77   91 1  
    81   78   79 1  
    82   78   81 1  
    83   78   92 1  
    84   79   80 2  
    85   79  101 am 
    86   81   82 1  
    87   81   93 1  
    88   81   94 1  
    89   82   83 2  
    90   82   84 1  
    91   83   85 1  
    92   83   95 1  
    93   84   86 ar 
    94   84   87 ar 
    95   85   86 1  
    96   85   96 1  
    97   86   88 ar 
    98   87   89 ar 
    99   87   97 1  
   100   88   90 ar 
   101   88   98 1  
   102   89   90 ar 
   103   89   99 1  
   104   90  100 1  
   105  101  102 1  
   106  101  109 1  
   107  102  103 1  
   108  102  105 1  
   109  102  110 1  
   110  103  104 ar 
   111  103  108 ar 
   112  105  106 1  
   113  105  107 1  
   114  105  111 1  
   115  106  112 1  
   116  106  113 1  
   117  106  114 1  
   118  107  115 1  
   119  107  116 1  
   120  107  117 1  
@<TRIPOS>SUBSTRUCTURE
     1 THR         1

