1n7t_ligand
  -I-interpret- 

117120  0  0  0  0  0  0  0  0999 V2000
   -2.2440   -7.6330    5.3410 N   0  3  0  0  0
   -1.0530   -8.2790    4.7300 C   0  0  0  0  0
    0.1040   -7.2940    4.6020 C   0  0  0  0  0
    1.1520   -7.4670    5.2260 O   0  0  0  0  0
   -1.4430   -8.8200    3.3550 C   0  0  0  0  0
   -2.7430   -9.3820    3.3880 O   0  0  0  0  0
   -0.4970   -9.8860    2.8420 C   0  0  0  0  0
   -0.0950   -6.2590    3.7900 N   0  0  0  0  0
    0.9370   -5.2570    3.5920 C   0  0  0  0  0
    2.0270   -5.7230    2.6460 C   0  0  0  0  0
    2.5680   -6.8160    2.8030 O   0  0  0  0  0
    2.3510   -4.8880    1.6620 N   0  0  0  0  0
    3.3880   -5.2180    0.6880 C   0  0  0  0  0
    3.7380   -4.0080   -0.1730 C   0  0  0  0  0
    4.9090   -3.7500   -0.4480 O   0  0  0  0  0
    2.9530   -6.3890   -0.2050 C   0  0  0  0  0
    1.5260   -6.3110   -0.6630 C   0  0  0  0  0
    0.4260   -6.7700    0.0030 C   0  0  0  0  0
    1.0460   -5.7520   -1.8920 C   0  0  0  0  0
   -0.7090   -6.5270   -0.7350 N   0  0  0  0  0
   -0.3540   -5.9030   -1.9020 C   0  0  0  0  0
    1.6630   -5.1370   -2.9860 C   0  0  0  0  0
   -1.1450   -5.4610   -2.9600 C   0  0  0  0  0
    0.8770   -4.6990   -4.0350 C   0  0  0  0  0
   -0.5130   -4.8620   -4.0150 C   0  0  0  0  0
    2.7190   -3.2660   -0.5980 N   0  0  0  0  0
    2.9350   -2.0820   -1.4270 C   0  0  0  0  0
    3.5430   -0.9480   -0.6070 C   0  0  0  0  0
    3.0560   -0.6220    0.4760 O   0  0  0  0  0
    1.6190   -1.6180   -2.0530 C   0  0  0  0  0
    0.4980   -1.4420   -1.0420 C   0  0  0  0  0
   -0.4560   -2.6210   -1.0130 C   0  0  0  0  0
   -1.1370   -2.8580   -2.0320 O   0  0  0  0  0
   -0.5210   -3.3060    0.0290 O   0  0  0  0  0
    4.6070   -0.3490   -1.1340 N   0  0  0  0  0
    5.2860    0.7530   -0.4590 C   0  0  0  0  0
    5.3230    1.9890   -1.3520 C   0  0  0  0  0
    5.8740    1.9550   -2.4520 O   0  0  0  0  0
    6.7090    0.3440   -0.0750 C   0  0  0  0  0
    6.7200   -0.9510    0.4990 O   0  0  0  0  0
    7.3560    1.2890    0.9140 C   0  0  0  0  0
    4.7310    3.0780   -0.8740 N   0  0  0  0  0
    4.6940    4.3220   -1.6320 C   0  0  0  0  0
    5.9650    5.1350   -1.4080 C   0  0  0  0  0
    6.2270    5.6040   -0.3000 O   0  0  0  0  0
    3.4660    5.1440   -1.2380 C   0  0  0  0  0
    2.1760    4.4940   -1.6350 C   0  0  0  0  0
    1.4240    3.6370   -0.8850 C   0  0  0  0  0
    1.4900    4.6440   -2.8840 C   0  0  0  0  0
    0.3120    3.2440   -1.5900 N   0  0  0  0  0
    0.3300    3.8490   -2.8200 C   0  0  0  0  0
    1.7440    5.3740   -4.0480 C   0  0  0  0  0
   -0.5720    3.7640   -3.8770 C   0  0  0  0  0
    0.8460    5.2880   -5.0970 C   0  0  0  0  0
   -0.3000    4.4890   -5.0050 C   0  0  0  0  0
    6.7520    5.2930   -2.4680 N   0  0  0  0  0
    7.9980    6.0450   -2.3910 C   0  0  0  0  0
    7.7720    7.5200   -2.7100 C   0  0  0  0  0
    8.4120    8.3690   -2.0550 O   0  0  0  0  0
    9.0530    5.4760   -3.3600 C   0  0  0  0  0
    9.4740    4.0780   -2.9300 C   0  0  0  0  0
    8.5230    5.4650   -4.7860 C   0  0  0  0  0
    6.9580    7.8130   -3.6090 O   0  0  0  0  0
   -1.9967   -7.2672    6.2605 H   0  0  0  0  0
   -2.5590   -6.8689    4.7433 H   0  0  0  0  0
   -2.9908   -8.3211    5.4371 H   0  0  0  0  0
   -0.7190   -9.0939    5.3722 H   0  0  0  0  0
   -1.3994   -7.9624    2.6836 H   0  0  0  0  0
   -3.3657   -8.7264    3.7104 H   0  0  0  0  0
   -0.5233  -10.7459    3.5113 H   0  0  0  0  0
   -0.8048  -10.1926    1.8423 H   0  0  0  0  0
    0.5154   -9.4839    2.8045 H   0  0  0  0  0
   -0.9849   -6.1682    3.2998 H   0  0  0  0  0
    1.3965   -5.0525    4.5590 H   0  0  0  0  0
    0.4689   -4.3744    3.1562 H   0  0  0  0  0
    1.8631   -3.9955    1.5861 H   0  0  0  0  0
    4.2763   -5.5162    1.2449 H   0  0  0  0  0
    3.0536   -7.3000    0.3850 H   0  0  0  0  0
    3.5801   -6.3659   -1.0963 H   0  0  0  0  0
    0.4446   -7.2579    0.9775 H   0  0  0  0  0
    2.7447   -5.0054   -3.0109 H   0  0  0  0  0
   -2.2275   -5.5877   -2.9477 H   0  0  0  0  0
    1.3477   -4.2184   -4.8927 H   0  0  0  0  0
   -1.1043   -4.5041   -4.8578 H   0  0  0  0  0
    1.7678   -3.5287   -0.3401 H   0  0  0  0  0
    3.6313   -2.3520   -2.2210 H   0  0  0  0  0
    1.3046   -2.3840   -2.7619 H   0  0  0  0  0
    1.7995   -0.6476   -2.5154 H   0  0  0  0  0
   -0.0722   -0.5574   -1.3257 H   0  0  0  0  0
    0.9498   -1.3531   -0.0540 H   0  0  0  0  0
    0.0842   -2.9493    0.6833 H   0  0  0  0  0
    4.9590   -0.6690   -2.0363 H   0  0  0  0  0
    4.7296    0.9939    0.4468 H   0  0  0  0  0
    7.2784    0.3696   -1.0041 H   0  0  0  0  0
    7.6203   -1.1886    0.7326 H   0  0  0  0  0
    7.4060    2.2879    0.4807 H   0  0  0  0  0
    6.7634    1.3175    1.8284 H   0  0  0  0  0
    8.3629    0.9399    1.1428 H   0  0  0  0  0
    4.2917    3.0425    0.0459 H   0  0  0  0  0
    4.6302    4.0736   -2.6914 H   0  0  0  0  0
    3.5279    6.1023   -1.7537 H   0  0  0  0  0
    3.4674    5.2445   -0.1526 H   0  0  0  0  0
    1.6697    3.3117    0.1259 H   0  0  0  0  0
    2.6330    5.9996   -4.1281 H   0  0  0  0  0
   -1.4641    3.1414   -3.8083 H   0  0  0  0  0
    1.0339    5.8519   -6.0107 H   0  0  0  0  0
   -0.9889    4.4436   -5.8484 H   0  0  0  0  0
    6.4766    4.8773   -3.3578 H   0  0  0  0  0
    8.3638    5.9515   -1.3685 H   0  0  0  0  0
    8.9765    7.9224   -1.4198 H   0  0  0  0  0
    9.9305    6.1219   -3.3297 H   0  0  0  0  0
    9.8999    4.1204   -1.9275 H   0  0  0  0  0
    8.6035    3.4220   -2.9289 H   0  0  0  0  0
   10.2191    3.6939   -3.6267 H   0  0  0  0  0
    7.6280    4.8447   -4.8348 H   0  0  0  0  0
    8.2781    6.4830   -5.0891 H   0  0  0  0  0
    9.2845    5.0595   -5.4522 H   0  0  0  0  0
  1  2  1  0  0  0
  2  3  1  0  0  0
  2  5  1  0  0  0
  3  4  2  0  0  0
  3  8  1  0  0  0
  5  6  1  0  0  0
  5  7  1  0  0  0
  8  9  1  0  0  0
  9 10  1  0  0  0
 10 11  2  0  0  0
 10 12  1  0  0  0
 12 13  1  0  0  0
 13 14  1  0  0  0
 13 16  1  0  0  0
 14 15  2  0  0  0
 14 26  1  0  0  0
 16 17  1  0  0  0
 17 18  4  0  0  0
 17 19  4  0  0  0
 18 20  4  0  0  0
 19 21  4  0  0  0
 19 22  4  0  0  0
 20 21  4  0  0  0
 21 23  4  0  0  0
 22 24  4  0  0  0
 23 25  4  0  0  0
 24 25  4  0  0  0
 26 27  1  0  0  0
 27 28  1  0  0  0
 27 30  1  0  0  0
 28 29  2  0  0  0
 28 35  1  0  0  0
 30 31  1  0  0  0
 31 32  1  0  0  0
 32 33  2  0  0  0
 32 34  1  0  0  0
 35 36  1  0  0  0
 36 37  1  0  0  0
 36 39  1  0  0  0
 37 38  2  0  0  0
 37 42  1  0  0  0
 39 40  1  0  0  0
 39 41  1  0  0  0
 42 43  1  0  0  0
 43 44  1  0  0  0
 43 46  1  0  0  0
 44 45  2  0  0  0
 44 56  1  0  0  0
 46 47  1  0  0  0
 47 48  4  0  0  0
 47 49  4  0  0  0
 48 50  4  0  0  0
 49 51  4  0  0  0
 49 52  4  0  0  0
 50 51  4  0  0  0
 51 53  4  0  0  0
 52 54  4  0  0  0
 53 55  4  0  0  0
 54 55  4  0  0  0
 56 57  1  0  0  0
 57 58  1  0  0  0
 57 60  1  0  0  0
 58 59  1  0  0  0
 58 63  2  0  0  0
 60 61  1  0  0  0
 60 62  1  0  0  0
  1 64  1  0  0  0
  1 65  1  0  0  0
  1 66  1  0  0  0
  2 67  1  0  0  0
  5 68  1  0  0  0
  6 69  1  0  0  0
  7 70  1  0  0  0
  7 71  1  0  0  0
  7 72  1  0  0  0
  8 73  1  0  0  0
  9 74  1  0  0  0
  9 75  1  0  0  0
 12 76  1  0  0  0
 13 77  1  0  0  0
 16 78  1  0  0  0
 16 79  1  0  0  0
 18 80  1  0  0  0
 22 81  1  0  0  0
 23 82  1  0  0  0
 24 83  1  0  0  0
 25 84  1  0  0  0
 26 85  1  0  0  0
 27 86  1  0  0  0
 30 87  1  0  0  0
 30 88  1  0  0  0
 31 89  1  0  0  0
 31 90  1  0  0  0
 34 91  1  0  0  0
 35 92  1  0  0  0
 36 93  1  0  0  0
 39 94  1  0  0  0
 40 95  1  0  0  0
 41 96  1  0  0  0
 41 97  1  0  0  0
 41 98  1  0  0  0
 42 99  1  0  0  0
 43100  1  0  0  0
 46101  1  0  0  0
 46102  1  0  0  0
 48103  1  0  0  0
 52104  1  0  0  0
 53105  1  0  0  0
 54106  1  0  0  0
 55107  1  0  0  0
 56108  1  0  0  0
 57109  1  0  0  0
 59110  1  0  0  0
 60111  1  0  0  0
 61112  1  0  0  0
 61113  1  0  0  0
 61114  1  0  0  0
 62115  1  0  0  0
 62116  1  0  0  0
 62117  1  0  0  0
M  END
$$$$
