2bgd_ligand
  -I-interpret- 

 36 38  0  0  0  0  0  0  0  0999 V2000
   -4.4220   58.9030    5.3260 O   0  0  0  0  0
   -3.4820   59.6520    5.1790 C   0  0  0  0  0
   -2.5700   59.9500    6.1100 N   0  0  0  0  0
   -1.4680   60.9650    5.5480 S   0  0  0  0  0
   -0.0620   60.2920    5.4420 O   0  0  0  0  0
   -1.4160   62.3040    6.3200 O   0  0  0  0  0
   -2.0430   61.1680    4.1160 N   0  0  0  0  0
   -3.2370   60.3670    3.8620 C   0  0  0  0  0
   -1.4980   61.9590    3.0680 C   0  0  0  0  0
   -1.7970   63.3200    2.8900 C   0  0  0  0  0
   -1.2190   64.0460    1.8200 C   0  0  0  0  0
   -0.3720   63.3760    0.9220 C   0  0  0  0  0
   -0.0780   62.0220    1.0950 C   0  0  0  0  0
   -0.6420   61.3190    2.1700 C   0  0  0  0  0
   -0.3810   59.9920    2.3600 O   0  0  0  0  0
    0.3260   59.1890    1.4010 C   0  0  0  0  0
   -1.4800   65.4040    1.5810 C   0  0  0  0  0
   -2.6940   65.9740    1.9990 C   0  0  0  0  0
   -2.9850   67.3250    1.7420 C   0  0  0  0  0
   -2.0730   68.1090    1.0350 C   0  0  0  0  0
   -0.8570   67.5330    0.6020 C   0  0  0  0  0
   -0.5590   66.1920    0.8690 C   0  0  0  0  0
   -2.5759   59.5772    7.0594 H   0  0  0  0  0
   -4.0877   60.9763    3.5566 H   0  0  0  0  0
   -3.1019   59.6730    3.0324 H   0  0  0  0  0
   -2.4776   63.8201    3.5791 H   0  0  0  0  0
    0.0603   63.9186    0.0813 H   0  0  0  0  0
    0.5872   61.5132    0.3974 H   0  0  0  0  0
   -0.2197   59.1876    0.4574 H   0  0  0  0  0
    1.3220   59.6037    1.2456 H   0  0  0  0  0
    0.4102   58.1686    1.7750 H   0  0  0  0  0
   -3.4209   65.3597    2.5304 H   0  0  0  0  0
   -3.9208   67.7589    2.0942 H   0  0  0  0  0
   -2.2956   69.1539    0.8190 H   0  0  0  0  0
   -0.1404   68.1427    0.0517 H   0  0  0  0  0
    0.3819   65.7610    0.5268 H   0  0  0  0  0
  1  2  2  0  0  0
  2  3  1  0  0  0
  2  8  1  0  0  0
  3  4  1  0  0  0
  4  5  2  0  0  0
  4  6  2  0  0  0
  4  7  1  0  0  0
  7  8  1  0  0  0
  7  9  1  0  0  0
  9 10  4  0  0  0
  9 14  4  0  0  0
 10 11  4  0  0  0
 11 12  4  0  0  0
 11 17  1  0  0  0
 12 13  4  0  0  0
 13 14  4  0  0  0
 14 15  1  0  0  0
 15 16  1  0  0  0
 17 18  4  0  0  0
 17 22  4  0  0  0
 18 19  4  0  0  0
 19 20  4  0  0  0
 20 21  4  0  0  0
 21 22  4  0  0  0
  3 23  1  0  0  0
  8 24  1  0  0  0
  8 25  1  0  0  0
 10 26  1  0  0  0
 12 27  1  0  0  0
 13 28  1  0  0  0
 16 29  1  0  0  0
 16 30  1  0  0  0
 16 31  1  0  0  0
 18 32  1  0  0  0
 19 33  1  0  0  0
 20 34  1  0  0  0
 21 35  1  0  0  0
 22 36  1  0  0  0
M  END
$$$$
