6css_ligand
  -I-interpret- 

 18 18  0  0  0  0  0  0  0  0999 V2000
   27.7330   -2.9620   -6.7190 C   0  0  0  0  0
   28.6180   -3.8640   -7.8120 C   0  0  0  0  0
   28.2950   -4.8640   -8.5750 C   0  0  0  0  0
   29.2740   -5.1610   -9.7500 C   0  0  0  0  0
   30.3360   -4.0460   -9.6020 C   0  0  0  0  0
   29.8550   -3.1490   -8.4210 C   0  0  0  0  0
   26.3170   -2.7910   -6.9070 N   0  0  0  0  0
   28.2760   -2.4390   -5.7540 O   0  0  0  0  0
   25.5130   -2.0740   -6.0770 O   0  0  0  0  0
   27.3967   -5.4574   -8.4043 H   0  0  0  0  0
   28.7833   -5.1528  -10.7233 H   0  0  0  0  0
   29.7013   -6.1626   -9.7031 H   0  0  0  0  0
   30.4338   -3.4691  -10.5217 H   0  0  0  0  0
   31.3228   -4.4643   -9.4037 H   0  0  0  0  0
   30.6418   -3.0220   -7.6774 H   0  0  0  0  0
   29.6000   -2.1471   -8.7663 H   0  0  0  0  0
   25.8872   -3.2375   -7.7172 H   0  0  0  0  0
   24.6109   -2.1022   -6.4040 H   0  0  0  0  0
  1  2  1  0  0  0
  1  7  1  0  0  0
  1  8  2  0  0  0
  2  3  2  0  0  0
  2  6  1  0  0  0
  3  4  1  0  0  0
  4  5  1  0  0  0
  5  6  1  0  0  0
  7  9  1  0  0  0
  3 10  1  0  0  0
  4 11  1  0  0  0
  4 12  1  0  0  0
  5 13  1  0  0  0
  5 14  1  0  0  0
  6 15  1  0  0  0
  6 16  1  0  0  0
  7 17  1  0  0  0
  9 18  1  0  0  0
M  END
$$$$
