4wy7_ligand
  -I-interpret- 

292299  0  0  0  0  0  0  0  0999 V2000
   12.5420  -11.9230  -30.8100 N   0  3  0  0  0
   13.1730  -11.4120  -29.5980 C   0  0  0  0  0
   13.7870  -10.0790  -29.8790 C   0  0  0  0  0
   14.7660   -9.9760  -30.6210 O   0  0  0  0  0
   14.2580  -12.3680  -29.0820 C   0  0  0  0  0
   14.8120  -11.9110  -27.7360 C   0  0  0  0  0
   14.3150  -10.9410  -27.1670 O   0  0  0  0  0
   15.8210  -12.6170  -27.2130 N   0  0  0  0  0
   13.2230   -9.0510  -29.2620 N   0  0  0  0  0
   13.7660   -7.6980  -29.3780 C   0  0  0  0  0
   15.2560   -7.6110  -29.0220 C   0  0  0  0  0
   16.0030   -6.8560  -29.6410 O   0  0  0  0  0
   12.9280   -6.7800  -28.4770 C   0  0  0  0  0
   13.2670   -5.3170  -28.4590 C   0  0  0  0  0
   12.7530   -4.3500  -29.2550 C   0  0  0  0  0
   14.2010   -4.6590  -27.5650 C   0  0  0  0  0
   13.3000   -3.1210  -28.9080 N   0  0  0  0  0
   14.1760   -3.2920  -27.8660 C   0  0  0  0  0
   15.0130   -5.1020  -26.5150 C   0  0  0  0  0
   14.9250   -2.3630  -27.1620 C   0  0  0  0  0
   15.7860   -4.1670  -25.8150 C   0  0  0  0  0
   15.7300   -2.8180  -26.1440 C   0  0  0  0  0
   15.7110   -8.4040  -28.0540 N   0  0  0  0  0
   17.1250   -8.3970  -27.6620 C   0  0  0  0  0
   18.1190   -8.8920  -28.7330 C   0  0  0  0  0
   19.3420   -8.7410  -28.5860 O   0  0  0  0  0
   17.2970   -9.1750  -26.3610 C   0  0  0  0  0
   16.6710   -8.4900  -25.1840 C   0  0  0  0  0
   15.3710   -8.7930  -24.7910 C   0  0  0  0  0
   17.3640   -7.5080  -24.5090 C   0  0  0  0  0
   14.7840   -8.1290  -23.7490 C   0  0  0  0  0
   16.7870   -6.8450  -23.4500 C   0  0  0  0  0
   15.5010   -7.1570  -23.0580 C   0  0  0  0  0
   17.6050   -9.4640  -29.8090 N   0  0  0  0  0
   18.4500   -9.9540  -30.9060 C   0  0  0  0  0
   18.5710   -8.9760  -32.0320 C   0  0  0  0  0
   19.4340   -9.1130  -32.9000 O   0  0  0  0  0
   17.8750  -11.2410  -31.4760 C   0  0  0  0  0
   18.0240  -12.4010  -30.5370 C   0  0  0  0  0
   18.9670  -12.3940  -29.7080 O   0  0  0  0  0
   17.1850  -13.3190  -30.6310 O   0  0  0  0  0
   17.7400   -7.9440  -32.0010 N   0  0  0  0  0
   17.6850   -6.9970  -33.0930 C   0  0  0  0  0
   19.0150   -6.3170  -33.3580 C   0  0  0  0  0
   19.4520   -6.1910  -34.5230 O   0  0  0  0  0
   16.5530   -5.9900  -32.8780 C   0  0  0  0  0
   15.2350   -6.7380  -32.9870 C   0  0  0  0  0
   16.5960   -4.9030  -33.9480 C   0  0  0  0  0
   14.0180   -5.9540  -32.5450 C   0  0  0  0  0
   19.6760   -5.8660  -32.3010 N   0  0  0  0  0
   20.8680   -5.0730  -32.5270 C   0  0  0  0  0
   21.9850   -5.9170  -33.1480 C   0  0  0  0  0
   22.8510   -5.3730  -33.8220 O   0  0  0  0  0
   21.3730   -4.3480  -31.2730 C   0  0  0  0  0
   21.5580   -5.2720  -30.1700 O   0  0  0  0  0
   20.4020   -3.1990  -30.9170 C   0  0  0  0  0
   21.9730   -7.2170  -32.8780 N   0  0  0  0  0
   22.9960   -8.1370  -33.4020 C   0  0  0  0  0
   22.8600   -8.2470  -34.9390 C   0  0  0  0  0
   23.8440   -8.1130  -35.6540 O   0  0  0  0  0
   22.9060   -9.4960  -32.7130 C   0  0  0  0  0
   23.8790  -10.5210  -33.2910 C   0  0  0  0  0
   23.4630  -11.4540  -33.9370 O   0  0  0  0  0
   25.1690  -10.3110  -33.1040 N   0  0  0  0  0
   21.6330   -8.4210  -35.4150 N   0  0  0  0  0
   21.3140   -8.4290  -36.8500 C   0  0  0  0  0
   21.7520   -7.0980  -37.4630 C   0  0  0  0  0
   22.3790   -7.0220  -38.5160 O   0  0  0  0  0
   19.8010   -8.6530  -37.0000 C   0  0  0  0  0
   19.1960   -8.3790  -38.3200 C   0  0  0  0  0
   19.2200   -9.1850  -39.4260 C   0  0  0  0  0
   18.4010   -7.2430  -38.6710 C   0  0  0  0  0
   18.5020   -8.6030  -40.4580 N   0  0  0  0  0
   17.9880   -7.4150  -40.0170 C   0  0  0  0  0
   17.9930   -6.0980  -37.9830 C   0  0  0  0  0
   17.2110   -6.4800  -40.6770 C   0  0  0  0  0
   17.2140   -5.1870  -38.6390 C   0  0  0  0  0
   16.8350   -5.3780  -39.9780 C   0  0  0  0  0
   21.4170   -6.0330  -36.7650 N   0  0  0  0  0
   21.7680   -4.7220  -37.2120 C   0  0  0  0  0
   23.2870   -4.6100  -37.3880 C   0  0  0  0  0
   23.7810   -4.1150  -38.4020 O   0  0  0  0  0
   21.2500   -3.7050  -36.2110 C   0  0  0  0  0
   21.1580   -2.2700  -36.6420 C   0  0  0  0  0
   20.3770   -2.1320  -37.9420 C   0  0  0  0  0
   20.4750   -1.4660  -35.5290 C   0  0  0  0  0
   24.0250   -5.0710  -36.3940 N   0  0  0  0  0
   25.4610   -5.0080  -36.4460 C   0  0  0  0  0
   26.0170   -5.7960  -37.6530 C   0  0  0  0  0
   26.9080   -5.3340  -38.3370 O   0  0  0  0  0
   26.0340   -5.5460  -35.1440 C   0  0  0  0  0
   27.5230   -5.6100  -35.1180 C   0  0  0  0  0
   28.3870   -4.6120  -34.7810 C   0  0  0  0  0
   28.3160   -6.7510  -35.4130 C   0  0  0  0  0
   29.6800   -5.0630  -34.8670 N   0  0  0  0  0
   29.6610   -6.3790  -35.2440 C   0  0  0  0  0
   28.0150   -8.0620  -35.7940 C   0  0  0  0  0
   30.7140   -7.2680  -35.4470 C   0  0  0  0  0
   29.0620   -8.9500  -35.9980 C   0  0  0  0  0
   30.3930   -8.5460  -35.8270 C   0  0  0  0  0
   25.4740   -6.9830  -37.8750 N   0  0  0  0  0
   25.8660   -7.8660  -38.9750 C   0  0  0  0  0
   25.5840   -7.2610  -40.3590 C   0  0  0  0  0
   26.4420   -7.2780  -41.2480 O   0  0  0  0  0
   25.1110   -9.1740  -38.8310 C   0  0  0  0  0
   25.5180  -10.2480  -39.7930 C   0  0  0  0  0
   26.8210  -10.7530  -39.7900 C   0  0  0  0  0
   24.5900  -10.8020  -40.7010 C   0  0  0  0  0
   27.2000  -11.7590  -40.6790 C   0  0  0  0  0
   24.9590  -11.8140  -41.5820 C   0  0  0  0  0
   26.2660  -12.2890  -41.5690 C   0  0  0  0  0
   26.6470  -13.2980  -42.4290 O   0  0  0  0  0
   24.3880   -6.7150  -40.5470 N   0  0  0  0  0
   24.0400   -6.1450  -41.8480 C   0  0  0  0  0
   24.7390   -4.8220  -42.1250 C   0  0  0  0  0
   24.9350   -4.4710  -43.2710 O   0  0  0  0  0
   22.5110   -6.0840  -42.0850 C   0  0  0  0  0
   21.8340   -5.0960  -41.1370 C   0  0  0  0  0
   21.9080   -7.4950  -41.9610 C   0  0  0  0  0
   20.3290   -5.2060  -41.1480 C   0  0  0  0  0
   25.1540   -4.0970  -41.0970 N   0  0  0  0  0
   25.9560   -2.8780  -41.3160 C   0  0  0  0  0
   27.4720   -3.0860  -41.5000 C   0  0  0  0  0
   28.1480   -2.1550  -41.9250 O   0  0  0  0  0
   25.7120   -1.8530  -40.2080 C   0  0  0  0  0
   24.5120   -0.9870  -40.5260 C   0  0  0  0  0
   23.9470   -0.3520  -39.2830 C   0  0  0  0  0
   22.7380    0.5070  -39.6280 C   0  0  0  0  0
   23.0890    1.8530  -40.1770 N   0  3  0  0  0
   28.0130   -4.2610  -41.1690 N   0  0  0  0  0
   29.4070   -4.5980  -41.5460 C   0  0  0  0  0
   29.5670   -4.6780  -43.0690 C   0  0  0  0  0
   30.3960   -3.9840  -43.6600 O   0  0  0  0  0
   29.8030   -5.9610  -41.0050 C   0  0  0  0  0
   30.2220   -6.0250  -39.5570 C   0  0  0  0  0
   30.8430   -7.3900  -39.2860 C   0  0  0  0  0
   29.9420   -8.5520  -39.7310 C   0  0  0  0  0
   30.6260   -9.8720  -39.6590 N   0  3  0  0  0
   28.7840   -5.5710  -43.6730 N   0  0  0  0  0
   28.6820   -5.7160  -45.1360 C   0  0  0  0  0
   28.0220   -4.4850  -45.8050 C   0  0  0  0  0
   28.2980   -4.1600  -46.9610 O   0  0  0  0  0
   27.9540   -7.0380  -45.5150 C   0  0  0  0  0
   26.7180   -7.4160  -44.6760 C   0  0  0  0  0
   26.6670   -8.8970  -44.2670 C   0  0  0  0  0
   25.9870   -9.7850  -45.3150 C   0  0  0  0  0
   24.5240   -9.5250  -45.4900 N   0  3  0  0  0
   27.2000   -3.7920  -45.2020 O   0  0  0  0  0
   11.8287  -11.2649  -31.1239 H   0  0  0  0  0
   13.2475  -12.0344  -31.5381 H   0  0  0  0  0
   12.1101  -12.8257  -30.6124 H   0  0  0  0  0
   12.4037  -11.3212  -28.8312 H   0  0  0  0  0
   15.0747  -12.3850  -29.8036 H   0  0  0  0  0
   13.8157  -13.3562  -28.9557 H   0  0  0  0  0
   16.2090  -12.3572  -26.3061 H   0  0  0  0  0
   16.2023  -13.4150  -27.7211 H   0  0  0  0  0
   12.3909   -9.2068  -28.6930 H   0  0  0  0  0
   13.7035   -7.3843  -30.4200 H   0  0  0  0  0
   13.1031   -7.1317  -27.4603 H   0  0  0  0  0
   11.9119   -6.8383  -28.8671 H   0  0  0  0  0
   12.0217   -4.5111  -30.0471 H   0  0  0  0  0
   15.0435   -6.1579  -26.2461 H   0  0  0  0  0
   14.8776   -1.3022  -27.4079 H   0  0  0  0  0
   16.4364   -4.5000  -25.0061 H   0  0  0  0  0
   16.3363   -2.1061  -25.5839 H   0  0  0  0  0
   15.0631   -9.0294  -27.5749 H   0  0  0  0  0
   17.3846   -7.3472  -27.5256 H   0  0  0  0  0
   18.3656   -9.2633  -26.1649 H   0  0  0  0  0
   16.8066  -10.1407  -26.4835 H   0  0  0  0  0
   14.8146   -9.5675  -25.3189 H   0  0  0  0  0
   18.3784   -7.2543  -24.8169 H   0  0  0  0  0
   13.7585   -8.3604  -23.4611 H   0  0  0  0  0
   17.3458   -6.0732  -22.9207 H   0  0  0  0  0
   15.0484   -6.6436  -22.2097 H   0  0  0  0  0
   16.5927   -9.5679  -29.8791 H   0  0  0  0  0
   19.4384  -10.1134  -30.4750 H   0  0  0  0  0
   18.4188  -11.4765  -32.3908 H   0  0  0  0  0
   16.8107  -11.0851  -31.6522 H   0  0  0  0  0
   19.4826  -11.5918  -29.8183 H   0  0  0  0  0
   17.1294   -7.8155  -31.1941 H   0  0  0  0  0
   17.4654   -7.5639  -33.9977 H   0  0  0  0  0
   16.6596   -5.5210  -31.8999 H   0  0  0  0  0
   15.3085   -7.6037  -32.3288 H   0  0  0  0  0
   15.0924   -6.9734  -34.0417 H   0  0  0  0  0
   17.5511   -4.3804  -33.8950 H   0  0  0  0  0
   16.4838   -5.3587  -34.9318 H   0  0  0  0  0
   15.7837   -4.1961  -33.7789 H   0  0  0  0  0
   14.1312   -5.6690  -31.4990 H   0  0  0  0  0
   13.9219   -5.0583  -33.1586 H   0  0  0  0  0
   13.1276   -6.5722  -32.6602 H   0  0  0  0  0
   19.3546   -6.0714  -31.3550 H   0  0  0  0  0
   20.5746   -4.2957  -33.2326 H   0  0  0  0  0
   22.3525   -3.9156  -31.4774 H   0  0  0  0  0
   21.8736   -4.7916  -29.4011 H   0  0  0  0  0
   20.3521   -2.4963  -31.7488 H   0  0  0  0  0
   19.4103   -3.6091  -30.7262 H   0  0  0  0  0
   20.7614   -2.6843  -30.0259 H   0  0  0  0  0
   21.2300   -7.5909  -32.2876 H   0  0  0  0  0
   23.9874   -7.7406  -33.1826 H   0  0  0  0  0
   21.8953   -9.8771  -32.8593 H   0  0  0  0  0
   23.1578   -9.3537  -31.6621 H   0  0  0  0  0
   25.8537  -10.9479  -33.5113 H   0  0  0  0  0
   25.4809   -9.5118  -32.5522 H   0  0  0  0  0
   20.8715   -8.5563  -34.7500 H   0  0  0  0  0
   21.8404   -9.2276  -37.3727 H   0  0  0  0  0
   19.3316   -7.9503  -36.3115 H   0  0  0  0  0
   19.6436   -9.7166  -36.8212 H   0  0  0  0  0
   19.7304  -10.1462  -39.4861 H   0  0  0  0  0
   18.2892   -5.9349  -36.9468 H   0  0  0  0  0
   16.9127   -6.6219  -41.7157 H   0  0  0  0  0
   16.8797   -4.2933  -38.1122 H   0  0  0  0  0
   16.2228   -4.6216  -40.4691 H   0  0  0  0  0
   20.8997   -6.1454  -35.8931 H   0  0  0  0  0
   21.3112   -4.5246  -38.1818 H   0  0  0  0  0
   21.9700   -3.7141  -35.3927 H   0  0  0  0  0
   20.2248   -4.0077  -35.9976 H   0  0  0  0  0
   22.1631   -1.8879  -36.8204 H   0  0  0  0  0
   20.8773   -2.6992  -38.7269 H   0  0  0  0  0
   19.3674   -2.5177  -37.8005 H   0  0  0  0  0
   20.3292   -1.0807  -38.2258 H   0  0  0  0  0
   19.4761   -1.8658  -35.3543 H   0  0  0  0  0
   21.0632   -1.5418  -34.6144 H   0  0  0  0  0
   20.4020   -0.4209  -35.8299 H   0  0  0  0  0
   23.5695   -5.4779  -35.5771 H   0  0  0  0  0
   25.7610   -3.9678  -36.5732 H   0  0  0  0  0
   25.6643   -6.5644  -35.0243 H   0  0  0  0  0
   25.7255   -4.8664  -34.3496 H   0  0  0  0  0
   28.0943   -3.6042  -34.4866 H   0  0  0  0  0
   26.9810   -8.3797  -35.9279 H   0  0  0  0  0
   31.7506   -6.9605  -35.3095 H   0  0  0  0  0
   28.8460   -9.9761  -36.2954 H   0  0  0  0  0
   31.1931   -9.2656  -36.0004 H   0  0  0  0  0
   24.7395   -7.3009  -37.2426 H   0  0  0  0  0
   26.9434   -8.0189  -38.9132 H   0  0  0  0  0
   24.0615   -8.9554  -39.0284 H   0  0  0  0  0
   25.3219   -9.5510  -37.8302 H   0  0  0  0  0
   27.5504  -10.3558  -39.0841 H   0  0  0  0  0
   23.5654  -10.4302  -40.7123 H   0  0  0  0  0
   28.2248  -12.1304  -40.6781 H   0  0  0  0  0
   24.2297  -12.2309  -42.2765 H   0  0  0  0  0
   25.8982  -13.5531  -42.9730 H   0  0  0  0  0
   23.7119   -6.6932  -39.7836 H   0  0  0  0  0
   24.4289   -6.8408  -42.5914 H   0  0  0  0  0
   22.3305   -5.7182  -43.0958 H   0  0  0  0  0
   22.0960   -4.0896  -41.4634 H   0  0  0  0  0
   22.1760   -5.3179  -40.1261 H   0  0  0  0  0
   22.3629   -8.1497  -42.7043 H   0  0  0  0  0
   22.1035   -7.8858  -40.9624 H   0  0  0  0  0
   20.8322   -7.4450  -42.1288 H   0  0  0  0  0
   19.9588   -5.0077  -42.1539 H   0  0  0  0  0
   20.0372   -6.2112  -40.8437 H   0  0  0  0  0
   19.9077   -4.4783  -40.4544 H   0  0  0  0  0
   24.9174   -4.3835  -40.1471 H   0  0  0  0  0
   25.5985   -2.5074  -42.2767 H   0  0  0  0  0
   26.5913   -1.2147  -40.1219 H   0  0  0  0  0
   25.5229   -2.3843  -39.2752 H   0  0  0  0  0
   23.7418   -1.6144  -40.9746 H   0  0  0  0  0
   24.8270   -0.1956  -41.2061 H   0  0  0  0  0
   24.7112    0.2775  -38.8273 H   0  0  0  0  0
   23.6392   -1.1368  -38.5920 H   0  0  0  0  0
   22.1805    0.6682  -38.7053 H   0  0  0  0  0
   22.1742   -0.0204  -40.3975 H   0  0  0  0  0
   22.2333    2.3683  -40.3835 H   0  0  0  0  0
   23.6390    2.3668  -39.4886 H   0  0  0  0  0
   23.6332    1.7387  -41.0321 H   0  0  0  0  0
   27.4574   -4.9390  -40.6474 H   0  0  0  0  0
   30.0342   -3.8103  -41.1285 H   0  0  0  0  0
   30.6749   -6.2694  -41.5819 H   0  0  0  0  0
   28.9126   -6.5845  -41.0859 H   0  0  0  0  0
   29.3538   -5.8798  -38.9142 H   0  0  0  0  0
   30.9488   -5.2401  -39.3475 H   0  0  0  0  0
   30.9969   -7.4795  -38.2106 H   0  0  0  0  0
   31.7726   -7.4524  -39.8518 H   0  0  0  0  0
   29.6609   -8.3778  -40.7696 H   0  0  0  0  0
   29.0829   -8.5840  -39.0609 H   0  0  0  0  0
   29.9840  -10.6034  -39.9644 H   0  0  0  0  0
   31.4458   -9.8623  -40.2659 H   0  0  0  0  0
   30.9153  -10.0517  -38.6975 H   0  0  0  0  0
   28.2224   -6.1904  -43.0887 H   0  0  0  0  0
   29.6981   -5.7698  -45.5268 H   0  0  0  0  0
   28.6795   -7.8356  -45.3550 H   0  0  0  0  0
   27.5928   -6.8991  -46.5340 H   0  0  0  0  0
   25.8389   -7.2203  -45.2901 H   0  0  0  0  0
   26.7589   -6.8290  -43.7585 H   0  0  0  0  0
   26.0879   -8.9673  -43.3462 H   0  0  0  0  0
   27.6935   -9.2453  -44.1525 H   0  0  0  0  0
   26.0904  -10.8159  -44.9764 H   0  0  0  0  0
   26.4658   -9.5750  -46.2714 H   0  0  0  0  0
   24.1508  -10.1540  -46.2009 H   0  0  0  0  0
   24.0430   -9.6864  -44.6051 H   0  0  0  0  0
   24.3844   -8.5580  -45.7828 H   0  0  0  0  0
   27.0718   -4.1455  -44.3187 H   0  0  0  0  0
  1  2  1  0  0  0
  2  3  1  0  0  0
  2  5  1  0  0  0
  3  4  2  0  0  0
  3  9  1  0  0  0
  5  6  1  0  0  0
  6  7  2  0  0  0
  6  8  1  0  0  0
  9 10  1  0  0  0
 10 11  1  0  0  0
 10 13  1  0  0  0
 11 12  2  0  0  0
 11 23  1  0  0  0
 13 14  1  0  0  0
 14 15  4  0  0  0
 14 16  4  0  0  0
 15 17  4  0  0  0
 16 18  4  0  0  0
 16 19  4  0  0  0
 17 18  4  0  0  0
 18 20  4  0  0  0
 19 21  4  0  0  0
 20 22  4  0  0  0
 21 22  4  0  0  0
 23 24  1  0  0  0
 24 25  1  0  0  0
 24 27  1  0  0  0
 25 26  2  0  0  0
 25 34  1  0  0  0
 27 28  1  0  0  0
 28 29  4  0  0  0
 28 30  4  0  0  0
 29 31  4  0  0  0
 30 32  4  0  0  0
 31 33  4  0  0  0
 32 33  4  0  0  0
 34 35  1  0  0  0
 35 36  1  0  0  0
 35 38  1  0  0  0
 36 37  2  0  0  0
 36 42  1  0  0  0
 38 39  1  0  0  0
 39 40  1  0  0  0
 39 41  2  0  0  0
 42 43  1  0  0  0
 43 44  1  0  0  0
 43 46  1  0  0  0
 44 45  2  0  0  0
 44 50  1  0  0  0
 46 47  1  0  0  0
 46 48  1  0  0  0
 47 49  1  0  0  0
 50 51  1  0  0  0
 51 52  1  0  0  0
 51 54  1  0  0  0
 52 53  2  0  0  0
 52 57  1  0  0  0
 54 55  1  0  0  0
 54 56  1  0  0  0
 57 58  1  0  0  0
 58 59  1  0  0  0
 58 61  1  0  0  0
 59 60  2  0  0  0
 59 65  1  0  0  0
 61 62  1  0  0  0
 62 63  2  0  0  0
 62 64  1  0  0  0
 65 66  1  0  0  0
 66 67  1  0  0  0
 66 69  1  0  0  0
 67 68  2  0  0  0
 67 79  1  0  0  0
 69 70  1  0  0  0
 70 71  4  0  0  0
 70 72  4  0  0  0
 71 73  4  0  0  0
 72 74  4  0  0  0
 72 75  4  0  0  0
 73 74  4  0  0  0
 74 76  4  0  0  0
 75 77  4  0  0  0
 76 78  4  0  0  0
 77 78  4  0  0  0
 79 80  1  0  0  0
 80 81  1  0  0  0
 80 83  1  0  0  0
 81 82  2  0  0  0
 81 87  1  0  0  0
 83 84  1  0  0  0
 84 85  1  0  0  0
 84 86  1  0  0  0
 87 88  1  0  0  0
 88 89  1  0  0  0
 88 91  1  0  0  0
 89 90  2  0  0  0
 89101  1  0  0  0
 91 92  1  0  0  0
 92 93  4  0  0  0
 92 94  4  0  0  0
 93 95  4  0  0  0
 94 96  4  0  0  0
 94 97  4  0  0  0
 95 96  4  0  0  0
 96 98  4  0  0  0
 97 99  4  0  0  0
 98100  4  0  0  0
 99100  4  0  0  0
101102  1  0  0  0
102103  1  0  0  0
102105  1  0  0  0
103104  2  0  0  0
103113  1  0  0  0
105106  1  0  0  0
106107  4  0  0  0
106108  4  0  0  0
107109  4  0  0  0
108110  4  0  0  0
109111  4  0  0  0
110111  4  0  0  0
111112  1  0  0  0
113114  1  0  0  0
114115  1  0  0  0
114117  1  0  0  0
115116  2  0  0  0
115121  1  0  0  0
117118  1  0  0  0
117119  1  0  0  0
118120  1  0  0  0
121122  1  0  0  0
122123  1  0  0  0
122125  1  0  0  0
123124  2  0  0  0
123130  1  0  0  0
125126  1  0  0  0
126127  1  0  0  0
127128  1  0  0  0
128129  1  0  0  0
130131  1  0  0  0
131132  1  0  0  0
131134  1  0  0  0
132133  2  0  0  0
132139  1  0  0  0
134135  1  0  0  0
135136  1  0  0  0
136137  1  0  0  0
137138  1  0  0  0
139140  1  0  0  0
140141  1  0  0  0
140143  1  0  0  0
141142  2  0  0  0
141148  1  0  0  0
143144  1  0  0  0
144145  1  0  0  0
145146  1  0  0  0
146147  1  0  0  0
  1149  1  0  0  0
  1150  1  0  0  0
  1151  1  0  0  0
  2152  1  0  0  0
  5153  1  0  0  0
  5154  1  0  0  0
  8155  1  0  0  0
  8156  1  0  0  0
  9157  1  0  0  0
 10158  1  0  0  0
 13159  1  0  0  0
 13160  1  0  0  0
 15161  1  0  0  0
 19162  1  0  0  0
 20163  1  0  0  0
 21164  1  0  0  0
 22165  1  0  0  0
 23166  1  0  0  0
 24167  1  0  0  0
 27168  1  0  0  0
 27169  1  0  0  0
 29170  1  0  0  0
 30171  1  0  0  0
 31172  1  0  0  0
 32173  1  0  0  0
 33174  1  0  0  0
 34175  1  0  0  0
 35176  1  0  0  0
 38177  1  0  0  0
 38178  1  0  0  0
 40179  1  0  0  0
 42180  1  0  0  0
 43181  1  0  0  0
 46182  1  0  0  0
 47183  1  0  0  0
 47184  1  0  0  0
 48185  1  0  0  0
 48186  1  0  0  0
 48187  1  0  0  0
 49188  1  0  0  0
 49189  1  0  0  0
 49190  1  0  0  0
 50191  1  0  0  0
 51192  1  0  0  0
 54193  1  0  0  0
 55194  1  0  0  0
 56195  1  0  0  0
 56196  1  0  0  0
 56197  1  0  0  0
 57198  1  0  0  0
 58199  1  0  0  0
 61200  1  0  0  0
 61201  1  0  0  0
 64202  1  0  0  0
 64203  1  0  0  0
 65204  1  0  0  0
 66205  1  0  0  0
 69206  1  0  0  0
 69207  1  0  0  0
 71208  1  0  0  0
 75209  1  0  0  0
 76210  1  0  0  0
 77211  1  0  0  0
 78212  1  0  0  0
 79213  1  0  0  0
 80214  1  0  0  0
 83215  1  0  0  0
 83216  1  0  0  0
 84217  1  0  0  0
 85218  1  0  0  0
 85219  1  0  0  0
 85220  1  0  0  0
 86221  1  0  0  0
 86222  1  0  0  0
 86223  1  0  0  0
 87224  1  0  0  0
 88225  1  0  0  0
 91226  1  0  0  0
 91227  1  0  0  0
 93228  1  0  0  0
 97229  1  0  0  0
 98230  1  0  0  0
 99231  1  0  0  0
100232  1  0  0  0
101233  1  0  0  0
102234  1  0  0  0
105235  1  0  0  0
105236  1  0  0  0
107237  1  0  0  0
108238  1  0  0  0
109239  1  0  0  0
110240  1  0  0  0
112241  1  0  0  0
113242  1  0  0  0
114243  1  0  0  0
117244  1  0  0  0
118245  1  0  0  0
118246  1  0  0  0
119247  1  0  0  0
119248  1  0  0  0
119249  1  0  0  0
120250  1  0  0  0
120251  1  0  0  0
120252  1  0  0  0
121253  1  0  0  0
122254  1  0  0  0
125255  1  0  0  0
125256  1  0  0  0
126257  1  0  0  0
126258  1  0  0  0
127259  1  0  0  0
127260  1  0  0  0
128261  1  0  0  0
128262  1  0  0  0
129263  1  0  0  0
129264  1  0  0  0
129265  1  0  0  0
130266  1  0  0  0
131267  1  0  0  0
134268  1  0  0  0
134269  1  0  0  0
135270  1  0  0  0
135271  1  0  0  0
136272  1  0  0  0
136273  1  0  0  0
137274  1  0  0  0
137275  1  0  0  0
138276  1  0  0  0
138277  1  0  0  0
138278  1  0  0  0
139279  1  0  0  0
140280  1  0  0  0
143281  1  0  0  0
143282  1  0  0  0
144283  1  0  0  0
144284  1  0  0  0
145285  1  0  0  0
145286  1  0  0  0
146287  1  0  0  0
146288  1  0  0  0
147289  1  0  0  0
147290  1  0  0  0
147291  1  0  0  0
148292  1  0  0  0
M  END
$$$$
