### 
### Created by X-TOOL on Mon Sep 10 21:13:21 2018
### 

@<TRIPOS>MOLECULE
4wy7_ligand
  293   300     1     0     0
SMALL
GAST_HUCK


@<TRIPOS>ATOM
      1 N          12.5420  -11.9230  -30.8100 N.4       1 ASN         0.2396
      2 CA         13.1730  -11.4120  -29.5980 C.3       1 ASN         0.0818
      3 C          13.7870  -10.0790  -29.8790 C.2       1 ASN         0.2292
      4 O          14.7660   -9.9760  -30.6210 O.2       1 ASN        -0.3905
      5 CB         14.2580  -12.3680  -29.0820 C.3       1 ASN         0.0972
      6 CG         14.8120  -11.9110  -27.7360 C.2       1 ASN         0.1813
      7 OD1        14.3150  -10.9410  -27.1670 O.2       1 ASN        -0.3969
      8 ND2        15.8210  -12.6170  -27.2130 N.am      1 ASN        -0.3006
      9 N          13.2230   -9.0510  -29.2620 N.am      1 TRP        -0.2598
     10 CA         13.7660   -7.6980  -29.3780 C.3       1 TRP         0.1353
     11 C          15.2560   -7.6110  -29.0220 C.2       1 TRP         0.2053
     12 O          16.0030   -6.8560  -29.6410 O.2       1 TRP        -0.3942
     13 CB         12.9280   -6.7800  -28.4770 C.3       1 TRP         0.0042
     14 CG         13.2670   -5.3170  -28.4590 C.2       1 TRP        -0.0418
     15 CD1        12.7530   -4.3500  -29.2550 C.2       1 TRP         0.0167
     16 CD2        14.2010   -4.6590  -27.5650 C.ar      1 TRP        -0.0214
     17 NE1        13.3000   -3.1210  -28.9080 N.pl3     1 TRP        -0.2890
     18 CE2        14.1760   -3.2920  -27.8660 C.ar      1 TRP         0.0603
     19 CE3        15.0130   -5.1020  -26.5150 C.ar      1 TRP        -0.0747
     20 CZ2        14.9250   -2.3630  -27.1620 C.ar      1 TRP        -0.0443
     21 CZ3        15.7860   -4.1670  -25.8150 C.ar      1 TRP        -0.0792
     22 CH2        15.7300   -2.8180  -26.1440 C.ar      1 TRP        -0.0768
     23 N          15.7110   -8.4040  -28.0540 N.am      1 PHE        -0.2618
     24 CA         17.1250   -8.3970  -27.6620 C.3       1 PHE         0.1404
     25 C          18.1190   -8.8920  -28.7330 C.2       1 PHE         0.2060
     26 O          19.3420   -8.7410  -28.5860 O.2       1 PHE        -0.3942
     27 CB         17.2970   -9.1750  -26.3610 C.3       1 PHE         0.0214
     28 CG         16.6710   -8.4900  -25.1840 C.ar      1 PHE        -0.0386
     29 CD1        15.3710   -8.7930  -24.7910 C.ar      1 PHE        -0.0601
     30 CD2        17.3640   -7.5080  -24.5090 C.ar      1 PHE        -0.0601
     31 CE1        14.7840   -8.1290  -23.7490 C.ar      1 PHE        -0.0686
     32 CE2        16.7870   -6.8450  -23.4500 C.ar      1 PHE        -0.0686
     33 CZ         15.5010   -7.1570  -23.0580 C.ar      1 PHE        -0.0687
     34 N          17.6050   -9.4640  -29.8090 N.am      1 ASP        -0.2620
     35 CA         18.4500   -9.9540  -30.9060 C.3       1 ASP         0.1423
     36 C          18.5710   -8.9760  -32.0320 C.2       1 ASP         0.2056
     37 O          19.4340   -9.1130  -32.9000 O.2       1 ASP        -0.3943
     38 CB         17.8750  -11.2410  -31.4760 C.3       1 ASP         0.0406
     39 CG         18.0240  -12.4010  -30.5370 C.2       1 ASP         0.0393
     40 OD1        18.9670  -12.3940  -29.7080 O.co2     1 ASP        -0.5688
     41 OD2        17.1850  -13.3190  -30.6310 O.co2     1 ASP        -0.5688
     42 N          17.7400   -7.9440  -32.0010 N.am      1 ILE        -0.2634
     43 CA         17.6850   -6.9970  -33.0930 C.3       1 ILE         0.1335
     44 C          19.0150   -6.3170  -33.3580 C.2       1 ILE         0.2042
     45 O          19.4520   -6.1910  -34.5230 O.2       1 ILE        -0.3944
     46 CB         16.5530   -5.9900  -32.8780 C.3       1 ILE        -0.0037
     47 CG1        15.2350   -6.7380  -32.9870 C.3       1 ILE        -0.0491
     48 CG2        16.5960   -4.9030  -33.9480 C.3       1 ILE        -0.0582
     49 CD1        14.0180   -5.9540  -32.5450 C.3       1 ILE        -0.0648
     50 N          19.6760   -5.8660  -32.3010 N.am      1 THR        -0.2613
     51 CA         20.8680   -5.0730  -32.5270 C.3       1 THR         0.1565
     52 C          21.9850   -5.9170  -33.1480 C.2       1 THR         0.2066
     53 O          22.8510   -5.3730  -33.8220 O.2       1 THR        -0.3943
     54 CB         21.3730   -4.3480  -31.2730 C.3       1 THR         0.0924
     55 OG1        21.5580   -5.2720  -30.1700 O.3       1 THR        -0.3874
     56 CG2        20.4020   -3.1990  -30.9170 C.3       1 THR        -0.0346
     57 N          21.9730   -7.2170  -32.8780 N.am      1 ASN        -0.2615
     58 CA         22.9960   -8.1370  -33.4020 C.3       1 ASN         0.1476
     59 C          22.8600   -8.2470  -34.9390 C.2       1 ASN         0.2063
     60 O          23.8440   -8.1130  -35.6540 O.2       1 ASN        -0.3942
     61 CB         22.9060   -9.4960  -32.7130 C.3       1 ASN         0.0773
     62 CG         23.8790  -10.5210  -33.2910 C.2       1 ASN         0.1780
     63 OD1        23.4630  -11.4540  -33.9370 O.2       1 ASN        -0.3970
     64 ND2        25.1690  -10.3110  -33.1040 N.am      1 ASN        -0.3007
     65 N          21.6330   -8.4210  -35.4150 N.am      1 TRP        -0.2625
     66 CA         21.3140   -8.4290  -36.8500 C.3       1 TRP         0.1352
     67 C          21.7520   -7.0980  -37.4630 C.2       1 TRP         0.2052
     68 O          22.3790   -7.0220  -38.5160 O.2       1 TRP        -0.3942
     69 CB         19.8010   -8.6530  -37.0000 C.3       1 TRP         0.0042
     70 CG         19.1960   -8.3790  -38.3200 C.2       1 TRP        -0.0418
     71 CD1        19.2200   -9.1850  -39.4260 C.2       1 TRP         0.0167
     72 CD2        18.4010   -7.2430  -38.6710 C.ar      1 TRP        -0.0214
     73 NE1        18.5020   -8.6030  -40.4580 N.pl3     1 TRP        -0.2890
     74 CE2        17.9880   -7.4150  -40.0170 C.ar      1 TRP         0.0603
     75 CE3        17.9930   -6.0980  -37.9830 C.ar      1 TRP        -0.0747
     76 CZ2        17.2110   -6.4800  -40.6770 C.ar      1 TRP        -0.0443
     77 CZ3        17.2140   -5.1870  -38.6390 C.ar      1 TRP        -0.0792
     78 CH2        16.8350   -5.3780  -39.9780 C.ar      1 TRP        -0.0768
     79 N          21.4170   -6.0330  -36.7650 N.am      1 LEU        -0.2636
     80 CA         21.7680   -4.7220  -37.2120 C.3       1 LEU         0.1312
     81 C          23.2870   -4.6100  -37.3880 C.2       1 LEU         0.2040
     82 O          23.7810   -4.1150  -38.4020 O.2       1 LEU        -0.3944
     83 CB         21.2500   -3.7050  -36.2110 C.3       1 LEU        -0.0101
     84 CG         21.1580   -2.2700  -36.6420 C.3       1 LEU        -0.0425
     85 CD1        20.3770   -2.1320  -37.9420 C.3       1 LEU        -0.0625
     86 CD2        20.4750   -1.4660  -35.5290 C.3       1 LEU        -0.0625
     87 N          24.0250   -5.0710  -36.3940 N.am      1 TRP        -0.2627
     88 CA         25.4610   -5.0080  -36.4460 C.3       1 TRP         0.1352
     89 C          26.0170   -5.7960  -37.6530 C.2       1 TRP         0.2053
     90 O          26.9080   -5.3340  -38.3370 O.2       1 TRP        -0.3942
     91 CB         26.0340   -5.5460  -35.1440 C.3       1 TRP         0.0042
     92 CG         27.5230   -5.6100  -35.1180 C.2       1 TRP        -0.0418
     93 CD1        28.3870   -4.6120  -34.7810 C.2       1 TRP         0.0167
     94 CD2        28.3160   -6.7510  -35.4130 C.ar      1 TRP        -0.0214
     95 NE1        29.6800   -5.0630  -34.8670 N.pl3     1 TRP        -0.2890
     96 CE2        29.6610   -6.3790  -35.2440 C.ar      1 TRP         0.0603
     97 CE3        28.0150   -8.0620  -35.7940 C.ar      1 TRP        -0.0747
     98 CZ2        30.7140   -7.2680  -35.4470 C.ar      1 TRP        -0.0443
     99 CZ3        29.0620   -8.9500  -35.9980 C.ar      1 TRP        -0.0792
    100 CH2        30.3930   -8.5460  -35.8270 C.ar      1 TRP        -0.0768
    101 N          25.4740   -6.9830  -37.8750 N.am      1 TYR        -0.2620
    102 CA         25.8660   -7.8660  -38.9750 C.3       1 TYR         0.1390
    103 C          25.5840   -7.2610  -40.3590 C.2       1 TYR         0.2057
    104 O          26.4420   -7.2780  -41.2480 O.2       1 TYR        -0.3942
    105 CB         25.1110   -9.1740  -38.8310 C.3       1 TYR         0.0163
    106 CG         25.5180  -10.2480  -39.7930 C.ar      1 TYR        -0.0493
    107 CD1        26.8210  -10.7530  -39.7900 C.ar      1 TYR        -0.0685
    108 CD2        24.5900  -10.8020  -40.7010 C.ar      1 TYR        -0.0685
    109 CE1        27.2000  -11.7590  -40.6790 C.ar      1 TYR        -0.0398
    110 CE2        24.9590  -11.8140  -41.5820 C.ar      1 TYR        -0.0398
    111 CZ         26.2660  -12.2890  -41.5690 C.ar      1 TYR         0.0805
    112 OH         26.6470  -13.2980  -42.4290 O.3       1 TYR        -0.3376
    113 N          24.3880   -6.7150  -40.5470 N.am      1 ILE        -0.2633
    114 CA         24.0400   -6.1450  -41.8480 C.3       1 ILE         0.1335
    115 C          24.7390   -4.8220  -42.1250 C.2       1 ILE         0.2042
    116 O          24.9350   -4.4710  -43.2710 O.2       1 ILE        -0.3944
    117 CB         22.5110   -6.0840  -42.0850 C.3       1 ILE        -0.0037
    118 CG1        21.8340   -5.0960  -41.1370 C.3       1 ILE        -0.0491
    119 CG2        21.9080   -7.4950  -41.9610 C.3       1 ILE        -0.0582
    120 CD1        20.3290   -5.2060  -41.1480 C.3       1 ILE        -0.0648
    121 N          25.1540   -4.0970  -41.0970 N.am      1 LYS        -0.2637
    122 CA         25.9560   -2.8780  -41.3160 C.3       1 LYS         0.1310
    123 C          27.4720   -3.0860  -41.5000 C.2       1 LYS         0.2039
    124 O          28.1480   -2.1550  -41.9250 O.2       1 LYS        -0.3944
    125 CB         25.7120   -1.8530  -40.2080 C.3       1 LYS        -0.0122
    126 CG         24.5120   -0.9870  -40.5260 C.3       1 LYS        -0.0440
    127 CD         23.9470   -0.3520  -39.2830 C.3       1 LYS        -0.0124
    128 CE         22.7380    0.5070  -39.6280 C.3       1 LYS        -0.0354
    129 NZ         23.0890    1.8530  -40.1770 N.4       1 LYS         0.2185
    130 N          28.0130   -4.2610  -41.1690 N.am      1 LYS        -0.2637
    131 CA         29.4070   -4.5980  -41.5460 C.3       1 LYS         0.1309
    132 C          29.5670   -4.6780  -43.0690 C.2       1 LYS         0.2033
    133 O          30.3960   -3.9840  -43.6600 O.2       1 LYS        -0.3944
    134 CB         29.8030   -5.9610  -41.0050 C.3       1 LYS        -0.0122
    135 CG         30.2220   -6.0250  -39.5570 C.3       1 LYS        -0.0440
    136 CD         30.8430   -7.3900  -39.2860 C.3       1 LYS        -0.0124
    137 CE         29.9420   -8.5520  -39.7310 C.3       1 LYS        -0.0354
    138 NZ         30.6260   -9.8720  -39.6590 N.4       1 LYS         0.2185
    139 N          28.7840   -5.5710  -43.6730 N.am      1 LYS        -0.2695
    140 CA         28.6820   -5.7160  -45.1360 C.3       1 LYS         0.0944
    141 C          28.0220   -4.4850  -45.8050 C.2       1 LYS         0.0601
    142 O          28.2980   -4.1600  -46.9610 O.co2     1 LYS        -0.5666
    143 CB         27.9540   -7.0380  -45.5150 C.3       1 LYS        -0.0177
    144 CG         26.7180   -7.4160  -44.6760 C.3       1 LYS        -0.0446
    145 CD         26.6670   -8.8970  -44.2670 C.3       1 LYS        -0.0125
    146 CE         25.9870   -9.7850  -45.3150 C.3       1 LYS        -0.0354
    147 NZ         24.5240   -9.5250  -45.4900 N.4       1 LYS         0.2185
    148 OXT        27.2000   -3.7920  -45.2020 O.co2     1 LYS        -0.5666
    149 H1         12.1280  -12.8222  -30.6198 H         1 ASN         0.2017
    150 H2         13.2356  -12.0191  -31.5351 H         1 ASN         0.2017
    151 H3         11.8263  -11.2809  -31.1126 H         1 ASN         0.2017
    152 H4         12.4030  -11.2983  -28.8207 H         1 ASN         0.1125
    153 H5         15.0794  -12.4043  -29.8128 H         1 ASN         0.0585
    154 H6         13.8244  -13.3724  -28.9675 H         1 ASN         0.0585
    155 H7         16.2134  -12.3514  -26.3324 H         1 ASN         0.1814
    156 H8         16.1827  -13.4103  -27.7027 H         1 ASN         0.1814
    157 H9         12.4072   -9.2038  -28.7042 H         1 TRP         0.1886
    158 H10        13.6526   -7.3684  -30.4213 H         1 TRP         0.0815
    159 H11        13.0269   -7.1523  -27.4467 H         1 TRP         0.0397
    160 H12        11.8805   -6.8700  -28.8005 H         1 TRP         0.0397
    161 H13        12.0224   -4.5110  -30.0464 H         1 TRP         0.0795
    162 H14        13.0821   -2.2224  -29.3618 H         1 TRP         0.2216
    163 H15        15.0433   -6.1521  -26.2476 H         1 TRP         0.0540
    164 H16        14.8779   -1.3080  -27.4065 H         1 TRP         0.0541
    165 H17        16.4328   -4.4981  -25.0106 H         1 TRP         0.0510
    166 H18        16.3330   -2.1101  -25.5870 H         1 TRP         0.0530
    167 H19        15.0758   -9.0171  -27.5843 H         1 PHE         0.1885
    168 H20        17.3882   -7.3486  -27.4579 H         1 PHE         0.0823
    169 H21        18.3724   -9.2971  -26.1647 H         1 PHE         0.0474
    170 H22        16.8312  -10.1644  -26.4796 H         1 PHE         0.0474
    171 H23        14.8177   -9.5632  -25.3160 H         1 PHE         0.0557
    172 H24        18.3728   -7.2557  -24.8152 H         1 PHE         0.0557
    173 H25        13.7641   -8.3591  -23.4626 H         1 PHE         0.0599
    174 H26        17.3428   -6.0775  -22.9236 H         1 PHE         0.0599
    175 H27        15.0508   -6.6464  -22.2144 H         1 PHE         0.0559
    176 H28        16.6126   -9.5658  -29.8777 H         1 ASP         0.1884
    177 H29        19.4540  -10.1529  -30.5029 H         1 ASP         0.0819
    178 H30        18.3991  -11.4767  -32.4140 H         1 ASP         0.0478
    179 H31        16.8052  -11.0888  -31.6819 H         1 ASP         0.0478
    180 H32        17.1414   -7.8180  -31.2099 H         1 ILE         0.1883
    181 H33        17.4393   -7.5693  -33.9997 H         1 ILE         0.0803
    182 H34        16.6463   -5.5315  -31.8825 H         1 ILE         0.0345
    183 H35        15.3031   -7.6425  -32.3647 H         1 ILE         0.0267
    184 H36        15.0919   -7.0265  -34.0388 H         1 ILE         0.0267
    185 H37        17.5475   -4.3557  -33.8766 H         1 ILE         0.0235
    186 H38        15.7594   -4.2052  -33.7957 H         1 ILE         0.0235
    187 H39        16.5122   -5.3644  -34.9430 H         1 ILE         0.0235
    188 H40        13.1187   -6.5768  -32.6608 H         1 ILE         0.0230
    189 H41        13.9198   -5.0497  -33.1636 H         1 ILE         0.0230
    190 H42        14.1310   -5.6658  -31.4895 H         1 ILE         0.0230
    191 H43        19.3609   -6.0673  -31.3735 H         1 THR         0.1884
    192 H44        20.5984   -4.2964  -33.2578 H         1 THR         0.0826
    193 H45        22.3529   -3.9049  -31.5041 H         1 THR         0.0639
    194 H46        21.8703   -4.7966  -29.4091 H         1 THR         0.2101
    195 H47        20.7636   -2.6787  -30.0178 H         1 THR         0.0257
    196 H48        19.4007   -3.6116  -30.7241 H         1 THR         0.0257
    197 H49        20.3508   -2.4891  -31.7557 H         1 THR         0.0257
    198 H50        21.2445   -7.5835  -32.2992 H         1 ASN         0.1885
    199 H51        23.9865   -7.7137  -33.1791 H         1 ASN         0.0826
    200 H52        21.8819   -9.8806  -32.8279 H         1 ASN         0.0551
    201 H53        23.1301   -9.3632  -31.6443 H         1 ASN         0.0551
    202 H54        25.8388  -10.9589  -33.4668 H         1 ASN         0.1814
    203 H55        25.4763   -9.5041  -32.5996 H         1 ASN         0.1814
    204 H56        20.8864   -8.5536  -34.7631 H         1 TRP         0.1884
    205 H57        21.8531   -9.2487  -37.3473 H         1 TRP         0.0815
    206 H58        19.2982   -8.0052  -36.2668 H         1 TRP         0.0397
    207 H59        19.5988   -9.7068  -36.7578 H         1 TRP         0.0397
    208 H60        19.7300  -10.1453  -39.4861 H         1 TRP         0.0795
    209 H61        18.3763   -8.9991  -41.4004 H         1 TRP         0.2216
    210 H62        18.2875   -5.9358  -36.9525 H         1 TRP         0.0540
    211 H63        16.9143   -6.6212  -41.7100 H         1 TRP         0.0541
    212 H64        16.8815   -4.2982  -38.1151 H         1 TRP         0.0510
    213 H65        16.2262   -4.6258  -40.4664 H         1 TRP         0.0530
    214 H66        20.9099   -6.1432  -35.9102 H         1 LEU         0.1883
    215 H67        21.2895   -4.5358  -38.1848 H         1 LEU         0.0800
    216 H68        21.9151   -3.7407  -35.3356 H         1 LEU         0.0315
    217 H69        20.2389   -4.0227  -35.9165 H         1 LEU         0.0315
    218 H70        22.1740   -1.8786  -36.7988 H         1 LEU         0.0298
    219 H71        20.3281   -1.0714  -38.2295 H         1 LEU         0.0232
    220 H72        19.3578   -2.5209  -37.8005 H         1 LEU         0.0232
    221 H73        20.8810   -2.7039  -38.7350 H         1 LEU         0.0232
    222 H74        21.0471   -1.5728  -34.5956 H         1 LEU         0.0232
    223 H75        19.4531   -1.8439  -35.3779 H         1 LEU         0.0232
    224 H76        20.4350   -0.4046  -35.8150 H         1 LEU         0.0232
    225 H77        23.5784   -5.4699  -35.5931 H         1 TRP         0.1884
    226 H78        25.7609   -3.9552  -36.5543 H         1 TRP         0.0815
    227 H79        25.6413   -6.5614  -34.9866 H         1 TRP         0.0397
    228 H80        25.7015   -4.8930  -34.3237 H         1 TRP         0.0397
    229 H81        28.0946   -3.6051  -34.4868 H         1 TRP         0.0795
    230 H82        30.5246   -4.5043  -34.6791 H         1 TRP         0.2216
    231 H83        26.9867   -8.3780  -35.9271 H         1 TRP         0.0540
    232 H84        31.7449   -6.9622  -35.3102 H         1 TRP         0.0541
    233 H85        28.8472   -9.9705  -36.2938 H         1 TRP         0.0510
    234 H86        31.1887   -9.2616  -35.9994 H         1 TRP         0.0530
    235 H87        24.7539   -7.2946  -37.2550 H         1 TYR         0.1885
    236 H88        26.9457   -8.0615  -38.8976 H         1 TYR         0.0821
    237 H89        24.0408   -8.9688  -38.9812 H         1 TYR         0.0453
    238 H90        25.2725   -9.5509  -37.8103 H         1 TYR         0.0453
    239 H91        27.5464  -10.3580  -39.0880 H         1 TYR         0.0530
    240 H92        23.5711  -10.4323  -40.7122 H         1 TYR         0.0530
    241 H93        28.2191  -12.1284  -40.6781 H         1 TYR         0.0525
    242 H94        24.2337  -12.2286  -42.2727 H         1 TYR         0.0525
    243 H95        27.5647  -13.5010  -42.2904 H         1 TYR         0.2458
    244 H96        23.7251   -6.6937  -39.7986 H         1 ILE         0.1883
    245 H97        24.4302   -6.8500  -42.5968 H         1 ILE         0.0803
    246 H98        22.3400   -5.7305  -43.1125 H         1 ILE         0.0345
    247 H99        22.1131   -4.0751  -41.4367 H         1 ILE         0.0267
    248 H100       22.1922   -5.2890  -40.1150 H         1 ILE         0.0267
    249 H101       22.4204   -8.1752  -42.6573 H         1 ILE         0.0235
    250 H102       20.8363   -7.4586  -42.2061 H         1 ILE         0.0235
    251 H103       22.0365   -7.8595  -40.9311 H         1 ILE         0.0235
    252 H104       19.9026   -4.4721  -40.4483 H         1 ILE         0.0230
    253 H105       20.0332   -6.2200  -40.8410 H         1 ILE         0.0230
    254 H106       19.9541   -5.0060  -42.1626 H         1 ILE         0.0230
    255 H107       24.9221   -4.3779  -40.1657 H         1 LYS         0.1883
    256 H108       25.5887   -2.4383  -42.2550 H         1 LYS         0.0800
    257 H109       26.6010   -1.2131  -40.1076 H         1 LYS         0.0312
    258 H110       25.5326   -2.3827  -39.2608 H         1 LYS         0.0312
    259 H111       23.7354   -1.6096  -40.9942 H         1 LYS         0.0269
    260 H112       24.8177   -0.1947  -41.2251 H         1 LYS         0.0269
    261 H113       24.7178    0.2783  -38.8156 H         1 LYS         0.0317
    262 H114       23.6422   -1.1408  -38.5795 H         1 LYS         0.0317
    263 H115       22.1424    0.6500  -38.7143 H         1 LYS         0.0813
    264 H116       22.1362   -0.0270  -40.3781 H         1 LYS         0.0813
    265 H117       22.2440    2.3632  -40.3814 H         1 LYS         0.1994
    266 H118       23.6269    1.7414  -41.0221 H         1 LYS         0.1994
    267 H119       23.6326    2.3617  -39.4975 H         1 LYS         0.1994
    268 H120       27.4683   -4.9257  -40.6577 H         1 LYS         0.1883
    269 H121       30.0797   -3.8272  -41.1418 H         1 LYS         0.0800
    270 H122       30.6447   -6.3274  -41.6110 H         1 LYS         0.0312
    271 H123       28.9407   -6.6321  -41.1314 H         1 LYS         0.0312
    272 H124       29.3429   -5.8839  -38.9110 H         1 LYS         0.0269
    273 H125       30.9596   -5.2356  -39.3502 H         1 LYS         0.0269
    274 H126       31.0294   -7.4833  -38.2059 H         1 LYS         0.0317
    275 H127       31.7968   -7.4566  -39.8298 H         1 LYS         0.0317
    276 H128       29.6278   -8.3752  -40.7702 H         1 LYS         0.0813
    277 H129       29.0560   -8.5792  -39.0796 H         1 LYS         0.0813
    278 H130       29.9924  -10.5956  -39.9606 H         1 LYS         0.1994
    279 H131       30.9124  -10.0507  -38.7092 H         1 LYS         0.1994
    280 H132       31.4364   -9.8637  -40.2584 H         1 LYS         0.1994
    281 H133       28.2334   -6.1782  -43.1002 H         1 LYS         0.1875
    282 H134       29.7076   -5.7839  -45.5278 H         1 LYS         0.0726
    283 H135       28.6822   -7.8572  -45.4223 H         1 LYS         0.0305
    284 H136       27.6309   -6.9513  -46.5629 H         1 LYS         0.0305
    285 H137       25.8175   -7.1892  -45.2656 H         1 LYS         0.0269
    286 H138       26.7210   -6.8049  -43.7614 H         1 LYS         0.0269
    287 H139       26.1100   -8.9807  -43.3222 H         1 LYS         0.0317
    288 H140       27.6964   -9.2553  -44.1188 H         1 LYS         0.0317
    289 H141       26.1161  -10.8347  -45.0125 H         1 LYS         0.0813
    290 H142       26.4841   -9.6183  -46.2820 H         1 LYS         0.0813
    291 H143       24.1540  -10.1461  -46.1924 H         1 LYS         0.1994
    292 H144       24.3848   -8.5696  -45.7794 H         1 LYS         0.1994
    293 H145       24.0475   -9.6842  -44.6161 H         1 LYS         0.1994
@<TRIPOS>BOND
     1    1    2 1  
     2    2    3 1  
     3    2    5 1  
     4    3    4 2  
     5    3    9 am 
     6    5    6 1  
     7    6    7 2  
     8    6    8 am 
     9    9   10 1  
    10   10   11 1  
    11   10   13 1  
    12   11   12 2  
    13   11   23 am 
    14   13   14 1  
    15   14   15 2  
    16   14   16 1  
    17   15   17 1  
    18   16   18 ar 
    19   16   19 ar 
    20   17   18 1  
    21   18   20 ar 
    22   19   21 ar 
    23   20   22 ar 
    24   21   22 ar 
    25   23   24 1  
    26   24   25 1  
    27   24   27 1  
    28   25   26 2  
    29   25   34 am 
    30   27   28 1  
    31   28   29 ar 
    32   28   30 ar 
    33   29   31 ar 
    34   30   32 ar 
    35   31   33 ar 
    36   32   33 ar 
    37   34   35 1  
    38   35   36 1  
    39   35   38 1  
    40   36   37 2  
    41   36   42 am 
    42   38   39 1  
    43   39   40 ar 
    44   39   41 ar 
    45   42   43 1  
    46   43   44 1  
    47   43   46 1  
    48   44   45 2  
    49   44   50 am 
    50   46   47 1  
    51   46   48 1  
    52   47   49 1  
    53   50   51 1  
    54   51   52 1  
    55   51   54 1  
    56   52   53 2  
    57   52   57 am 
    58   54   55 1  
    59   54   56 1  
    60   57   58 1  
    61   58   59 1  
    62   58   61 1  
    63   59   60 2  
    64   59   65 am 
    65   61   62 1  
    66   62   63 2  
    67   62   64 am 
    68   65   66 1  
    69   66   67 1  
    70   66   69 1  
    71   67   68 2  
    72   67   79 am 
    73   69   70 1  
    74   70   71 2  
    75   70   72 1  
    76   71   73 1  
    77   72   74 ar 
    78   72   75 ar 
    79   73   74 1  
    80   74   76 ar 
    81   75   77 ar 
    82   76   78 ar 
    83   77   78 ar 
    84   79   80 1  
    85   80   81 1  
    86   80   83 1  
    87   81   82 2  
    88   81   87 am 
    89   83   84 1  
    90   84   85 1  
    91   84   86 1  
    92   87   88 1  
    93   88   89 1  
    94   88   91 1  
    95   89   90 2  
    96   89  101 am 
    97   91   92 1  
    98   92   93 2  
    99   92   94 1  
   100   93   95 1  
   101   94   96 ar 
   102   94   97 ar 
   103   95   96 1  
   104   96   98 ar 
   105   97   99 ar 
   106   98  100 ar 
   107   99  100 ar 
   108  101  102 1  
   109  102  103 1  
   110  102  105 1  
   111  103  104 2  
   112  103  113 am 
   113  105  106 1  
   114  106  107 ar 
   115  106  108 ar 
   116  107  109 ar 
   117  108  110 ar 
   118  109  111 ar 
   119  110  111 ar 
   120  111  112 1  
   121  113  114 1  
   122  114  115 1  
   123  114  117 1  
   124  115  116 2  
   125  115  121 am 
   126  117  118 1  
   127  117  119 1  
   128  118  120 1  
   129  121  122 1  
   130  122  123 1  
   131  122  125 1  
   132  123  124 2  
   133  123  130 am 
   134  125  126 1  
   135  126  127 1  
   136  127  128 1  
   137  128  129 1  
   138  130  131 1  
   139  131  132 1  
   140  131  134 1  
   141  132  133 2  
   142  132  139 am 
   143  134  135 1  
   144  135  136 1  
   145  136  137 1  
   146  137  138 1  
   147  139  140 1  
   148  140  141 1  
   149  140  143 1  
   150  141  142 ar 
   151  141  148 ar 
   152  143  144 1  
   153  144  145 1  
   154  145  146 1  
   155  146  147 1  
   156    1  149 1  
   157    1  150 1  
   158    1  151 1  
   159    2  152 1  
   160    5  153 1  
   161    5  154 1  
   162    8  155 1  
   163    8  156 1  
   164    9  157 1  
   165   10  158 1  
   166   13  159 1  
   167   13  160 1  
   168   15  161 1  
   169   17  162 1  
   170   19  163 1  
   171   20  164 1  
   172   21  165 1  
   173   22  166 1  
   174   23  167 1  
   175   24  168 1  
   176   27  169 1  
   177   27  170 1  
   178   29  171 1  
   179   30  172 1  
   180   31  173 1  
   181   32  174 1  
   182   33  175 1  
   183   34  176 1  
   184   35  177 1  
   185   38  178 1  
   186   38  179 1  
   187   42  180 1  
   188   43  181 1  
   189   46  182 1  
   190   47  183 1  
   191   47  184 1  
   192   48  185 1  
   193   48  186 1  
   194   48  187 1  
   195   49  188 1  
   196   49  189 1  
   197   49  190 1  
   198   50  191 1  
   199   51  192 1  
   200   54  193 1  
   201   55  194 1  
   202   56  195 1  
   203   56  196 1  
   204   56  197 1  
   205   57  198 1  
   206   58  199 1  
   207   61  200 1  
   208   61  201 1  
   209   64  202 1  
   210   64  203 1  
   211   65  204 1  
   212   66  205 1  
   213   69  206 1  
   214   69  207 1  
   215   71  208 1  
   216   73  209 1  
   217   75  210 1  
   218   76  211 1  
   219   77  212 1  
   220   78  213 1  
   221   79  214 1  
   222   80  215 1  
   223   83  216 1  
   224   83  217 1  
   225   84  218 1  
   226   85  219 1  
   227   85  220 1  
   228   85  221 1  
   229   86  222 1  
   230   86  223 1  
   231   86  224 1  
   232   87  225 1  
   233   88  226 1  
   234   91  227 1  
   235   91  228 1  
   236   93  229 1  
   237   95  230 1  
   238   97  231 1  
   239   98  232 1  
   240   99  233 1  
   241  100  234 1  
   242  101  235 1  
   243  102  236 1  
   244  105  237 1  
   245  105  238 1  
   246  107  239 1  
   247  108  240 1  
   248  109  241 1  
   249  110  242 1  
   250  112  243 1  
   251  113  244 1  
   252  114  245 1  
   253  117  246 1  
   254  118  247 1  
   255  118  248 1  
   256  119  249 1  
   257  119  250 1  
   258  119  251 1  
   259  120  252 1  
   260  120  253 1  
   261  120  254 1  
   262  121  255 1  
   263  122  256 1  
   264  125  257 1  
   265  125  258 1  
   266  126  259 1  
   267  126  260 1  
   268  127  261 1  
   269  127  262 1  
   270  128  263 1  
   271  128  264 1  
   272  129  265 1  
   273  129  266 1  
   274  129  267 1  
   275  130  268 1  
   276  131  269 1  
   277  134  270 1  
   278  134  271 1  
   279  135  272 1  
   280  135  273 1  
   281  136  274 1  
   282  136  275 1  
   283  137  276 1  
   284  137  277 1  
   285  138  278 1  
   286  138  279 1  
   287  138  280 1  
   288  139  281 1  
   289  140  282 1  
   290  143  283 1  
   291  143  284 1  
   292  144  285 1  
   293  144  286 1  
   294  145  287 1  
   295  145  288 1  
   296  146  289 1  
   297  146  290 1  
   298  147  291 1  
   299  147  292 1  
   300  147  293 1  
@<TRIPOS>SUBSTRUCTURE
     1 ASN         1

