4n9c_ligand
  -I-interpret- 

 16 17  0  0  0  0  0  0  0  0999 V2000
   10.9800    9.5740   38.3410 O   0  0  0  0  0
   10.0730    8.7600   38.3090 N   0  0  0  0  0
    9.2510    8.7990   37.4130 O   0  0  0  0  0
    9.9890    7.7050   39.3450 C   0  0  0  0  0
    8.9580    6.7830   39.3050 C   0  0  0  0  0
    8.8710    5.7910   40.2530 C   0  0  0  0  0
    9.8230    5.7110   41.2590 C   0  0  0  0  0
   10.0180    4.8610   42.3370 N   0  0  0  0  0
   11.1370    5.2850   42.9870 C   0  0  0  0  0
   11.6370    6.3260   42.3880 N   0  0  0  0  0
   10.8720    6.6460   41.3070 C   0  0  0  0  0
   10.9450    7.6460   40.3340 C   0  0  0  0  0
    8.2088    6.8436   38.5156 H   0  0  0  0  0
    8.0556    5.0687   40.2142 H   0  0  0  0  0
   11.5536    4.8194   43.8802 H   0  0  0  0  0
   11.7545    8.3756   40.3578 H   0  0  0  0  0
  1  2  2  0  0  0
  2  3  2  0  0  0
  2  4  1  0  0  0
  4  5  4  0  0  0
  4 12  4  0  0  0
  5  6  4  0  0  0
  6  7  4  0  0  0
  7  8  4  0  0  0
  7 11  4  0  0  0
  8  9  4  0  0  0
  9 10  4  0  0  0
 10 11  4  0  0  0
 11 12  4  0  0  0
  5 13  1  0  0  0
  6 14  1  0  0  0
  9 15  1  0  0  0
 12 16  1  0  0  0
M  END
$$$$
