4yuy_ligand
  -I-interpret- 

 19 20  0  0  0  0  0  0  0  0999 V2000
    0.2190    8.8790   36.0340 N   0  0  0  0  0
    0.5560    7.7710   36.7650 C   0  0  0  0  0
   -0.3560    6.7950   36.6960 N   0  0  0  0  0
   -0.0420    5.6970   37.4080 C   0  0  0  0  0
    1.1020    5.5610   38.1590 C   0  0  0  0  0
    2.0160    6.5970   38.2030 C   0  0  0  0  0
    3.1890    6.5270   38.9440 C   0  0  0  0  0
    4.0550    7.5970   38.9370 C   0  0  0  0  0
    3.8030    8.7310   38.2110 C   0  0  0  0  0
    2.6260    8.7900   37.4890 C   0  0  0  0  0
    1.7280    7.7360   37.4870 C   0  0  0  0  0
   -0.6556    8.8973   35.5094 H   0  0  0  0  0
    0.8426    9.6859   36.0141 H   0  0  0  0  0
   -0.7404    4.8604   37.3881 H   0  0  0  0  0
    1.2868    4.6424   38.7158 H   0  0  0  0  0
    3.4212    5.6343   39.5248 H   0  0  0  0  0
    4.9695    7.5402   39.5274 H   0  0  0  0  0
    4.5091    9.5613   38.2030 H   0  0  0  0  0
    2.3999    9.6848   36.9091 H   0  0  0  0  0
  1  2  1  0  0  0
  2  3  4  0  0  0
  2 11  4  0  0  0
  3  4  4  0  0  0
  4  5  4  0  0  0
  5  6  4  0  0  0
  6  7  4  0  0  0
  6 11  4  0  0  0
  7  8  4  0  0  0
  8  9  4  0  0  0
  9 10  4  0  0  0
 10 11  4  0  0  0
  1 12  1  0  0  0
  1 13  1  0  0  0
  4 14  1  0  0  0
  5 15  1  0  0  0
  7 16  1  0  0  0
  8 17  1  0  0  0
  9 18  1  0  0  0
 10 19  1  0  0  0
M  END
$$$$
