3f68_ligand
  -I-interpret- 

 62 64  0  0  0  0  0  0  0  0999 V2000
   18.0660  -14.4250   24.7040 C   0  0  0  0  0
   16.8970  -15.8960   23.1390 N   0  0  0  0  0
   17.2460  -17.0620   23.7640 C   0  0  0  0  0
   16.6730  -17.5100   25.0830 C   0  0  0  0  0
   18.0830  -17.7930   23.2470 O   0  0  0  0  0
   17.8040  -14.7420   23.1940 C   0  0  0  0  0
   17.2690  -13.5320   22.4620 C   0  0  0  0  0
   16.2220  -13.0730   22.9020 O   0  0  0  0  0
   17.9290  -12.9930   21.3930 N   0  0  0  0  0
   19.0900  -13.6780   20.8010 C   0  0  0  0  0
   19.5780  -12.6040   19.7990 C   0  0  0  0  0
   18.2600  -11.9090   19.3920 C   0  0  0  0  0
   17.4840  -11.7760   20.7390 C   0  0  0  0  0
   15.9990  -11.7370   20.4600 C   0  0  0  0  0
   15.3080  -10.5830   20.6460 N   0  0  0  0  0
   13.8730  -10.5960   20.3560 C   0  0  0  0  0
   13.0160  -10.4950   21.6230 C   0  0  0  0  0
   13.0730   -9.3430   22.4230 C   0  0  0  0  0
   12.3220   -9.2710   23.6070 C   0  0  0  0  0
   11.4280  -10.2920   23.9420 C   0  0  0  0  0
   11.3700  -11.4470   23.1350 C   0  0  0  0  0
   12.1440  -11.5250   21.9710 C   0  0  0  0  0
   15.4200  -12.7430   20.0720 O   0  0  0  0  0
   19.5960  -14.3690   25.0120 C   0  0  0  0  0
   20.4340  -14.4730   23.7030 C   0  0  0  0  0
   21.9310  -14.6710   24.0480 C   0  0  0  0  0
   22.4320  -13.5320   24.9550 C   0  0  0  0  0
   21.5350  -13.2610   26.1780 C   0  0  0  0  0
   20.0410  -13.0960   25.7820 C   0  0  0  0  0
   12.4570   -7.8540   24.6340 Cl  0  0  0  0  0
   17.6181  -15.2141   25.3080 H   0  0  0  0  0
   17.6285  -13.4542   24.9367 H   0  0  0  0  0
   16.0114  -15.8285   22.6374 H   0  0  0  0  0
   16.1833  -18.4755   24.9558 H   0  0  0  0  0
   17.4762  -17.6021   25.8141 H   0  0  0  0  0
   15.9463  -16.7755   25.4302 H   0  0  0  0  0
   18.7329  -14.9929   22.6818 H   0  0  0  0  0
   18.8522  -14.6376   20.3419 H   0  0  0  0  0
   19.8436  -13.9819   21.5275 H   0  0  0  0  0
   20.1206  -13.0234   18.9518 H   0  0  0  0  0
   20.3091  -11.9187   20.2278 H   0  0  0  0  0
   17.7038  -12.4750   18.6447 H   0  0  0  0  0
   18.4282  -10.9454   18.9110 H   0  0  0  0  0
   17.6620  -10.8807   21.3347 H   0  0  0  0  0
   15.7723   -9.7369   20.9761 H   0  0  0  0  0
   13.6379  -11.5408   19.8659 H   0  0  0  0  0
   13.6491   -9.7327   19.7293 H   0  0  0  0  0
   13.7010   -8.5035   22.1247 H   0  0  0  0  0
   10.7838  -10.1966   24.8161 H   0  0  0  0  0
   10.7234  -12.2779   23.4171 H   0  0  0  0  0
   12.0636  -12.4022   21.3290 H   0  0  0  0  0
   19.7815  -15.2261   25.6594 H   0  0  0  0  0
   20.3166  -13.5547   23.1277 H   0  0  0  0  0
   20.0843  -15.3248   23.1196 H   0  0  0  0  0
   22.5101  -14.6685   23.1245 H   0  0  0  0  0
   22.0507  -15.6192   24.5722 H   0  0  0  0  0
   22.4421  -12.6223   24.3546 H   0  0  0  0  0
   23.4111  -13.8271   25.3322 H   0  0  0  0  0
   21.8675  -12.3338   26.6448 H   0  0  0  0  0
   21.6156  -14.1122   26.8541 H   0  0  0  0  0
   19.4299  -12.9671   26.6753 H   0  0  0  0  0
   19.9168  -12.2156   25.1515 H   0  0  0  0  0
  6  1  1  0  0  0
  1 24  1  0  0  0
  2  3  1  0  0  0
  2  6  1  0  0  0
  3  4  1  0  0  0
  3  5  2  0  0  0
  6  7  1  0  0  0
  7  8  2  0  0  0
  7  9  1  0  0  0
  9 10  1  0  0  0
  9 13  1  0  0  0
 10 11  1  0  0  0
 11 12  1  0  0  0
 12 13  1  0  0  0
 13 14  1  0  0  0
 14 15  1  0  0  0
 14 23  2  0  0  0
 15 16  1  0  0  0
 16 17  1  0  0  0
 17 18  4  0  0  0
 17 22  4  0  0  0
 18 19  4  0  0  0
 19 20  4  0  0  0
 19 30  1  0  0  0
 20 21  4  0  0  0
 21 22  4  0  0  0
 24 25  1  0  0  0
 24 29  1  0  0  0
 25 26  1  0  0  0
 26 27  1  0  0  0
 27 28  1  0  0  0
 28 29  1  0  0  0
  1 31  1  0  0  0
  1 32  1  0  0  0
  2 33  1  0  0  0
  4 34  1  0  0  0
  4 35  1  0  0  0
  4 36  1  0  0  0
  6 37  1  0  0  0
 10 38  1  0  0  0
 10 39  1  0  0  0
 11 40  1  0  0  0
 11 41  1  0  0  0
 12 42  1  0  0  0
 12 43  1  0  0  0
 13 44  1  0  0  0
 15 45  1  0  0  0
 16 46  1  0  0  0
 16 47  1  0  0  0
 18 48  1  0  0  0
 20 49  1  0  0  0
 21 50  1  0  0  0
 22 51  1  0  0  0
 24 52  1  0  0  0
 25 53  1  0  0  0
 25 54  1  0  0  0
 26 55  1  0  0  0
 26 56  1  0  0  0
 27 57  1  0  0  0
 27 58  1  0  0  0
 28 59  1  0  0  0
 28 60  1  0  0  0
 29 61  1  0  0  0
 29 62  1  0  0  0
M  END
$$$$
