6im6_ligand
  -I-interpret- 

 34 35  0  0  0  0  0  0  0  0999 V2000
   81.6740  158.4160   24.2360 C   0  0  0  0  0
   81.9660  158.2570   25.5950 C   0  0  0  0  0
   82.7820  157.2110   26.0160 C   0  0  0  0  0
   80.9540  158.5010   21.4690 C   0  0  0  0  0
   81.3630  159.2370   26.5700 C   0  0  0  0  0
   82.0960  157.6820   28.3740 C   0  0  0  0  0
   83.1100  157.0050   27.4750 C   0  0  0  0  0
   84.6910  154.9660   23.0010 C   0  0  0  0  0
   80.8930  158.3400   19.9810 C   0  0  0  0  0
   82.2210  160.1310   28.6810 C   0  0  0  0  0
   81.9060  159.0630   27.9250 N   0  0  0  0  0
   82.1900  157.5470   23.2980 C   0  0  0  0  0
   83.3050  156.3410   25.0580 C   0  0  0  0  0
   83.0180  156.4900   23.7190 C   0  0  0  0  0
   83.4900  155.6780   22.7210 O   0  0  0  0  0
   81.9820  157.6240   21.9470 O   0  0  0  0  0
   82.0360  161.2930   28.3630 O   0  0  0  0  0
   81.0315  159.2359   23.9152 H   0  0  0  0  0
   79.9946  158.2516   21.9223 H   0  0  0  0  0
   81.1760  159.5345   21.7350 H   0  0  0  0  0
   80.2873  159.0653   26.6073 H   0  0  0  0  0
   81.6003  160.2460   26.2327 H   0  0  0  0  0
   82.4561  157.6767   29.4028 H   0  0  0  0  0
   81.1477  157.1466   28.3262 H   0  0  0  0  0
   84.0902  157.4388   27.6727 H   0  0  0  0  0
   83.0963  155.9353   27.6839 H   0  0  0  0  0
   85.4908  155.6750   23.2145 H   0  0  0  0  0
   84.5359  154.3202   23.8653 H   0  0  0  0  0
   84.9623  154.3597   22.1368 H   0  0  0  0  0
   81.8574  158.6061   19.5482 H   0  0  0  0  0
   80.6579  157.3037   19.7383 H   0  0  0  0  0
   80.1195  158.9935   19.5775 H   0  0  0  0  0
   82.6769  159.9422   29.6529 H   0  0  0  0  0
   83.9548  155.5258   25.3764 H   0  0  0  0  0
  1  2  4  0  0  0
 12  1  4  0  0  0
  3  2  4  0  0  0
  2  5  1  0  0  0
  3  7  1  0  0  0
 13  3  4  0  0  0
  4  9  1  0  0  0
 16  4  1  0  0  0
  5 11  1  0  0  0
  7  6  1  0  0  0
  6 11  1  0  0  0
 15  8  1  0  0  0
 11 10  1  0  0  0
 10 17  2  0  0  0
 14 12  4  0  0  0
 12 16  1  0  0  0
 14 13  4  0  0  0
 14 15  1  0  0  0
  1 18  1  0  0  0
  4 19  1  0  0  0
  4 20  1  0  0  0
  5 21  1  0  0  0
  5 22  1  0  0  0
  6 23  1  0  0  0
  6 24  1  0  0  0
  7 25  1  0  0  0
  7 26  1  0  0  0
  8 27  1  0  0  0
  8 28  1  0  0  0
  8 29  1  0  0  0
  9 30  1  0  0  0
  9 31  1  0  0  0
  9 32  1  0  0  0
 10 33  1  0  0  0
 13 34  1  0  0  0
M  END
$$$$
