6pve_ligand
  -I-interpret- 

 72 75  0  0  0  0  0  0  0  0999 V2000
    3.0190    1.5510  -11.1900 C   0  0  0  0  0
    2.3620    2.0730  -10.0740 C   0  0  0  0  0
    4.3860    2.1080   -8.9450 C   0  0  0  0  0
    4.4060    1.3180  -11.1240 C   0  0  0  0  0
    0.9140    1.7690  -11.6580 C   0  0  0  0  0
   -0.0700    2.6750   -9.5830 C   0  0  0  0  0
   -1.0690    2.9950   -7.4210 C   0  0  0  0  0
   -1.3010    4.0640   -8.1470 C   0  0  0  0  0
   -0.4070    3.9490   -9.5470 C   0  0  0  0  0
   -2.3430    2.0850   -7.3750 C   0  0  0  0  0
   -3.1880    2.3310   -5.0790 C   0  0  0  0  0
   -2.9410    3.5820   -4.1860 C   0  0  0  0  0
   -2.8550    3.3080   -2.6560 C   0  0  0  0  0
   -1.7150    2.4470   -2.3350 N   0  3  0  0  0
   -4.7220    2.6720   -7.0110 C   0  0  0  0  0
   -5.3280    1.3010   -6.7010 C   0  0  0  0  0
   -6.7060    1.1540   -7.4420 C   0  0  0  0  0
   -7.5430   -0.0620   -7.0110 C   0  0  0  0  0
   -7.3640   -1.2810   -7.6800 C   0  0  0  0  0
   -8.1200   -2.3850   -7.3210 C   0  0  0  0  0
   -9.0500   -2.2910   -6.2890 C   0  0  0  0  0
   -9.2240   -1.0730   -5.6200 C   0  0  0  0  0
   -8.4680    0.0430   -5.9850 C   0  0  0  0  0
   -7.9200   -3.7130   -8.0680 C   0  0  0  0  0
   -4.1210    2.6710   -2.1780 C   0  0  0  0  0
   -3.3010    2.7800   -6.4940 N   0  3  0  0  0
    5.1540    0.7410  -12.3300 N   0  0  0  0  0
    3.0780    2.3400   -8.9730 N   0  0  0  0  0
   -6.6000   -4.1300   -8.4470 N   0  0  0  0  0
    5.0410    1.6060   -9.9990 N   0  0  0  0  0
    2.0910    1.3820  -12.1260 N   0  0  0  0  0
    1.0690    2.2120  -10.4160 N   0  0  0  0  0
    0.1370    2.2660   -8.0920 O   0  0  0  0  0
   -0.8800    5.2130   -7.4060 O   0  0  0  0  0
    0.6790    4.8680   -9.5000 O   0  0  0  0  0
   -8.8510   -4.3720   -8.3370 O   0  0  0  0  0
   -5.2120    3.0540   -2.6220 O   0  0  0  0  0
   -4.0800    1.7750   -1.3370 O   0  0  0  0  0
    4.9430    2.3334   -8.0356 H   0  0  0  0  0
   -0.0287    1.7301  -12.2038 H   0  0  0  0  0
   -0.8822    2.1801  -10.1155 H   0  0  0  0  0
   -0.8333    3.2485   -6.3874 H   0  0  0  0  0
   -2.3605    4.1482   -8.3889 H   0  0  0  0  0
   -0.9289    4.2217  -10.4642 H   0  0  0  0  0
   -2.1066    1.0901   -6.9976 H   0  0  0  0  0
   -2.7583    1.9331   -8.3713 H   0  0  0  0  0
   -4.1054    1.8286   -4.7723 H   0  0  0  0  0
   -2.3608    1.6288   -4.9750 H   0  0  0  0  0
   -3.7949    4.2429   -4.3351 H   0  0  0  0  0
   -1.9744    3.9889   -4.4829 H   0  0  0  0  0
   -2.7147    4.2631   -2.1499 H   0  0  0  0  0
   -1.6851    2.2858   -1.3283 H   0  0  0  0  0
   -1.8164    1.5556   -2.8204 H   0  0  0  0  0
   -0.8522    2.9019   -2.6335 H   0  0  0  0  0
   -5.3267    3.4357   -6.5220 H   0  0  0  0  0
   -4.7075    2.8069   -8.0925 H   0  0  0  0  0
   -5.4831    1.2082   -5.6261 H   0  0  0  0  0
   -4.6487    0.5194   -7.0412 H   0  0  0  0  0
   -6.4837    1.0259   -8.5014 H   0  0  0  0  0
   -7.2908    2.0420   -7.2021 H   0  0  0  0  0
   -6.6303   -1.3601   -8.4822 H   0  0  0  0  0
   -9.6401   -3.1617   -6.0030 H   0  0  0  0  0
   -9.9516   -0.9959   -4.8121 H   0  0  0  0  0
   -8.6049    0.9914   -5.4655 H   0  0  0  0  0
   -3.0523    3.7691   -6.5084 H   0  0  0  0  0
    4.6472    0.5230  -13.1879 H   0  0  0  0  0
    6.1589    0.5748  -12.2751 H   0  0  0  0  0
   -6.4675   -5.0051   -8.9539 H   0  0  0  0  0
   -5.7944   -3.5512   -8.2094 H   0  0  0  0  0
   -1.0434    6.0043   -7.9245 H   0  0  0  0  0
    1.1912    4.7980  -10.3089 H   0  0  0  0  0
   -5.0674    3.7529   -3.2641 H   0  0  0  0  0
  2  1  4  0  0  0
  1  4  4  0  0  0
 31  1  4  0  0  0
  2 28  4  0  0  0
 32  2  4  0  0  0
 28  3  4  0  0  0
  3 30  4  0  0  0
  4 27  1  0  0  0
  4 30  4  0  0  0
  5 31  4  0  0  0
 32  5  4  0  0  0
  6  9  1  0  0  0
  6 32  1  0  0  0
 33  6  1  0  0  0
  7  8  1  0  0  0
 10  7  1  0  0  0
  7 33  1  0  0  0
  8  9  1  0  0  0
  8 34  1  0  0  0
  9 35  1  0  0  0
 26 10  1  0  0  0
 11 12  1  0  0  0
 26 11  1  0  0  0
 12 13  1  0  0  0
 13 14  1  0  0  0
 13 25  1  0  0  0
 15 16  1  0  0  0
 15 26  1  0  0  0
 16 17  1  0  0  0
 17 18  1  0  0  0
 18 19  4  0  0  0
 18 23  4  0  0  0
 19 20  4  0  0  0
 20 21  4  0  0  0
 20 24  1  0  0  0
 21 22  4  0  0  0
 22 23  4  0  0  0
 24 29  1  0  0  0
 24 36  2  0  0  0
 25 37  1  0  0  0
 25 38  2  0  0  0
  3 39  1  0  0  0
  5 40  1  0  0  0
  6 41  1  0  0  0
  7 42  1  0  0  0
  8 43  1  0  0  0
  9 44  1  0  0  0
 10 45  1  0  0  0
 10 46  1  0  0  0
 11 47  1  0  0  0
 11 48  1  0  0  0
 12 49  1  0  0  0
 12 50  1  0  0  0
 13 51  1  0  0  0
 14 52  1  0  0  0
 14 53  1  0  0  0
 14 54  1  0  0  0
 15 55  1  0  0  0
 15 56  1  0  0  0
 16 57  1  0  0  0
 16 58  1  0  0  0
 17 59  1  0  0  0
 17 60  1  0  0  0
 19 61  1  0  0  0
 21 62  1  0  0  0
 22 63  1  0  0  0
 23 64  1  0  0  0
 26 65  1  0  0  0
 27 66  1  0  0  0
 27 67  1  0  0  0
 29 68  1  0  0  0
 29 69  1  0  0  0
 34 70  1  0  0  0
 35 71  1  0  0  0
 37 72  1  0  0  0
M  END
$$$$
