2on3_ligand
  -I-interpret- 

 18 17  0  0  0  0  0  0  0  0999 V2000
  -27.5770  -11.7780   20.8920 N   0  3  0  0  0
  -27.3250  -11.4570   19.5050 C   0  0  0  0  0
  -26.1650  -12.2810   18.9590 C   0  0  0  0  0
  -26.2000  -12.2860   17.4490 C   0  0  0  0  0
  -27.5330  -11.8780   17.1540 O   0  0  0  0  0
  -28.6170  -12.7810   17.4520 N   0  3  0  0  0
  -28.3558  -11.2151   21.2339 H   0  0  0  0  0
  -27.8096  -12.7677   20.9738 H   0  0  0  0  0
  -26.7427  -11.5769   21.4433 H   0  0  0  0  0
  -27.0701  -10.3999   19.4303 H   0  0  0  0  0
  -28.2195  -11.6828   18.9245 H   0  0  0  0  0
  -26.2501  -13.3049   19.3229 H   0  0  0  0  0
  -25.2250  -11.8428   19.2943 H   0  0  0  0  0
  -25.9544  -13.2599   17.0255 H   0  0  0  0  0
  -25.4511  -11.6278   17.0084 H   0  0  0  0  0
  -29.5014  -12.3482   17.1857 H   0  0  0  0  0
  -28.4899  -13.6473   16.9288 H   0  0  0  0  0
  -28.6238  -12.9840   18.4516 H   0  0  0  0  0
  1  2  1  0  0  0
  2  3  1  0  0  0
  3  4  1  0  0  0
  4  5  1  0  0  0
  5  6  1  0  0  0
  1  7  1  0  0  0
  1  8  1  0  0  0
  1  9  1  0  0  0
  2 10  1  0  0  0
  2 11  1  0  0  0
  3 12  1  0  0  0
  3 13  1  0  0  0
  4 14  1  0  0  0
  4 15  1  0  0  0
  6 16  1  0  0  0
  6 17  1  0  0  0
  6 18  1  0  0  0
M  END
$$$$
