2q9m_ligand
  -I-interpret- 

 40 41  0  0  0  0  0  0  0  0999 V2000
   17.9720   20.3850   26.5930 C   0  0  0  0  0
   18.7970   19.9090   25.3900 C   0  0  0  0  0
   18.3950   20.0660   24.0840 C   0  0  0  0  0
   18.3260   18.8940   23.2360 C   0  0  0  0  0
   18.5170   19.0910   22.0420 O   0  0  0  0  0
   18.1610   21.4930   23.5120 C   0  0  0  0  0
   18.1160   22.3270   24.7610 N   0  0  0  0  0
   17.6110   23.4400   24.3310 C   0  0  0  0  0
   17.9630   24.7810   24.9150 C   0  0  0  0  0
   18.2050   25.7790   24.2370 O   0  0  0  0  0
   18.0460   24.8750   26.1570 O   0  0  0  0  0
   16.7010   23.1810   23.4990 C   0  0  0  0  0
   16.5970   21.8100   23.3560 C   0  0  0  0  0
   15.5480   21.1780   24.2550 C   0  0  0  0  0
   14.1920   21.8680   24.0120 C   0  0  0  0  0
   14.3670   23.4220   24.0350 C   0  0  0  0  0
   15.5180   23.9520   23.1500 C   0  0  0  0  0
   15.1420   24.1130   21.7860 O   0  0  0  0  0
   14.8120   25.3970   22.0810 C   0  0  0  0  0
   17.8243   21.4629   26.5270 H   0  0  0  0  0
   17.0042   19.8835   26.5895 H   0  0  0  0  0
   18.5035   20.1455   27.5140 H   0  0  0  0  0
   18.8071   18.8261   25.5139 H   0  0  0  0  0
   19.6915   20.5293   25.4465 H   0  0  0  0  0
   17.3079   20.1324   24.1285 H   0  0  0  0  0
   18.1176   17.9010   23.6343 H   0  0  0  0  0
   18.8246   21.6210   22.6568 H   0  0  0  0  0
   18.4085   22.0799   25.7064 H   0  0  0  0  0
   17.8325   24.0283   26.5558 H   0  0  0  0  0
   16.1833   21.3758   22.4458 H   0  0  0  0  0
   15.8388   21.2993   25.2985 H   0  0  0  0  0
   15.4639   20.1151   24.0285 H   0  0  0  0  0
   13.4960   21.5750   24.7980 H   0  0  0  0  0
   13.8068   21.5661   23.0381 H   0  0  0  0  0
   14.6008   23.7010   25.0624 H   0  0  0  0  0
   13.4434   23.8523   23.6477 H   0  0  0  0  0
   15.7849   24.9900   23.3485 H   0  0  0  0  0
   14.0358   25.4047   22.8462 H   0  0  0  0  0
   15.6932   25.9216   22.4503 H   0  0  0  0  0
   14.4431   25.8916   21.1824 H   0  0  0  0  0
  1  2  1  0  0  0
  2  3  1  0  0  0
  3  4  1  0  0  0
  3  6  1  0  0  0
  4  5  2  0  0  0
  6  7  1  0  0  0
  6 13  1  0  0  0
  7  8  1  0  0  0
  8  9  1  0  0  0
  8 12  2  0  0  0
  9 10  2  0  0  0
  9 11  1  0  0  0
 12 13  1  0  0  0
 12 17  1  0  0  0
 13 14  1  0  0  0
 14 15  1  0  0  0
 15 16  1  0  0  0
 16 17  1  0  0  0
 17 18  1  0  0  0
 18 19  1  0  0  0
  1 20  1  0  0  0
  1 21  1  0  0  0
  1 22  1  0  0  0
  2 23  1  0  0  0
  2 24  1  0  0  0
  3 25  1  0  0  0
  4 26  1  0  0  0
  6 27  1  0  0  0
  7 28  1  0  0  0
 11 29  1  0  0  0
 13 30  1  0  0  0
 14 31  1  0  0  0
 14 32  1  0  0  0
 15 33  1  0  0  0
 15 34  1  0  0  0
 16 35  1  0  0  0
 16 36  1  0  0  0
 17 37  1  0  0  0
 19 38  1  0  0  0
 19 39  1  0  0  0
 19 40  1  0  0  0
M  END
$$$$
