5mro_ligand
  -I-interpret- 

 27 29  0  0  0  0  0  0  0  0999 V2000
    6.0120   21.1690  -18.7320 N   0  0  0  0  0
    5.2520   20.2600  -19.3400 C   0  0  0  0  0
    4.1720   22.7150  -18.6530 C   0  0  0  0  0
    3.3850   21.7180  -19.2820 C   0  0  0  0  0
    4.4370   18.5440  -20.3110 C   0  0  0  0  0
    3.6860   25.0160  -19.1800 C   0  0  0  0  0
    4.1290   27.3710  -19.6330 C   0  0  0  0  0
    3.3360   25.9640  -21.4010 C   0  0  0  0  0
    2.1980   21.9100  -19.5640 O   0  0  0  0  0
    3.9760   20.5480  -19.6010 N   0  0  0  0  0
    3.4840   19.4580  -20.2120 N   0  0  0  0  0
    5.5320   19.0420  -19.7760 N   0  0  0  0  0
    5.5120   22.3630  -18.3770 C   0  0  0  0  0
    6.6210   23.3950  -17.6160 Cl  0  0  0  0  0
    3.6380   23.9460  -18.2390 C   0  0  0  0  0
    3.2900   24.8830  -20.5190 C   0  0  0  0  0
    3.7560   27.2150  -20.9660 C   0  0  0  0  0
    4.0900   26.2890  -18.7560 C   0  0  0  0  0
    4.0141   23.6352  -19.2155 H   0  0  0  0  0
    4.3333   17.5546  -20.7565 H   0  0  0  0  0
    4.4539   28.3472  -19.2732 H   0  0  0  0  0
    3.0396   25.8254  -22.4407 H   0  0  0  0  0
    4.2441   24.2654  -17.3912 H   0  0  0  0  0
    2.5807   23.7641  -18.0460 H   0  0  0  0  0
    2.9391   23.9156  -20.8783 H   0  0  0  0  0
    3.7929   28.0587  -21.6551 H   0  0  0  0  0
    4.3805   26.4362  -17.7158 H   0  0  0  0  0
  1  2  1  0  0  0
 13  1  2  0  0  0
 10  2  4  0  0  0
  2 12  4  0  0  0
  3  4  1  0  0  0
  3 13  1  0  0  0
 15  3  1  0  0  0
  4  9  2  0  0  0
  4 10  1  0  0  0
  5 11  4  0  0  0
 12  5  4  0  0  0
  6 15  1  0  0  0
  6 16  4  0  0  0
 18  6  4  0  0  0
  7 17  4  0  0  0
  7 18  4  0  0  0
 16  8  4  0  0  0
  8 17  4  0  0  0
 10 11  4  0  0  0
 13 14  1  0  0  0
  3 19  1  0  0  0
  5 20  1  0  0  0
  7 21  1  0  0  0
  8 22  1  0  0  0
 15 23  1  0  0  0
 15 24  1  0  0  0
 16 25  1  0  0  0
 17 26  1  0  0  0
 18 27  1  0  0  0
M  END
$$$$
