4n1z_ligand
  -I-interpret- 

 51 51  0  0  0  0  0  0  0  0999 V2000
   24.2110   19.9300    3.7370 C   0  0  0  0  0
   33.0840   16.1030   10.2860 O   0  0  0  0  0
   35.8500   14.3920    6.3310 O   0  0  0  0  0
   34.9570   17.6990    7.2840 O   0  0  0  0  0
   35.3440   16.4880   10.4230 O   0  0  0  0  0
   33.6740   18.3110    9.2140 O   0  0  0  0  0
   36.4030   16.3990    6.4680 O   0  0  0  0  0
   37.2330   15.3010    8.6140 O   0  0  0  0  0
   32.5580   13.9990    8.4590 C   0  0  0  0  0
   31.3090   13.8940    8.9350 C   0  0  0  0  0
   31.3530   15.6260    7.6390 C   0  0  0  0  0
   24.4760   19.5590    5.2470 C   0  0  0  0  0
   25.2750   18.2740    5.3910 C   0  0  0  0  0
   26.6210   18.5000    6.1190 C   0  0  0  0  0
   27.3930   17.1720    6.1580 C   0  0  0  0  0
   27.9350   16.8550    7.5400 C   0  0  0  0  0
   28.4840   15.4440    7.5040 C   0  0  0  0  0
   29.2410   15.1360    8.7560 C   0  0  0  0  0
   33.6760   15.4710    6.9830 C   0  0  0  0  0
   32.5580   15.0610    7.6730 N   0  0  0  0  0
   30.6010   14.8810    8.4340 N   0  3  0  0  0
   34.6640   16.2960    7.8440 C   0  0  0  0  0
   34.1790   16.8140    9.5000 P   0  0  0  0  0
   36.1180   15.4130    7.5840 P   0  0  0  0  0
   25.1636   20.0637    3.2245 H   0  0  0  0  0
   23.6499   19.1265    3.2599 H   0  0  0  0  0
   23.6370   20.8552    3.6869 H   0  0  0  0  0
   32.2452   16.2086    9.8312 H   0  0  0  0  0
   35.6073   13.5274    6.6704 H   0  0  0  0  0
   35.5732   18.1517    7.8645 H   0  0  0  0  0
   32.9314   18.2864    8.6061 H   0  0  0  0  0
   36.9835   14.6623    9.2859 H   0  0  0  0  0
   33.4008   13.3427    8.6760 H   0  0  0  0  0
   30.9452   13.1256    9.6171 H   0  0  0  0  0
   31.0510   16.5104    7.0781 H   0  0  0  0  0
   23.5120   19.4154    5.7351 H   0  0  0  0  0
   25.0501   20.3677    5.6991 H   0  0  0  0  0
   25.4898   17.8949    4.3919 H   0  0  0  0  0
   24.6847   17.5724    5.9804 H   0  0  0  0  0
   26.4370   18.8499    7.1348 H   0  0  0  0  0
   27.2059   19.2514    5.5885 H   0  0  0  0  0
   28.2391   17.2547    5.4758 H   0  0  0  0  0
   26.7053   16.3749    5.8755 H   0  0  0  0  0
   27.1447   16.9366    8.2863 H   0  0  0  0  0
   28.7193   17.5613    7.8120 H   0  0  0  0  0
   29.1594   15.3515    6.6535 H   0  0  0  0  0
   27.6519   14.7455    7.4159 H   0  0  0  0  0
   28.8095   14.2575    9.2356 H   0  0  0  0  0
   29.1810   15.9856    9.4362 H   0  0  0  0  0
   33.3411   16.1096    6.1656 H   0  0  0  0  0
   34.2010   14.5765    6.6479 H   0  0  0  0  0
 12  1  1  0  0  0
 23  2  1  0  0  0
 24  3  1  0  0  0
 22  4  1  0  0  0
 23  5  2  0  0  0
 23  6  1  0  0  0
 24  7  2  0  0  0
 24  8  1  0  0  0
  9 10  4  0  0  0
 20  9  4  0  0  0
 21 10  4  0  0  0
 20 11  4  0  0  0
 11 21  4  0  0  0
 13 12  1  0  0  0
 14 13  1  0  0  0
 15 14  1  0  0  0
 16 15  1  0  0  0
 17 16  1  0  0  0
 18 17  1  0  0  0
 21 18  1  0  0  0
 19 20  1  0  0  0
 22 19  1  0  0  0
 22 23  1  0  0  0
 22 24  1  0  0  0
  1 25  1  0  0  0
  1 26  1  0  0  0
  1 27  1  0  0  0
  2 28  1  0  0  0
  3 29  1  0  0  0
  4 30  1  0  0  0
  6 31  1  0  0  0
  8 32  1  0  0  0
  9 33  1  0  0  0
 10 34  1  0  0  0
 11 35  1  0  0  0
 12 36  1  0  0  0
 12 37  1  0  0  0
 13 38  1  0  0  0
 13 39  1  0  0  0
 14 40  1  0  0  0
 14 41  1  0  0  0
 15 42  1  0  0  0
 15 43  1  0  0  0
 16 44  1  0  0  0
 16 45  1  0  0  0
 17 46  1  0  0  0
 17 47  1  0  0  0
 18 48  1  0  0  0
 18 49  1  0  0  0
 19 50  1  0  0  0
 19 51  1  0  0  0
M  END
$$$$
