### 
### Created by X-TOOL on Mon Sep 10 21:13:19 2018
### 

@<TRIPOS>MOLECULE
4n1z_ligand
   47    47     1     0     0
SMALL
GAST_HUCK


@<TRIPOS>ATOM
      1 CAA        24.2110   19.9300    3.7370 C.3       1 N1Z        -0.0653
      2 OAB        33.0840   16.1030   10.2860 O.co2     1 N1Z        -0.5593
      3 OAG        35.8500   14.3920    6.3310 O.co2     1 N1Z        -0.5593
      4 OAD        34.9570   17.6990    7.2840 O.3       1 N1Z        -0.3573
      5 OAE        35.3440   16.4880   10.4230 O.co2     1 N1Z        -0.5593
      6 OAF        33.6740   18.3110    9.2140 O.co2     1 N1Z        -0.5593
      7 OAH        36.4030   16.3990    6.4680 O.co2     1 N1Z        -0.5593
      8 OAC        37.2330   15.3010    8.6140 O.co2     1 N1Z        -0.5593
      9 CAI        32.5580   13.9990    8.4590 C.2       1 N1Z         0.1818
     10 CAJ        31.3090   13.8940    8.9350 C.2       1 N1Z         0.1184
     11 CAK        31.3530   15.6260    7.6390 C.2       1 N1Z         0.1886
     12 CAL        24.4760   19.5590    5.2470 C.3       1 N1Z        -0.0559
     13 CAM        25.2750   18.2740    5.3910 C.3       1 N1Z        -0.0533
     14 CAN        26.6210   18.5000    6.1190 C.3       1 N1Z        -0.0531
     15 CAO        27.3930   17.1720    6.1580 C.3       1 N1Z        -0.0530
     16 CAP        27.9350   16.8550    7.5400 C.3       1 N1Z        -0.0521
     17 CAQ        28.4840   15.4440    7.5040 C.3       1 N1Z        -0.0405
     18 CAR        29.2410   15.1360    8.7560 C.3       1 N1Z         0.0206
     19 CAS        33.6760   15.4710    6.9830 C.3       1 N1Z         0.1476
     20 NAT        32.5580   15.0610    7.6730 N.pl3     1 N1Z        -0.1323
     21 NAU        30.6010   14.8810    8.4340 N.2       1 N1Z        -0.2706
     22 CAV        34.6640   16.2960    7.8440 C.3       1 N1Z         0.2357
     23 PAW        34.1790   16.8140    9.5000 P.3       1 N1Z         0.1132
     24 PAX        36.1180   15.4130    7.5840 P.3       1 N1Z         0.1132
     25 H1         23.6317   20.8637    3.6851 H         1 N1Z         0.0230
     26 H2         23.6447   19.1199    3.2543 H         1 N1Z         0.0230
     27 H3         25.1717   20.0653    3.2186 H         1 N1Z         0.0230
     28 H4         34.1690   18.2277    7.3291 H         1 N1Z         0.2134
     29 H5         33.4000   13.3433    8.6758 H         1 N1Z         0.2017
     30 H6         30.9455   13.1263    9.6165 H         1 N1Z         0.1406
     31 H7         31.0513   16.5096    7.0786 H         1 N1Z         0.1987
     32 H8         23.5089   19.4336    5.7559 H         1 N1Z         0.0263
     33 H9         25.0359   20.3791    5.7203 H         1 N1Z         0.0263
     34 H10        25.4783   17.8693    4.3886 H         1 N1Z         0.0265
     35 H11        24.6793   17.5492    5.9652 H         1 N1Z         0.0265
     36 H12        26.4322   18.8479    7.1453 H         1 N1Z         0.0265
     37 H13        27.2112   19.2548    5.5787 H         1 N1Z         0.0265
     38 H14        28.2360   17.2332    5.4540 H         1 N1Z         0.0265
     39 H15        26.7162   16.3614    5.8501 H         1 N1Z         0.0265
     40 H16        27.1282   16.9246    8.2844 H         1 N1Z         0.0266
     41 H17        28.7360   17.5626    7.8002 H         1 N1Z         0.0266
     42 H18        29.1580   15.3413    6.6408 H         1 N1Z         0.0276
     43 H19        27.6492   14.7348    7.4038 H         1 N1Z         0.0276
     44 H20        28.8057   14.2489    9.2393 H         1 N1Z         0.0418
     45 H21        29.1808   15.9939    9.4418 H         1 N1Z         0.0418
     46 H22        33.3533   16.0905    6.1333 H         1 N1Z         0.0718
     47 H23        34.2007   14.5796    6.6086 H         1 N1Z         0.0718
@<TRIPOS>BOND
     1   12    1 1  
     2   23    2 ar 
     3   24    3 ar 
     4   22    4 1  
     5   23    5 ar 
     6   23    6 ar 
     7   24    7 ar 
     8   24    8 ar 
     9    9   10 2  
    10   20    9 1  
    11   21   10 1  
    12   20   11 1  
    13   11   21 2  
    14   13   12 1  
    15   14   13 1  
    16   15   14 1  
    17   16   15 1  
    18   17   16 1  
    19   18   17 1  
    20   21   18 1  
    21   19   20 1  
    22   22   19 1  
    23   22   23 1  
    24   22   24 1  
    25    1   25 1  
    26    1   26 1  
    27    1   27 1  
    28    4   28 1  
    29    9   29 1  
    30   10   30 1  
    31   11   31 1  
    32   12   32 1  
    33   12   33 1  
    34   13   34 1  
    35   13   35 1  
    36   14   36 1  
    37   14   37 1  
    38   15   38 1  
    39   15   39 1  
    40   16   40 1  
    41   16   41 1  
    42   17   42 1  
    43   17   43 1  
    44   18   44 1  
    45   18   45 1  
    46   19   46 1  
    47   19   47 1  
@<TRIPOS>SUBSTRUCTURE
     1 N1Z         1

