4zud_ligand
  -I-interpret- 

 58 61  0  0  0  0  0  0  0  0999 V2000
  -38.4570   63.3650   29.0820 C   0  0  0  0  0
  -39.0900   64.3770   28.3620 C   0  0  0  0  0
  -46.8370   65.3030   26.1570 O   0  0  0  0  0
  -40.4800   64.4120   28.2230 C   0  0  0  0  0
  -42.6610   63.0380   25.2580 O   0  0  0  0  0
  -40.9920   65.5010   27.4820 C   0  0  0  0  0
  -41.9440   64.9190   24.4600 O   0  0  0  0  0
  -42.7580   66.6540   31.8240 C   0  0  0  0  0
  -42.3660   66.1020   30.4710 C   0  0  0  0  0
  -43.2480   66.8470   29.4970 C   0  0  0  0  0
  -43.3980   66.0510   28.1730 C   0  0  0  0  0
  -44.6070   65.8230   27.6670 N   0  0  0  0  0
  -44.4460   65.1360   26.5460 C   0  0  0  0  0
  -45.6370   64.6760   25.6680 C   0  0  0  0  0
  -45.4410   65.1380   24.2150 C   0  0  0  0  0
  -45.8010   63.1380   25.7490 C   0  0  0  0  0
  -43.1360   64.9400   26.3590 C   0  0  0  0  0
  -42.5710   64.2840   25.3370 C   0  0  0  0  0
  -42.4610   65.5010   27.3760 N   0  0  0  0  0
  -41.2350   63.3860   28.8130 C   0  0  0  0  0
  -40.5980   62.3670   29.5340 C   0  0  0  0  0
  -39.2040   62.3440   29.6720 C   0  0  0  0  0
  -38.5690   61.3280   30.4050 C   0  0  0  0  0
  -38.9780   61.1340   31.7330 C   0  0  0  0  0
  -38.3950   60.1510   32.5300 C   0  0  0  0  0
  -37.3840   59.3490   32.0080 C   0  0  0  0  0
  -36.9590   59.5300   30.6910 C   0  0  0  0  0
  -37.5430   60.5100   29.8810 C   0  0  0  0  0
  -37.0930   60.6460   28.6320 C   0  0  0  0  0
  -37.7520   60.3670   27.5210 N   0  0  0  0  0
  -37.0020   60.6510   26.6350 N   0  0  0  0  0
  -35.8720   61.1150   27.1220 N   0  0  0  0  0
  -35.9080   61.1250   28.2970 N   0  0  0  0  0
  -37.3719   63.3710   29.1849 H   0  0  0  0  0
  -38.4878   65.1578   27.8975 H   0  0  0  0  0
  -47.5831   65.0255   25.6205 H   0  0  0  0  0
  -43.1696   62.7072   26.0020 H   0  0  0  0  0
  -40.5907   65.4269   26.4713 H   0  0  0  0  0
  -40.7010   66.4150   27.9997 H   0  0  0  0  0
  -42.5740   67.7282   31.8439 H   0  0  0  0  0
  -43.8163   66.4621   32.0005 H   0  0  0  0  0
  -42.1651   66.1681   32.5989 H   0  0  0  0  0
  -42.5067   65.0228   30.4107 H   0  0  0  0  0
  -41.3065   66.2459   30.2594 H   0  0  0  0  0
  -42.7933   67.8130   29.2777 H   0  0  0  0  0
  -44.2339   66.9776   29.9432 H   0  0  0  0  0
  -45.3773   66.2258   24.1864 H   0  0  0  0  0
  -44.5207   64.7083   23.8195 H   0  0  0  0  0
  -46.2866   64.8064   23.6124 H   0  0  0  0  0
  -44.8894   62.6575   25.3938 H   0  0  0  0  0
  -45.9870   62.8477   26.7830 H   0  0  0  0  0
  -46.6416   62.8303   25.1270 H   0  0  0  0  0
  -42.3201   63.3819   28.7100 H   0  0  0  0  0
  -41.1961   61.5805   29.9943 H   0  0  0  0  0
  -39.7653   61.7631   32.1483 H   0  0  0  0  0
  -38.7292   60.0106   33.5580 H   0  0  0  0  0
  -36.9242   58.5794   32.6280 H   0  0  0  0  0
  -36.1641   58.9015   30.2894 H   0  0  0  0  0
  2  1  4  0  0  0
  1 22  4  0  0  0
  4  2  4  0  0  0
 14  3  1  0  0  0
  6  4  1  0  0  0
  4 20  4  0  0  0
 18  5  1  0  0  0
 19  6  1  0  0  0
 18  7  2  0  0  0
  9  8  1  0  0  0
 10  9  1  0  0  0
 11 10  1  0  0  0
 12 11  4  0  0  0
 11 19  4  0  0  0
 13 12  4  0  0  0
 13 14  1  0  0  0
 17 13  4  0  0  0
 14 15  1  0  0  0
 14 16  1  0  0  0
 17 18  1  0  0  0
 17 19  4  0  0  0
 20 21  4  0  0  0
 21 22  4  0  0  0
 22 23  1  0  0  0
 23 24  4  0  0  0
 23 28  4  0  0  0
 24 25  4  0  0  0
 25 26  4  0  0  0
 26 27  4  0  0  0
 27 28  4  0  0  0
 28 29  1  0  0  0
 29 30  4  0  0  0
 29 33  4  0  0  0
 30 31  4  0  0  0
 31 32  4  0  0  0
 32 33  4  0  0  0
  1 34  1  0  0  0
  2 35  1  0  0  0
  3 36  1  0  0  0
  5 37  1  0  0  0
  6 38  1  0  0  0
  6 39  1  0  0  0
  8 40  1  0  0  0
  8 41  1  0  0  0
  8 42  1  0  0  0
  9 43  1  0  0  0
  9 44  1  0  0  0
 10 45  1  0  0  0
 10 46  1  0  0  0
 15 47  1  0  0  0
 15 48  1  0  0  0
 15 49  1  0  0  0
 16 50  1  0  0  0
 16 51  1  0  0  0
 16 52  1  0  0  0
 20 53  1  0  0  0
 21 54  1  0  0  0
 24 55  1  0  0  0
 25 56  1  0  0  0
 26 57  1  0  0  0
 27 58  1  0  0  0
M  END
$$$$
