5a4e_ligand
  -I-interpret- 

 25 26  0  0  0  0  0  0  0  0999 V2000
    3.5040   18.2310  -43.8440 C   0  0  0  0  0
    2.9130   17.6780  -42.5460 C   0  0  0  0  0
    2.2380   18.3880  -41.7990 O   0  0  0  0  0
    3.1890   16.3890  -42.3060 N   0  0  0  0  0
    3.9300   15.7500  -43.2090 C   0  0  0  0  0
    3.6980   14.2540  -43.6410 S   0  0  0  0  0
    4.9700   16.2470  -43.8840 N   0  0  0  0  0
    5.5370   15.3640  -44.7370 C   0  0  0  0  0
    6.5840   15.5450  -45.5520 C   0  0  0  0  0
    4.9180   14.1650  -44.7160 C   0  0  0  0  0
    5.3120   13.1480  -45.4810 C   0  0  0  0  0
    6.3910   13.2940  -46.3360 C   0  0  0  0  0
    7.0390   14.5170  -46.3740 C   0  0  0  0  0
    8.1060   14.6820  -47.2070 O   0  0  0  0  0
    8.3720   16.0640  -47.4560 C   0  0  0  0  0
    2.6977   18.5806  -44.4888 H   0  0  0  0  0
    4.1720   19.0608  -43.6130 H   0  0  0  0  0
    4.0619   17.4443  -44.3518 H   0  0  0  0  0
    2.8466   15.9181  -41.4685 H   0  0  0  0  0
    7.0877   16.5114  -45.5723 H   0  0  0  0  0
    4.7824   12.1965  -45.4335 H   0  0  0  0  0
    6.7222   12.4667  -46.9637 H   0  0  0  0  0
    7.4989   16.5229  -47.9200 H   0  0  0  0  0
    8.5903   16.5662  -46.5135 H   0  0  0  0  0
    9.2289   16.1532  -48.1237 H   0  0  0  0  0
  1  2  1  0  0  0
  2  3  2  0  0  0
  2  4  1  0  0  0
  4  5  1  0  0  0
  5  6  4  0  0  0
  5  7  4  0  0  0
  6 10  4  0  0  0
  7  8  4  0  0  0
  8  9  4  0  0  0
  8 10  4  0  0  0
  9 13  4  0  0  0
 10 11  4  0  0  0
 11 12  4  0  0  0
 12 13  4  0  0  0
 13 14  1  0  0  0
 14 15  1  0  0  0
  1 16  1  0  0  0
  1 17  1  0  0  0
  1 18  1  0  0  0
  4 19  1  0  0  0
  9 20  1  0  0  0
 11 21  1  0  0  0
 12 22  1  0  0  0
 15 23  1  0  0  0
 15 24  1  0  0  0
 15 25  1  0  0  0
M  END
$$$$
