5fls_ligand
  -I-interpret- 

 22 22  0  0  0  0  0  0  0  0999 V2000
   -3.1060    7.1450   14.6570 C   0  0  0  0  0
   -2.0070    5.6040   13.2100 C   0  0  0  0  0
   -2.2180    8.1340   14.2800 C   0  0  0  0  0
   -1.1130    6.5860   12.8150 C   0  0  0  0  0
   -3.0110    5.8750   14.1230 C   0  0  0  0  0
   -1.2330    7.8420   13.3650 C   0  0  0  0  0
   -3.4300    3.7040   15.0530 C   0  0  0  0  0
   -3.9760    4.8410   14.5750 C   0  0  0  0  0
   -4.2060    2.5180   15.6070 C   0  0  0  0  0
   -5.4260    5.1700   14.5340 C   0  0  0  0  0
   -5.3040    2.1850   15.0590 O   0  0  0  0  0
   -3.6180    1.9320   16.5740 O   0  0  0  0  0
   -0.1450    9.0960   12.9240 Cl  0  0  0  0  0
   -3.8883    7.3691   15.3822 H   0  0  0  0  0
   -1.9180    4.6003   12.7943 H   0  0  0  0  0
   -2.2970    9.1354   14.7032 H   0  0  0  0  0
   -0.3327    6.3689   12.0856 H   0  0  0  0  0
   -2.3427    3.6284   15.0415 H   0  0  0  0  0
   -5.9489    4.4273   13.9314 H   0  0  0  0  0
   -5.8271    5.1652   15.5475 H   0  0  0  0  0
   -5.5608    6.1577   14.0932 H   0  0  0  0  0
   -2.8063    2.3996   16.7840 H   0  0  0  0  0
  1  3  4  0  0  0
  5  1  4  0  0  0
  2  4  4  0  0  0
  2  5  4  0  0  0
  3  6  4  0  0  0
  4  6  4  0  0  0
  5  8  1  0  0  0
  6 13  1  0  0  0
  8  7  2  0  0  0
  7  9  1  0  0  0
  8 10  1  0  0  0
  9 11  2  0  0  0
  9 12  1  0  0  0
  1 14  1  0  0  0
  2 15  1  0  0  0
  3 16  1  0  0  0
  4 17  1  0  0  0
  7 18  1  0  0  0
 10 19  1  0  0  0
 10 20  1  0  0  0
 10 21  1  0  0  0
 12 22  1  0  0  0
M  END
$$$$
