6ibz_ligand
  -I-interpret- 

 61 66  0  0  0  0  0  0  0  0999 V2000
   92.7520   51.2020  268.4010 C   0  0  0  0  0
   93.0260   52.3700  268.9760 C   0  0  0  0  0
   92.5150   52.9520  270.0570 N   0  0  0  0  0
   91.4370   52.3910  270.8930 C   0  0  0  0  0
   93.1080   54.1290  270.2420 C   0  0  0  0  0
   94.0050   54.2710  269.2840 C   0  0  0  0  0
   93.9620   53.1900  268.4930 C   0  0  0  0  0
   94.6800   52.8610  267.4100 C   0  0  0  0  0
   94.4360   51.6590  266.7700 C   0  0  0  0  0
   93.4460   50.8030  267.2660 C   0  0  0  0  0
   93.1440   49.5660  266.6590 C   0  0  0  0  0
   91.8320   49.2820  266.2680 C   0  0  0  0  0
   94.1330   48.6220  266.4540 C   0  0  0  0  0
   95.4010   48.8880  266.8480 N   0  0  0  0  0
   96.4280   47.9650  266.6600 C   0  0  0  0  0
   96.1090   46.7570  266.0590 C   0  0  0  0  0
   94.7850   46.5020  265.6710 N   0  0  0  0  0
   93.8030   47.4020  265.8650 C   0  0  0  0  0
   92.4860   47.1170  265.4570 C   0  0  0  0  0
   91.4720   48.0730  265.6510 C   0  0  0  0  0
   90.1530   47.8900  265.3550 N   0  0  0  0  0
   89.7180   47.2030  264.2970 C   0  0  0  0  0
   90.4320   47.1710  263.1030 C   0  0  0  0  0
   89.9520   46.4710  262.0050 C   0  0  0  0  0
   88.7560   45.8000  262.1030 C   0  0  0  0  0
   88.0460   45.8370  263.2890 C   0  0  0  0  0
   88.4990   46.5300  264.3930 C   0  0  0  0  0
   87.4620   46.4360  265.8300 S   0  0  0  0  0
   86.0250   46.3180  265.3930 O   0  0  0  0  0
   87.5530   47.7250  266.6200 O   0  0  0  0  0
   87.9190   45.1210  266.7730 N   0  0  0  0  0
   89.3470   45.1840  267.1860 C   0  0  0  0  0
   89.7190   44.2360  268.1880 C   0  0  0  0  0
   91.0540   43.8420  268.3200 C   0  0  0  0  0
   91.4670   42.9010  269.2970 N   0  0  0  0  0
   90.5390   42.3320  270.1710 C   0  0  0  0  0
   89.1950   42.7250  270.0520 N   0  0  0  0  0
   88.7910   43.6670  269.0740 C   0  0  0  0  0
   91.9809   50.5566  268.8217 H   0  0  0  0  0
   90.5433   52.2504  270.2850 H   0  0  0  0  0
   91.7562   51.4313  271.2994 H   0  0  0  0  0
   91.2177   53.0782  271.7102 H   0  0  0  0  0
   92.8929   54.8431  271.0369 H   0  0  0  0  0
   94.6700   55.1253  269.1574 H   0  0  0  0  0
   95.4504   53.5355  267.0363 H   0  0  0  0  0
   95.0103   51.3808  265.8863 H   0  0  0  0  0
   91.0584   50.0282  266.4492 H   0  0  0  0  0
   97.4480   48.1854  266.9749 H   0  0  0  0  0
   96.8832   46.0089  265.8887 H   0  0  0  0  0
   92.2527   46.1590  264.9924 H   0  0  0  0  0
   89.4590   48.3022  265.9786 H   0  0  0  0  0
   91.3807   47.7027  263.0292 H   0  0  0  0  0
   90.5179   46.4533  261.0736 H   0  0  0  0  0
   88.3695   45.2418  261.2503 H   0  0  0  0  0
   87.0986   45.3019  263.3539 H   0  0  0  0  0
   87.2871   44.3638  267.0332 H   0  0  0  0  0
   89.5124   46.1750  267.6088 H   0  0  0  0  0
   89.9440   44.9625  266.3013 H   0  0  0  0  0
   91.8001   44.2714  267.6514 H   0  0  0  0  0
   90.8474   41.6053  270.9226 H   0  0  0  0  0
   87.7417   43.9547  269.0085 H   0  0  0  0  0
  1  2  4  0  0  0
  1 10  4  0  0  0
  2  3  4  0  0  0
  2  7  4  0  0  0
  3  4  1  0  0  0
  3  5  4  0  0  0
  5  6  4  0  0  0
  6  7  4  0  0  0
  7  8  4  0  0  0
  8  9  4  0  0  0
  9 10  4  0  0  0
 10 11  1  0  0  0
 11 12  4  0  0  0
 11 13  4  0  0  0
 12 20  4  0  0  0
 13 14  4  0  0  0
 13 18  4  0  0  0
 14 15  4  0  0  0
 15 16  4  0  0  0
 16 17  4  0  0  0
 17 18  4  0  0  0
 18 19  4  0  0  0
 19 20  4  0  0  0
 20 21  1  0  0  0
 21 22  1  0  0  0
 22 23  4  0  0  0
 22 27  4  0  0  0
 23 24  4  0  0  0
 24 25  4  0  0  0
 25 26  4  0  0  0
 26 27  4  0  0  0
 27 28  1  0  0  0
 28 29  2  0  0  0
 28 30  2  0  0  0
 28 31  1  0  0  0
 31 32  1  0  0  0
 32 33  1  0  0  0
 33 34  4  0  0  0
 33 38  4  0  0  0
 34 35  4  0  0  0
 35 36  4  0  0  0
 36 37  4  0  0  0
 37 38  4  0  0  0
  1 39  1  0  0  0
  4 40  1  0  0  0
  4 41  1  0  0  0
  4 42  1  0  0  0
  5 43  1  0  0  0
  6 44  1  0  0  0
  8 45  1  0  0  0
  9 46  1  0  0  0
 12 47  1  0  0  0
 15 48  1  0  0  0
 16 49  1  0  0  0
 19 50  1  0  0  0
 21 51  1  0  0  0
 23 52  1  0  0  0
 24 53  1  0  0  0
 25 54  1  0  0  0
 26 55  1  0  0  0
 31 56  1  0  0  0
 32 57  1  0  0  0
 32 58  1  0  0  0
 34 59  1  0  0  0
 36 60  1  0  0  0
 38 61  1  0  0  0
M  END
$$$$
