6bj3_ligand
  -I-interpret- 

147147  0  0  0  0  0  0  0  0999 V2000
  -34.0810   38.6220    0.3150 N   0  3  0  0  0
  -34.5690   38.4770   -1.0560 C   0  0  0  0  0
  -33.4110   38.6720   -2.0160 C   0  0  0  0  0
  -32.5050   39.4690   -1.7480 O   0  0  0  0  0
  -35.6980   39.4690   -1.3770 C   0  0  0  0  0
  -35.2650   40.8920   -1.0230 C   0  0  0  0  0
  -36.9860   39.0760   -0.6640 C   0  0  0  0  0
  -36.1240   41.9570   -1.6450 C   0  0  0  0  0
  -33.4310   37.9460   -3.1280 N   0  0  0  0  0
  -32.3630   38.0730   -4.1180 C   0  0  0  0  0
  -32.6060   39.2630   -5.0380 C   0  0  0  0  0
  -33.6760   39.8750   -5.0460 O   0  0  0  0  0
  -32.4560   36.7560   -4.8890 C   0  0  0  0  0
  -33.9140   36.4460   -4.8640 C   0  0  0  0  0
  -34.4230   36.9280   -3.5260 C   0  0  0  0  0
  -31.5690   39.5900   -5.8060 N   0  0  0  0  0
  -31.7020   40.5550   -6.8870 C   0  0  0  0  0
  -32.8510   40.1410   -7.7960 C   0  0  0  0  0
  -32.9370   38.9850   -8.2190 O   0  0  0  0  0
  -30.3950   40.6390   -7.6730 C   0  0  0  0  0
  -30.2940   41.7000   -8.7700 C   0  0  0  0  0
  -30.4280   43.1050   -8.1880 C   0  0  0  0  0
  -28.9850   41.5390   -9.5250 C   0  0  0  0  0
  -33.7470   41.0900   -8.0780 N   0  0  0  0  0
  -35.0210   40.7350   -8.6980 C   0  0  0  0  0
  -34.8480   40.2110  -10.1200 C   0  0  0  0  0
  -35.6600   39.3980  -10.5780 O   0  0  0  0  0
  -35.9610   41.9420   -8.6770 C   0  0  0  0  0
  -36.0160   42.4700   -7.3470 O   0  0  0  0  0
  -37.3690   41.5420   -9.1020 C   0  0  0  0  0
  -33.8010   40.6370  -10.8240 N   0  0  0  0  0
  -33.6380   40.2810  -12.2240 C   0  0  0  0  0
  -32.1640   40.2900  -12.5990 C   0  0  0  0  0
  -31.4210   41.1790  -12.1820 O   0  0  0  0  0
  -34.4120   41.2500  -13.1170 C   0  0  0  0  0
  -34.2700   40.9850  -14.5940 C   0  0  0  0  0
  -35.2480   41.8020  -15.4000 C   0  0  0  0  0
  -34.8760   42.9110  -15.8410 O   0  0  0  0  0
  -36.3990   41.3430  -15.5610 O   0  0  0  0  0
  -31.7660   39.3230  -13.4240 N   0  0  0  0  0
  -30.3740   39.0910  -13.7800 C   0  0  0  0  0
  -30.0840   39.5090  -15.2150 C   0  0  0  0  0
  -30.8640   39.2240  -16.1330 O   0  0  0  0  0
  -30.0080   37.6130  -13.6120 C   0  0  0  0  0
  -29.9010   37.1630  -12.1770 C   0  0  0  0  0
  -28.7680   37.8360  -11.4420 C   0  0  0  0  0
  -27.7880   38.2460  -12.1010 O   0  0  0  0  0
  -28.8590   37.9610  -10.2030 O   0  0  0  0  0
  -28.9370   40.1550  -15.4020 N   0  0  0  0  0
  -28.4110   40.4520  -16.7240 C   0  0  0  0  0
  -27.5630   39.2900  -17.2280 C   0  0  0  0  0
  -26.9210   38.5820  -16.4490 O   0  0  0  0  0
  -27.5730   41.7310  -16.6940 C   0  0  0  0  0
  -27.5810   39.0880  -18.5420 N   0  0  0  0  0
  -26.6650   38.1370  -19.1550 C   0  0  0  0  0
  -25.2350   38.6370  -19.0210 C   0  0  0  0  0
  -24.9680   39.8350  -19.1420 O   0  0  0  0  0
  -26.9920   37.9390  -20.6360 C   0  0  0  0  0
  -28.2810   37.2040  -20.9260 C   0  0  0  0  0
  -28.4620   36.9380  -22.4110 C   0  0  0  0  0
  -27.5160   37.2030  -23.1890 O   0  0  0  0  0
  -29.5500   36.4620  -22.8010 O   0  0  0  0  0
  -24.3140   37.7170  -18.7700 N   0  0  0  0  0
  -22.8970   38.0580  -18.7960 C   0  0  0  0  0
  -22.4680   38.2770  -20.2450 C   0  0  0  0  0
  -21.3880   38.7960  -20.5310 O   0  0  0  0  0
  -22.0490   36.9610  -18.1490 C   0  0  0  0  0
  -21.9500   36.9110  -16.6220 C   0  0  0  0  0
  -23.2750   36.5160  -15.9890 C   0  0  0  0  0
  -20.8500   35.9520  -16.2060 C   0  0  0  0  0
  -23.2100   37.9300  -21.1700 O   0  0  0  0  0
  -33.3355   37.9463    0.4825 H   0  0  0  0  0
  -33.7212   39.5671    0.4484 H   0  0  0  0  0
  -34.8471   38.4534    0.9669 H   0  0  0  0  0
  -34.9848   37.4754   -1.1657 H   0  0  0  0  0
  -35.9013   39.4369   -2.4474 H   0  0  0  0  0
  -34.2519   41.0281   -1.4013 H   0  0  0  0  0
  -35.3465   40.9980    0.0588 H   0  0  0  0  0
  -36.8341   39.1301    0.4140 H   0  0  0  0  0
  -37.7837   39.7596   -0.9546 H   0  0  0  0  0
  -37.2583   38.0582   -0.9432 H   0  0  0  0  0
  -36.0848   41.8656   -2.7305 H   0  0  0  0  0
  -37.1528   41.8362   -1.3058 H   0  0  0  0  0
  -35.7551   42.9388   -1.3482 H   0  0  0  0  0
  -31.3827   38.2454   -3.6738 H   0  0  0  0  0
  -31.8513   35.9657   -4.4441 H   0  0  0  0  0
  -32.0609   36.8340   -5.9019 H   0  0  0  0  0
  -34.0914   35.3781   -4.9910 H   0  0  0  0  0
  -34.4353   36.9395   -5.6843 H   0  0  0  0  0
  -35.4347   37.3297   -3.5833 H   0  0  0  0  0
  -34.5112   36.1224   -2.7971 H   0  0  0  0  0
  -30.6626   39.1552   -5.6332 H   0  0  0  0  0
  -31.9174   41.5405   -6.4741 H   0  0  0  0  0
  -30.2988   39.6807   -8.1835 H   0  0  0  0  0
  -29.6305   40.9011   -6.9416 H   0  0  0  0  0
  -31.1175   41.5596   -9.4702 H   0  0  0  0  0
  -31.3956   43.2021   -7.6956 H   0  0  0  0  0
  -29.6315   43.2742   -7.4634 H   0  0  0  0  0
  -30.3523   43.8382   -8.9910 H   0  0  0  0  0
  -28.1511   41.6556   -8.8328 H   0  0  0  0  0
  -28.9475   40.5480   -9.9774 H   0  0  0  0  0
  -28.9208   42.2983  -10.3044 H   0  0  0  0  0
  -33.5413   42.0650   -7.8600 H   0  0  0  0  0
  -35.4584   39.9239   -8.1159 H   0  0  0  0  0
  -35.5803   42.6892   -9.3733 H   0  0  0  0  0
  -36.6049   43.2279   -7.3289 H   0  0  0  0  0
  -37.3405   41.1367  -10.1135 H   0  0  0  0  0
  -37.7529   40.7860   -8.4170 H   0  0  0  0  0
  -38.0170   42.4182   -9.0784 H   0  0  0  0  0
  -33.1000   41.2243  -10.3723 H   0  0  0  0  0
  -34.0356   39.2772  -12.3739 H   0  0  0  0  0
  -34.0107   42.2462  -12.9309 H   0  0  0  0  0
  -35.4680   41.1366  -12.8719 H   0  0  0  0  0
  -34.4708   39.9292  -14.7757 H   0  0  0  0  0
  -33.2596   41.2586  -14.8978 H   0  0  0  0  0
  -33.9584   43.0583  -15.6004 H   0  0  0  0  0
  -32.4754   38.7118  -13.8283 H   0  0  0  0  0
  -29.7703   39.6991  -13.1062 H   0  0  0  0  0
  -29.0284   37.4701  -14.0681 H   0  0  0  0  0
  -30.8045   37.0296  -14.0738 H   0  0  0  0  0
  -29.7120   36.0895  -12.1749 H   0  0  0  0  0
  -30.8311   37.4250  -11.6726 H   0  0  0  0  0
  -27.9235   38.0480  -13.0305 H   0  0  0  0  0
  -28.4048   40.4542  -14.5849 H   0  0  0  0  0
  -29.2517   40.5997  -17.4018 H   0  0  0  0  0
  -28.1948   42.5636  -16.3651 H   0  0  0  0  0
  -26.7404   41.6022  -16.0024 H   0  0  0  0  0
  -27.1886   41.9355  -17.6933 H   0  0  0  0  0
  -28.2412   39.6029  -19.1246 H   0  0  0  0  0
  -26.7739   37.1821  -18.6408 H   0  0  0  0  0
  -26.1883   37.3319  -21.0526 H   0  0  0  0  0
  -27.0994   38.9349  -21.0657 H   0  0  0  0  0
  -29.1109   37.8240  -20.5869 H   0  0  0  0  0
  -28.2506   36.2449  -20.4089 H   0  0  0  0  0
  -26.7791   37.5572  -22.6859 H   0  0  0  0  0
  -24.5997   36.7614  -18.5566 H   0  0  0  0  0
  -22.7422   38.9711  -18.2212 H   0  0  0  0  0
  -21.0319   37.1502  -18.4923 H   0  0  0  0  0
  -22.5324   36.0259  -18.4319 H   0  0  0  0  0
  -21.7042   37.9110  -16.2647 H   0  0  0  0  0
  -24.0381   37.2450  -16.2617 H   0  0  0  0  0
  -23.5681   35.5296  -16.3483 H   0  0  0  0  0
  -23.1652   36.4913  -14.9048 H   0  0  0  0  0
  -21.0763   34.9553  -16.5847 H   0  0  0  0  0
  -19.8993   36.2912  -16.6173 H   0  0  0  0  0
  -20.7871   35.9231  -15.1182 H   0  0  0  0  0
  -24.0111   37.5438  -20.8085 H   0  0  0  0  0
  1  2  1  0  0  0
  2  3  1  0  0  0
  2  5  1  0  0  0
  3  4  2  0  0  0
  3  9  1  0  0  0
  5  6  1  0  0  0
  5  7  1  0  0  0
  6  8  1  0  0  0
  9 10  1  0  0  0
  9 15  1  0  0  0
 10 11  1  0  0  0
 10 13  1  0  0  0
 11 12  2  0  0  0
 11 16  1  0  0  0
 13 14  1  0  0  0
 14 15  1  0  0  0
 16 17  1  0  0  0
 17 18  1  0  0  0
 17 20  1  0  0  0
 18 19  2  0  0  0
 18 24  1  0  0  0
 20 21  1  0  0  0
 21 22  1  0  0  0
 21 23  1  0  0  0
 24 25  1  0  0  0
 25 26  1  0  0  0
 25 28  1  0  0  0
 26 27  2  0  0  0
 26 31  1  0  0  0
 28 29  1  0  0  0
 28 30  1  0  0  0
 31 32  1  0  0  0
 32 33  1  0  0  0
 32 35  1  0  0  0
 33 34  2  0  0  0
 33 40  1  0  0  0
 35 36  1  0  0  0
 36 37  1  0  0  0
 37 38  1  0  0  0
 37 39  2  0  0  0
 40 41  1  0  0  0
 41 42  1  0  0  0
 41 44  1  0  0  0
 42 43  2  0  0  0
 42 49  1  0  0  0
 44 45  1  0  0  0
 45 46  1  0  0  0
 46 47  1  0  0  0
 46 48  2  0  0  0
 49 50  1  0  0  0
 50 51  1  0  0  0
 50 53  1  0  0  0
 51 52  2  0  0  0
 51 54  1  0  0  0
 54 55  1  0  0  0
 55 56  1  0  0  0
 55 58  1  0  0  0
 56 57  2  0  0  0
 56 63  1  0  0  0
 58 59  1  0  0  0
 59 60  1  0  0  0
 60 61  1  0  0  0
 60 62  2  0  0  0
 63 64  1  0  0  0
 64 65  1  0  0  0
 64 67  1  0  0  0
 65 66  2  0  0  0
 65 71  1  0  0  0
 67 68  1  0  0  0
 68 69  1  0  0  0
 68 70  1  0  0  0
  1 72  1  0  0  0
  1 73  1  0  0  0
  1 74  1  0  0  0
  2 75  1  0  0  0
  5 76  1  0  0  0
  6 77  1  0  0  0
  6 78  1  0  0  0
  7 79  1  0  0  0
  7 80  1  0  0  0
  7 81  1  0  0  0
  8 82  1  0  0  0
  8 83  1  0  0  0
  8 84  1  0  0  0
 10 85  1  0  0  0
 13 86  1  0  0  0
 13 87  1  0  0  0
 14 88  1  0  0  0
 14 89  1  0  0  0
 15 90  1  0  0  0
 15 91  1  0  0  0
 16 92  1  0  0  0
 17 93  1  0  0  0
 20 94  1  0  0  0
 20 95  1  0  0  0
 21 96  1  0  0  0
 22 97  1  0  0  0
 22 98  1  0  0  0
 22 99  1  0  0  0
 23100  1  0  0  0
 23101  1  0  0  0
 23102  1  0  0  0
 24103  1  0  0  0
 25104  1  0  0  0
 28105  1  0  0  0
 29106  1  0  0  0
 30107  1  0  0  0
 30108  1  0  0  0
 30109  1  0  0  0
 31110  1  0  0  0
 32111  1  0  0  0
 35112  1  0  0  0
 35113  1  0  0  0
 36114  1  0  0  0
 36115  1  0  0  0
 38116  1  0  0  0
 40117  1  0  0  0
 41118  1  0  0  0
 44119  1  0  0  0
 44120  1  0  0  0
 45121  1  0  0  0
 45122  1  0  0  0
 47123  1  0  0  0
 49124  1  0  0  0
 50125  1  0  0  0
 53126  1  0  0  0
 53127  1  0  0  0
 53128  1  0  0  0
 54129  1  0  0  0
 55130  1  0  0  0
 58131  1  0  0  0
 58132  1  0  0  0
 59133  1  0  0  0
 59134  1  0  0  0
 61135  1  0  0  0
 63136  1  0  0  0
 64137  1  0  0  0
 67138  1  0  0  0
 67139  1  0  0  0
 68140  1  0  0  0
 69141  1  0  0  0
 69142  1  0  0  0
 69143  1  0  0  0
 70144  1  0  0  0
 70145  1  0  0  0
 70146  1  0  0  0
 71147  1  0  0  0
M  END
$$$$
