### 
### Created by X-TOOL on Wed Jan  1 15:39:36 2020
### 

@<TRIPOS>MOLECULE
6bj3_ligand
  143   143     1     0     0
SMALL
GAST_HUCK


@<TRIPOS>ATOM
      1 N         -34.0810   38.6220    0.3150 N.4       1 ILE         0.2381
      2 CA        -34.5690   38.4770   -1.0560 C.3       1 ILE         0.0678
      3 C         -33.4110   38.6720   -2.0160 C.2       1 ILE         0.2295
      4 O         -32.5050   39.4690   -1.7480 O.2       1 ILE        -0.3905
      5 CB        -35.6980   39.4690   -1.3770 C.3       1 ILE         0.0164
      6 CG1       -35.2650   40.8920   -1.0230 C.3       1 ILE        -0.0460
      7 CG2       -36.9860   39.0760   -0.6640 C.3       1 ILE        -0.0551
      8 CD1       -36.1240   41.9570   -1.6450 C.3       1 ILE        -0.0647
      9 N         -33.4310   37.9460   -3.1280 N.am      1 PRO        -0.2471
     10 CA        -32.3630   38.0730   -4.1180 C.3       1 PRO         0.1339
     11 C         -32.6060   39.2630   -5.0380 C.2       1 PRO         0.2041
     12 O         -33.6760   39.8750   -5.0460 O.2       1 PRO        -0.3944
     13 CB        -32.4560   36.7560   -4.8890 C.3       1 PRO        -0.0104
     14 CG        -33.9140   36.4460   -4.8640 C.3       1 PRO        -0.0281
     15 CD        -34.4230   36.9280   -3.5260 C.3       1 PRO         0.0371
     16 N         -31.5690   39.5900   -5.8060 N.am      1 LEU        -0.2637
     17 CA        -31.7020   40.5550   -6.8870 C.3       1 LEU         0.1312
     18 C         -32.8510   40.1410   -7.7960 C.2       1 LEU         0.2040
     19 O         -32.9370   38.9850   -8.2190 O.2       1 LEU        -0.3944
     20 CB        -30.3950   40.6390   -7.6730 C.3       1 LEU        -0.0101
     21 CG        -30.2940   41.7000   -8.7700 C.3       1 LEU        -0.0425
     22 CD1       -30.4280   43.1050   -8.1880 C.3       1 LEU        -0.0625
     23 CD2       -28.9850   41.5390   -9.5250 C.3       1 LEU        -0.0625
     24 N         -33.7470   41.0900   -8.0780 N.am      1 THR        -0.2613
     25 CA        -35.0210   40.7350   -8.6980 C.3       1 THR         0.1565
     26 C         -34.8480   40.2110  -10.1200 C.2       1 THR         0.2065
     27 O         -35.6600   39.3980  -10.5780 O.2       1 THR        -0.3943
     28 CB        -35.9610   41.9420   -8.6770 C.3       1 THR         0.0924
     29 OG1       -36.0160   42.4700   -7.3470 O.3       1 THR        -0.3874
     30 CG2       -37.3690   41.5420   -9.1020 C.3       1 THR        -0.0346
     31 N         -33.8010   40.6370  -10.8240 N.am      1 GLU        -0.2635
     32 CA        -33.6380   40.2810  -12.2240 C.3       1 GLU         0.1325
     33 C         -32.1640   40.2900  -12.5990 C.2       1 GLU         0.2040
     34 O         -31.4210   41.1790  -12.1820 O.2       1 GLU        -0.3944
     35 CB        -34.4120   41.2500  -13.1170 C.3       1 GLU        -0.0008
     36 CG        -34.2700   40.9850  -14.5940 C.3       1 GLU         0.0044
     37 CD        -35.2480   41.8020  -15.4000 C.2       1 GLU         0.0350
     38 OE1       -34.8760   42.9110  -15.8410 O.co2     1 GLU        -0.5690
     39 OE2       -36.3990   41.3430  -15.5610 O.co2     1 GLU        -0.5690
     40 N         -31.7660   39.3230  -13.4240 N.am      1 GLU        -0.2636
     41 CA        -30.3740   39.0910  -13.7800 C.3       1 GLU         0.1325
     42 C         -30.0840   39.5090  -15.2150 C.2       1 GLU         0.2040
     43 O         -30.8640   39.2240  -16.1330 O.2       1 GLU        -0.3944
     44 CB        -30.0080   37.6130  -13.6120 C.3       1 GLU        -0.0008
     45 CG        -29.9010   37.1630  -12.1770 C.3       1 GLU         0.0044
     46 CD        -28.7680   37.8360  -11.4420 C.2       1 GLU         0.0350
     47 OE1       -27.7880   38.2460  -12.1010 O.co2     1 GLU        -0.5690
     48 OE2       -28.8590   37.9610  -10.2030 O.co2     1 GLU        -0.5690
     49 N         -28.9370   40.1550  -15.4020 N.am      1 ALA        -0.2640
     50 CA        -28.4110   40.4520  -16.7240 C.3       1 ALA         0.1282
     51 C         -27.5630   39.2900  -17.2280 C.2       1 ALA         0.2036
     52 O         -26.9210   38.5820  -16.4490 O.2       1 ALA        -0.3944
     53 CB        -27.5730   41.7310  -16.6940 C.3       1 ALA        -0.0244
     54 N         -27.5810   39.0880  -18.5420 N.am      1 GLU        -0.2636
     55 CA        -26.6650   38.1370  -19.1550 C.3       1 GLU         0.1324
     56 C         -25.2350   38.6370  -19.0210 C.2       1 GLU         0.2034
     57 O         -24.9680   39.8350  -19.1420 O.2       1 GLU        -0.3944
     58 CB        -26.9920   37.9390  -20.6360 C.3       1 GLU        -0.0008
     59 CG        -28.2810   37.2040  -20.9260 C.3       1 GLU         0.0044
     60 CD        -28.4620   36.9380  -22.4110 C.2       1 GLU         0.0350
     61 OE1       -27.5160   37.2030  -23.1890 O.co2     1 GLU        -0.5690
     62 OE2       -29.5500   36.4620  -22.8010 O.co2     1 GLU        -0.5690
     63 N         -24.3140   37.7170  -18.7700 N.am      1 LEU        -0.2695
     64 CA        -22.8970   38.0580  -18.7960 C.3       1 LEU         0.0946
     65 C         -22.4680   38.2770  -20.2450 C.2       1 LEU         0.0601
     66 O         -21.3880   38.7960  -20.5310 O.co2     1 LEU        -0.5666
     67 CB        -22.0490   36.9610  -18.1490 C.3       1 LEU        -0.0156
     68 CG        -21.9500   36.9110  -16.6220 C.3       1 LEU        -0.0431
     69 CD1       -23.2750   36.5160  -15.9890 C.3       1 LEU        -0.0625
     70 CD2       -20.8500   35.9520  -16.2060 C.3       1 LEU        -0.0625
     71 OXT       -23.2100   37.9300  -21.1700 O.co2     1 LEU        -0.5666
     72 H1        -33.3442   37.9546    0.4817 H         1 ILE         0.2015
     73 H2        -34.8373   38.4556    0.9603 H         1 ILE         0.2015
     74 H3        -33.7251   39.5556    0.4480 H         1 ILE         0.2015
     75 H4        -34.9631   37.4574   -1.1785 H         1 ILE         0.1101
     76 H5        -35.8884   39.4321   -2.4598 H         1 ILE         0.0378
     77 H6        -34.2301   41.0358   -1.3668 H         1 ILE         0.0269
     78 H7        -35.3074   41.0062    0.0702 H         1 ILE         0.0269
     79 H8        -37.2619   38.0489   -0.9450 H         1 ILE         0.0236
     80 H9        -37.7920   39.7651   -0.9564 H         1 ILE         0.0236
     81 H10       -36.8340   39.1302    0.4241 H         1 ILE         0.0236
     82 H11       -35.7527   42.9484   -1.3462 H         1 ILE         0.0230
     83 H12       -37.1626   41.8362   -1.3035 H         1 ILE         0.0230
     84 H13       -36.0853   41.8659   -2.7405 H         1 ILE         0.0230
     85 H14       -31.3822   38.1793   -3.6314 H         1 PRO         0.0802
     86 H15       -31.8765   35.9654   -4.3898 H         1 PRO         0.0313
     87 H16       -32.0967   36.8776   -5.9215 H         1 PRO         0.0313
     88 H17       -34.0756   35.3627   -4.9659 H         1 PRO         0.0287
     89 H18       -34.4301   36.9722   -5.6806 H         1 PRO         0.0287
     90 H19       -35.4249   37.3717   -3.6229 H         1 PRO         0.0524
     91 H20       -34.4555   36.1044   -2.7976 H         1 PRO         0.0524
     92 H21       -30.6804   39.1637   -5.6366 H         1 LEU         0.1883
     93 H22       -31.9235   41.5444   -6.4604 H         1 LEU         0.0800
     94 H23       -30.2326   39.6597   -8.1468 H         1 LEU         0.0315
     95 H24       -29.5889   40.8351   -6.9507 H         1 LEU         0.0315
     96 H25       -31.1214   41.5446   -9.4780 H         1 LEU         0.0298
     97 H26       -30.3518   43.8459   -8.9974 H         1 LEU         0.0232
     98 H27       -29.6246   43.2771   -7.4566 H         1 LEU         0.0232
     99 H28       -31.4041   43.2044   -7.6907 H         1 LEU         0.0232
    100 H29       -28.9190   40.5188   -9.9310 H         1 LEU         0.0232
    101 H30       -28.1426   41.7164   -8.8403 H         1 LEU         0.0232
    102 H31       -28.9460   42.2652  -10.3503 H         1 LEU         0.0232
    103 H32       -33.5454   42.0459   -7.8643 H         1 THR         0.1884
    104 H33       -35.4770   39.9332   -8.0988 H         1 THR         0.0826
    105 H34       -35.5785   42.7106   -9.3647 H         1 THR         0.0639
    106 H35       -36.3403   41.8014   -6.7552 H         1 THR         0.2101
    107 H36       -38.0239   42.4255   -9.0786 H         1 THR         0.0257
    108 H37       -37.7577   40.7791   -8.4114 H         1 THR         0.0257
    109 H38       -37.3416   41.1329  -10.1227 H         1 THR         0.0257
    110 H39       -33.1137   41.2128  -10.3811 H         1 GLU         0.1883
    111 H40       -34.0355   39.2669  -12.3776 H         1 GLU         0.0801
    112 H41       -34.0500   42.2687  -12.9140 H         1 GLU         0.0330
    113 H42       -35.4784   41.1810  -12.8562 H         1 GLU         0.0330
    114 H43       -34.4541   39.9174  -14.7847 H         1 GLU         0.0433
    115 H44       -33.2471   41.2422  -14.9063 H         1 GLU         0.0433
    116 H45       -32.4615   38.7237  -13.8204 H         1 GLU         0.1883
    117 H46       -29.7432   39.6898  -13.1065 H         1 GLU         0.0801
    118 H47       -29.0381   37.4398  -14.1012 H         1 GLU         0.0330
    119 H48       -30.7816   37.0074  -14.1068 H         1 GLU         0.0330
    120 H49       -29.7356   36.0756  -12.1599 H         1 GLU         0.0433
    121 H50       -30.8442   37.3986  -11.6624 H         1 GLU         0.0433
    122 H51       -28.4153   40.4483  -14.6009 H         1 ALA         0.1883
    123 H52       -29.2554   40.5993  -17.4133 H         1 ALA         0.0797
    124 H53       -27.1845   41.9385  -17.7020 H         1 ALA         0.0277
    125 H54       -26.7323   41.6023  -15.9964 H         1 ALA         0.0277
    126 H55       -28.1994   42.5721  -16.3622 H         1 ALA         0.0277
    127 H56       -28.2282   39.5928  -19.1132 H         1 GLU         0.1883
    128 H57       -26.7589   37.1710  -18.6372 H         1 GLU         0.0801
    129 H58       -26.1680   37.3705  -21.0918 H         1 GLU         0.0330
    130 H59       -27.0556   38.9321  -21.1046 H         1 GLU         0.0330
    131 H60       -29.1250   37.8123  -20.5686 H         1 GLU         0.0433
    132 H61       -28.2697   36.2426  -20.3917 H         1 GLU         0.0433
    133 H62       -24.5941   36.7801  -18.5608 H         1 LEU         0.1875
    134 H63       -22.7471   38.9916  -18.2339 H         1 LEU         0.0726
    135 H64       -21.0254   37.0727  -18.5360 H         1 LEU         0.0308
    136 H65       -22.4622   35.9962  -18.4781 H         1 LEU         0.0308
    137 H66       -21.6871   37.9166  -16.2620 H         1 LEU         0.0297
    138 H67       -23.1655   36.4907  -14.8948 H         1 LEU         0.0232
    139 H68       -23.5719   35.5206  -16.3508 H         1 LEU         0.0232
    140 H69       -24.0460   37.2510  -16.2634 H         1 LEU         0.0232
    141 H70       -19.9022   36.2558  -16.6744 H         1 LEU         0.0232
    142 H71       -21.1094   34.9335  -16.5305 H         1 LEU         0.0232
    143 H72       -20.7410   35.9716  -15.1116 H         1 LEU         0.0232
@<TRIPOS>BOND
     1    1    2 1  
     2    2    3 1  
     3    2    5 1  
     4    3    4 2  
     5    3    9 am 
     6    5    6 1  
     7    5    7 1  
     8    6    8 1  
     9    9   10 1  
    10    9   15 1  
    11   10   11 1  
    12   10   13 1  
    13   11   12 2  
    14   11   16 am 
    15   13   14 1  
    16   14   15 1  
    17   16   17 1  
    18   17   18 1  
    19   17   20 1  
    20   18   19 2  
    21   18   24 am 
    22   20   21 1  
    23   21   22 1  
    24   21   23 1  
    25   24   25 1  
    26   25   26 1  
    27   25   28 1  
    28   26   27 2  
    29   26   31 am 
    30   28   29 1  
    31   28   30 1  
    32   31   32 1  
    33   32   33 1  
    34   32   35 1  
    35   33   34 2  
    36   33   40 am 
    37   35   36 1  
    38   36   37 1  
    39   37   38 ar 
    40   37   39 ar 
    41   40   41 1  
    42   41   42 1  
    43   41   44 1  
    44   42   43 2  
    45   42   49 am 
    46   44   45 1  
    47   45   46 1  
    48   46   47 ar 
    49   46   48 ar 
    50   49   50 1  
    51   50   51 1  
    52   50   53 1  
    53   51   52 2  
    54   51   54 am 
    55   54   55 1  
    56   55   56 1  
    57   55   58 1  
    58   56   57 2  
    59   56   63 am 
    60   58   59 1  
    61   59   60 1  
    62   60   61 ar 
    63   60   62 ar 
    64   63   64 1  
    65   64   65 1  
    66   64   67 1  
    67   65   66 ar 
    68   65   71 ar 
    69   67   68 1  
    70   68   69 1  
    71   68   70 1  
    72    1   72 1  
    73    1   73 1  
    74    1   74 1  
    75    2   75 1  
    76    5   76 1  
    77    6   77 1  
    78    6   78 1  
    79    7   79 1  
    80    7   80 1  
    81    7   81 1  
    82    8   82 1  
    83    8   83 1  
    84    8   84 1  
    85   10   85 1  
    86   13   86 1  
    87   13   87 1  
    88   14   88 1  
    89   14   89 1  
    90   15   90 1  
    91   15   91 1  
    92   16   92 1  
    93   17   93 1  
    94   20   94 1  
    95   20   95 1  
    96   21   96 1  
    97   22   97 1  
    98   22   98 1  
    99   22   99 1  
   100   23  100 1  
   101   23  101 1  
   102   23  102 1  
   103   24  103 1  
   104   25  104 1  
   105   28  105 1  
   106   29  106 1  
   107   30  107 1  
   108   30  108 1  
   109   30  109 1  
   110   31  110 1  
   111   32  111 1  
   112   35  112 1  
   113   35  113 1  
   114   36  114 1  
   115   36  115 1  
   116   40  116 1  
   117   41  117 1  
   118   44  118 1  
   119   44  119 1  
   120   45  120 1  
   121   45  121 1  
   122   49  122 1  
   123   50  123 1  
   124   53  124 1  
   125   53  125 1  
   126   53  126 1  
   127   54  127 1  
   128   55  128 1  
   129   58  129 1  
   130   58  130 1  
   131   59  131 1  
   132   59  132 1  
   133   63  133 1  
   134   64  134 1  
   135   67  135 1  
   136   67  136 1  
   137   68  137 1  
   138   69  138 1  
   139   69  139 1  
   140   69  140 1  
   141   70  141 1  
   142   70  142 1  
   143   70  143 1  
@<TRIPOS>SUBSTRUCTURE
     1 ILE         1

