1ayv_ligand
  -I-interpret- 

 85 87  0  0  0  0  0  0  0  0999 V2000
  -28.4950   -9.5230   55.7010 C   0  0  0  0  0
  -28.6290   -9.3340   57.0840 C   0  0  0  0  0
  -27.5560   -9.6270   57.9390 C   0  0  0  0  0
  -26.3510  -10.1050   57.4300 C   0  0  0  0  0
  -26.2280  -10.2880   56.0520 C   0  0  0  0  0
  -27.2900  -10.0010   55.1850 C   0  0  0  0  0
  -25.2000  -10.4050   58.3480 C   0  0  0  0  0
  -24.7270  -11.7650   58.3610 O   0  0  0  0  0
  -24.0310  -12.4200   57.2970 C   0  0  0  0  0
  -24.3300  -12.2310   56.0980 O   0  0  0  0  0
  -22.2660  -14.0130   56.7050 C   0  0  0  0  0
  -20.7750  -13.6250   56.8020 C   0  0  0  0  0
  -20.1770  -12.6020   55.8160 C   0  0  0  0  0
  -19.0060  -11.8290   56.4720 C   0  0  0  0  0
  -21.2220  -11.6350   55.2260 C   0  0  0  0  0
  -22.4980  -15.5900   56.8000 C   0  0  0  0  0
  -23.7840  -16.3150   55.9230 S   0  0  0  0  0
  -21.7960  -16.5490   57.4980 N   0  0  0  0  0
  -22.2080  -17.8720   57.3930 C   0  0  0  0  0
  -23.0540  -13.2500   57.6810 N   0  0  0  0  0
  -23.2740  -17.8770   56.5510 C   0  0  0  0  0
  -21.5760  -19.1040   58.2420 C   0  0  0  0  0
  -21.3720  -18.3860   59.1690 O   0  0  0  0  0
  -13.7850  -23.5080   54.9590 C   0  0  0  0  0
  -14.2320  -22.8380   56.0770 C   0  0  0  0  0
  -14.8330  -23.5440   57.1180 C   0  0  0  0  0
  -14.9980  -24.9290   57.0420 C   0  0  0  0  0
  -14.5350  -25.6040   55.9080 C   0  0  0  0  0
  -13.9350  -24.9010   54.8660 C   0  0  0  0  0
  -15.7230  -25.6710   58.1370 C   0  0  0  0  0
  -17.1020  -25.9300   57.7090 O   0  0  0  0  0
  -17.9100  -25.0280   56.9620 C   0  0  0  0  0
  -17.6900  -24.8100   55.7720 O   0  0  0  0  0
  -19.8220  -23.4920   57.0000 C   0  0  0  0  0
  -21.2170  -24.1180   56.8380 C   0  0  0  0  0
  -21.9190  -24.8870   57.9680 C   0  0  0  0  0
  -21.4350  -26.3070   58.1210 C   0  0  0  0  0
  -21.8650  -24.1530   59.2870 C   0  0  0  0  0
  -19.8670  -22.1490   57.7600 C   0  0  0  0  0
  -19.6040  -22.1250   58.9620 O   0  0  0  0  0
  -20.1820  -20.9960   57.0820 N   0  0  0  0  0
  -20.1980  -19.6480   57.7800 N   0  3  0  0  0
  -18.9040  -24.4430   57.6330 N   0  0  0  0  0
  -29.3268   -9.2980   55.0334 H   0  0  0  0  0
  -29.5667   -8.9595   57.4947 H   0  0  0  0  0
  -27.6666   -9.4789   59.0132 H   0  0  0  0  0
  -25.2889  -10.6609   55.6432 H   0  0  0  0  0
  -27.1755  -10.1505   54.1114 H   0  0  0  0  0
  -25.5571  -10.1997   59.3572 H   0  0  0  0  0
  -24.3660   -9.7985   57.9949 H   0  0  0  0  0
  -22.6240  -13.7399   55.7124 H   0  0  0  0  0
  -20.2391  -14.5505   56.5917 H   0  0  0  0  0
  -20.6810  -13.1488   57.7780 H   0  0  0  0  0
  -19.7928  -13.1758   54.9727 H   0  0  0  0  0
  -19.3699  -11.2994   57.3524 H   0  0  0  0  0
  -18.2272  -12.5327   56.7659 H   0  0  0  0  0
  -18.5997  -11.1129   55.7577 H   0  0  0  0  0
  -21.9792  -12.2048   54.6874 H   0  0  0  0  0
  -21.6933  -11.0746   56.0334 H   0  0  0  0  0
  -20.7301  -10.9441   54.5414 H   0  0  0  0  0
  -22.8520  -13.3550   58.6753 H   0  0  0  0  0
  -23.7862  -18.7999   56.2790 H   0  0  0  0  0
  -22.1778  -20.0120   58.2793 H   0  0  0  0  0
  -20.9675  -18.8894   59.8793 H   0  0  0  0  0
  -13.3143  -22.9558   54.1456 H   0  0  0  0  0
  -14.1157  -21.7565   56.1474 H   0  0  0  0  0
  -15.1785  -23.0086   58.0023 H   0  0  0  0  0
  -14.6443  -26.6863   55.8392 H   0  0  0  0  0
  -13.5829  -25.4307   53.9808 H   0  0  0  0  0
  -15.7279  -25.0700   59.0463 H   0  0  0  0  0
  -15.2174  -26.6157   58.3370 H   0  0  0  0  0
  -19.4445  -23.2654   56.0029 H   0  0  0  0  0
  -21.0620  -24.8807   56.0749 H   0  0  0  0  0
  -21.8630  -23.2535   56.6847 H   0  0  0  0  0
  -22.9632  -24.9445   57.6608 H   0  0  0  0  0
  -21.6140  -26.8523   57.1944 H   0  0  0  0  0
  -20.3676  -26.3039   58.3419 H   0  0  0  0  0
  -21.9748  -26.7876   58.9370 H   0  0  0  0  0
  -20.8247  -24.0050   59.5766 H   0  0  0  0  0
  -22.3558  -23.1853   59.1832 H   0  0  0  0  0
  -22.3757  -24.7409   60.0497 H   0  0  0  0  0
  -20.4098  -21.0469   56.0891 H   0  0  0  0  0
  -19.6495  -19.7707   58.6312 H   0  0  0  0  0
  -19.8515  -18.9772   57.0942 H   0  0  0  0  0
  -19.0292  -24.6654   58.6206 H   0  0  0  0  0
  2  1  4  0  0  0
  6  1  4  0  0  0
  3  2  4  0  0  0
  4  3  4  0  0  0
  4  5  4  0  0  0
  7  4  1  0  0  0
  5  6  4  0  0  0
  8  7  1  0  0  0
  9  8  1  0  0  0
  9 10  2  0  0  0
 20  9  1  0  0  0
 11 12  1  0  0  0
 16 11  1  0  0  0
 11 20  1  0  0  0
 12 13  1  0  0  0
 13 14  1  0  0  0
 13 15  1  0  0  0
 17 16  4  0  0  0
 18 16  4  0  0  0
 21 17  4  0  0  0
 19 18  4  0  0  0
 19 21  4  0  0  0
 22 19  1  0  0  0
 22 23  1  0  0  0
 42 22  1  0  0  0
 25 24  4  0  0  0
 29 24  4  0  0  0
 26 25  4  0  0  0
 27 26  4  0  0  0
 27 28  4  0  0  0
 30 27  1  0  0  0
 28 29  4  0  0  0
 31 30  1  0  0  0
 32 31  1  0  0  0
 32 33  2  0  0  0
 43 32  1  0  0  0
 34 35  1  0  0  0
 39 34  1  0  0  0
 34 43  1  0  0  0
 35 36  1  0  0  0
 36 37  1  0  0  0
 36 38  1  0  0  0
 39 40  2  0  0  0
 41 39  1  0  0  0
 41 42  1  0  0  0
  1 44  1  0  0  0
  2 45  1  0  0  0
  3 46  1  0  0  0
  5 47  1  0  0  0
  6 48  1  0  0  0
  7 49  1  0  0  0
  7 50  1  0  0  0
 11 51  1  0  0  0
 12 52  1  0  0  0
 12 53  1  0  0  0
 13 54  1  0  0  0
 14 55  1  0  0  0
 14 56  1  0  0  0
 14 57  1  0  0  0
 15 58  1  0  0  0
 15 59  1  0  0  0
 15 60  1  0  0  0
 20 61  1  0  0  0
 21 62  1  0  0  0
 22 63  1  0  0  0
 23 64  1  0  0  0
 24 65  1  0  0  0
 25 66  1  0  0  0
 26 67  1  0  0  0
 28 68  1  0  0  0
 29 69  1  0  0  0
 30 70  1  0  0  0
 30 71  1  0  0  0
 34 72  1  0  0  0
 35 73  1  0  0  0
 35 74  1  0  0  0
 36 75  1  0  0  0
 37 76  1  0  0  0
 37 77  1  0  0  0
 37 78  1  0  0  0
 38 79  1  0  0  0
 38 80  1  0  0  0
 38 81  1  0  0  0
 41 82  1  0  0  0
 42 83  1  0  0  0
 42 84  1  0  0  0
 43 85  1  0  0  0
M  END
$$$$
