2qhy_ligand
  -I-interpret- 

 67 69  0  0  0  0  0  0  0  0999 V2000
   22.2540   25.1830   11.8000 O   0  0  0  0  0
   21.9560   25.9700   10.9070 C   0  0  0  0  0
   21.4550   25.4120    9.5860 C   0  0  0  0  0
   22.0820   27.2940   11.0520 N   0  0  0  0  0
   22.5580   27.9200   12.2820 C   0  0  0  0  0
   23.9060   28.6100   12.0710 C   0  0  0  0  0
   21.4960   28.9050   12.7540 C   0  0  0  0  0
   21.3210   29.9680   12.1470 O   0  0  0  0  0
   20.7850   28.5600   13.8350 N   0  0  0  0  0
   19.7080   29.3840   14.4030 C   0  0  0  0  0
   18.4320   28.5360   14.3140 C   0  0  0  0  0
   18.1280   28.1890   12.8530 C   0  0  0  0  0
   17.5640   29.1340   12.0000 C   0  0  0  0  0
   17.2960   28.8200   10.6690 C   0  0  0  0  0
   17.6010   27.5600   10.1740 C   0  0  0  0  0
   18.1720   26.6130   11.0130 C   0  0  0  0  0
   18.4340   26.9260   12.3470 C   0  0  0  0  0
   20.0740   29.7720   15.8450 C   0  0  0  0  0
   20.0760   28.6160   16.6920 O   0  0  0  0  0
   19.1170   30.8480   16.4200 C   0  0  0  0  0
   19.4300   32.1510   15.7720 N   0  0  0  0  0
   18.1900   32.8610   14.9870 S   0  0  0  0  0
   18.8410   33.6980   14.0410 O   0  0  0  0  0
   17.4870   31.8250   14.3000 O   0  0  0  0  0
   17.1670   33.7640   15.8930 C   0  0  0  0  0
   17.2260   35.1630   15.8810 C   0  0  0  0  0
   16.3550   35.9570   16.6510 C   0  0  0  0  0
   16.4260   37.3070   16.6510 F   0  0  0  0  0
   16.1810   33.1920   16.7060 C   0  0  0  0  0
   16.0370   31.8710   16.7730 F   0  0  0  0  0
   15.3020   33.9760   17.4730 C   0  0  0  0  0
   15.3900   35.3590   17.4490 C   0  0  0  0  0
   14.5580   36.1310   18.1840 F   0  0  0  0  0
   20.2090   33.1080   16.6120 C   0  0  0  0  0
   21.6480   33.1380   16.1060 C   0  0  0  0  0
   22.7040   33.2600   16.9470 C   0  0  0  0  0
   23.8980   33.2210   16.1760 C   0  0  0  0  0
   23.6610   33.0770   14.8640 C   0  0  0  0  0
   22.0490   32.9860   14.4800 S   0  0  0  0  0
   22.2216   24.7720    9.1493 H   0  0  0  0  0
   20.5495   24.8304    9.7588 H   0  0  0  0  0
   21.2357   26.2346    8.9054 H   0  0  0  0  0
   21.8337   27.8946   10.2658 H   0  0  0  0  0
   22.7190   27.1586   13.0452 H   0  0  0  0  0
   23.7991   29.3909   11.3181 H   0  0  0  0  0
   24.2373   29.0523   13.0105 H   0  0  0  0  0
   24.6392   27.8770   11.7345 H   0  0  0  0  0
   21.0033   27.6740   14.2909 H   0  0  0  0  0
   19.5566   30.3204   13.8660 H   0  0  0  0  0
   17.5975   29.1026   14.7272 H   0  0  0  0  0
   18.5765   27.6139   14.8770 H   0  0  0  0  0
   17.3297   30.1295   12.3771 H   0  0  0  0  0
   16.8454   29.5664   10.0148 H   0  0  0  0  0
   17.3934   27.3153    9.1323 H   0  0  0  0  0
   18.4162   25.6227   10.6287 H   0  0  0  0  0
   18.8819   26.1767   12.9997 H   0  0  0  0  0
   21.0759   30.2004   15.8169 H   0  0  0  0  0
   20.3062   28.8767   17.5868 H   0  0  0  0  0
   19.2502   30.9269   17.4990 H   0  0  0  0  0
   18.0819   30.5714   16.2198 H   0  0  0  0  0
   17.9711   35.6536   15.2547 H   0  0  0  0  0
   14.5455   33.4928   18.0913 H   0  0  0  0  0
   20.1882   32.7897   17.6543 H   0  0  0  0  0
   19.7706   34.1037   16.5446 H   0  0  0  0  0
   22.6475   33.3694   18.0300 H   0  0  0  0  0
   24.8971   33.2996   16.6047 H   0  0  0  0  0
   24.4542   33.0245   14.1183 H   0  0  0  0  0
  1  2  2  0  0  0
  2  3  1  0  0  0
  2  4  1  0  0  0
  4  5  1  0  0  0
  5  6  1  0  0  0
  5  7  1  0  0  0
  7  8  2  0  0  0
  7  9  1  0  0  0
  9 10  1  0  0  0
 10 11  1  0  0  0
 10 18  1  0  0  0
 11 12  1  0  0  0
 12 13  4  0  0  0
 12 17  4  0  0  0
 13 14  4  0  0  0
 14 15  4  0  0  0
 15 16  4  0  0  0
 16 17  4  0  0  0
 18 19  1  0  0  0
 18 20  1  0  0  0
 20 21  1  0  0  0
 21 22  1  0  0  0
 21 34  1  0  0  0
 22 23  2  0  0  0
 22 24  2  0  0  0
 22 25  1  0  0  0
 25 26  4  0  0  0
 25 29  4  0  0  0
 26 27  4  0  0  0
 27 28  1  0  0  0
 27 32  4  0  0  0
 29 30  1  0  0  0
 29 31  4  0  0  0
 31 32  4  0  0  0
 32 33  1  0  0  0
 34 35  1  0  0  0
 35 36  4  0  0  0
 35 39  4  0  0  0
 36 37  4  0  0  0
 37 38  4  0  0  0
 38 39  4  0  0  0
  3 40  1  0  0  0
  3 41  1  0  0  0
  3 42  1  0  0  0
  4 43  1  0  0  0
  5 44  1  0  0  0
  6 45  1  0  0  0
  6 46  1  0  0  0
  6 47  1  0  0  0
  9 48  1  0  0  0
 10 49  1  0  0  0
 11 50  1  0  0  0
 11 51  1  0  0  0
 13 52  1  0  0  0
 14 53  1  0  0  0
 15 54  1  0  0  0
 16 55  1  0  0  0
 17 56  1  0  0  0
 18 57  1  0  0  0
 19 58  1  0  0  0
 20 59  1  0  0  0
 20 60  1  0  0  0
 26 61  1  0  0  0
 31 62  1  0  0  0
 34 63  1  0  0  0
 34 64  1  0  0  0
 36 65  1  0  0  0
 37 66  1  0  0  0
 38 67  1  0  0  0
M  END
$$$$
