### 
### Created by X-TOOL on Mon Sep 10 21:12:44 2018
### 

@<TRIPOS>MOLECULE
3er5_ligand
  185   190     1     0     0
SMALL
GAST_HUCK


@<TRIPOS>ATOM
      1 N           1.2870   21.9350   24.2290 N.4       1 PRO         0.2461
      2 CA          2.6940   21.8760   24.6460 C.3       1 PRO         0.0670
      3 C           3.6250   22.1030   23.4660 C.2       1 PRO         0.2269
      4 O           3.5140   21.4350   22.4370 O.2       1 PRO        -0.3907
      5 CB          2.7670   20.4230   25.0940 C.3       1 PRO         0.0127
      6 CG          1.7460   19.6420   24.2850 C.3       1 PRO        -0.0053
      7 CD          0.7270   20.6560   23.7970 C.3       1 PRO        -0.0313
      8 N           4.5620   23.0300   23.5870 N.am      1 HIS        -0.2592
      9 CA          4.2740   24.4640   23.4180 C.3       1 HIS         0.1424
     10 C           4.2280   24.8300   21.9430 C.2       1 HIS         0.2085
     11 O           5.2150   24.9070   21.2380 O.2       1 HIS        -0.3940
     12 CB          5.3240   25.3110   24.1290 C.3       1 HIS         0.0427
     13 CG          5.3630   26.7660   23.6620 C.2       1 HIS         0.0561
     14 ND1         6.4730   27.5940   23.8120 N.pl3     1 HIS        -0.2623
     15 CD2         4.3640   27.5090   23.0430 C.2       1 HIS        -0.0276
     16 CE1         6.1580   28.8410   23.2820 C.2       1 HIS         0.0875
     17 NE2         4.8530   28.7930   22.8010 N.2       1 HIS        -0.3437
     18 N           2.8860   24.9720   21.4800 N.am      1 PRO        -0.2497
     19 CA          3.1330   25.1800   20.0190 C.3       1 PRO         0.1338
     20 C           3.2890   26.6700   19.7450 C.2       1 PRO         0.2042
     21 O           2.7590   27.5280   20.4470 O.2       1 PRO        -0.3944
     22 CB          1.8320   24.6720   19.4450 C.3       1 PRO        -0.0104
     23 CG          0.9290   24.2210   20.5780 C.3       1 PRO        -0.0281
     24 CD          1.3270   25.2730   21.6050 C.3       1 PRO         0.0369
     25 N           3.9990   26.9720   18.6790 N.am      1 PHE        -0.2619
     26 CA          4.3900   28.3650   18.3440 C.3       1 PHE         0.1404
     27 C           3.5220   28.8520   17.1720 C.2       1 PHE         0.2061
     28 O           3.0720   28.0770   16.3140 O.2       1 PHE        -0.3942
     29 CB          5.8530   28.3410   17.8470 C.3       1 PHE         0.0214
     30 CG          6.8500   28.2590   19.0050 C.ar      1 PHE        -0.0386
     31 CD1         7.5270   29.4050   19.4070 C.ar      1 PHE        -0.0601
     32 CD2         7.0560   27.0360   19.6450 C.ar      1 PHE        -0.0601
     33 CE1         8.4200   29.3080   20.4600 C.ar      1 PHE        -0.0686
     34 CE2         7.9650   26.9330   20.7030 C.ar      1 PHE        -0.0686
     35 CZ          8.6390   28.0840   21.0920 C.ar      1 PHE        -0.0687
     36 N           3.3700   30.1710   17.1450 N.am      1 HIS        -0.2617
     37 CA          2.6520   30.7610   15.9500 C.3       1 HIS         0.1420
     38 C           3.2010   32.1520   15.7000 C.2       1 HIS         0.2041
     39 O           2.8480   33.0940   16.3880 O.2       1 HIS        -0.3943
     40 CB          1.1640   30.8250   16.2760 C.3       1 HIS         0.0427
     41 CG          0.2940   31.5220   15.2590 C.2       1 HIS         0.0561
     42 ND1        -0.9860   31.9270   15.6380 N.pl3     1 HIS        -0.2623
     43 CD2         0.5600   31.9020   13.9540 C.2       1 HIS        -0.0276
     44 CE1        -1.5210   32.5730   14.5290 C.2       1 HIS         0.0875
     45 NE2        -0.5850   32.5520   13.4960 N.2       1 HIS        -0.3437
     46 N           4.1540   32.1750   14.7740 N.am      1 STA        -0.2792
     47 CA          4.9860   33.4110   14.6320 C.3       1 STA         0.0703
     48 CB          6.4390   33.0250   15.0260 C.3       1 STA        -0.0250
     49 CG          6.6350   32.5300   16.4340 C.3       1 STA        -0.0446
     50 CD1         8.0910   32.2060   16.6800 C.3       1 STA        -0.0626
     51 CD2         6.1940   33.4890   17.5230 C.3       1 STA        -0.0626
     52 CH          4.9750   33.8960   13.1960 C.3       1 STA         0.0947
     53 OH          5.4300   32.8140   12.3440 O.3       1 STA        -0.3872
     54 CM          3.5940   34.3320   12.7100 C.3       1 STA         0.0655
     55 C           3.3130   35.7710   13.1810 C.2       1 STA         0.1808
     56 O           2.7300   35.9200   14.2650 O.2       1 STA        -0.3968
     57 N           3.6680   36.8210   12.4270 N.am      1 VAL        -0.2653
     58 CA          3.4000   38.1660   12.8730 C.3       1 VAL         0.1332
     59 C           1.9580   38.5830   12.6490 C.2       1 VAL         0.2042
     60 O           1.3070   38.0890   11.7580 O.2       1 VAL        -0.3944
     61 CB          4.3150   39.2010   12.1940 C.3       1 VAL        -0.0063
     62 CG1         3.9960   39.3380   10.7000 C.3       1 VAL        -0.0584
     63 CG2         4.3010   40.6480   12.7530 C.3       1 VAL        -0.0584
     64 N           1.4180   39.4010   13.5200 N.am      1 ILE        -0.2635
     65 CA          0.1530   40.1320   13.2900 C.3       1 ILE         0.1335
     66 C           0.4540   41.4820   12.6340 C.2       1 ILE         0.2043
     67 O           1.1940   42.2410   13.2580 O.2       1 ILE        -0.3944
     68 CB         -0.5250   40.3770   14.6370 C.3       1 ILE        -0.0037
     69 CG1        -0.7020   39.0700   15.4040 C.3       1 ILE        -0.0491
     70 CG2        -1.8410   41.1140   14.4810 C.3       1 ILE        -0.0582
     71 CD1        -0.5490   39.3020   16.9020 C.3       1 ILE        -0.0648
     72 N          -0.0380   41.8860   11.4690 N.am      1 HIS        -0.2619
     73 CA         -0.0850   43.3060   11.2630 C.3       1 HIS         0.1421
     74 C          -1.4100   43.9720   11.3010 C.2       1 HIS         0.2054
     75 O          -1.5580   44.8870   12.1380 O.2       1 HIS        -0.3942
     76 CB          0.8340   43.8620   10.2040 C.3       1 HIS         0.0427
     77 CG          0.9860   45.3360   10.6490 C.2       1 HIS         0.0561
     78 ND1         0.9980   46.4640    9.8420 N.pl3     1 HIS        -0.2623
     79 CD2         1.1060   45.7760   11.9720 C.2       1 HIS        -0.0276
     80 CE1         1.1430   47.5820   10.6590 C.2       1 HIS         0.0875
     81 NE2         1.2070   47.1690   11.9870 N.2       1 HIS        -0.3437
     82 N          -2.4540   43.7840   10.5060 N.am      1 LYS        -0.2693
     83 CA         -3.6370   44.6160   10.7960 C.3       1 LYS         0.0944
     84 C          -4.7510   43.7990   11.4220 C.2       1 LYS         0.0601
     85 O          -5.5570   43.1850   10.7150 O.co2     1 LYS        -0.5666
     86 CB         -4.1230   45.3110    9.5400 C.3       1 LYS        -0.0177
     87 CG         -4.9280   46.5540    9.8860 C.3       1 LYS        -0.0446
     88 CD         -4.4710   47.8040    9.1560 C.3       1 LYS        -0.0125
     89 CE         -4.9110   47.8130    7.7040 C.3       1 LYS        -0.0354
     90 NZ         -6.0120   48.7590    7.4510 N.4       1 LYS         0.2185
     91 OXT        -4.8720   43.8260   12.7450 O.co2     1 LYS        -0.5666
     92 H1          1.2131   22.5856   23.4626 H         1 PRO         0.2035
     93 H2          0.7419   22.2700   25.0079 H         1 PRO         0.2035
     94 H3          2.9223   22.5829   25.4573 H         1 PRO         0.1099
     95 H4          2.5325   20.3486   26.1661 H         1 PRO         0.0347
     96 H5          3.7756   20.0240   24.9107 H         1 PRO         0.0347
     97 H6          1.2581   18.8846   24.9160 H         1 PRO         0.0320
     98 H7          2.2328   19.1491   23.4305 H         1 PRO         0.0320
     99 H8          0.6287   20.6192   22.7020 H         1 PRO         0.0814
    100 H9         -0.2554   20.4803   24.2595 H         1 PRO         0.0814
    101 H10         5.4970   22.7469   23.8004 H         1 HIS         0.1886
    102 H11         3.2910   24.6767   23.8635 H         1 HIS         0.0824
    103 H12         6.3119   24.8623   23.9483 H         1 HIS         0.0491
    104 H13         5.1073   25.2987   25.2074 H         1 HIS         0.0491
    105 H14         7.3712   27.3290   24.2409 H         1 HIS         0.2386
    106 H15         3.3678   27.1493   22.7898 H         1 HIS         0.0324
    107 H16         6.8189   29.7059   23.2491 H         1 HIS         0.1149
    108 H17         4.0048   24.6204   19.6493 H         1 PRO         0.0802
    109 H18         2.0322   23.8235   18.7742 H         1 PRO         0.0313
    110 H19         1.3395   25.4775   18.8805 H         1 PRO         0.0313
    111 H20         1.1635   23.2007   20.9157 H         1 PRO         0.0287
    112 H21        -0.1362   24.2831   20.3106 H         1 PRO         0.0287
    113 H22         1.0584   26.2959   21.3027 H         1 PRO         0.0524
    114 H23         0.9265   25.0703   22.6092 H         1 PRO         0.0524
    115 H24         4.2870   26.2333   18.0696 H         1 PHE         0.1885
    116 H25         4.2782   29.0238   19.2178 H         1 PHE         0.0823
    117 H26         6.0487   29.2595   17.2742 H         1 PHE         0.0474
    118 H27         5.9926   27.4658   17.1955 H         1 PHE         0.0474
    119 H28         7.3593   30.3523   18.9074 H         1 PHE         0.0557
    120 H29         6.5075   26.1594   19.3197 H         1 PHE         0.0557
    121 H30         8.9532   30.1899   20.7961 H         1 PHE         0.0599
    122 H31         8.1379   25.9868   21.2028 H         1 PHE         0.0599
    123 H32         9.3523   28.0295   21.9064 H         1 PHE         0.0559
    124 H33         3.7154   30.7503   17.8833 H         1 HIS         0.1885
    125 H34         2.8124   30.1328   15.0614 H         1 HIS         0.0824
    126 H35         1.0516   31.3538   17.2340 H         1 HIS         0.0491
    127 H36         0.7978   29.7932   16.3816 H         1 HIS         0.0491
    128 H37        -1.4406   31.7783   16.5502 H         1 HIS         0.2386
    129 H38         1.4795   31.7279   13.3972 H         1 HIS         0.0324
    130 H39        -2.5114   33.0228   14.4759 H         1 HIS         0.1149
    131 H40         4.3119   31.3829   14.1843 H         1 STA         0.1856
    132 H41         4.6054   34.2025   15.2943 H         1 STA         0.0583
    133 H42         7.0712   33.9152   14.8919 H         1 STA         0.0291
    134 H43         6.7731   32.2314   14.3415 H         1 STA         0.0291
    135 H44         6.0448   31.6078   16.5397 H         1 STA         0.0296
    136 H45         8.2173   31.8462   17.7118 H         1 STA         0.0232
    137 H46         8.6984   33.1108   16.5304 H         1 STA         0.0232
    138 H47         8.4168   31.4252   15.9770 H         1 STA         0.0232
    139 H48         5.1351   33.7485   17.3763 H         1 STA         0.0232
    140 H49         6.8051   34.4024   17.4768 H         1 STA         0.0232
    141 H50         6.3218   33.0117   18.5058 H         1 STA         0.0232
    142 H51         5.6634   34.7496   13.1096 H         1 STA         0.0642
    143 H52         6.3109   32.5629   12.5961 H         1 STA         0.2101
    144 H53         2.8303   33.6560   13.1220 H         1 STA         0.0529
    145 H54         3.5633   34.2937   11.6111 H         1 STA         0.0529
    146 H55         4.1220   36.6705   11.5488 H         1 VAL         0.1883
    147 H56         3.5972   38.1948   13.9548 H         1 VAL         0.0802
    148 H57         5.3411   38.8190   12.2996 H         1 VAL         0.0343
    149 H58         4.6671   40.0836   10.2487 H         1 VAL         0.0234
    150 H59         2.9520   39.6617   10.5761 H         1 VAL         0.0234
    151 H60         4.1402   38.3670   10.2037 H         1 VAL         0.0234
    152 H61         4.5240   40.6272   13.8300 H         1 VAL         0.0234
    153 H62         3.3081   41.0934   12.5928 H         1 VAL         0.0234
    154 H63         5.0610   41.2494   12.2328 H         1 VAL         0.0234
    155 H64         1.8893   39.5387   14.3912 H         1 ILE         0.1883
    156 H65        -0.5073   39.5401   12.6392 H         1 ILE         0.0803
    157 H66         0.1421   41.0203   15.2295 H         1 ILE         0.0345
    158 H67         0.0590   38.3492   15.0704 H         1 ILE         0.0267
    159 H68        -1.7045   38.6650   15.2016 H         1 ILE         0.0267
    160 H69        -1.6743   42.0483   13.9249 H         1 ILE         0.0235
    161 H70        -2.2508   41.3470   15.4748 H         1 ILE         0.0235
    162 H71        -2.5525   40.4814   13.9301 H         1 ILE         0.0235
    163 H72        -0.6799   38.3492   17.4358 H         1 ILE         0.0230
    164 H73        -1.3100   40.0200   17.2415 H         1 ILE         0.0230
    165 H74         0.4534   39.7042   17.1103 H         1 ILE         0.0230
    166 H75        -0.3570   41.2395   10.7760 H         1 HIS         0.1885
    167 H76         0.3797   43.6735   12.1898 H         1 HIS         0.0824
    168 H77         0.3804   43.7914    9.2044 H         1 HIS         0.0491
    169 H78         1.8038   43.3428   10.2041 H         1 HIS         0.0491
    170 H79         0.9141   46.4730    8.8155 H         1 HIS         0.2386
    171 H80         1.1186   45.1336   12.8512 H         1 HIS         0.0324
    172 H81         1.1976   48.6137   10.3146 H         1 HIS         0.1149
    173 H82        -2.4404   43.1207    9.7577 H         1 LYS         0.1875
    174 H83        -3.3376   45.3890   11.5191 H         1 LYS         0.0726
    175 H84        -4.7576   44.6185    8.9675 H         1 LYS         0.0305
    176 H85        -3.2549   45.6020    8.9303 H         1 LYS         0.0305
    177 H86        -4.8412   46.7332   10.9678 H         1 LYS         0.0269
    178 H87        -5.9811   46.3678    9.6285 H         1 LYS         0.0269
    179 H88        -3.3728   47.8547    9.1936 H         1 LYS         0.0317
    180 H89        -4.8962   48.6842    9.6604 H         1 LYS         0.0317
    181 H90        -5.2462   46.8014    7.4312 H         1 LYS         0.0813
    182 H91        -4.0524   48.0962    7.0775 H         1 LYS         0.0813
    183 H92        -6.2656   48.7264    6.4760 H         1 LYS         0.1994
    184 H93        -5.7149   49.6921    7.6899 H         1 LYS         0.1994
    185 H94        -6.8088   48.5056    8.0140 H         1 LYS         0.1994
@<TRIPOS>BOND
     1    1    2 1  
     2    1    7 1  
     3    2    3 1  
     4    2    5 1  
     5    3    4 2  
     6    3    8 am 
     7    5    6 1  
     8    6    7 1  
     9    8    9 1  
    10    9   10 1  
    11    9   12 1  
    12   10   11 2  
    13   10   18 am 
    14   12   13 1  
    15   13   14 1  
    16   13   15 2  
    17   14   16 1  
    18   15   17 1  
    19   16   17 2  
    20   18   19 1  
    21   18   24 1  
    22   19   20 1  
    23   19   22 1  
    24   20   21 2  
    25   20   25 am 
    26   22   23 1  
    27   23   24 1  
    28   25   26 1  
    29   26   27 1  
    30   26   29 1  
    31   27   28 2  
    32   27   36 am 
    33   29   30 1  
    34   30   31 ar 
    35   30   32 ar 
    36   31   33 ar 
    37   32   34 ar 
    38   33   35 ar 
    39   34   35 ar 
    40   36   37 1  
    41   37   38 1  
    42   37   40 1  
    43   38   39 2  
    44   38   46 am 
    45   40   41 1  
    46   41   42 1  
    47   41   43 2  
    48   42   44 1  
    49   43   45 1  
    50   44   45 2  
    51   46   47 1  
    52   47   48 1  
    53   47   52 1  
    54   48   49 1  
    55   49   50 1  
    56   49   51 1  
    57   52   53 1  
    58   52   54 1  
    59   54   55 1  
    60   55   56 2  
    61   55   57 am 
    62   57   58 1  
    63   58   59 1  
    64   58   61 1  
    65   59   60 2  
    66   59   64 am 
    67   61   62 1  
    68   61   63 1  
    69   64   65 1  
    70   65   66 1  
    71   65   68 1  
    72   66   67 2  
    73   66   72 am 
    74   68   69 1  
    75   68   70 1  
    76   69   71 1  
    77   72   73 1  
    78   73   74 1  
    79   73   76 1  
    80   74   75 2  
    81   74   82 am 
    82   76   77 1  
    83   77   78 1  
    84   77   79 2  
    85   78   80 1  
    86   79   81 1  
    87   80   81 2  
    88   82   83 1  
    89   83   84 1  
    90   83   86 1  
    91   84   85 ar 
    92   84   91 ar 
    93   86   87 1  
    94   87   88 1  
    95   88   89 1  
    96   89   90 1  
    97    1   92 1  
    98    1   93 1  
    99    2   94 1  
   100    5   95 1  
   101    5   96 1  
   102    6   97 1  
   103    6   98 1  
   104    7   99 1  
   105    7  100 1  
   106    8  101 1  
   107    9  102 1  
   108   12  103 1  
   109   12  104 1  
   110   14  105 1  
   111   15  106 1  
   112   16  107 1  
   113   19  108 1  
   114   22  109 1  
   115   22  110 1  
   116   23  111 1  
   117   23  112 1  
   118   24  113 1  
   119   24  114 1  
   120   25  115 1  
   121   26  116 1  
   122   29  117 1  
   123   29  118 1  
   124   31  119 1  
   125   32  120 1  
   126   33  121 1  
   127   34  122 1  
   128   35  123 1  
   129   36  124 1  
   130   37  125 1  
   131   40  126 1  
   132   40  127 1  
   133   42  128 1  
   134   43  129 1  
   135   44  130 1  
   136   46  131 1  
   137   47  132 1  
   138   48  133 1  
   139   48  134 1  
   140   49  135 1  
   141   50  136 1  
   142   50  137 1  
   143   50  138 1  
   144   51  139 1  
   145   51  140 1  
   146   51  141 1  
   147   52  142 1  
   148   53  143 1  
   149   54  144 1  
   150   54  145 1  
   151   57  146 1  
   152   58  147 1  
   153   61  148 1  
   154   62  149 1  
   155   62  150 1  
   156   62  151 1  
   157   63  152 1  
   158   63  153 1  
   159   63  154 1  
   160   64  155 1  
   161   65  156 1  
   162   68  157 1  
   163   69  158 1  
   164   69  159 1  
   165   70  160 1  
   166   70  161 1  
   167   70  162 1  
   168   71  163 1  
   169   71  164 1  
   170   71  165 1  
   171   72  166 1  
   172   73  167 1  
   173   76  168 1  
   174   76  169 1  
   175   78  170 1  
   176   79  171 1  
   177   80  172 1  
   178   82  173 1  
   179   83  174 1  
   180   86  175 1  
   181   86  176 1  
   182   87  177 1  
   183   87  178 1  
   184   88  179 1  
   185   88  180 1  
   186   89  181 1  
   187   89  182 1  
   188   90  183 1  
   189   90  184 1  
   190   90  185 1  
@<TRIPOS>SUBSTRUCTURE
     1 PRO         1

