3er5_ligand
  -I-interpret- 

183188  0  0  0  0  0  0  0  0999 V2000
    1.2870   21.9350   24.2290 N   0  3  0  0  0
    2.6940   21.8760   24.6460 C   0  0  0  0  0
    3.6250   22.1030   23.4660 C   0  0  0  0  0
    3.5140   21.4350   22.4370 O   0  0  0  0  0
    2.7670   20.4230   25.0940 C   0  0  0  0  0
    1.7460   19.6420   24.2850 C   0  0  0  0  0
    0.7270   20.6560   23.7970 C   0  0  0  0  0
    4.5620   23.0300   23.5870 N   0  0  0  0  0
    4.2740   24.4640   23.4180 C   0  0  0  0  0
    4.2280   24.8300   21.9430 C   0  0  0  0  0
    5.2150   24.9070   21.2380 O   0  0  0  0  0
    5.3240   25.3110   24.1290 C   0  0  0  0  0
    5.3630   26.7660   23.6620 C   0  0  0  0  0
    6.4730   27.5940   23.8120 N   0  0  0  0  0
    4.3640   27.5090   23.0430 C   0  0  0  0  0
    6.1580   28.8410   23.2820 C   0  0  0  0  0
    4.8530   28.7930   22.8010 N   0  0  0  0  0
    2.8860   24.9720   21.4800 N   0  0  0  0  0
    3.1330   25.1800   20.0190 C   0  0  0  0  0
    3.2890   26.6700   19.7450 C   0  0  0  0  0
    2.7590   27.5280   20.4470 O   0  0  0  0  0
    1.8320   24.6720   19.4450 C   0  0  0  0  0
    0.9290   24.2210   20.5780 C   0  0  0  0  0
    1.3270   25.2730   21.6050 C   0  0  0  0  0
    3.9990   26.9720   18.6790 N   0  0  0  0  0
    4.3900   28.3650   18.3440 C   0  0  0  0  0
    3.5220   28.8520   17.1720 C   0  0  0  0  0
    3.0720   28.0770   16.3140 O   0  0  0  0  0
    5.8530   28.3410   17.8470 C   0  0  0  0  0
    6.8500   28.2590   19.0050 C   0  0  0  0  0
    7.5270   29.4050   19.4070 C   0  0  0  0  0
    7.0560   27.0360   19.6450 C   0  0  0  0  0
    8.4200   29.3080   20.4600 C   0  0  0  0  0
    7.9650   26.9330   20.7030 C   0  0  0  0  0
    8.6390   28.0840   21.0920 C   0  0  0  0  0
    3.3700   30.1710   17.1450 N   0  0  0  0  0
    2.6520   30.7610   15.9500 C   0  0  0  0  0
    3.2010   32.1520   15.7000 C   0  0  0  0  0
    2.8480   33.0940   16.3880 O   0  0  0  0  0
    1.1640   30.8250   16.2760 C   0  0  0  0  0
    0.2940   31.5220   15.2590 C   0  0  0  0  0
   -0.9860   31.9270   15.6380 N   0  0  0  0  0
    0.5600   31.9020   13.9540 C   0  0  0  0  0
   -1.5210   32.5730   14.5290 C   0  0  0  0  0
   -0.5850   32.5520   13.4960 N   0  0  0  0  0
    4.1540   32.1750   14.7740 N   0  0  0  0  0
    4.9860   33.4110   14.6320 C   0  0  0  0  0
    6.4390   33.0250   15.0260 C   0  0  0  0  0
    6.6350   32.5300   16.4340 C   0  0  0  0  0
    8.0910   32.2060   16.6800 C   0  0  0  0  0
    6.1940   33.4890   17.5230 C   0  0  0  0  0
    4.9750   33.8960   13.1960 C   0  0  0  0  0
    5.4300   32.8140   12.3440 O   0  0  0  0  0
    3.5940   34.3320   12.7100 C   0  0  0  0  0
    3.3130   35.7710   13.1810 C   0  0  0  0  0
    2.7300   35.9200   14.2650 O   0  0  0  0  0
    3.6680   36.8210   12.4270 N   0  0  0  0  0
    3.4000   38.1660   12.8730 C   0  0  0  0  0
    1.9580   38.5830   12.6490 C   0  0  0  0  0
    1.3070   38.0890   11.7580 O   0  0  0  0  0
    4.3150   39.2010   12.1940 C   0  0  0  0  0
    3.9960   39.3380   10.7000 C   0  0  0  0  0
    4.3010   40.6480   12.7530 C   0  0  0  0  0
    1.4180   39.4010   13.5200 N   0  0  0  0  0
    0.1530   40.1320   13.2900 C   0  0  0  0  0
    0.4540   41.4820   12.6340 C   0  0  0  0  0
    1.1940   42.2410   13.2580 O   0  0  0  0  0
   -0.5250   40.3770   14.6370 C   0  0  0  0  0
   -0.7020   39.0700   15.4040 C   0  0  0  0  0
   -1.8410   41.1140   14.4810 C   0  0  0  0  0
   -0.5490   39.3020   16.9020 C   0  0  0  0  0
   -0.0380   41.8860   11.4690 N   0  0  0  0  0
   -0.0850   43.3060   11.2630 C   0  0  0  0  0
   -1.4100   43.9720   11.3010 C   0  0  0  0  0
   -1.5580   44.8870   12.1380 O   0  0  0  0  0
    0.8340   43.8620   10.2040 C   0  0  0  0  0
    0.9860   45.3360   10.6490 C   0  0  0  0  0
    0.9980   46.4640    9.8420 N   0  0  0  0  0
    1.1060   45.7760   11.9720 C   0  0  0  0  0
    1.1430   47.5820   10.6590 C   0  0  0  0  0
    1.2070   47.1690   11.9870 N   0  0  0  0  0
   -2.4540   43.7840   10.5060 N   0  0  0  0  0
   -3.6370   44.6160   10.7960 C   0  0  0  0  0
   -4.7510   43.7990   11.4220 C   0  0  0  0  0
   -5.5570   43.1850   10.7150 O   0  0  0  0  0
   -4.1230   45.3110    9.5400 C   0  0  0  0  0
   -4.9280   46.5540    9.8860 C   0  0  0  0  0
   -4.4710   47.8040    9.1560 C   0  0  0  0  0
   -4.9110   47.8130    7.7040 C   0  0  0  0  0
   -6.0120   48.7590    7.4510 N   0  3  0  0  0
   -4.8720   43.8260   12.7450 O   0  0  0  0  0
    1.2395   22.5663   23.4293 H   0  0  0  0  0
    0.7482   22.2372   25.0406 H   0  0  0  0  0
    2.9829   22.6187   25.3896 H   0  0  0  0  0
    2.5509   20.3420   26.1593 H   0  0  0  0  0
    3.7681   20.0241   24.9301 H   0  0  0  0  0
    1.2725   18.8694   24.8907 H   0  0  0  0  0
    2.2184   19.1261   23.4491 H   0  0  0  0  0
    0.5735   20.6093   22.7189 H   0  0  0  0  0
   -0.2688   20.4769   24.2026 H   0  0  0  0  0
    5.5157   22.7412   23.8047 H   0  0  0  0  0
    3.2995   24.6669   23.8621 H   0  0  0  0  0
    6.2977   24.8731   23.9095 H   0  0  0  0  0
    5.0730   25.3168   25.1897 H   0  0  0  0  0
    3.3669   27.1490   22.7895 H   0  0  0  0  0
    6.8195   29.7067   23.2491 H   0  0  0  0  0
    4.0233   24.6956   19.6179 H   0  0  0  0  0
    2.0294   23.8325   18.7783 H   0  0  0  0  0
    1.3441   25.4687   18.8835 H   0  0  0  0  0
    1.0584   23.1862   20.8950 H   0  0  0  0  0
   -0.1339   24.1790   20.3400 H   0  0  0  0  0
    0.9945   26.2970   21.4347 H   0  0  0  0  0
    0.8774   25.2079   22.5958 H   0  0  0  0  0
    4.2928   26.2185   18.0574 H   0  0  0  0  0
    4.2694   29.0105   19.2140 H   0  0  0  0  0
    6.0421   29.2640   17.2989 H   0  0  0  0  0
    5.9857   27.4595   17.2197 H   0  0  0  0  0
    7.3584   30.3575   18.9046 H   0  0  0  0  0
    6.5044   26.1546   19.3179 H   0  0  0  0  0
    8.9562   30.1948   20.7979 H   0  0  0  0  0
    8.1388   25.9815   21.2056 H   0  0  0  0  0
    9.3563   28.0292   21.9109 H   0  0  0  0  0
    3.7223   30.7619   17.8980 H   0  0  0  0  0
    2.8007   30.1541   15.0569 H   0  0  0  0  0
    1.0769   31.3991   17.1984 H   0  0  0  0  0
    0.8157   29.7931   16.3213 H   0  0  0  0  0
    1.4804   31.7277   13.3966 H   0  0  0  0  0
   -2.5123   33.0232   14.4759 H   0  0  0  0  0
    4.3151   31.3671   14.1726 H   0  0  0  0  0
    4.5935   34.2073   15.2644 H   0  0  0  0  0
    7.0310   33.9359   14.9379 H   0  0  0  0  0
    6.7241   32.2018   14.3709 H   0  0  0  0  0
    5.9958   31.6494   16.4984 H   0  0  0  0  0
    8.4126   31.4323   15.9828 H   0  0  0  0  0
    8.6917   33.1033   16.5314 H   0  0  0  0  0
    8.2148   31.8496   17.7026 H   0  0  0  0  0
    6.7588   34.4174   17.4384 H   0  0  0  0  0
    5.1300   33.6981   17.4122 H   0  0  0  0  0
    6.3774   33.0383   18.4984 H   0  0  0  0  0
    5.6267   34.7684   13.1493 H   0  0  0  0  0
    5.4286   33.1061   11.4295 H   0  0  0  0  0
    2.8374   33.6622   13.1188 H   0  0  0  0  0
    3.5641   34.2943   11.6211 H   0  0  0  0  0
    4.1311   36.6675   11.5312 H   0  0  0  0  0
    3.6026   38.1487   13.9439 H   0  0  0  0  0
    5.2974   38.7776   12.4030 H   0  0  0  0  0
    4.1392   38.3752   10.2094 H   0  0  0  0  0
    2.9613   39.6587   10.5786 H   0  0  0  0  0
    4.6615   40.0771   10.2540 H   0  0  0  0  0
    3.2939   41.0573   12.6730 H   0  0  0  0  0
    4.6072   40.6350   13.7990 H   0  0  0  0  0
    4.9920   41.2648   12.1784 H   0  0  0  0  0
    1.8987   39.5415   14.4086 H   0  0  0  0  0
   -0.4968   39.5465   12.6396 H   0  0  0  0  0
    0.1308   41.0217   15.2221 H   0  0  0  0  0
    0.0599   38.3626   15.0767 H   0  0  0  0  0
   -1.6998   38.6777   15.2076 H   0  0  0  0  0
   -1.6615   42.0793   14.0076 H   0  0  0  0  0
   -2.5153   40.5235   13.8608 H   0  0  0  0  0
   -2.2888   41.2671   15.4629 H   0  0  0  0  0
    0.4446   39.7006   17.1070 H   0  0  0  0  0
   -1.3036   40.0136   17.2371 H   0  0  0  0  0
   -0.6789   38.3572   17.4298 H   0  0  0  0  0
   -0.3634   41.2265   10.7621 H   0  0  0  0  0
    0.3612   43.6107   12.2097 H   0  0  0  0  0
    0.4409   43.7553    9.1929 H   0  0  0  0  0
    1.7841   43.3320   10.1363 H   0  0  0  0  0
    1.1187   45.1330   12.8521 H   0  0  0  0  0
    1.1976   48.6146   10.3143 H   0  0  0  0  0
   -2.4401   43.1075    9.7428 H   0  0  0  0  0
   -3.3384   45.3756   11.5185 H   0  0  0  0  0
   -4.7601   44.6241    8.9829 H   0  0  0  0  0
   -3.2585   45.6069    8.9457 H   0  0  0  0  0
   -4.8010   46.7365   10.9531 H   0  0  0  0  0
   -5.9602   46.3649    9.5911 H   0  0  0  0  0
   -3.3816   47.8318    9.1804 H   0  0  0  0  0
   -4.9161   48.6674    9.6506 H   0  0  0  0  0
   -5.2646   46.8126    7.4546 H   0  0  0  0  0
   -4.0590   48.1201    7.0974 H   0  0  0  0  0
   -6.2677   48.7252    6.4642 H   0  0  0  0  0
   -6.8176   48.5016    8.0212 H   0  0  0  0  0
   -5.7102   49.7028    7.6931 H   0  0  0  0  0
   -4.1590   44.3483   13.1198 H   0  0  0  0  0
  1  2  1  0  0  0
  1  7  1  0  0  0
  2  3  1  0  0  0
  2  5  1  0  0  0
  3  4  2  0  0  0
  3  8  1  0  0  0
  5  6  1  0  0  0
  6  7  1  0  0  0
  8  9  1  0  0  0
  9 10  1  0  0  0
  9 12  1  0  0  0
 10 11  2  0  0  0
 10 18  1  0  0  0
 12 13  1  0  0  0
 13 14  4  0  0  0
 13 15  4  0  0  0
 14 16  4  0  0  0
 15 17  4  0  0  0
 16 17  4  0  0  0
 18 19  1  0  0  0
 18 24  1  0  0  0
 19 20  1  0  0  0
 19 22  1  0  0  0
 20 21  2  0  0  0
 20 25  1  0  0  0
 22 23  1  0  0  0
 23 24  1  0  0  0
 25 26  1  0  0  0
 26 27  1  0  0  0
 26 29  1  0  0  0
 27 28  2  0  0  0
 27 36  1  0  0  0
 29 30  1  0  0  0
 30 31  4  0  0  0
 30 32  4  0  0  0
 31 33  4  0  0  0
 32 34  4  0  0  0
 33 35  4  0  0  0
 34 35  4  0  0  0
 36 37  1  0  0  0
 37 38  1  0  0  0
 37 40  1  0  0  0
 38 39  2  0  0  0
 38 46  1  0  0  0
 40 41  1  0  0  0
 41 42  4  0  0  0
 41 43  4  0  0  0
 42 44  4  0  0  0
 43 45  4  0  0  0
 44 45  4  0  0  0
 46 47  1  0  0  0
 47 48  1  0  0  0
 47 52  1  0  0  0
 48 49  1  0  0  0
 49 50  1  0  0  0
 49 51  1  0  0  0
 52 53  1  0  0  0
 52 54  1  0  0  0
 54 55  1  0  0  0
 55 56  2  0  0  0
 55 57  1  0  0  0
 57 58  1  0  0  0
 58 59  1  0  0  0
 58 61  1  0  0  0
 59 60  2  0  0  0
 59 64  1  0  0  0
 61 62  1  0  0  0
 61 63  1  0  0  0
 64 65  1  0  0  0
 65 66  1  0  0  0
 65 68  1  0  0  0
 66 67  2  0  0  0
 66 72  1  0  0  0
 68 69  1  0  0  0
 68 70  1  0  0  0
 69 71  1  0  0  0
 72 73  1  0  0  0
 73 74  1  0  0  0
 73 76  1  0  0  0
 74 75  2  0  0  0
 74 82  1  0  0  0
 76 77  1  0  0  0
 77 78  4  0  0  0
 77 79  4  0  0  0
 78 80  4  0  0  0
 79 81  4  0  0  0
 80 81  4  0  0  0
 82 83  1  0  0  0
 83 84  1  0  0  0
 83 86  1  0  0  0
 84 85  2  0  0  0
 84 91  1  0  0  0
 86 87  1  0  0  0
 87 88  1  0  0  0
 88 89  1  0  0  0
 89 90  1  0  0  0
  1 92  1  0  0  0
  1 93  1  0  0  0
  2 94  1  0  0  0
  5 95  1  0  0  0
  5 96  1  0  0  0
  6 97  1  0  0  0
  6 98  1  0  0  0
  7 99  1  0  0  0
  7100  1  0  0  0
  8101  1  0  0  0
  9102  1  0  0  0
 12103  1  0  0  0
 12104  1  0  0  0
 15105  1  0  0  0
 16106  1  0  0  0
 19107  1  0  0  0
 22108  1  0  0  0
 22109  1  0  0  0
 23110  1  0  0  0
 23111  1  0  0  0
 24112  1  0  0  0
 24113  1  0  0  0
 25114  1  0  0  0
 26115  1  0  0  0
 29116  1  0  0  0
 29117  1  0  0  0
 31118  1  0  0  0
 32119  1  0  0  0
 33120  1  0  0  0
 34121  1  0  0  0
 35122  1  0  0  0
 36123  1  0  0  0
 37124  1  0  0  0
 40125  1  0  0  0
 40126  1  0  0  0
 43127  1  0  0  0
 44128  1  0  0  0
 46129  1  0  0  0
 47130  1  0  0  0
 48131  1  0  0  0
 48132  1  0  0  0
 49133  1  0  0  0
 50134  1  0  0  0
 50135  1  0  0  0
 50136  1  0  0  0
 51137  1  0  0  0
 51138  1  0  0  0
 51139  1  0  0  0
 52140  1  0  0  0
 53141  1  0  0  0
 54142  1  0  0  0
 54143  1  0  0  0
 57144  1  0  0  0
 58145  1  0  0  0
 61146  1  0  0  0
 62147  1  0  0  0
 62148  1  0  0  0
 62149  1  0  0  0
 63150  1  0  0  0
 63151  1  0  0  0
 63152  1  0  0  0
 64153  1  0  0  0
 65154  1  0  0  0
 68155  1  0  0  0
 69156  1  0  0  0
 69157  1  0  0  0
 70158  1  0  0  0
 70159  1  0  0  0
 70160  1  0  0  0
 71161  1  0  0  0
 71162  1  0  0  0
 71163  1  0  0  0
 72164  1  0  0  0
 73165  1  0  0  0
 76166  1  0  0  0
 76167  1  0  0  0
 79168  1  0  0  0
 80169  1  0  0  0
 82170  1  0  0  0
 83171  1  0  0  0
 86172  1  0  0  0
 86173  1  0  0  0
 87174  1  0  0  0
 87175  1  0  0  0
 88176  1  0  0  0
 88177  1  0  0  0
 89178  1  0  0  0
 89179  1  0  0  0
 90180  1  0  0  0
 90181  1  0  0  0
 90182  1  0  0  0
 91183  1  0  0  0
M  END
$$$$
