4o0z_ligand
  -I-interpret- 

 46 49  0  0  0  0  0  0  0  0999 V2000
   14.7630   10.4680    8.8290 C   0  0  0  0  0
   13.8000   11.2620    8.1980 C   0  0  0  0  0
   14.0540   11.1900    6.8380 C   0  0  0  0  0
   13.4050   11.7770    5.7310 C   0  0  0  0  0
   13.8540   11.5450    4.4730 C   0  0  0  0  0
   15.0190   10.6770    4.3000 C   0  0  0  0  0
   15.6240   10.1260    5.3920 C   0  0  0  0  0
   15.1500   10.3730    6.6520 N   0  0  0  0  0
   15.5730    9.9410    7.8800 C   0  0  0  0  0
   15.5410   10.3940    2.9530 C   0  0  0  0  0
   14.9540   10.7770    1.9550 O   0  0  0  0  0
   16.6760    9.6800    2.8460 N   0  0  0  0  0
   17.2330    9.3870    1.5290 C   0  0  0  0  0
   16.4170    8.4230    0.7120 C   0  0  0  0  0
   16.0580    7.2040    1.2390 C   0  0  0  0  0
   15.3320    6.3140    0.4760 C   0  0  0  0  0
   14.9510    6.6380   -0.8110 C   0  0  0  0  0
   15.3280    7.8520   -1.3590 C   0  0  0  0  0
   16.0590    8.7430   -0.5880 C   0  0  0  0  0
   14.0560    5.4530   -1.7580 S   0  0  0  0  0
   13.6140    4.4300   -0.8730 O   0  0  0  0  0
   13.1970    6.1210   -2.6690 O   0  0  0  0  0
   15.4690    4.8160   -2.6040 C   0  0  0  0  0
   16.3720    4.0680   -1.8680 C   0  0  0  0  0
   17.5140    3.5510   -2.4550 C   0  0  0  0  0
   17.7610    3.7990   -3.7890 C   0  0  0  0  0
   16.8700    4.5590   -4.5290 C   0  0  0  0  0
   15.7230    5.0790   -3.9410 C   0  0  0  0  0
   17.1360    4.7910   -5.8310 F   0  0  0  0  0
   18.3790    2.8140   -1.7250 F   0  0  0  0  0
   14.8474   10.3015    9.9029 H   0  0  0  0  0
   13.0040   11.8277    8.6823 H   0  0  0  0  0
   12.5388   12.4198    5.8880 H   0  0  0  0  0
   13.3593   11.9940    3.6118 H   0  0  0  0  0
   16.4937    9.4825    5.2594 H   0  0  0  0  0
   16.4214    9.2819    8.0638 H   0  0  0  0  0
   17.1475    9.3432    3.6854 H   0  0  0  0  0
   18.2081    8.9268    1.6884 H   0  0  0  0  0
   17.2651   10.3270    0.9781 H   0  0  0  0  0
   16.3467    6.9424    2.2570 H   0  0  0  0  0
   15.0562    5.3454    0.8929 H   0  0  0  0  0
   15.0538    8.1043   -2.3833 H   0  0  0  0  0
   16.3549    9.7042   -1.0084 H   0  0  0  0  0
   16.1809    3.8835   -0.8109 H   0  0  0  0  0
   18.6574    3.3970   -4.2611 H   0  0  0  0  0
   15.0313    5.6866   -4.5245 H   0  0  0  0  0
  1  2  4  0  0  0
  1  9  4  0  0  0
  2  3  4  0  0  0
  3  4  4  0  0  0
  3  8  4  0  0  0
  4  5  4  0  0  0
  5  6  4  0  0  0
  6  7  4  0  0  0
  6 10  1  0  0  0
  7  8  4  0  0  0
  8  9  4  0  0  0
 10 11  2  0  0  0
 10 12  1  0  0  0
 12 13  1  0  0  0
 13 14  1  0  0  0
 14 15  4  0  0  0
 14 19  4  0  0  0
 15 16  4  0  0  0
 16 17  4  0  0  0
 17 18  4  0  0  0
 17 20  1  0  0  0
 18 19  4  0  0  0
 20 21  2  0  0  0
 20 22  2  0  0  0
 20 23  1  0  0  0
 23 24  4  0  0  0
 23 28  4  0  0  0
 24 25  4  0  0  0
 25 26  4  0  0  0
 25 30  1  0  0  0
 26 27  4  0  0  0
 27 28  4  0  0  0
 27 29  1  0  0  0
  1 31  1  0  0  0
  2 32  1  0  0  0
  4 33  1  0  0  0
  5 34  1  0  0  0
  7 35  1  0  0  0
  9 36  1  0  0  0
 12 37  1  0  0  0
 13 38  1  0  0  0
 13 39  1  0  0  0
 15 40  1  0  0  0
 16 41  1  0  0  0
 18 42  1  0  0  0
 19 43  1  0  0  0
 24 44  1  0  0  0
 26 45  1  0  0  0
 28 46  1  0  0  0
M  END
$$$$
