2cej_ligand
  -I-interpret- 

 87 90  0  0  0  0  0  0  0  0999 V2000
   14.7990   22.1140    7.9090 C   0  0  0  0  0
   14.2840   20.9720    8.6230 C   0  0  0  0  0
   15.1580   20.1610    9.4240 C   0  0  0  0  0
   16.5570   20.4900    9.5160 C   0  0  0  0  0
   17.0770   21.6270    8.8100 C   0  0  0  0  0
   16.2080   22.4410    8.0080 C   0  0  0  0  0
    9.8270   23.7910    2.8810 C   0  0  0  0  0
   10.3450   24.5120    1.7690 C   0  0  0  0  0
    9.4820   25.3570    1.0200 C   0  0  0  0  0
    8.1050   25.4730    1.3930 C   0  0  0  0  0
    7.5870   24.7400    2.5030 C   0  0  0  0  0
    8.4480   23.8980    3.2480 C   0  0  0  0  0
   10.7490   22.9350    3.6710 C   0  0  0  0  0
    5.5460   27.2890    4.6170 C   0  0  0  0  0
   12.6900   22.6490    4.6390 C   0  0  0  0  0
    8.2660   27.6630    5.1840 O   0  0  0  0  0
    8.2980   25.7790    6.4460 N   0  0  0  0  0
   13.8670   22.9520    7.0240 C   0  0  0  0  0
   14.9360   23.5260    4.9140 O   0  0  0  0  0
    6.3440   26.4270    5.4320 O   0  0  0  0  0
   14.4260   21.1560    5.2090 C   0  0  0  0  0
   13.5450   20.2820    5.1370 O   0  0  0  0  0
   15.7200   20.8040    5.1140 N   0  0  0  0  0
   16.1280   19.4050    4.9480 C   0  0  0  0  0
   16.1050   18.8570    3.5460 C   0  0  0  0  0
   17.1280   17.9010    3.4230 C   0  0  0  0  0
   15.2430   19.1780    2.4470 C   0  0  0  0  0
   15.4520   18.4970    1.2010 C   0  0  0  0  0
   16.5020   17.5210    1.0810 C   0  0  0  0  0
   17.5640   19.1040    5.4340 C   0  0  0  0  0
   18.4930   20.0600    4.9250 O   0  0  0  0  0
    7.6580   26.6680    5.6650 C   0  0  0  0  0
   17.3530   17.2110    2.1980 C   0  0  0  0  0
   17.8820   17.7640    4.7340 C   0  0  0  0  0
    9.7180   25.7970    6.8500 C   0  0  0  0  0
    9.8000   26.0620    8.3980 C   0  0  0  0  0
    9.1510   27.4140    8.8140 C   0  0  0  0  0
   13.9900   22.6400    5.4810 C   0  0  0  0  0
   11.2420   26.0950    8.9250 C   0  0  0  0  0
   10.3790   24.4880    6.3210 C   0  0  0  0  0
   11.7750   23.7090    4.4380 N   0  3  0  0  0
   10.0150   23.3910    6.7380 O   0  0  0  0  0
   11.3600   24.6310    5.3950 N   0  0  0  0  0
    6.9720   26.6170    0.4190 Br  0  0  0  0  0
    9.0240   24.9560    9.1370 C   0  0  0  0  0
   13.2251   20.7227    8.5545 H   0  0  0  0  0
   14.7632   19.2985    9.9610 H   0  0  0  0  0
   17.2220   19.8751   10.1224 H   0  0  0  0  0
   18.1363   21.8732    8.8833 H   0  0  0  0  0
   16.6069   23.3036    7.4743 H   0  0  0  0  0
   11.3954   24.4170    1.4938 H   0  0  0  0  0
    9.8668   25.9140    0.1657 H   0  0  0  0  0
    6.5353   24.8279    2.7754 H   0  0  0  0  0
    8.0621   23.3340    4.0971 H   0  0  0  0  0
   11.2811   22.2929    2.9691 H   0  0  0  0  0
   10.1462   22.3854    4.3939 H   0  0  0  0  0
    5.5365   28.2895    5.0494 H   0  0  0  0  0
    5.9673   27.3299    3.6125 H   0  0  0  0  0
    4.5279   26.9025    4.5699 H   0  0  0  0  0
   12.0738   21.9516    5.2064 H   0  0  0  0  0
   13.0964   22.5360    3.6339 H   0  0  0  0  0
    7.7379   25.0034    6.7997 H   0  0  0  0  0
   14.1425   23.9972    7.1646 H   0  0  0  0  0
   12.8445   22.7175    7.3198 H   0  0  0  0  0
   15.7386   23.5153    5.4407 H   0  0  0  0  0
   16.4365   21.5286    5.1585 H   0  0  0  0  0
   15.3600   18.9276    5.5566 H   0  0  0  0  0
   14.4507   19.9188    2.5544 H   0  0  0  0  0
   14.8147   18.7195    0.3451 H   0  0  0  0  0
   16.6546   17.0096    0.1306 H   0  0  0  0  0
   17.6338   19.1066    6.5218 H   0  0  0  0  0
   19.3741   19.8487    5.2423 H   0  0  0  0  0
   18.1470   16.4695    2.1095 H   0  0  0  0  0
   18.9499   17.5915    4.6001 H   0  0  0  0  0
   17.5797   16.8928    5.3151 H   0  0  0  0  0
   10.2953   26.6094    6.4085 H   0  0  0  0  0
    9.6632   28.2323    8.3080 H   0  0  0  0  0
    8.0983   27.4124    8.5313 H   0  0  0  0  0
    9.2385   27.5408    9.8931 H   0  0  0  0  0
   11.7221   25.1368    8.7264 H   0  0  0  0  0
   11.7930   26.8900    8.4225 H   0  0  0  0  0
   11.2308   26.2816    9.9989 H   0  0  0  0  0
   12.2265   24.5189    4.0130 H   0  0  0  0  0
   11.8541   25.5233    5.4006 H   0  0  0  0  0
    7.9825   24.9680    8.8158 H   0  0  0  0  0
    9.4659   23.9869    8.9052 H   0  0  0  0  0
    9.0763   25.1330   10.2113 H   0  0  0  0  0
  1  2  4  0  0  0
  1  6  4  0  0  0
 18  1  1  0  0  0
  2  3  4  0  0  0
  3  4  4  0  0  0
  5  4  4  0  0  0
  6  5  4  0  0  0
  7  8  4  0  0  0
  7 12  4  0  0  0
 13  7  1  0  0  0
  8  9  4  0  0  0
  9 10  4  0  0  0
 11 10  4  0  0  0
 10 44  1  0  0  0
 12 11  4  0  0  0
 41 13  1  0  0  0
 20 14  1  0  0  0
 15 38  1  0  0  0
 41 15  1  0  0  0
 32 16  2  0  0  0
 17 32  1  0  0  0
 35 17  1  0  0  0
 38 18  1  0  0  0
 38 19  1  0  0  0
 32 20  1  0  0  0
 21 22  2  0  0  0
 21 23  1  0  0  0
 38 21  1  0  0  0
 23 24  1  0  0  0
 24 25  1  0  0  0
 24 30  1  0  0  0
 25 26  4  0  0  0
 25 27  4  0  0  0
 26 33  4  0  0  0
 34 26  1  0  0  0
 27 28  4  0  0  0
 28 29  4  0  0  0
 33 29  4  0  0  0
 30 31  1  0  0  0
 30 34  1  0  0  0
 35 36  1  0  0  0
 40 35  1  0  0  0
 36 37  1  0  0  0
 36 39  1  0  0  0
 36 45  1  0  0  0
 40 42  2  0  0  0
 43 40  1  0  0  0
 41 43  1  0  0  0
  2 46  1  0  0  0
  3 47  1  0  0  0
  4 48  1  0  0  0
  5 49  1  0  0  0
  6 50  1  0  0  0
  8 51  1  0  0  0
  9 52  1  0  0  0
 11 53  1  0  0  0
 12 54  1  0  0  0
 13 55  1  0  0  0
 13 56  1  0  0  0
 14 57  1  0  0  0
 14 58  1  0  0  0
 14 59  1  0  0  0
 15 60  1  0  0  0
 15 61  1  0  0  0
 17 62  1  0  0  0
 18 63  1  0  0  0
 18 64  1  0  0  0
 19 65  1  0  0  0
 23 66  1  0  0  0
 24 67  1  0  0  0
 27 68  1  0  0  0
 28 69  1  0  0  0
 29 70  1  0  0  0
 30 71  1  0  0  0
 31 72  1  0  0  0
 33 73  1  0  0  0
 34 74  1  0  0  0
 34 75  1  0  0  0
 35 76  1  0  0  0
 37 77  1  0  0  0
 37 78  1  0  0  0
 37 79  1  0  0  0
 39 80  1  0  0  0
 39 81  1  0  0  0
 39 82  1  0  0  0
 41 83  1  0  0  0
 43 84  1  0  0  0
 45 85  1  0  0  0
 45 86  1  0  0  0
 45 87  1  0  0  0
M  END
$$$$
