### 
### Created by X-TOOL on Wed Jan  1 15:39:37 2020
### 

@<TRIPOS>MOLECULE
6c28_ligand
   97   100     1     0     0
SMALL
GAST_HUCK


@<TRIPOS>ATOM
      1 C4        119.2080    1.9680  177.8920 C.ar      1 WCA         0.1613
      2 C5        118.7800    3.2740  177.6930 C.ar      1 WCA         0.1045
      3 C6        118.0380    3.8960  178.7270 C.ar      1 WCA         0.1298
      4 C8        119.8930    2.6300  175.8950 C.2       1 WCA         0.1123
      5 N1        117.7610    3.2180  179.8720 N.ar      1 WCA        -0.2698
      6 N3        118.9080    1.3140  179.0680 N.ar      1 WCA        -0.2714
      7 CAV       134.8850    6.6970  170.8660 C.ar      1 WCA        -0.0564
      8 CAT       135.3250    7.5990  169.9340 C.ar      1 WCA        -0.0269
      9 CBS       136.0800    7.1850  168.8840 C.ar      1 WCA         0.0942
     10 OAJ       136.5090    8.1070  167.9500 O.3       1 WCA        -0.3288
     11 CAU       136.3810    5.8380  168.7230 C.ar      1 WCA        -0.0269
     12 CAW       135.9480    4.9150  169.6430 C.ar      1 WCA        -0.0564
     13 CBT       135.2060    5.3680  170.7410 C.ar      1 WCA        -0.0233
     14 CAR       134.6710    4.4880  171.7950 C.2       1 WCA        -0.0460
     15 CAQ       134.7730    3.1650  171.7450 C.2       1 WCA        -0.0018
     16 CBP       134.1410    2.3150  172.7920 C.2       1 WCA         0.1735
     17 OAD       133.2580    2.7130  173.4830 O.2       1 WCA        -0.3766
     18 SBO       134.6440    0.5940  172.8510 S.3       1 WCA        -0.0531
     19 CBA       133.5820   -0.2020  174.0550 C.3       1 WCA         0.0322
     20 CAY       134.1650    0.2350  175.3690 C.3       1 WCA         0.0421
     21 NBH       133.5280   -0.5460  176.3790 N.am      1 WCA        -0.2860
     22 CBQ       132.2920   -0.1760  176.9850 C.2       1 WCA         0.1779
     23 OAE       131.7520    0.8370  176.6620 O.2       1 WCA        -0.3970
     24 CBB       131.6880   -1.0700  178.0440 C.3       1 WCA         0.0574
     25 CAZ       130.2080   -0.8530  178.5500 C.3       1 WCA         0.0477
     26 NBI       129.3010   -0.5780  177.4440 N.am      1 WCA        -0.2826
     27 CBR       128.3610   -1.5260  177.0430 C.2       1 WCA         0.2057
     28 OAF       128.2950   -2.6120  177.5970 O.2       1 WCA        -0.3942
     29 CBX       127.4820   -1.1650  175.8720 C.3       1 WCA         0.1510
     30 OAK       126.1950   -1.5650  176.1820 O.3       1 WCA        -0.3708
     31 CCD       127.9640   -1.8060  174.5360 C.3       1 WCA         0.0367
     32 CAA       129.4040   -1.4050  174.3050 C.3       1 WCA        -0.0528
     33 CAB       127.8290   -3.3820  174.4620 C.3       1 WCA        -0.0528
     34 CBD       127.0720   -1.3170  173.3440 C.3       1 WCA         0.0936
     35 OBK       127.1450    0.1060  173.3440 O.3       1 WCA        -0.2496
     36 PCG       126.4220    0.8530  172.1470 P.3       1 WCA         0.2971
     37 OAP       126.9540    0.2800  170.8470 O.co2     1 WCA        -0.6127
     38 OAI       126.7390    2.3470  172.3170 O.co2     1 WCA        -0.6127
     39 OBN       124.8930    0.4080  172.0630 O.3       1 WCA        -0.1319
     40 PCF       123.6260    1.0510  172.8090 P.3       1 WCA         0.2972
     41 OAO       124.0550    2.3700  173.4490 O.co2     1 WCA        -0.6127
     42 OAH       122.5560    1.2160  171.7600 O.co2     1 WCA        -0.6127
     43 O5'       123.0140   -0.0570  173.8010 O.3       1 WCA        -0.2476
     44 C5'       123.6420   -0.6320  174.9690 C.3       1 WCA         0.1131
     45 C4'       122.5160   -1.0230  176.0180 C.3       1 WCA         0.1235
     46 O4'       122.1070    0.2220  176.7990 O.3       1 WCA        -0.3360
     47 C3'       121.3870   -1.5080  175.4690 C.3       1 WCA         0.1487
     48 O3'       120.8380   -2.6140  176.1970 O.3       1 WCA        -0.2674
     49 PCE       119.9580   -3.7420  175.5010 P.3       1 WCA         0.2013
     50 OAM       118.8730   -3.0980  174.6790 O.co2     1 WCA        -0.5537
     51 OAN       119.2510   -4.5650  176.5780 O.co2     1 WCA        -0.5537
     52 OAG       120.8520   -4.6490  174.6680 O.co2     1 WCA        -0.5537
     53 C2'       120.3070   -0.2180  175.4850 C.3       1 WCA         0.1432
     54 O2'       118.8810   -0.5970  175.3020 O.3       1 WCA        -0.3832
     55 C1'       120.4890    0.2720  176.6180 C.3       1 WCA         0.2013
     56 N9        119.9030    1.5860  176.7700 N.pl3     1 WCA        -0.1919
     57 N7        119.2160    3.6560  176.4480 N.2       1 WCA        -0.2958
     58 C2        118.1940    1.9410  180.0390 C.ar      1 WCA         0.0533
     59 N6        117.5750    5.2590  178.5480 N.pl3     1 WCA        -0.3152
     60 H1        120.3564    2.6349  174.9095 H         1 WCA         0.1349
     61 H2        134.2830    7.0326  171.7027 H         1 WCA         0.0634
     62 H3        135.0695    8.6476  170.0350 H         1 WCA         0.0561
     63 H4        137.0220    7.6655  167.2833 H         1 WCA         0.2509
     64 H5        136.9609    5.5140  167.8664 H         1 WCA         0.0561
     65 H6        136.1749    3.8619  169.5223 H         1 WCA         0.0634
     66 H7        134.1715    4.9413  172.6500 H         1 WCA         0.0739
     67 H8        135.3241    2.6970  170.9306 H         1 WCA         0.0601
     68 H9        133.6193   -1.2965  173.9514 H         1 WCA         0.0422
     69 H10       132.5420    0.1409  173.9514 H         1 WCA         0.0422
     70 H11       133.9669    1.3042  175.5350 H         1 WCA         0.0529
     71 H12       135.2505    0.0571  175.3803 H         1 WCA         0.0529
     72 H13       133.9695   -1.3928  176.6757 H         1 WCA         0.1851
     73 H14       132.3356   -0.9864  178.9292 H         1 WCA         0.0522
     74 H15       131.7357   -2.0960  177.6503 H         1 WCA         0.0522
     75 H16       130.1896   -0.0024  179.2473 H         1 WCA         0.0545
     76 H17       129.8714   -1.7615  179.0709 H         1 WCA         0.0545
     77 H18       129.3532    0.2997  176.9676 H         1 WCA         0.1853
     78 H19       127.4957   -0.0723  175.7464 H         1 WCA         0.0844
     79 H20       126.1833   -2.5032  176.3305 H         1 WCA         0.2133
     80 H21       129.7619   -1.8492  173.3645 H         1 WCA         0.0238
     81 H22       130.0234   -1.7652  175.1396 H         1 WCA         0.0238
     82 H23       129.4740   -0.3090  174.2428 H         1 WCA         0.0238
     83 H24       126.7804   -3.6685  174.6306 H         1 WCA         0.0238
     84 H25       128.4632   -3.8410  175.2347 H         1 WCA         0.0238
     85 H26       128.1495   -3.7313  173.4694 H         1 WCA         0.0238
     86 H27       126.0318   -1.6445  173.4879 H         1 WCA         0.0628
     87 H28       127.4543   -1.7175  172.3935 H         1 WCA         0.0628
     88 H29       124.3271    0.1017  175.4189 H         1 WCA         0.0648
     89 H30       124.2059   -1.5312  174.6802 H         1 WCA         0.0648
     90 H31       122.9300   -1.7769  176.7037 H         1 WCA         0.0654
     91 H32       121.5850   -1.8285  174.4355 H         1 WCA         0.0704
     92 H33       120.5759    0.5044  174.7003 H         1 WCA         0.0680
     93 H34       118.7754   -1.0331  174.4647 H         1 WCA         0.2101
     94 H35       120.0247   -0.3784  177.3739 H         1 WCA         0.0996
     95 H36       117.9667    1.4154  180.9594 H         1 WCA         0.0996
     96 H37       117.0346    5.7214  179.2931 H         1 WCA         0.1820
     97 H38       117.7866    5.7644  177.6758 H         1 WCA         0.1820
@<TRIPOS>BOND
     1    1    2 ar 
     2    1    6 ar 
     3   56    1 1  
     4    2    3 ar 
     5   57    2 1  
     6    3    5 ar 
     7    3   59 1  
     8   56    4 1  
     9    4   57 2  
    10   58    5 ar 
    11    6   58 ar 
    12    7    8 ar 
    13   13    7 ar 
    14    8    9 ar 
    15    9   10 1  
    16   11    9 ar 
    17   12   11 ar 
    18   13   12 ar 
    19   14   13 1  
    20   15   14 2  
    21   16   15 1  
    22   16   17 2  
    23   18   16 1  
    24   19   18 1  
    25   20   19 1  
    26   21   20 1  
    27   22   21 am 
    28   22   23 2  
    29   24   22 1  
    30   25   24 1  
    31   26   25 1  
    32   27   26 am 
    33   27   28 2  
    34   29   27 1  
    35   29   30 1  
    36   31   29 1  
    37   31   32 1  
    38   31   33 1  
    39   34   31 1  
    40   35   34 1  
    41   36   35 1  
    42   36   37 ar 
    43   36   38 ar 
    44   39   36 1  
    45   40   39 1  
    46   40   41 ar 
    47   40   42 ar 
    48   43   40 1  
    49   44   43 1  
    50   45   44 1  
    51   46   45 1  
    52   47   45 1  
    53   55   46 1  
    54   47   48 1  
    55   53   47 1  
    56   48   49 1  
    57   49   50 ar 
    58   49   51 ar 
    59   49   52 ar 
    60   53   54 1  
    61   55   53 1  
    62   55   56 1  
    63    4   60 1  
    64    7   61 1  
    65    8   62 1  
    66   10   63 1  
    67   11   64 1  
    68   12   65 1  
    69   14   66 1  
    70   15   67 1  
    71   19   68 1  
    72   19   69 1  
    73   20   70 1  
    74   20   71 1  
    75   21   72 1  
    76   24   73 1  
    77   24   74 1  
    78   25   75 1  
    79   25   76 1  
    80   26   77 1  
    81   29   78 1  
    82   30   79 1  
    83   32   80 1  
    84   32   81 1  
    85   32   82 1  
    86   33   83 1  
    87   33   84 1  
    88   33   85 1  
    89   34   86 1  
    90   34   87 1  
    91   44   88 1  
    92   44   89 1  
    93   45   90 1  
    94   47   91 1  
    95   53   92 1  
    96   54   93 1  
    97   55   94 1  
    98   58   95 1  
    99   59   96 1  
   100   59   97 1  
@<TRIPOS>SUBSTRUCTURE
     1 WCA         1

