6c28_ligand
  -I-interpret- 

101104  0  0  0  0  0  0  0  0999 V2000
  119.2080    1.9680  177.8920 C   0  0  0  0  0
  118.7800    3.2740  177.6930 C   0  0  0  0  0
  118.0380    3.8960  178.7270 C   0  0  0  0  0
  119.8930    2.6300  175.8950 C   0  0  0  0  0
  117.7610    3.2180  179.8720 N   0  0  0  0  0
  118.9080    1.3140  179.0680 N   0  0  0  0  0
  134.8850    6.6970  170.8660 C   0  0  0  0  0
  135.3250    7.5990  169.9340 C   0  0  0  0  0
  136.0800    7.1850  168.8840 C   0  0  0  0  0
  136.5090    8.1070  167.9500 O   0  0  0  0  0
  136.3810    5.8380  168.7230 C   0  0  0  0  0
  135.9480    4.9150  169.6430 C   0  0  0  0  0
  135.2060    5.3680  170.7410 C   0  0  0  0  0
  134.6710    4.4880  171.7950 C   0  0  0  0  0
  134.7730    3.1650  171.7450 C   0  0  0  0  0
  134.1410    2.3150  172.7920 C   0  0  0  0  0
  133.2580    2.7130  173.4830 O   0  0  0  0  0
  134.6440    0.5940  172.8510 S   0  0  0  0  0
  133.5820   -0.2020  174.0550 C   0  0  0  0  0
  134.1650    0.2350  175.3690 C   0  0  0  0  0
  133.5280   -0.5460  176.3790 N   0  0  0  0  0
  132.2920   -0.1760  176.9850 C   0  0  0  0  0
  131.7520    0.8370  176.6620 O   0  0  0  0  0
  131.6880   -1.0700  178.0440 C   0  0  0  0  0
  130.2080   -0.8530  178.5500 C   0  0  0  0  0
  129.3010   -0.5780  177.4440 N   0  0  0  0  0
  128.3610   -1.5260  177.0430 C   0  0  0  0  0
  128.2950   -2.6120  177.5970 O   0  0  0  0  0
  127.4820   -1.1650  175.8720 C   0  0  0  0  0
  126.1950   -1.5650  176.1820 O   0  0  0  0  0
  127.9640   -1.8060  174.5360 C   0  0  0  0  0
  129.4040   -1.4050  174.3050 C   0  0  0  0  0
  127.8290   -3.3820  174.4620 C   0  0  0  0  0
  127.0720   -1.3170  173.3440 C   0  0  0  0  0
  127.1450    0.1060  173.3440 O   0  0  0  0  0
  126.4220    0.8530  172.1470 P   0  0  0  0  0
  126.9540    0.2800  170.8470 O   0  0  0  0  0
  126.7390    2.3470  172.3170 O   0  0  0  0  0
  124.8930    0.4080  172.0630 O   0  0  0  0  0
  123.6260    1.0510  172.8090 P   0  0  0  0  0
  124.0550    2.3700  173.4490 O   0  0  0  0  0
  122.5560    1.2160  171.7600 O   0  0  0  0  0
  123.0140   -0.0570  173.8010 O   0  0  0  0  0
  123.6420   -0.6320  174.9690 C   0  0  0  0  0
  122.5160   -1.0230  176.0180 C   0  0  0  0  0
  122.1070    0.2220  176.7990 O   0  0  0  0  0
  121.3870   -1.5080  175.4690 C   0  0  0  0  0
  120.8380   -2.6140  176.1970 O   0  0  0  0  0
  119.9580   -3.7420  175.5010 P   0  0  0  0  0
  118.8730   -3.0980  174.6790 O   0  0  0  0  0
  119.2510   -4.5650  176.5780 O   0  0  0  0  0
  120.8520   -4.6490  174.6680 O   0  0  0  0  0
  120.3070   -0.2180  175.4850 C   0  0  0  0  0
  118.8810   -0.5970  175.3020 O   0  0  0  0  0
  120.4890    0.2720  176.6180 C   0  0  0  0  0
  119.9030    1.5860  176.7700 N   0  0  0  0  0
  119.2160    3.6560  176.4480 N   0  0  0  0  0
  118.1940    1.9410  180.0390 C   0  0  0  0  0
  117.5750    5.2590  178.5480 N   0  0  0  0  0
  120.3568    2.6349  174.9086 H   0  0  0  0  0
  134.2797    7.0344  171.7073 H   0  0  0  0  0
  135.0681    8.6534  170.0355 H   0  0  0  0  0
  137.0274    7.6609  167.2763 H   0  0  0  0  0
  136.9641    5.5122  167.8616 H   0  0  0  0  0
  136.1762    3.8561  169.5217 H   0  0  0  0  0
  134.1710    4.9417  172.6508 H   0  0  0  0  0
  135.3246    2.6966  170.9299 H   0  0  0  0  0
  133.5599   -1.2862  173.9446 H   0  0  0  0  0
  132.5352    0.0809  173.9445 H   0  0  0  0  0
  133.9951    1.2988  175.5352 H   0  0  0  0  0
  135.2445    0.0849  175.3845 H   0  0  0  0  0
  133.9783   -1.4097  176.6816 H   0  0  0  0  0
  132.2982   -0.8807  178.9271 H   0  0  0  0  0
  131.6639   -2.0537  177.5751 H   0  0  0  0  0
  130.1962    0.0012  179.2270 H   0  0  0  0  0
  129.8770   -1.7632  179.0500 H   0  0  0  0  0
  129.3542    0.3172  176.9580 H   0  0  0  0  0
  127.5260   -0.0883  175.7079 H   0  0  0  0  0
  125.6093   -1.3480  175.4530 H   0  0  0  0  0
  129.4720   -0.3189  174.2436 H   0  0  0  0  0
  130.0166   -1.7624  175.1327 H   0  0  0  0  0
  129.7575   -1.8457  173.3729 H   0  0  0  0  0
  128.4218   -3.8339  175.2573 H   0  0  0  0  0
  126.7825   -3.6618  174.5833 H   0  0  0  0  0
  128.1900   -3.7313  173.4947 H   0  0  0  0  0
  126.0426   -1.6558  173.4612 H   0  0  0  0  0
  127.4251   -1.7267  172.3976 H   0  0  0  0  0
  126.3809    2.6559  173.1525 H   0  0  0  0  0
  124.7348    2.1998  174.1051 H   0  0  0  0  0
  124.3251    0.0915  175.4140 H   0  0  0  0  0
  124.2055   -1.5207  174.6847 H   0  0  0  0  0
  122.9584   -1.8036  176.6370 H   0  0  0  0  0
  121.5880   -1.8922  174.4690 H   0  0  0  0  0
  119.9063   -4.9972  177.1306 H   0  0  0  0  0
  121.5263   -5.0363  175.2309 H   0  0  0  0  0
  120.4914    0.4587  174.6506 H   0  0  0  0  0
  118.3358    0.1929  175.3237 H   0  0  0  0  0
  119.9833   -0.2822  177.4088 H   0  0  0  0  0
  117.9654    1.4125  180.9645 H   0  0  0  0  0
  117.7846    5.7595  177.6843 H   0  0  0  0  0
  117.0399    5.7169  179.2858 H   0  0  0  0  0
  1  2  4  0  0  0
  1  6  4  0  0  0
 56  1  4  0  0  0
  2  3  4  0  0  0
 57  2  4  0  0  0
  3  5  4  0  0  0
  3 59  1  0  0  0
 56  4  4  0  0  0
  4 57  4  0  0  0
 58  5  4  0  0  0
  6 58  4  0  0  0
  7  8  4  0  0  0
 13  7  4  0  0  0
  8  9  4  0  0  0
  9 10  1  0  0  0
 11  9  4  0  0  0
 12 11  4  0  0  0
 13 12  4  0  0  0
 14 13  1  0  0  0
 15 14  2  0  0  0
 16 15  1  0  0  0
 16 17  2  0  0  0
 18 16  1  0  0  0
 19 18  1  0  0  0
 20 19  1  0  0  0
 21 20  1  0  0  0
 22 21  1  0  0  0
 22 23  2  0  0  0
 24 22  1  0  0  0
 25 24  1  0  0  0
 26 25  1  0  0  0
 27 26  1  0  0  0
 27 28  2  0  0  0
 29 27  1  0  0  0
 29 30  1  0  0  0
 31 29  1  0  0  0
 31 32  1  0  0  0
 31 33  1  0  0  0
 34 31  1  0  0  0
 35 34  1  0  0  0
 36 35  1  0  0  0
 36 37  2  0  0  0
 36 38  1  0  0  0
 39 36  1  0  0  0
 40 39  1  0  0  0
 40 41  1  0  0  0
 40 42  2  0  0  0
 43 40  1  0  0  0
 44 43  1  0  0  0
 45 44  1  0  0  0
 46 45  1  0  0  0
 47 45  1  0  0  0
 55 46  1  0  0  0
 47 48  1  0  0  0
 53 47  1  0  0  0
 48 49  1  0  0  0
 49 50  2  0  0  0
 49 51  1  0  0  0
 49 52  1  0  0  0
 53 54  1  0  0  0
 55 53  1  0  0  0
 55 56  1  0  0  0
  4 60  1  0  0  0
  7 61  1  0  0  0
  8 62  1  0  0  0
 10 63  1  0  0  0
 11 64  1  0  0  0
 12 65  1  0  0  0
 14 66  1  0  0  0
 15 67  1  0  0  0
 19 68  1  0  0  0
 19 69  1  0  0  0
 20 70  1  0  0  0
 20 71  1  0  0  0
 21 72  1  0  0  0
 24 73  1  0  0  0
 24 74  1  0  0  0
 25 75  1  0  0  0
 25 76  1  0  0  0
 26 77  1  0  0  0
 29 78  1  0  0  0
 30 79  1  0  0  0
 32 80  1  0  0  0
 32 81  1  0  0  0
 32 82  1  0  0  0
 33 83  1  0  0  0
 33 84  1  0  0  0
 33 85  1  0  0  0
 34 86  1  0  0  0
 34 87  1  0  0  0
 38 88  1  0  0  0
 41 89  1  0  0  0
 44 90  1  0  0  0
 44 91  1  0  0  0
 45 92  1  0  0  0
 47 93  1  0  0  0
 51 94  1  0  0  0
 52 95  1  0  0  0
 53 96  1  0  0  0
 54 97  1  0  0  0
 55 98  1  0  0  0
 58 99  1  0  0  0
 59100  1  0  0  0
 59101  1  0  0  0
M  END
$$$$
