6g35_ligand
  -I-interpret- 

 33 35  0  0  0  0  0  0  0  0999 V2000
   65.1990   31.3260    9.8450 O   0  0  0  0  0
   64.1740   29.6470   13.1100 C   0  0  0  0  0
   65.8960   28.6620   11.5520 C   0  0  0  0  0
   66.8070   27.6590   11.5900 C   0  0  0  0  0
   68.4350   25.3180   13.0040 N   0  0  0  0  0
   66.7560   27.0510   12.8710 C   0  0  0  0  0
   67.4230   26.0020   13.5420 C   0  0  0  0  0
   67.0380   25.7160   14.8010 N   0  0  0  0  0
   66.0630   26.4440   15.3500 C   0  0  0  0  0
   65.7560   27.7390   13.5710 C   0  0  0  0  0
   65.3820   27.4650   14.8260 N   0  0  0  0  0
   67.9170   27.0770   10.1950 Br  0  0  0  0  0
   65.2390   28.7170   12.7560 N   0  0  0  0  0
   64.6650   30.8650   13.8920 C   0  0  0  0  0
   63.6430   31.2750   14.7960 O   0  0  0  0  0
   64.9200   31.8630   12.7600 C   0  0  0  0  0
   64.8790   33.2210   13.2030 O   0  0  0  0  0
   63.5950   30.1290   11.9110 O   0  0  0  0  0
   63.7800   31.5560   11.8050 C   0  0  0  0  0
   64.0170   31.9210   10.3580 C   0  0  0  0  0
   65.3123   31.5821    8.9268 H   0  0  0  0  0
   63.4720   29.1020   13.7410 H   0  0  0  0  0
   65.7143   29.3194   10.7018 H   0  0  0  0  0
   68.7612   25.5444   12.0645 H   0  0  0  0  0
   68.8822   24.5689   13.5324 H   0  0  0  0  0
   65.7847   26.1661   16.3666 H   0  0  0  0  0
   65.5470   30.7204   14.5159 H   0  0  0  0  0
   63.5340   30.6081   15.4778 H   0  0  0  0  0
   65.9117   31.7623   12.3190 H   0  0  0  0  0
   65.0442   33.8043   12.4587 H   0  0  0  0  0
   62.9174   32.1595   12.0875 H   0  0  0  0  0
   63.1719   31.5586    9.7727 H   0  0  0  0  0
   64.1253   33.0037   10.2934 H   0  0  0  0  0
 20  1  1  0  0  0
  2 13  1  0  0  0
  2 14  1  0  0  0
 18  2  1  0  0  0
  3  4  4  0  0  0
 13  3  4  0  0  0
  6  4  4  0  0  0
  4 12  1  0  0  0
  7  5  1  0  0  0
  6  7  4  0  0  0
 10  6  4  0  0  0
  7  8  4  0  0  0
  9  8  4  0  0  0
 11  9  4  0  0  0
 10 11  4  0  0  0
 13 10  4  0  0  0
 14 15  1  0  0  0
 16 14  1  0  0  0
 16 17  1  0  0  0
 19 16  1  0  0  0
 19 18  1  0  0  0
 19 20  1  0  0  0
  1 21  1  0  0  0
  2 22  1  0  0  0
  3 23  1  0  0  0
  5 24  1  0  0  0
  5 25  1  0  0  0
  9 26  1  0  0  0
 14 27  1  0  0  0
 15 28  1  0  0  0
 16 29  1  0  0  0
 17 30  1  0  0  0
 19 31  1  0  0  0
 20 32  1  0  0  0
 20 33  1  0  0  0
M  END
$$$$
