5myo_ligand
  -I-interpret- 

159162  0  0  0  0  0  0  0  0999 V2000
   -2.8800  -15.9570    1.8160 N   0  0  0  0  0
   -4.0900  -16.6460    1.3790 C   0  0  0  0  0
   -4.1320  -16.7400   -0.1480 C   0  0  0  0  0
   -2.7550  -16.3340   -0.6570 C   0  0  0  0  0
   -2.0990  -15.7950    0.5850 C   0  0  0  0  0
   -0.9920  -15.2550    0.5390 O   0  0  0  0  0
   -4.1460  -18.0340    2.0060 C   0  0  0  0  0
   -5.0620  -18.8230    1.7400 O   0  0  0  0  0
   -3.1570  -18.3350    2.8480 N   0  0  0  0  0
   -3.0080  -19.6880    3.3740 C   0  0  0  0  0
   -3.0610  -19.7390    4.9000 C   0  0  0  0  0
   -3.8180  -20.5360    5.4670 O   0  0  0  0  0
   -1.6940  -20.3070    2.8760 C   0  0  0  0  0
   -1.4750  -20.1280    1.3940 C   0  0  0  0  0
   -2.2540  -20.8200    0.4830 C   0  0  0  0  0
   -0.5200  -19.2390    0.9160 C   0  0  0  0  0
   -2.0800  -20.6420   -0.8820 C   0  0  0  0  0
   -0.3370  -19.0630   -0.4480 C   0  0  0  0  0
   -1.1140  -19.7690   -1.3450 C   0  0  0  0  0
   -2.2540  -18.9030    5.5590 N   0  0  0  0  0
   -2.2370  -18.8380    7.0240 C   0  0  0  0  0
   -1.6740  -17.4870    7.4360 C   0  0  0  0  0
   -0.5480  -17.1510    7.0600 O   0  0  0  0  0
   -1.4040  -19.9750    7.6210 C   0  0  0  0  0
   -1.2500  -19.8760    9.1460 C   0  0  0  0  0
    0.1370  -20.3050    9.6210 C   0  0  0  0  0
    0.3830  -21.7280    9.4010 N   0  0  0  0  0
    1.3580  -22.4210    9.9770 C   0  0  0  0  0
    2.1950  -21.8270   10.8170 N   0  0  0  0  0
    1.4960  -23.7140    9.7110 N   0  0  0  0  0
   -2.4470  -16.7030    8.1850 N   0  0  0  0  0
   -1.9670  -15.3800    8.5590 C   0  0  0  0  0
   -0.7450  -15.4990    9.4680 C   0  0  0  0  0
   -0.6210  -16.4420   10.2540 O   0  0  0  0  0
   -3.0790  -14.5680    9.2320 C   0  0  0  0  0
   -3.3920  -14.9940   10.6330 C   0  0  0  0  0
   -4.3160  -15.9770   10.9220 N   0  0  0  0  0
   -2.9240  -14.5550   11.8260 C   0  0  0  0  0
   -4.3970  -16.1310   12.2320 C   0  0  0  0  0
   -3.5580  -15.2850   12.8030 N   0  0  0  0  0
    0.1790  -14.5400    9.3160 N   0  0  0  0  0
    1.4610  -14.4990   10.0380 C   0  0  0  0  0
    2.2380  -15.8040    9.8760 C   0  0  0  0  0
    2.7570  -16.3790   10.8380 O   0  0  0  0  0
    1.2630  -14.1620   11.5200 C   0  0  0  0  0
    2.5730  -13.7840   12.2170 C   0  0  0  0  0
    3.4600  -13.1900   11.5600 O   0  0  0  0  0
    2.7210  -14.0910   13.4210 O   0  0  0  0  0
    2.3340  -16.2630    8.6310 N   0  0  0  0  0
    3.0280  -17.5130    8.3430 C   0  0  0  0  0
    4.5490  -17.3890    8.4080 C   0  0  0  0  0
    5.2270  -18.4110    8.5460 O   0  0  0  0  0
    2.6120  -18.0280    6.9660 C   0  0  0  0  0
    2.8570  -17.0440    5.9730 O   0  0  0  0  0
    5.1010  -16.1780    8.3070 N   0  0  0  0  0
    6.5430  -15.9900    8.3920 C   0  0  0  0  0
    7.0410  -15.7960    9.8140 C   0  0  0  0  0
    8.0080  -15.0670   10.0600 O   0  0  0  0  0
    6.3710  -16.4740   10.7470 N   0  0  0  0  0
    6.6320  -16.3780   12.1800 C   0  0  0  0  0
    8.1160  -16.5610   12.5020 C   0  0  0  0  0
    8.8320  -17.3160   11.8380 O   0  0  0  0  0
    5.7880  -17.4470   12.8850 C   0  0  0  0  0
    5.5250  -17.2540   14.3590 C   0  0  0  0  0
    4.5300  -16.3910   14.8060 C   0  0  0  0  0
    6.2310  -17.9860   15.3030 C   0  0  0  0  0
    4.2780  -16.2360   16.1580 C   0  0  0  0  0
    5.9900  -17.8340   16.6530 C   0  0  0  0  0
    5.0120  -16.9610   17.0740 C   0  0  0  0  0
    4.7690  -16.8130   18.4150 O   0  0  0  0  0
    8.5810  -15.8650   13.5400 N   0  0  0  0  0
    9.9630  -15.9770   13.9930 C   0  0  0  0  0
   10.0690  -16.9430   15.1740 C   0  0  0  0  0
    9.0720  -17.4410   15.7020 O   0  0  0  0  0
   10.5250  -14.6040   14.3760 C   0  0  0  0  0
   10.0170  -14.0700   15.7120 C   0  0  0  0  0
    9.7970  -12.5690   15.6970 C   0  0  0  0  0
   10.1600  -11.8950   16.6890 O   0  0  0  0  0
    9.2530  -12.0650   14.6920 O   0  0  0  0  0
   11.3070  -17.2100   15.5850 N   0  0  0  0  0
   11.5620  -18.1030   16.7110 C   0  0  0  0  0
   12.4750  -17.3990   17.7030 C   0  0  0  0  0
   12.3370  -16.1980   17.9280 O   0  0  0  0  0
   12.1800  -19.4380   16.2600 C   0  0  0  0  0
   11.1890  -20.2370   15.4050 C   0  0  0  0  0
   13.4750  -19.1820   15.5100 C   0  0  0  0  0
   13.3570  -18.0260   18.2870 O   0  0  0  0  0
   -2.6342  -15.6573    2.7595 H   0  0  0  0  0
   -4.9605  -16.0770    1.7055 H   0  0  0  0  0
   -4.9021  -16.0840   -0.5538 H   0  0  0  0  0
   -4.3772  -17.7535   -0.4655 H   0  0  0  0  0
   -2.7953  -15.6086   -1.4696 H   0  0  0  0  0
   -2.2046  -17.1594   -1.1085 H   0  0  0  0  0
   -2.4961  -17.6103    3.1281 H   0  0  0  0  0
   -3.8549  -20.2660    3.0041 H   0  0  0  0  0
   -1.7372  -21.3776    3.0760 H   0  0  0  0  0
   -0.8762  -19.8051    3.3932 H   0  0  0  0  0
   -3.0140  -21.5138    0.8425 H   0  0  0  0  0
    0.0915  -18.6742    1.6197 H   0  0  0  0  0
   -2.7042  -21.1898   -1.5879 H   0  0  0  0  0
    0.4198  -18.3678   -0.8114 H   0  0  0  0  0
   -0.9656  -19.6379   -2.4169 H   0  0  0  0  0
   -1.6322  -18.2928    5.0284 H   0  0  0  0  0
   -3.2522  -18.9520    7.4040 H   0  0  0  0  0
   -0.4070  -19.9187    7.1840 H   0  0  0  0  0
   -1.9171  -20.9112    7.4009 H   0  0  0  0  0
   -1.9832  -20.5409    9.6026 H   0  0  0  0  0
   -1.3973  -18.8347    9.4327 H   0  0  0  0  0
    0.2023  -20.1122   10.6918 H   0  0  0  0  0
    0.8779  -19.7421    9.0533 H   0  0  0  0  0
   -0.2372  -22.2235    8.7605 H   0  0  0  0  0
    2.0912  -20.8334   11.0230 H   0  0  0  0  0
    2.2444  -24.2484   10.1522 H   0  0  0  0  0
    0.8536  -24.1733    9.0654 H   0  0  0  0  0
   -3.3644  -17.0253    8.4931 H   0  0  0  0  0
   -1.6700  -14.8488    7.6547 H   0  0  0  0  0
   -3.9842  -14.7142    8.6427 H   0  0  0  0  0
   -2.7368  -13.5342    9.2802 H   0  0  0  0  0
   -2.1837  -13.7703   11.9819 H   0  0  0  0  0
   -5.0454  -16.8357   12.7526 H   0  0  0  0  0
   -0.0195  -13.7883    8.6558 H   0  0  0  0  0
    2.0535  -13.7005    9.5915 H   0  0  0  0  0
    0.8625  -15.0467   12.0149 H   0  0  0  0  0
    0.5902  -13.3067   11.5829 H   0  0  0  0  0
    3.1509  -13.0486   10.6622 H   0  0  0  0  0
    1.9160  -15.7328    7.8665 H   0  0  0  0  0
    2.7369  -18.2196    9.1202 H   0  0  0  0  0
    1.5468  -18.2587    6.9810 H   0  0  0  0  0
    3.1923  -18.9204    6.7313 H   0  0  0  0  0
    2.5905  -17.3832    5.1154 H   0  0  0  0  0
    4.4997  -15.3660    8.1672 H   0  0  0  0  0
    6.7915  -15.0895    7.8303 H   0  0  0  0  0
    7.0162  -16.8890    7.9970 H   0  0  0  0  0
    5.6275  -17.1007   10.4390 H   0  0  0  0  0
    6.3600  -15.3827   12.5313 H   0  0  0  0  0
    6.3553  -18.3742   12.8037 H   0  0  0  0  0
    4.8107  -17.4189   12.4031 H   0  0  0  0  0
    3.9406  -15.8290   14.0815 H   0  0  0  0  0
    6.9903  -18.6944   14.9718 H   0  0  0  0  0
    3.5051  -15.5460   16.4967 H   0  0  0  0  0
    6.5698  -18.4011   17.3812 H   0  0  0  0  0
    5.3604  -17.3837   18.9111 H   0  0  0  0  0
    7.9497  -15.2337   14.0333 H   0  0  0  0  0
   10.5557  -16.3726   13.1682 H   0  0  0  0  0
   10.2066  -13.9005   13.6067 H   0  0  0  0  0
   11.6061  -14.7123   14.4633 H   0  0  0  0  0
   10.7700  -14.2904   16.4686 H   0  0  0  0  0
    9.0592  -14.5466   15.9205 H   0  0  0  0  0
   10.5522  -12.4772   17.3439 H   0  0  0  0  0
   12.0957  -16.7804   15.1016 H   0  0  0  0  0
   10.6101  -18.3413   17.1855 H   0  0  0  0  0
   12.4067  -20.0371   17.1419 H   0  0  0  0  0
   10.2922  -20.4442   15.9888 H   0  0  0  0  0
   10.9230  -19.6566   14.5216 H   0  0  0  0  0
   11.6500  -21.1761   15.0990 H   0  0  0  0  0
   13.2705  -18.5662   14.6342 H   0  0  0  0  0
   14.1760  -18.6639   16.1644 H   0  0  0  0  0
   13.9049  -20.1328   15.1949 H   0  0  0  0  0
   13.3358  -18.9435   18.0054 H   0  0  0  0  0
  1  2  1  0  0  0
  1  5  1  0  0  0
  2  3  1  0  0  0
  2  7  1  0  0  0
  3  4  1  0  0  0
  4  5  1  0  0  0
  5  6  2  0  0  0
  7  8  2  0  0  0
  7  9  1  0  0  0
  9 10  1  0  0  0
 10 11  1  0  0  0
 10 13  1  0  0  0
 11 12  2  0  0  0
 11 20  1  0  0  0
 13 14  1  0  0  0
 14 15  4  0  0  0
 14 16  4  0  0  0
 15 17  4  0  0  0
 16 18  4  0  0  0
 17 19  4  0  0  0
 18 19  4  0  0  0
 20 21  1  0  0  0
 21 22  1  0  0  0
 21 24  1  0  0  0
 22 23  2  0  0  0
 22 31  1  0  0  0
 24 25  1  0  0  0
 25 26  1  0  0  0
 26 27  1  0  0  0
 27 28  1  0  0  0
 28 29  2  0  0  0
 28 30  1  0  0  0
 31 32  1  0  0  0
 32 33  1  0  0  0
 32 35  1  0  0  0
 33 34  2  0  0  0
 33 41  1  0  0  0
 35 36  1  0  0  0
 36 37  4  0  0  0
 36 38  4  0  0  0
 37 39  4  0  0  0
 38 40  4  0  0  0
 39 40  4  0  0  0
 41 42  1  0  0  0
 42 43  1  0  0  0
 42 45  1  0  0  0
 43 44  2  0  0  0
 43 49  1  0  0  0
 45 46  1  0  0  0
 46 47  1  0  0  0
 46 48  2  0  0  0
 49 50  1  0  0  0
 50 51  1  0  0  0
 50 53  1  0  0  0
 51 52  2  0  0  0
 51 55  1  0  0  0
 53 54  1  0  0  0
 55 56  1  0  0  0
 56 57  1  0  0  0
 57 58  2  0  0  0
 57 59  1  0  0  0
 59 60  1  0  0  0
 60 61  1  0  0  0
 60 63  1  0  0  0
 61 62  2  0  0  0
 61 71  1  0  0  0
 63 64  1  0  0  0
 64 65  4  0  0  0
 64 66  4  0  0  0
 65 67  4  0  0  0
 66 68  4  0  0  0
 67 69  4  0  0  0
 68 69  4  0  0  0
 69 70  1  0  0  0
 71 72  1  0  0  0
 72 73  1  0  0  0
 72 75  1  0  0  0
 73 74  2  0  0  0
 73 80  1  0  0  0
 75 76  1  0  0  0
 76 77  1  0  0  0
 77 78  1  0  0  0
 77 79  2  0  0  0
 80 81  1  0  0  0
 81 82  1  0  0  0
 81 84  1  0  0  0
 82 83  2  0  0  0
 82 87  1  0  0  0
 84 85  1  0  0  0
 84 86  1  0  0  0
  1 88  1  0  0  0
  2 89  1  0  0  0
  3 90  1  0  0  0
  3 91  1  0  0  0
  4 92  1  0  0  0
  4 93  1  0  0  0
  9 94  1  0  0  0
 10 95  1  0  0  0
 13 96  1  0  0  0
 13 97  1  0  0  0
 15 98  1  0  0  0
 16 99  1  0  0  0
 17100  1  0  0  0
 18101  1  0  0  0
 19102  1  0  0  0
 20103  1  0  0  0
 21104  1  0  0  0
 24105  1  0  0  0
 24106  1  0  0  0
 25107  1  0  0  0
 25108  1  0  0  0
 26109  1  0  0  0
 26110  1  0  0  0
 27111  1  0  0  0
 29112  1  0  0  0
 30113  1  0  0  0
 30114  1  0  0  0
 31115  1  0  0  0
 32116  1  0  0  0
 35117  1  0  0  0
 35118  1  0  0  0
 38119  1  0  0  0
 39120  1  0  0  0
 41121  1  0  0  0
 42122  1  0  0  0
 45123  1  0  0  0
 45124  1  0  0  0
 47125  1  0  0  0
 49126  1  0  0  0
 50127  1  0  0  0
 53128  1  0  0  0
 53129  1  0  0  0
 54130  1  0  0  0
 55131  1  0  0  0
 56132  1  0  0  0
 56133  1  0  0  0
 59134  1  0  0  0
 60135  1  0  0  0
 63136  1  0  0  0
 63137  1  0  0  0
 65138  1  0  0  0
 66139  1  0  0  0
 67140  1  0  0  0
 68141  1  0  0  0
 70142  1  0  0  0
 71143  1  0  0  0
 72144  1  0  0  0
 75145  1  0  0  0
 75146  1  0  0  0
 76147  1  0  0  0
 76148  1  0  0  0
 78149  1  0  0  0
 80150  1  0  0  0
 81151  1  0  0  0
 84152  1  0  0  0
 85153  1  0  0  0
 85154  1  0  0  0
 85155  1  0  0  0
 86156  1  0  0  0
 86157  1  0  0  0
 86158  1  0  0  0
 87159  1  0  0  0
M  END
$$$$
