### 
### Created by X-TOOL on Mon Sep 10 21:13:32 2018
### 

@<TRIPOS>MOLECULE
5myo_ligand
  158   161     1     0     0
SMALL
GAST_HUCK


@<TRIPOS>ATOM
      1 N          -2.8800  -15.9570    1.8160 N.am      1 PCA        -0.2655
      2 CA         -4.0900  -16.6460    1.3790 C.3       1 PCA         0.1330
      3 CB         -4.1320  -16.7400   -0.1480 C.3       1 PCA         0.0045
      4 CG         -2.7550  -16.3340   -0.6570 C.3       1 PCA         0.0416
      5 CD         -2.0990  -15.7950    0.5850 C.2       1 PCA         0.1784
      6 OE         -0.9920  -15.2550    0.5390 O.2       1 PCA        -0.3969
      7 C          -4.1460  -18.0340    2.0060 C.2       1 PCA         0.2042
      8 O          -5.0620  -18.8230    1.7400 O.2       1 PCA        -0.3944
      9 N          -3.1570  -18.3350    2.8480 N.am      1 PHE        -0.2619
     10 CA         -3.0080  -19.6880    3.3740 C.3       1 PHE         0.1404
     11 C          -3.0610  -19.7390    4.9000 C.2       1 PHE         0.2060
     12 O          -3.8180  -20.5360    5.4670 O.2       1 PHE        -0.3942
     13 CB         -1.6940  -20.3070    2.8760 C.3       1 PHE         0.0214
     14 CG         -1.4750  -20.1280    1.3940 C.ar      1 PHE        -0.0386
     15 CD1        -2.2540  -20.8200    0.4830 C.ar      1 PHE        -0.0601
     16 CD2        -0.5200  -19.2390    0.9160 C.ar      1 PHE        -0.0601
     17 CE1        -2.0800  -20.6420   -0.8820 C.ar      1 PHE        -0.0686
     18 CE2        -0.3370  -19.0630   -0.4480 C.ar      1 PHE        -0.0686
     19 CZ         -1.1140  -19.7690   -1.3450 C.ar      1 PHE        -0.0687
     20 N          -2.2540  -18.9030    5.5590 N.am      1 ARG        -0.2636
     21 CA         -2.2370  -18.8380    7.0240 C.3       1 ARG         0.1311
     22 C          -1.6740  -17.4870    7.4360 C.2       1 ARG         0.2040
     23 O          -0.5480  -17.1510    7.0600 O.2       1 ARG        -0.3944
     24 CB         -1.4040  -19.9750    7.6210 C.3       1 ARG        -0.0092
     25 CG         -1.2500  -19.8760    9.1460 C.3       1 ARG        -0.0156
     26 CD          0.1370  -20.3050    9.6210 C.3       1 ARG         0.0627
     27 NE          0.3830  -21.7280    9.4010 N.pl3     1 ARG        -0.2723
     28 CZ          1.3580  -22.4210    9.9770 C.cat     1 ARG         0.2882
     29 NH1         2.1950  -21.8270   10.8170 N.pl3     1 ARG        -0.2849
     30 NH2         1.4960  -23.7140    9.7110 N.pl3     1 ARG        -0.2849
     31 N          -2.4470  -16.7030    8.1850 N.am      1 HIS        -0.2625
     32 CA         -1.9670  -15.3800    8.5590 C.3       1 HIS         0.1369
     33 C          -0.7450  -15.4990    9.4680 C.2       1 HIS         0.2054
     34 O          -0.6210  -16.4420   10.2540 O.2       1 HIS        -0.3942
     35 CB         -3.0790  -14.5680    9.2320 C.3       1 HIS         0.0145
     36 CG         -3.3920  -14.9940   10.6330 C.2       1 HIS        -0.0027
     37 ND1        -4.3160  -15.9770   10.9220 N.2       1 HIS        -0.3252
     38 CD2        -2.9240  -14.5550   11.8260 C.2       1 HIS         0.0291
     39 CE1        -4.3970  -16.1310   12.2320 C.2       1 HIS         0.0907
     40 NE2        -3.5580  -15.2850   12.8030 N.pl3     1 HIS        -0.2752
     41 N           0.1790  -14.5400    9.3160 N.am      1 ASP        -0.2621
     42 CA          1.4610  -14.4990   10.0380 C.3       1 ASP         0.1423
     43 C           2.2380  -15.8040    9.8760 C.2       1 ASP         0.2057
     44 O           2.7570  -16.3790   10.8380 O.2       1 ASP        -0.3943
     45 CB          1.2630  -14.1620   11.5200 C.3       1 ASP         0.0406
     46 CG          2.5730  -13.7840   12.2170 C.2       1 ASP         0.0393
     47 OD1         3.4600  -13.1900   11.5600 O.co2     1 ASP        -0.5688
     48 OD2         2.7210  -14.0910   13.4210 O.co2     1 ASP        -0.5688
     49 N           2.3340  -16.2630    8.6310 N.am      1 SER        -0.2615
     50 CA          3.0280  -17.5130    8.3430 C.3       1 SER         0.1539
     51 C           4.5490  -17.3890    8.4080 C.2       1 SER         0.2060
     52 O           5.2270  -18.4110    8.5460 O.2       1 SER        -0.3943
     53 CB          2.6120  -18.0280    6.9660 C.3       1 SER         0.0843
     54 OG          2.8570  -17.0440    5.9730 O.3       1 SER        -0.3903
     55 N           5.1010  -16.1780    8.3070 N.am      1 GLY        -0.2663
     56 CA          6.5430  -15.9900    8.3920 C.3       1 GLY         0.1201
     57 C           7.0410  -15.7960    9.8140 C.2       1 GLY         0.2009
     58 O           8.0080  -15.0670   10.0600 O.2       1 GLY        -0.3947
     59 N           6.3710  -16.4740   10.7470 N.am      1 TYR        -0.2624
     60 CA          6.6320  -16.3780   12.1800 C.3       1 TYR         0.1390
     61 C           8.1160  -16.5610   12.5020 C.2       1 TYR         0.2057
     62 O           8.8320  -17.3160   11.8380 O.2       1 TYR        -0.3942
     63 CB          5.7880  -17.4470   12.8850 C.3       1 TYR         0.0163
     64 CG          5.5250  -17.2540   14.3590 C.ar      1 TYR        -0.0493
     65 CD1         4.5300  -16.3910   14.8060 C.ar      1 TYR        -0.0685
     66 CD2         6.2310  -17.9860   15.3030 C.ar      1 TYR        -0.0685
     67 CE1         4.2780  -16.2360   16.1580 C.ar      1 TYR        -0.0398
     68 CE2         5.9900  -17.8340   16.6530 C.ar      1 TYR        -0.0398
     69 CZ          5.0120  -16.9610   17.0740 C.ar      1 TYR         0.0805
     70 OH          4.7690  -16.8130   18.4150 O.3       1 TYR        -0.3376
     71 N           8.5810  -15.8650   13.5400 N.am      1 GLU        -0.2635
     72 CA          9.9630  -15.9770   13.9930 C.3       1 GLU         0.1324
     73 C          10.0690  -16.9430   15.1740 C.2       1 GLU         0.2035
     74 O           9.0720  -17.4410   15.7020 O.2       1 GLU        -0.3944
     75 CB         10.5250  -14.6040   14.3760 C.3       1 GLU        -0.0008
     76 CG         10.0170  -14.0700   15.7120 C.3       1 GLU         0.0044
     77 CD          9.7970  -12.5690   15.6970 C.2       1 GLU         0.0350
     78 OE1        10.1600  -11.8950   16.6890 O.co2     1 GLU        -0.5690
     79 OE2         9.2530  -12.0650   14.6920 O.co2     1 GLU        -0.5690
     80 N          11.3070  -17.2100   15.5850 N.am      1 VAL        -0.2692
     81 CA         11.5620  -18.1030   16.7110 C.3       1 VAL         0.0967
     82 C          12.4750  -17.3990   17.7030 C.2       1 VAL         0.0603
     83 O          12.3370  -16.1980   17.9280 O.co2     1 VAL        -0.5666
     84 CB         12.1800  -19.4380   16.2600 C.3       1 VAL        -0.0118
     85 CG1        11.1890  -20.2370   15.4050 C.3       1 VAL        -0.0590
     86 CG2        13.4750  -19.1820   15.5100 C.3       1 VAL        -0.0590
     87 OXT        13.3570  -18.0260   18.2870 O.co2     1 VAL        -0.5666
     88 H1         -2.6390  -15.6632    2.7410 H         1 PCA         0.1883
     89 H2         -4.9648  -16.0714    1.7175 H         1 PCA         0.0801
     90 H3         -4.8982  -16.0593   -0.5475 H         1 PCA         0.0337
     91 H4         -4.3601  -17.7708   -0.4570 H         1 PCA         0.0337
     92 H5         -2.8303  -15.5603   -1.4352 H         1 PCA         0.0505
     93 H6         -2.2056  -17.2006   -1.0534 H         1 PCA         0.0505
     94 H7         -2.5091  -17.6245    3.1226 H         1 PHE         0.1885
     95 H8         -3.8427  -20.2916    2.9882 H         1 PHE         0.0823
     96 H9         -1.7085  -21.3840    3.0993 H         1 PHE         0.0474
     97 H10        -0.8590  -19.8325    3.4123 H         1 PHE         0.0474
     98 H11        -3.0098  -21.5099    0.8405 H         1 PHE         0.0557
     99 H12         0.0881  -18.6773    1.6158 H         1 PHE         0.0557
    100 H13        -2.7008  -21.1868   -1.5840 H         1 PHE         0.0599
    101 H14         0.4156  -18.3716   -0.8094 H         1 PHE         0.0599
    102 H15        -0.9664  -19.6386   -2.4110 H         1 PHE         0.0559
    103 H16        -1.6444  -18.3048    5.0388 H         1 ARG         0.1883
    104 H17        -3.2677  -18.9272    7.3977 H         1 ARG         0.0800
    105 H18        -0.4027  -19.9509    7.1663 H         1 ARG         0.0313
    106 H19        -1.8931  -20.9304    7.3804 H         1 ARG         0.0313
    107 H20        -2.0017  -20.5245    9.6197 H         1 ARG         0.0301
    108 H21        -1.4208  -18.8331    9.4512 H         1 ARG         0.0301
    109 H22         0.2236  -20.0934   10.6970 H         1 ARG         0.0689
    110 H23         0.8938  -19.7262    9.0714 H         1 ARG         0.0689
    111 H24        -0.2433  -22.2284    8.7542 H         1 ARG         0.2642
    112 H25         2.9498  -22.3690   11.2613 H         1 ARG         0.2615
    113 H26         2.0902  -20.8237   11.0250 H         1 ARG         0.2615
    114 H27         0.8473  -24.1778    9.0590 H         1 ARG         0.2615
    115 H28         2.2518  -24.2537   10.1566 H         1 ARG         0.2615
    116 H29        -3.3464  -17.0190    8.4871 H         1 HIS         0.1885
    117 H30        -1.6641  -14.8512    7.6432 H         1 HIS         0.0817
    118 H31        -3.9932  -14.6698    8.6287 H         1 HIS         0.0420
    119 H32        -2.7698  -13.5126    9.2539 H         1 HIS         0.0420
    120 H33        -2.1844  -13.7710   11.9818 H         1 HIS         0.0729
    121 H34        -5.0448  -16.8351   12.7522 H         1 HIS         0.1199
    122 H35        -3.4039  -15.1881   13.8168 H         1 HIS         0.2361
    123 H36        -0.0157  -13.8030    8.6687 H         1 ASP         0.1884
    124 H37         2.0650  -13.6950    9.5923 H         1 ASP         0.0819
    125 H38         0.8345  -15.0392   12.0268 H         1 ASP         0.0478
    126 H39         0.5649  -13.3156   11.5988 H         1 ASP         0.0478
    127 H40         1.9242  -15.7432    7.8814 H         1 SER         0.1884
    128 H41         2.7189  -18.2501    9.0988 H         1 SER         0.0823
    129 H42         1.5390  -18.2700    6.9789 H         1 SER         0.0606
    130 H43         3.1894  -18.9336    6.7285 H         1 SER         0.0606
    131 H44         2.5933  -17.3797    5.1243 H         1 SER         0.2097
    132 H45         4.5115  -15.3820    8.1699 H         1 GLY         0.1881
    133 H46         6.8146  -15.1017    7.8028 H         1 GLY         0.0763
    134 H47         7.0363  -16.8767    7.9673 H         1 GLY         0.0763
    135 H48         5.6421  -17.0884   10.4450 H         1 TYR         0.1885
    136 H49         6.3215  -15.3834   12.5327 H         1 TYR         0.0821
    137 H50         6.3050  -18.4104   12.7641 H         1 TYR         0.0453
    138 H51         4.8131  -17.4877   12.3771 H         1 TYR         0.0453
    139 H52         3.9438  -15.8321   14.0855 H         1 TYR         0.0530
    140 H53         6.9861  -18.6905   14.9736 H         1 TYR         0.0530
    141 H54         3.5094  -15.5498   16.4948 H         1 TYR         0.0525
    142 H55         6.5666  -18.3980   17.3772 H         1 TYR         0.0525
    143 H56         4.0714  -16.1806   18.5414 H         1 TYR         0.2458
    144 H57         7.9621  -15.2461   14.0236 H         1 GLU         0.1883
    145 H58        10.5651  -16.3772   13.1640 H         1 GLU         0.0801
    146 H59        10.2476  -13.8863   13.5899 H         1 GLU         0.0330
    147 H60        11.6208  -14.6829   14.4304 H         1 GLU         0.0330
    148 H61        10.7561  -14.3095   16.4907 H         1 GLU         0.0433
    149 H62         9.0625  -14.5632   15.9481 H         1 GLU         0.0433
    150 H63        12.0803  -16.7888   15.1111 H         1 VAL         0.1875
    151 H64        10.6040  -18.3201   17.2061 H         1 VAL         0.0729
    152 H65        12.4130  -20.0317   17.1563 H         1 VAL         0.0336
    153 H66        11.6531  -21.1851   15.0955 H         1 VAL         0.0234
    154 H67        10.9197  -19.6523   14.5130 H         1 VAL         0.0234
    155 H68        10.2834  -20.4469   15.9931 H         1 VAL         0.0234
    156 H69        14.1619  -18.6084   16.1496 H         1 VAL         0.0234
    157 H70        13.2619  -18.6097   14.5951 H         1 VAL         0.0234
    158 H71        13.9395  -20.1424   15.2420 H         1 VAL         0.0234
@<TRIPOS>BOND
     1    1    2 1  
     2    1    5 am 
     3    2    3 1  
     4    2    7 1  
     5    3    4 1  
     6    4    5 1  
     7    5    6 2  
     8    7    8 2  
     9    7    9 am 
    10    9   10 1  
    11   10   11 1  
    12   10   13 1  
    13   11   12 2  
    14   11   20 am 
    15   13   14 1  
    16   14   15 ar 
    17   14   16 ar 
    18   15   17 ar 
    19   16   18 ar 
    20   17   19 ar 
    21   18   19 ar 
    22   20   21 1  
    23   21   22 1  
    24   21   24 1  
    25   22   23 2  
    26   22   31 am 
    27   24   25 1  
    28   25   26 1  
    29   26   27 1  
    30   27   28 ar 
    31   28   29 ar 
    32   28   30 ar 
    33   31   32 1  
    34   32   33 1  
    35   32   35 1  
    36   33   34 2  
    37   33   41 am 
    38   35   36 1  
    39   36   37 1  
    40   36   38 2  
    41   37   39 2  
    42   38   40 1  
    43   39   40 1  
    44   41   42 1  
    45   42   43 1  
    46   42   45 1  
    47   43   44 2  
    48   43   49 am 
    49   45   46 1  
    50   46   47 ar 
    51   46   48 ar 
    52   49   50 1  
    53   50   51 1  
    54   50   53 1  
    55   51   52 2  
    56   51   55 am 
    57   53   54 1  
    58   55   56 1  
    59   56   57 1  
    60   57   58 2  
    61   57   59 am 
    62   59   60 1  
    63   60   61 1  
    64   60   63 1  
    65   61   62 2  
    66   61   71 am 
    67   63   64 1  
    68   64   65 ar 
    69   64   66 ar 
    70   65   67 ar 
    71   66   68 ar 
    72   67   69 ar 
    73   68   69 ar 
    74   69   70 1  
    75   71   72 1  
    76   72   73 1  
    77   72   75 1  
    78   73   74 2  
    79   73   80 am 
    80   75   76 1  
    81   76   77 1  
    82   77   78 ar 
    83   77   79 ar 
    84   80   81 1  
    85   81   82 1  
    86   81   84 1  
    87   82   83 ar 
    88   82   87 ar 
    89   84   85 1  
    90   84   86 1  
    91    1   88 1  
    92    2   89 1  
    93    3   90 1  
    94    3   91 1  
    95    4   92 1  
    96    4   93 1  
    97    9   94 1  
    98   10   95 1  
    99   13   96 1  
   100   13   97 1  
   101   15   98 1  
   102   16   99 1  
   103   17  100 1  
   104   18  101 1  
   105   19  102 1  
   106   20  103 1  
   107   21  104 1  
   108   24  105 1  
   109   24  106 1  
   110   25  107 1  
   111   25  108 1  
   112   26  109 1  
   113   26  110 1  
   114   27  111 1  
   115   29  112 1  
   116   29  113 1  
   117   30  114 1  
   118   30  115 1  
   119   31  116 1  
   120   32  117 1  
   121   35  118 1  
   122   35  119 1  
   123   38  120 1  
   124   39  121 1  
   125   40  122 1  
   126   41  123 1  
   127   42  124 1  
   128   45  125 1  
   129   45  126 1  
   130   49  127 1  
   131   50  128 1  
   132   53  129 1  
   133   53  130 1  
   134   54  131 1  
   135   55  132 1  
   136   56  133 1  
   137   56  134 1  
   138   59  135 1  
   139   60  136 1  
   140   63  137 1  
   141   63  138 1  
   142   65  139 1  
   143   66  140 1  
   144   67  141 1  
   145   68  142 1  
   146   70  143 1  
   147   71  144 1  
   148   72  145 1  
   149   75  146 1  
   150   75  147 1  
   151   76  148 1  
   152   76  149 1  
   153   80  150 1  
   154   81  151 1  
   155   84  152 1  
   156   85  153 1  
   157   85  154 1  
   158   85  155 1  
   159   86  156 1  
   160   86  157 1  
   161   86  158 1  
@<TRIPOS>SUBSTRUCTURE
     1 PCA         1

