6gnr_ligand
  -I-interpret- 

 29 30  0  0  0  0  0  0  0  0999 V2000
    1.2440    0.5550    0.1730 O   0  0  0  0  0
    1.7480    1.7530    0.1420 C   0  0  0  0  0
    2.9230    1.9980    0.3980 O   0  0  0  0  0
    0.8550    2.8960   -0.2280 C   0  0  0  0  0
   -0.4470    2.6380   -0.6410 C   0  0  0  0  0
   -1.2910    3.7100   -0.9940 C   0  0  0  0  0
   -0.7680    5.0160   -0.9030 C   0  0  0  0  0
    0.5010    5.3010   -0.5040 N   0  0  0  0  0
    1.2980    4.2630   -0.1680 C   0  0  0  0  0
    2.5600    4.5250    0.2290 N   0  0  0  0  0
    3.1940    5.7320    0.4730 C   0  0  0  0  0
    4.1330    6.1800   -0.4530 C   0  0  0  0  0
    4.4290    5.4190   -1.7360 C   0  0  0  0  0
    4.7860    7.3840   -0.1620 C   0  0  0  0  0
    5.9580    8.0210   -1.2710 Cl  0  0  0  0  0
    4.5570    8.1280    0.9950 C   0  0  0  0  0
    3.6180    7.6360    1.9170 C   0  0  0  0  0
    2.9500    6.4560    1.6660 C   0  0  0  0  0
    0.3135    0.5944   -0.0598 H   0  0  0  0  0
   -0.8130    1.6125   -0.6915 H   0  0  0  0  0
   -2.3143    3.5351   -1.3264 H   0  0  0  0  0
   -1.4201    5.8481   -1.1685 H   0  0  0  0  0
    3.1423    3.7000    0.3730 H   0  0  0  0  0
    4.7879    4.4197   -1.4896 H   0  0  0  0  0
    3.5184    5.3431   -2.3302 H   0  0  0  0  0
    5.1921    5.9506   -2.3045 H   0  0  0  0  0
    5.0894    9.0613    1.1782 H   0  0  0  0  0
    3.4167    8.1892    2.8344 H   0  0  0  0  0
    2.2291    6.0776    2.3907 H   0  0  0  0  0
  1  2  1  0  0  0
  2  3  2  0  0  0
  2  4  1  0  0  0
  4  5  4  0  0  0
  4  9  4  0  0  0
  5  6  4  0  0  0
  6  7  4  0  0  0
  7  8  4  0  0  0
  8  9  4  0  0  0
  9 10  1  0  0  0
 10 11  1  0  0  0
 11 12  4  0  0  0
 11 18  4  0  0  0
 12 13  1  0  0  0
 12 14  4  0  0  0
 14 15  1  0  0  0
 14 16  4  0  0  0
 16 17  4  0  0  0
 17 18  4  0  0  0
  1 19  1  0  0  0
  5 20  1  0  0  0
  6 21  1  0  0  0
  7 22  1  0  0  0
 10 23  1  0  0  0
 13 24  1  0  0  0
 13 25  1  0  0  0
 13 26  1  0  0  0
 16 27  1  0  0  0
 17 28  1  0  0  0
 18 29  1  0  0  0
M  END
$$$$
