5nwd_ligand
  -I-interpret- 

 41 43  0  0  0  0  0  0  0  0999 V2000
    5.7500   40.6540    6.0230 C   0  0  0  0  0
    7.0130   39.8390    5.8980 C   0  0  0  0  0
    6.8340   38.4860    6.4630 N   0  0  0  0  0
    6.9960   37.4140    5.4630 C   0  0  0  0  0
    8.5150   37.2040    5.3820 C   0  0  0  0  0
    6.7820   38.2140    7.8010 C   0  0  0  0  0
    6.3220   36.9870    8.2830 C   0  0  0  0  0
    6.2860   36.6790    9.6470 C   0  0  0  0  0
    7.2110   39.1440    8.7480 C   0  0  0  0  0
    7.1940   38.8470   10.1140 C   0  0  0  0  0
    6.7400   37.6050   10.5840 C   0  0  0  0  0
    6.6940   37.3190   11.9670 C   0  0  0  0  0
    5.9110   36.3380   12.4480 N   0  0  0  0  0
    5.8510   36.0760   13.7690 C   0  0  0  0  0
    5.0000   35.0570   14.1880 C   0  0  0  0  0
    4.8840   34.7560   15.5270 C   0  0  0  0  0
    5.6050   35.4690   16.4910 C   0  0  0  0  0
    6.4780   36.4780   16.0740 C   0  0  0  0  0
    6.5930   36.8010   14.7120 C   0  0  0  0  0
    7.4610   37.7980   14.2320 C   0  0  0  0  0
    8.2050   38.4750   14.9490 O   0  0  0  0  0
    7.4910   38.0420   12.8720 N   0  0  0  0  0
    4.9431   40.1560    5.4854 H   0  0  0  0  0
    5.4829   40.7487    7.0755 H   0  0  0  0  0
    5.9145   41.6442    5.5981 H   0  0  0  0  0
    7.8080   40.3430    6.4475 H   0  0  0  0  0
    7.2628   39.7444    4.8412 H   0  0  0  0  0
    6.5649   37.6817    4.4983 H   0  0  0  0  0
    6.4685   36.5031    5.7462 H   0  0  0  0  0
    8.9927   38.1325    5.0692 H   0  0  0  0  0
    8.8928   36.9117    6.3617 H   0  0  0  0  0
    8.7339   36.4193    4.6578 H   0  0  0  0  0
    5.9774   36.2397    7.5683 H   0  0  0  0  0
    5.9024   35.7136    9.9772 H   0  0  0  0  0
    7.5659   40.1200    8.4170 H   0  0  0  0  0
    7.5401   39.5945   10.8278 H   0  0  0  0  0
    4.4232   34.4951   13.4534 H   0  0  0  0  0
    4.2204   33.9501   15.8404 H   0  0  0  0  0
    5.4878   35.2413   17.5505 H   0  0  0  0  0
    7.0733   37.0176   16.8106 H   0  0  0  0  0
    8.1104   38.7689   12.5138 H   0  0  0  0  0
  1  2  1  0  0  0
  2  3  1  0  0  0
  3  4  1  0  0  0
  3  6  1  0  0  0
  4  5  1  0  0  0
  6  7  4  0  0  0
  6  9  4  0  0  0
  7  8  4  0  0  0
  8 11  4  0  0  0
  9 10  4  0  0  0
 10 11  4  0  0  0
 11 12  1  0  0  0
 12 13  2  0  0  0
 12 22  1  0  0  0
 13 14  1  0  0  0
 14 15  4  0  0  0
 14 19  4  0  0  0
 15 16  4  0  0  0
 16 17  4  0  0  0
 17 18  4  0  0  0
 18 19  4  0  0  0
 19 20  1  0  0  0
 20 21  2  0  0  0
 20 22  1  0  0  0
  1 23  1  0  0  0
  1 24  1  0  0  0
  1 25  1  0  0  0
  2 26  1  0  0  0
  2 27  1  0  0  0
  4 28  1  0  0  0
  4 29  1  0  0  0
  5 30  1  0  0  0
  5 31  1  0  0  0
  5 32  1  0  0  0
  7 33  1  0  0  0
  8 34  1  0  0  0
  9 35  1  0  0  0
 10 36  1  0  0  0
 15 37  1  0  0  0
 16 38  1  0  0  0
 17 39  1  0  0  0
 18 40  1  0  0  0
 22 41  1  0  0  0
M  END
$$$$
