1s39_ligand
  -I-interpret- 

 19 20  0  0  0  0  0  0  0  0999 V2000
   18.1570   17.1460   19.1100 C   0  0  0  0  0
   16.8480   16.7120   18.7390 C   0  0  0  0  0
   15.8400   16.5470   19.7200 C   0  0  0  0  0
   16.1130   16.8130   21.1020 C   0  0  0  0  0
   15.0980   16.6460   22.0520 N   0  0  0  0  0
   15.3240   16.8840   23.3250 C   0  0  0  0  0
   14.3360   16.7300   24.3030 N   0  0  0  0  0
   16.6160   17.3270   23.8100 N   0  0  0  0  0
   17.7220   17.5250   22.8910 C   0  0  0  0  0
   18.8180   17.9050   23.3400 O   0  0  0  0  0
   17.4410   17.2520   21.4730 C   0  0  0  0  0
   18.4480   17.4130   20.4680 C   0  0  0  0  0
   18.9283   17.2709   18.3500 H   0  0  0  0  0
   16.6229   16.5061   17.6925 H   0  0  0  0  0
   14.8460   16.2142   19.4211 H   0  0  0  0  0
   13.4000   16.4228   24.0385 H   0  0  0  0  0
   14.5515   16.9249   25.2807 H   0  0  0  0  0
   16.7493   17.5012   24.8061 H   0  0  0  0  0
   19.4470   17.7440   20.7518 H   0  0  0  0  0
  1  2  4  0  0  0
  1 12  4  0  0  0
  2  3  4  0  0  0
  3  4  4  0  0  0
  4  5  1  0  0  0
  4 11  4  0  0  0
  5  6  2  0  0  0
  6  7  1  0  0  0
  6  8  1  0  0  0
  8  9  1  0  0  0
  9 10  2  0  0  0
  9 11  1  0  0  0
 11 12  4  0  0  0
  1 13  1  0  0  0
  2 14  1  0  0  0
  3 15  1  0  0  0
  7 16  1  0  0  0
  7 17  1  0  0  0
  8 18  1  0  0  0
 12 19  1  0  0  0
M  END
$$$$
