3h2m_ligand
  -I-interpret- 

 34 35  0  0  0  0  0  0  0  0999 V2000
  -81.4830   87.1920   90.8780 O   0  0  0  0  0
  -80.5160   86.5170   91.2410 C   0  0  0  0  0
  -79.7110   86.8730   92.4420 C   0  0  0  0  0
  -78.5540   85.9750   92.7200 C   0  0  0  0  0
  -78.3210   84.9040   91.9070 N   0  0  0  0  0
  -79.1000   84.6640   90.8160 C   0  0  0  0  0
  -78.8470   83.6300   89.9850 N   0  0  0  0  0
  -80.1650   85.4310   90.5300 N   0  0  0  0  0
  -79.9770   87.9410   93.2550 N   0  0  0  0  0
  -79.1970   88.2160   94.3530 C   0  0  0  0  0
  -79.6120   89.4690   95.1200 C   0  0  0  0  0
  -80.2140   89.3620   96.5300 C   0  0  0  0  0
  -80.9310   88.0480   96.7550 O   0  0  0  0  0
  -79.0170   89.6730   97.4610 C   0  0  0  0  0
  -81.1940   90.5630   96.7770 C   0  0  0  0  0
  -77.9750   87.3920   94.7480 C   0  0  0  0  0
  -77.7380   86.2330   93.8330 N   0  0  0  0  0
  -76.6340   85.2740   94.0060 C   0  0  0  0  0
  -78.0587   83.0093   90.1685 H   0  0  0  0  0
  -78.7650   87.3083   94.7744 H   0  0  0  0  0
  -80.4146   89.8963   94.5189 H   0  0  0  0  0
  -78.6788   90.0122   95.2688 H   0  0  0  0  0
  -81.2884   88.0282   97.6458 H   0  0  0  0  0
  -78.2266   88.9419   97.2910 H   0  0  0  0  0
  -78.6410   90.6731   97.2455 H   0  0  0  0  0
  -79.3435   89.6222   98.4997 H   0  0  0  0  0
  -80.6468   91.5013   96.6865 H   0  0  0  0  0
  -81.9945   90.5350   96.0378 H   0  0  0  0  0
  -81.6188   90.4837   97.7777 H   0  0  0  0  0
  -78.1476   86.9973   95.7493 H   0  0  0  0  0
  -77.1022   88.0428   94.6958 H   0  0  0  0  0
  -75.6828   85.8039   93.9555 H   0  0  0  0  0
  -76.7279   84.7849   94.9756 H   0  0  0  0  0
  -76.6770   84.5258   93.2145 H   0  0  0  0  0
  1  2  2  0  0  0
  2  3  1  0  0  0
  2  8  1  0  0  0
  3  4  1  0  0  0
  3  9  2  0  0  0
  4  5  2  0  0  0
  4 17  1  0  0  0
  5  6  4  0  0  0
  6  7  2  0  0  0
  6  8  4  0  0  0
  9 10  1  0  0  0
 10 11  1  0  0  0
 10 16  1  0  0  0
 11 12  1  0  0  0
 12 13  1  0  0  0
 12 14  1  0  0  0
 12 15  1  0  0  0
 16 17  1  0  0  0
 17 18  1  0  0  0
  7 19  1  0  0  0
 10 20  1  0  0  0
 11 21  1  0  0  0
 11 22  1  0  0  0
 13 23  1  0  0  0
 14 24  1  0  0  0
 14 25  1  0  0  0
 14 26  1  0  0  0
 15 27  1  0  0  0
 15 28  1  0  0  0
 15 29  1  0  0  0
 16 30  1  0  0  0
 16 31  1  0  0  0
 18 32  1  0  0  0
 18 33  1  0  0  0
 18 34  1  0  0  0
M  END
$$$$
