5q16_ligand
  -I-interpret- 

 71 75  0  0  0  0  0  0  0  0999 V2000
   23.9360   17.2670   99.2100 C   0  0  0  0  0
   23.8340   16.2620   98.2500 C   0  0  0  0  0
   24.9920   15.6270   97.7880 C   0  0  0  0  0
   22.1780   18.7550  100.4000 C   0  0  0  0  0
   21.4440   19.3090  102.7940 C   0  0  0  0  0
   23.0750   23.6970   96.7490 C   0  0  0  0  0
   25.3240   22.5440   96.6930 C   0  0  0  0  0
   24.6930   21.2890   97.3730 C   0  0  0  0  0
   23.4440   21.6630   98.2160 C   0  0  0  0  0
   21.2630   17.5160  104.5710 C   0  0  0  0  0
   21.9260   16.9200  102.1630 C   0  0  0  0  0
   17.6330   18.2590   98.5950 C   0  0  0  0  0
   26.2350   16.0120   98.2980 C   0  0  0  0  0
   26.2750   17.0320   99.2650 C   0  0  0  0  0
   25.1550   17.6740   99.7390 C   0  0  0  0  0
   22.4990   16.0560   97.9010 N   0  0  0  0  0
   21.8240   16.9140   98.6310 C   0  0  0  0  0
   22.6110   17.6820   99.4540 N   0  0  0  0  0
   22.9070   20.0750  100.0470 C   0  0  0  0  0
   23.5170   20.7140  100.9000 O   0  0  0  0  0
   22.8240   20.4520   98.7600 N   0  0  0  0  0
   22.4340   22.4490   97.3840 C   0  0  0  0  0
   24.2720   23.3290   95.8780 C   0  0  0  0  0
   22.3120   18.3820  101.8930 C   0  0  0  0  0
   21.6080   18.9770  104.2820 C   0  0  0  0  0
   22.0740   16.5530  103.6690 C   0  0  0  0  0
   20.3450   17.0480   98.5840 C   0  0  0  0  0
   20.0370   18.3440   98.0820 O   0  0  0  0  0
   18.7120   18.6370   97.7920 C   0  0  0  0  0
   16.3400   18.6020   98.2160 C   0  0  0  0  0
   16.1480   19.3130   97.0500 C   0  0  0  0  0
   17.2070   19.6930   96.2500 C   0  0  0  0  0
   18.5120   19.3610   96.6070 C   0  0  0  0  0
   19.6700   19.7730   95.7330 C   0  0  0  0  0
   14.5330   19.7440   96.5720 Cl  0  0  0  0  0
   27.4810   17.4080   99.7650 F   0  0  0  0  0
   24.9254   14.8394   97.0374 H   0  0  0  0  0
   21.1048   18.8906  100.2662 H   0  0  0  0  0
   20.3976   19.1647  102.5250 H   0  0  0  0  0
   21.7662   20.3382  102.6360 H   0  0  0  0  0
   23.4186   24.3533   97.5485 H   0  0  0  0  0
   22.3297   24.1870   96.1224 H   0  0  0  0  0
   26.1113   22.2129   96.0158 H   0  0  0  0  0
   25.7196   23.1979   97.4702 H   0  0  0  0  0
   25.4362   20.8465   98.0362 H   0  0  0  0  0
   24.3859   20.5924   96.5929 H   0  0  0  0  0
   23.7665   22.2986   99.0406 H   0  0  0  0  0
   20.2021   17.3654  104.3712 H   0  0  0  0  0
   21.5071   17.3026  105.6117 H   0  0  0  0  0
   22.5912   16.2774  101.5863 H   0  0  0  0  0
   20.8832   16.7820  101.8771 H   0  0  0  0  0
   17.8040   17.6981   99.5138 H   0  0  0  0  0
   27.1517   15.5329   97.9543 H   0  0  0  0  0
   25.2200   18.4610  100.4904 H   0  0  0  0  0
   22.2959   19.8575   98.1212 H   0  0  0  0  0
   22.0687   21.8040   96.5848 H   0  0  0  0  0
   21.6244   22.7719   98.0385 H   0  0  0  0  0
   24.7293   24.2452   95.5044 H   0  0  0  0  0
   23.9278   22.7037   95.0542 H   0  0  0  0  0
   23.3645   18.5172  102.1423 H   0  0  0  0  0
   20.9310   19.6114  104.8541 H   0  0  0  0  0
   22.6475   19.1483  104.5616 H   0  0  0  0  0
   21.6957   15.5414  103.8164 H   0  0  0  0  0
   23.1267   16.6299  103.9410 H   0  0  0  0  0
   19.9232   16.9200   99.5809 H   0  0  0  0  0
   19.9176   16.2819   97.9370 H   0  0  0  0  0
   15.4890   18.3127   98.8326 H   0  0  0  0  0
   17.0212   20.2553   95.3349 H   0  0  0  0  0
   20.3460   20.4095   96.3040 H   0  0  0  0  0
   20.2035   18.8842   95.3961 H   0  0  0  0  0
   19.2945   20.3220   94.8695 H   0  0  0  0  0
  1  2  4  0  0  0
  1 15  4  0  0  0
 18  1  4  0  0  0
  2  3  4  0  0  0
 16  2  4  0  0  0
  3 13  4  0  0  0
 18  4  1  0  0  0
  4 19  1  0  0  0
  4 24  1  0  0  0
 24  5  1  0  0  0
  5 25  1  0  0  0
 22  6  1  0  0  0
  6 23  1  0  0  0
  8  7  1  0  0  0
  7 23  1  0  0  0
  9  8  1  0  0  0
 21  9  1  0  0  0
  9 22  1  0  0  0
 25 10  1  0  0  0
 26 10  1  0  0  0
 24 11  1  0  0  0
 11 26  1  0  0  0
 29 12  4  0  0  0
 12 30  4  0  0  0
 14 13  4  0  0  0
 15 14  4  0  0  0
 14 36  1  0  0  0
 17 16  4  0  0  0
 17 18  4  0  0  0
 27 17  1  0  0  0
 19 20  2  0  0  0
 19 21  1  0  0  0
 28 27  1  0  0  0
 28 29  1  0  0  0
 29 33  4  0  0  0
 30 31  4  0  0  0
 31 32  4  0  0  0
 31 35  1  0  0  0
 32 33  4  0  0  0
 33 34  1  0  0  0
  3 37  1  0  0  0
  4 38  1  0  0  0
  5 39  1  0  0  0
  5 40  1  0  0  0
  6 41  1  0  0  0
  6 42  1  0  0  0
  7 43  1  0  0  0
  7 44  1  0  0  0
  8 45  1  0  0  0
  8 46  1  0  0  0
  9 47  1  0  0  0
 10 48  1  0  0  0
 10 49  1  0  0  0
 11 50  1  0  0  0
 11 51  1  0  0  0
 12 52  1  0  0  0
 13 53  1  0  0  0
 15 54  1  0  0  0
 21 55  1  0  0  0
 22 56  1  0  0  0
 22 57  1  0  0  0
 23 58  1  0  0  0
 23 59  1  0  0  0
 24 60  1  0  0  0
 25 61  1  0  0  0
 25 62  1  0  0  0
 26 63  1  0  0  0
 26 64  1  0  0  0
 27 65  1  0  0  0
 27 66  1  0  0  0
 30 67  1  0  0  0
 32 68  1  0  0  0
 34 69  1  0  0  0
 34 70  1  0  0  0
 34 71  1  0  0  0
M  END
$$$$
