6ffg_ligand
  -I-interpret- 

 61 65  0  0  0  0  0  0  0  0999 V2000
   42.1620   16.9200    9.5740 C   0  0  0  0  0
   40.5540   18.1640   12.1520 C   0  0  0  0  0
   38.7590   16.6790   12.7840 C   0  0  0  0  0
   38.9370   17.0150   14.1070 C   0  0  0  0  0
   39.9170   17.9210   14.4630 C   0  0  0  0  0
   40.7370   18.5050   13.5000 C   0  0  0  0  0
   39.3240   15.5150    6.0220 C   0  0  0  0  0
   40.6620   15.5000    6.6890 C   0  0  0  0  0
   41.4190   14.5490    6.5860 O   0  0  0  0  0
   41.0120   16.5940    7.4380 N   0  0  0  0  0
   42.3420   16.5930    8.0990 C   0  0  0  0  0
   41.2600   18.0430    9.7900 N   0  0  0  0  0
   41.4060   18.7560   11.0570 C   0  0  0  0  0
   39.5610   17.2490   11.8140 C   0  0  0  0  0
   41.8010   19.4930   13.9130 C   0  0  0  0  0
   43.0900   18.9040   13.9510 O   0  0  0  0  0
   40.3640   18.4820    8.7850 C   0  0  0  0  0
   39.6240   19.6390    9.0000 C   0  0  0  0  0
   38.7350   20.0900    8.0280 C   0  0  0  0  0
   38.6040   19.3690    6.8450 C   0  0  0  0  0
   39.3390   18.2180    6.6260 C   0  0  0  0  0
   40.2180   17.7640    7.6020 C   0  0  0  0  0
   37.9450   21.3260    8.2500 C   0  0  0  0  0
   36.7060   21.4960    7.7540 C   0  0  0  0  0
   35.8530   22.7210    7.9470 C   0  0  0  0  0
   36.6590   23.8500    8.4230 N   0  3  0  0  0
   37.5630   23.4290    9.4830 C   0  0  0  0  0
   38.5950   22.4000    9.0670 C   0  0  0  0  0
   43.2660   17.5380    7.3400 C   0  0  0  0  0
   44.7420   17.3190    7.4590 C   0  0  0  0  0
   44.0510   17.0000    6.1810 C   0  0  0  0  0
   43.1370   17.1887    9.9804 H   0  0  0  0  0
   41.7330   16.0452   10.0626 H   0  0  0  0  0
   37.9861   15.9640   12.5019 H   0  0  0  0  0
   38.3049   16.5663   14.8733 H   0  0  0  0  0
   40.0507   18.1828   15.5126 H   0  0  0  0  0
   39.4557   15.4196    4.9442 H   0  0  0  0  0
   38.7259   14.6820    6.3914 H   0  0  0  0  0
   38.8184   16.4543    6.2458 H   0  0  0  0  0
   42.8196   15.6137    8.0681 H   0  0  0  0  0
   42.4490   18.6848   11.3656 H   0  0  0  0  0
   41.0876   19.7869   10.9023 H   0  0  0  0  0
   39.4139   16.9781   10.7685 H   0  0  0  0  0
   41.5616   19.8518   14.9140 H   0  0  0  0  0
   41.8177   20.3004   13.1810 H   0  0  0  0  0
   43.7344   19.5639   14.2171 H   0  0  0  0  0
   39.7399   20.1940    9.9310 H   0  0  0  0  0
   37.9112   19.7169    6.0788 H   0  0  0  0  0
   39.2292   17.6688    5.6909 H   0  0  0  0  0
   36.2860   20.6808    7.1648 H   0  0  0  0  0
   35.0856   22.5005    8.6891 H   0  0  0  0  0
   35.4036   22.9895    6.9909 H   0  0  0  0  0
   36.0346   24.5686    8.7893 H   0  0  0  0  0
   37.2104   24.2117    7.6448 H   0  0  0  0  0
   36.9499   22.9672   10.2569 H   0  0  0  0  0
   38.1110   24.3155    9.8022 H   0  0  0  0  0
   39.3674   22.8865    8.4713 H   0  0  0  0  0
   39.0379   21.9550    9.9580 H   0  0  0  0  0
   42.5898   18.3803    7.4862 H   0  0  0  0  0
   45.6564   17.3620    8.0507 H   0  0  0  0  0
   44.0881   16.6390    5.1532 H   0  0  0  0  0
  1 11  1  0  0  0
 12  1  1  0  0  0
  2  6  4  0  0  0
 13  2  1  0  0  0
  2 14  4  0  0  0
  3  4  4  0  0  0
 14  3  4  0  0  0
  5  4  4  0  0  0
  6  5  4  0  0  0
  6 15  1  0  0  0
  8  7  1  0  0  0
  8  9  2  0  0  0
 10  8  1  0  0  0
 11 10  1  0  0  0
 10 22  1  0  0  0
 11 29  1  0  0  0
 12 13  1  0  0  0
 12 17  1  0  0  0
 15 16  1  0  0  0
 17 18  4  0  0  0
 17 22  4  0  0  0
 18 19  4  0  0  0
 19 20  4  0  0  0
 19 23  1  0  0  0
 20 21  4  0  0  0
 21 22  4  0  0  0
 23 24  2  0  0  0
 23 28  1  0  0  0
 24 25  1  0  0  0
 25 26  1  0  0  0
 26 27  1  0  0  0
 27 28  1  0  0  0
 29 30  1  0  0  0
 29 31  1  0  0  0
 30 31  2  0  0  0
  1 32  1  0  0  0
  1 33  1  0  0  0
  3 34  1  0  0  0
  4 35  1  0  0  0
  5 36  1  0  0  0
  7 37  1  0  0  0
  7 38  1  0  0  0
  7 39  1  0  0  0
 11 40  1  0  0  0
 13 41  1  0  0  0
 13 42  1  0  0  0
 14 43  1  0  0  0
 15 44  1  0  0  0
 15 45  1  0  0  0
 16 46  1  0  0  0
 18 47  1  0  0  0
 20 48  1  0  0  0
 21 49  1  0  0  0
 24 50  1  0  0  0
 25 51  1  0  0  0
 25 52  1  0  0  0
 26 53  1  0  0  0
 26 54  1  0  0  0
 27 55  1  0  0  0
 27 56  1  0  0  0
 28 57  1  0  0  0
 28 58  1  0  0  0
 29 59  1  0  0  0
 30 60  1  0  0  0
 31 61  1  0  0  0
M  END
$$$$
