2vh6_ligand
  -I-interpret- 

 55 58  0  0  0  0  0  0  0  0999 V2000
    5.3980    1.7590   16.8250 C   0  0  0  0  0
    6.5130    1.6950   15.4480 S   0  0  0  0  0
    6.5460    3.0100   14.9000 O   0  0  0  0  0
    6.1050    0.6180   14.6100 O   0  0  0  0  0
    8.1430    1.1590   15.9910 C   0  0  0  0  0
    8.8370    0.2110   15.2000 C   0  0  0  0  0
   10.1150   -0.2600   15.5850 C   0  0  0  0  0
   10.7180    0.2140   16.7690 C   0  0  0  0  0
   10.0240    1.1540   17.5570 C   0  0  0  0  0
    8.7400    1.6320   17.1750 C   0  0  0  0  0
    8.0860    2.6280   18.0810 C   0  0  0  0  0
    8.1710    4.0080   17.8100 C   0  0  0  0  0
    7.5330    4.8890   18.6990 C   0  0  0  0  0
    7.6030    6.2140   18.4860 F   0  0  0  0  0
    7.3590    2.1550   19.2120 C   0  0  0  0  0
    6.7180    3.0380   20.0990 C   0  0  0  0  0
    6.8110    4.4280   19.8350 C   0  0  0  0  0
    6.1610    5.3220   20.7220 N   0  0  0  0  0
    6.7540    6.4400   21.2260 C   0  0  0  0  0
    7.9050    6.8070   21.0640 O   0  0  0  0  0
    4.7860    5.1480   21.1700 C   0  0  0  0  0
    4.3920    6.5800   21.5330 C   0  0  0  0  0
    5.7190    7.1900   22.0220 C   0  0  0  0  0
    5.8070    8.6150   21.7500 N   0  0  0  0  0
    6.3570    9.6930   22.8230 S   0  0  0  0  0
    6.4290   10.8720   22.0080 O   0  0  0  0  0
    5.5530    9.6540   23.9990 O   0  0  0  0  0
    7.9360    9.1700   23.3460 C   0  0  0  0  0
    8.0730    8.7070   24.7320 C   0  0  0  0  0
    9.3330    8.2030   25.3280 C   0  0  0  0  0
   10.8280    8.4590   24.5420 S   0  0  0  0  0
    9.4020    7.5390   26.5640 C   0  0  0  0  0
   10.7570    7.2180   26.8570 C   0  0  0  0  0
   11.6060    7.6650   25.8140 C   0  0  0  0  0
   13.3210    7.4580   25.7710 Cl  0  0  0  0  0
    5.7660    2.4792   17.5557 H   0  0  0  0  0
    4.4109    2.0640   16.4777 H   0  0  0  0  0
    5.3340    0.7730   17.2852 H   0  0  0  0  0
    8.3808   -0.1608   14.2825 H   0  0  0  0  0
   10.6345   -0.9907   14.9652 H   0  0  0  0  0
   11.7039   -0.1408   17.0693 H   0  0  0  0  0
   10.4797    1.5216   18.4764 H   0  0  0  0  0
    8.7132    4.3793   16.9404 H   0  0  0  0  0
    7.2984    1.0820   19.3939 H   0  0  0  0  0
    6.1669    2.6656   20.9625 H   0  0  0  0  0
    4.6854    4.4473   21.9988 H   0  0  0  0  0
    4.1385    4.6976   20.4176 H   0  0  0  0  0
    3.6040    6.6240   22.2849 H   0  0  0  0  0
    3.9599    7.1252   20.6939 H   0  0  0  0  0
    5.8378    7.0998   23.1017 H   0  0  0  0  0
    5.5065    8.9525   20.8356 H   0  0  0  0  0
    8.7898    9.1863   22.6686 H   0  0  0  0  0
    7.1873    8.7358   25.3666 H   0  0  0  0  0
    8.5487    7.3055   27.2008 H   0  0  0  0  0
   11.0940    6.7017   27.7559 H   0  0  0  0  0
  1  2  1  0  0  0
  2  3  2  0  0  0
  2  4  2  0  0  0
  2  5  1  0  0  0
  5  6  4  0  0  0
  5 10  4  0  0  0
  6  7  4  0  0  0
  7  8  4  0  0  0
  8  9  4  0  0  0
  9 10  4  0  0  0
 10 11  1  0  0  0
 11 12  4  0  0  0
 11 15  4  0  0  0
 12 13  4  0  0  0
 13 14  1  0  0  0
 13 17  4  0  0  0
 15 16  4  0  0  0
 16 17  4  0  0  0
 17 18  1  0  0  0
 18 19  1  0  0  0
 18 21  1  0  0  0
 19 20  2  0  0  0
 19 23  1  0  0  0
 21 22  1  0  0  0
 22 23  1  0  0  0
 23 24  1  0  0  0
 24 25  1  0  0  0
 25 26  2  0  0  0
 25 27  2  0  0  0
 25 28  1  0  0  0
 28 29  2  0  0  0
 29 30  1  0  0  0
 30 31  4  0  0  0
 30 32  4  0  0  0
 31 34  4  0  0  0
 32 33  4  0  0  0
 33 34  4  0  0  0
 34 35  1  0  0  0
  1 36  1  0  0  0
  1 37  1  0  0  0
  1 38  1  0  0  0
  6 39  1  0  0  0
  7 40  1  0  0  0
  8 41  1  0  0  0
  9 42  1  0  0  0
 12 43  1  0  0  0
 15 44  1  0  0  0
 16 45  1  0  0  0
 21 46  1  0  0  0
 21 47  1  0  0  0
 22 48  1  0  0  0
 22 49  1  0  0  0
 23 50  1  0  0  0
 24 51  1  0  0  0
 28 52  1  0  0  0
 29 53  1  0  0  0
 32 54  1  0  0  0
 33 55  1  0  0  0
M  END
$$$$
