6ce8_ligand
  -I-interpret- 

 20 21  0  0  0  0  0  0  0  0999 V2000
    2.4980    2.1950    7.9120 C   0  0  0  0  0
    1.0050    2.3470    7.8130 C   0  0  0  0  0
   -0.9420    3.2010    7.2240 C   0  0  0  0  0
   -1.8490    4.1030    6.6590 C   0  0  0  0  0
   -3.1990    3.9990    6.9750 C   0  0  0  0  0
   -3.6530    2.9890    7.8100 C   0  0  0  0  0
   -2.7640    2.0880    8.3810 C   0  0  0  0  0
   -1.4120    2.2030    8.0850 C   0  0  0  0  0
    2.8950    4.0530    9.3930 O   0  0  0  0  0
    3.1920    3.4650    8.3540 C   0  0  0  0  0
    4.1260    3.8770    7.5460 O   0  0  0  0  0
   -0.0690    1.3220    8.7390 S   0  0  0  0  0
    0.4410    3.2510    7.0800 N   0  0  0  0  0
    2.8727    1.9388    6.9210 H   0  0  0  0  0
    2.7054    1.4262    8.6564 H   0  0  0  0  0
   -1.5012    4.8796    5.9779 H   0  0  0  0  0
   -3.9070    4.7179    6.5627 H   0  0  0  0  0
   -4.7189    2.9015    8.0203 H   0  0  0  0  0
   -3.1209    1.3045    9.0495 H   0  0  0  0  0
    4.1922    3.2745    6.8016 H   0  0  0  0  0
  2  1  1  0  0  0
  1 10  1  0  0  0
  2 12  4  0  0  0
 13  2  4  0  0  0
  3  4  4  0  0  0
  3  8  4  0  0  0
  3 13  4  0  0  0
  4  5  4  0  0  0
  5  6  4  0  0  0
  6  7  4  0  0  0
  7  8  4  0  0  0
  8 12  4  0  0  0
 10  9  2  0  0  0
 10 11  1  0  0  0
  1 14  1  0  0  0
  1 15  1  0  0  0
  4 16  1  0  0  0
  5 17  1  0  0  0
  6 18  1  0  0  0
  7 19  1  0  0  0
 11 20  1  0  0  0
M  END
$$$$
