6n9t_ligand
  -I-interpret- 

218225  0  0  0  0  0  0  0  0999 V2000
  -24.6330  -15.9520  158.2290 N   0  3  0  0  0
  -26.0190  -16.2820  157.9150 C   0  0  0  0  0
  -26.5670  -15.3430  156.8400 C   0  0  0  0  0
  -26.0040  -15.2620  155.7490 O   0  0  0  0  0
  -26.8770  -16.2290  159.1820 C   0  0  0  0  0
  -26.6010  -14.9970  160.0220 C   0  0  0  0  0
  -27.5570  -14.4490  160.6120 O   0  0  0  0  0
  -25.4290  -14.5690  160.0770 O   0  0  0  0  0
  -27.6540  -14.6330  157.1430 N   0  0  0  0  0
  -28.2920  -13.7350  156.1900 C   0  0  0  0  0
  -28.1730  -12.2840  156.6400 C   0  0  0  0  0
  -28.1030  -11.9890  157.8360 O   0  0  0  0  0
  -29.7680  -14.0860  155.9990 C   0  0  0  0  0
  -30.0550  -15.7170  155.2710 S   0  0  0  0  0
  -28.1540  -11.3780  155.6640 N   0  0  0  0  0
  -28.1680   -9.9440  155.9140 C   0  0  0  0  0
  -29.3930   -9.3220  155.2570 C   0  0  0  0  0
  -29.7980   -9.7320  154.1640 O   0  0  0  0  0
  -26.8970   -9.2680  155.3930 C   0  0  0  0  0
  -29.9780   -8.3300  155.9300 N   0  0  0  0  0
  -31.1660   -7.6330  155.4520 C   0  0  0  0  0
  -30.9500   -6.1290  155.5390 C   0  0  0  0  0
  -30.4010   -5.6280  156.5240 O   0  0  0  0  0
  -32.4080   -8.0270  156.2660 C   0  0  0  0  0
  -32.6980   -9.4970  156.2620 C   0  0  0  0  0
  -32.0390  -10.4660  156.9640 C   0  0  0  0  0
  -33.7320  -10.1650  155.5300 C   0  0  0  0  0
  -32.5950  -11.6960  156.7090 N   0  0  0  0  0
  -33.6370  -11.5390  155.8330 C   0  0  0  0  0
  -34.7280   -9.7360  154.6460 C   0  0  0  0  0
  -34.4990  -12.4860  155.2820 C   0  0  0  0  0
  -35.5820  -10.6770  154.1010 C   0  0  0  0  0
  -35.4620  -12.0370  154.4210 C   0  0  0  0  0
  -31.3820   -5.4110  154.5050 N   0  0  0  0  0
  -31.2500   -3.9590  154.4450 C   0  0  0  0  0
  -32.6000   -3.3660  154.0770 C   0  0  0  0  0
  -33.1110   -3.6200  152.9810 O   0  0  0  0  0
  -30.1770   -3.5380  153.4330 C   0  0  0  0  0
  -30.1490   -2.0660  153.1490 C   0  0  0  0  0
  -30.5310   -1.5340  151.9360 N   0  0  0  0  0
  -29.7790   -1.0140  153.9190 C   0  0  0  0  0
  -30.3990   -0.2190  151.9710 C   0  0  0  0  0
  -29.9460    0.1210  153.1640 N   0  0  0  0  0
  -33.1800   -2.5950  155.0000 N   0  0  0  0  0
  -34.4940   -1.9750  154.8190 C   0  0  0  0  0
  -35.5810   -3.0060  154.5080 C   0  0  0  0  0
  -36.6720   -2.6510  154.0470 O   0  0  0  0  0
  -34.4550   -0.8990  153.7270 C   0  0  0  0  0
  -33.5140    0.2850  153.9570 C   0  0  0  0  0
  -33.5490    1.2370  152.7700 C   0  0  0  0  0
  -33.8690    1.0160  155.2440 C   0  0  0  0  0
  -35.3030   -4.2870  154.7580 N   0  0  0  0  0
  -36.2420   -5.3550  154.4950 C   0  0  0  0  0
  -35.9530   -6.1740  153.2540 C   0  0  0  0  0
  -36.6210   -7.1930  153.0400 O   0  0  0  0  0
  -34.9900   -5.7650  152.4320 N   0  0  0  0  0
  -34.6570   -6.4930  151.2140 C   0  0  0  0  0
  -33.6030   -7.5510  151.5180 C   0  0  0  0  0
  -32.5480   -7.2400  152.0800 O   0  0  0  0  0
  -34.1550   -5.5380  150.1260 C   0  0  0  0  0
  -33.6150   -6.2370  148.8740 C   0  0  0  0  0
  -33.2470   -5.2680  147.7540 C   0  0  0  0  0
  -33.5210   -5.5790  146.5750 O   0  0  0  0  0
  -32.6840   -4.1930  148.0490 O   0  0  0  0  0
  -33.8980   -8.7980  151.1560 N   0  0  0  0  0
  -32.9500   -9.8920  151.3340 C   0  0  0  0  0
  -31.6840   -9.6270  150.5350 C   0  0  0  0  0
  -31.7070   -9.5990  149.3040 O   0  0  0  0  0
  -33.5650  -11.2260  150.9080 C   0  0  0  0  0
  -32.6520  -12.4540  151.0100 C   0  0  0  0  0
  -32.2540  -12.7250  152.4560 C   0  0  0  0  0
  -33.3140  -13.6790  150.3960 C   0  0  0  0  0
  -30.5780   -9.4310  151.2410 N   0  0  0  0  0
  -28.6130  -10.3280  150.1410 C   0  0  0  0  0
  -28.4210  -10.5350  148.9230 O   0  0  0  0  0
  -29.3280   -9.0960  150.5970 C   0  0  0  0  0
  -28.4560   -8.2920  151.5560 C   0  0  0  0  0
  -28.5010   -6.8900  151.0090 C   0  0  0  0  0
  -27.3370   -6.2080  150.6690 C   0  0  0  0  0
  -29.7440   -6.2990  150.8380 C   0  0  0  0  0
  -27.4250   -4.9200  150.1520 C   0  0  0  0  0
  -29.8300   -5.0160  150.3230 C   0  0  0  0  0
  -28.6730   -4.3120  150.0090 C   0  0  0  0  0
  -28.8450   -2.9400  149.4220 C   0  0  0  0  0
  -30.2790   -2.5320  149.6240 O   0  0  0  0  0
  -27.9650   -1.8360  149.9660 C   0  0  0  0  0
  -27.3290   -1.9200  151.2020 C   0  0  0  0  0
  -27.8230   -0.6710  149.2170 C   0  0  0  0  0
  -26.5400   -0.8730  151.6690 C   0  0  0  0  0
  -27.0370    0.3800  149.6790 C   0  0  0  0  0
  -26.3940    0.2780  150.9070 C   0  0  0  0  0
  -28.2190  -11.1620  151.0930 N   0  0  0  0  0
  -27.4300  -12.3400  150.7830 C   0  0  0  0  0
  -27.4540  -13.3010  151.9570 C   0  0  0  0  0
  -27.7790  -12.9090  153.0760 O   0  0  0  0  0
  -25.9950  -11.9400  150.4530 C   0  0  0  0  0
  -25.2670  -12.9280  149.6140 C   0  0  0  0  0
  -24.4400  -13.9210  150.0490 C   0  0  0  0  0
  -25.2880  -13.0170  148.1860 C   0  0  0  0  0
  -23.9450  -14.6260  148.9790 N   0  0  0  0  0
  -24.4490  -14.0900  147.8230 C   0  0  0  0  0
  -25.9350  -12.2930  147.1780 C   0  0  0  0  0
  -24.2410  -14.4590  146.4930 C   0  0  0  0  0
  -25.7260  -12.6590  145.8600 C   0  0  0  0  0
  -24.8860  -13.7330  145.5300 C   0  0  0  0  0
  -27.1020  -14.5600  151.7110 N   0  0  0  0  0
  -27.0900  -15.5650  152.7620 C   0  0  0  0  0
  -25.9090  -16.5020  152.5660 C   0  0  0  0  0
  -25.6000  -16.8990  151.4410 O   0  0  0  0  0
  -28.3920  -16.3740  152.7850 C   0  0  0  0  0
  -29.9040  -15.4730  153.2150 S   0  0  0  0  0
  -25.2570  -16.8550  153.6670 N   0  0  0  0  0
  -24.1860  -17.8390  153.6520 C   0  0  0  0  0
  -24.6740  -19.1130  154.3330 C   0  0  0  0  0
  -24.4480  -19.3170  155.5280 O   0  0  0  0  0
  -22.9200  -17.3180  154.3600 C   0  0  0  0  0
  -23.2460  -16.9300  155.7000 O   0  0  0  0  0
  -22.3470  -16.1240  153.6120 C   0  0  0  0  0
  -25.3040  -19.9650  153.7020 O   0  0  0  0  0
  -24.0739  -15.9912  157.3768 H   0  0  0  0  0
  -24.5894  -15.0121  158.6227 H   0  0  0  0  0
  -24.2701  -16.6228  158.9063 H   0  0  0  0  0
  -26.0552  -17.2976  157.5208 H   0  0  0  0  0
  -26.6400  -17.1058  159.7846 H   0  0  0  0  0
  -27.9232  -16.2000  158.8776 H   0  0  0  0  0
  -28.3635  -14.9390  160.4358 H   0  0  0  0  0
  -28.0538  -14.7220  158.0771 H   0  0  0  0  0
  -27.7740  -13.8574  155.2388 H   0  0  0  0  0
  -30.1873  -13.3497  155.3133 H   0  0  0  0  0
  -30.2279  -14.0897  156.9872 H   0  0  0  0  0
  -28.1285  -11.7036  154.6977 H   0  0  0  0  0
  -28.2085   -9.7896  156.9922 H   0  0  0  0  0
  -26.0282   -9.6963  155.8928 H   0  0  0  0  0
  -26.8156   -9.4295  154.3181 H   0  0  0  0  0
  -26.9454   -8.1986  155.5984 H   0  0  0  0  0
  -29.5746   -8.0452  156.8225 H   0  0  0  0  0
  -31.3343   -7.9208  154.4142 H   0  0  0  0  0
  -33.2639   -7.5273  155.8123 H   0  0  0  0  0
  -32.2223   -7.7368  157.3001 H   0  0  0  0  0
  -31.1944  -10.2889  157.6299 H   0  0  0  0  0
  -34.8287   -8.6808  154.3920 H   0  0  0  0  0
  -34.4089  -13.5440  155.5281 H   0  0  0  0  0
  -36.3621  -10.3561  153.4106 H   0  0  0  0  0
  -36.1518  -12.7524  153.9734 H   0  0  0  0  0
  -31.8231   -5.8951  153.7230 H   0  0  0  0  0
  -30.9341   -3.5852  155.4189 H   0  0  0  0  0
  -30.4024   -4.0438  152.4941 H   0  0  0  0  0
  -29.2094   -3.8031  153.8592 H   0  0  0  0  0
  -29.4165   -1.0601  154.9459 H   0  0  0  0  0
  -30.6253    0.4671  151.1549 H   0  0  0  0  0
  -32.6827   -2.4296  155.8751 H   0  0  0  0  0
  -34.7484   -1.5012  155.7671 H   0  0  0  0  0
  -35.4598   -0.4785  153.6857 H   0  0  0  0  0
  -34.0930   -1.3983  152.8283 H   0  0  0  0  0
  -32.4995   -0.1013  154.0556 H   0  0  0  0  0
  -33.2359    0.7063  151.8709 H   0  0  0  0  0
  -34.5635    1.6127  152.6370 H   0  0  0  0  0
  -32.8726    2.0714  152.9551 H   0  0  0  0  0
  -34.8919    1.3869  155.1794 H   0  0  0  0  0
  -33.7827    0.3293  156.0860 H   0  0  0  0  0
  -33.1857    1.8535  155.3850 H   0  0  0  0  0
  -34.3914   -4.5224  155.1504 H   0  0  0  0  0
  -37.2146   -4.8871  154.3426 H   0  0  0  0  0
  -36.1851   -6.0385  155.3422 H   0  0  0  0  0
  -34.4700   -4.9179  152.6607 H   0  0  0  0  0
  -35.5583   -6.9814  150.8435 H   0  0  0  0  0
  -33.3315   -4.9672  150.5551 H   0  0  0  0  0
  -35.0055   -4.9322  149.8135 H   0  0  0  0  0
  -34.4003   -6.8927  148.4979 H   0  0  0  0  0
  -32.7084   -6.7706  149.1594 H   0  0  0  0  0
  -33.9484   -6.4385  146.5631 H   0  0  0  0  0
  -34.8103   -8.9931  150.7437 H   0  0  0  0  0
  -32.6991   -9.9517  152.3931 H   0  0  0  0  0
  -33.8190  -11.1217  149.8532 H   0  0  0  0  0
  -34.3982  -11.4083  151.5867 H   0  0  0  0  0
  -31.7448  -12.2393  150.4453 H   0  0  0  0  0
  -31.7216  -11.8607  152.8530 H   0  0  0  0  0
  -33.1497  -12.9061  153.0502 H   0  0  0  0  0
  -31.6071  -13.6014  152.4953 H   0  0  0  0  0
  -34.2445  -13.8900  150.9229 H   0  0  0  0  0
  -33.5261  -13.4870  149.3442 H   0  0  0  0  0
  -32.6439  -14.5343  150.4826 H   0  0  0  0  0
  -30.6103   -9.5183  152.2567 H   0  0  0  0  0
  -29.5399   -8.4907  149.7156 H   0  0  0  0  0
  -27.4388   -8.6798  151.6104 H   0  0  0  0  0
  -28.8175   -8.3446  152.5830 H   0  0  0  0  0
  -26.3639   -6.6794  150.8067 H   0  0  0  0  0
  -30.6498   -6.8421  151.1078 H   0  0  0  0  0
  -26.5209   -4.3863  149.8590 H   0  0  0  0  0
  -30.8061   -4.5577  150.1637 H   0  0  0  0  0
  -28.5423   -3.0431  148.3800 H   0  0  0  0  0
  -30.4160   -1.6558  149.2565 H   0  0  0  0  0
  -27.4505   -2.8160  151.8107 H   0  0  0  0  0
  -28.3333   -0.5813  148.2580 H   0  0  0  0  0
  -26.0371   -0.9567  152.6324 H   0  0  0  0  0
  -26.9256    1.2827  149.0783 H   0  0  0  0  0
  -25.7768    1.0995  151.2706 H   0  0  0  0  0
  -28.4752  -10.9722  152.0619 H   0  0  0  0  0
  -27.8598  -12.8369  149.9132 H   0  0  0  0  0
  -25.4570  -11.8607  151.3977 H   0  0  0  0  0
  -26.0416  -11.0092  149.8877 H   0  0  0  0  0
  -24.2058  -14.1256  151.0937 H   0  0  0  0  0
  -26.5901  -11.4579  147.4261 H   0  0  0  0  0
  -23.5899  -15.2933  146.2321 H   0  0  0  0  0
  -26.2226  -12.1033  145.0646 H   0  0  0  0  0
  -24.7441  -13.9950  144.4815 H   0  0  0  0  0
  -26.8344  -14.8266  150.7635 H   0  0  0  0  0
  -26.9979  -15.0479  153.7171 H   0  0  0  0  0
  -28.2622  -17.1291  153.5603 H   0  0  0  0  0
  -28.5380  -16.7362  151.7673 H   0  0  0  0  0
  -25.5157  -16.4216  154.5534 H   0  0  0  0  0
  -23.9200  -18.0417  152.6146 H   0  0  0  0  0
  -22.1750  -18.1135  154.3775 H   0  0  0  0  0
  -22.4563  -16.6059  156.1392 H   0  0  0  0  0
  -22.0885  -16.4232  152.5962 H   0  0  0  0  0
  -23.0896  -15.3268  153.5795 H   0  0  0  0  0
  -21.4537  -15.7694  154.1261 H   0  0  0  0  0
  -25.4057  -19.6773  152.7918 H   0  0  0  0  0
  2  1  1  0  0  0
  3  2  1  0  0  0
  2  5  1  0  0  0
  3  4  2  0  0  0
  9  3  1  0  0  0
  5  6  1  0  0  0
  6  7  1  0  0  0
  6  8  2  0  0  0
 10  9  1  0  0  0
 11 10  1  0  0  0
 10 13  1  0  0  0
 11 12  2  0  0  0
 15 11  1  0  0  0
 13 14  1  0  0  0
 14111  1  0  0  0
 16 15  1  0  0  0
 17 16  1  0  0  0
 16 19  1  0  0  0
 17 18  2  0  0  0
 20 17  1  0  0  0
 21 20  1  0  0  0
 22 21  1  0  0  0
 21 24  1  0  0  0
 22 23  2  0  0  0
 34 22  1  0  0  0
 24 25  1  0  0  0
 25 26  4  0  0  0
 25 27  4  0  0  0
 26 28  4  0  0  0
 27 29  4  0  0  0
 27 30  4  0  0  0
 29 28  4  0  0  0
 29 31  4  0  0  0
 30 32  4  0  0  0
 31 33  4  0  0  0
 32 33  4  0  0  0
 35 34  1  0  0  0
 36 35  1  0  0  0
 35 38  1  0  0  0
 36 37  2  0  0  0
 44 36  1  0  0  0
 38 39  1  0  0  0
 39 40  4  0  0  0
 39 41  4  0  0  0
 40 42  4  0  0  0
 41 43  4  0  0  0
 43 42  4  0  0  0
 45 44  1  0  0  0
 46 45  1  0  0  0
 45 48  1  0  0  0
 46 47  2  0  0  0
 52 46  1  0  0  0
 48 49  1  0  0  0
 49 50  1  0  0  0
 49 51  1  0  0  0
 53 52  1  0  0  0
 54 53  1  0  0  0
 54 55  2  0  0  0
 56 54  1  0  0  0
 57 56  1  0  0  0
 58 57  1  0  0  0
 57 60  1  0  0  0
 58 59  2  0  0  0
 65 58  1  0  0  0
 60 61  1  0  0  0
 61 62  1  0  0  0
 62 63  1  0  0  0
 62 64  2  0  0  0
 66 65  1  0  0  0
 67 66  1  0  0  0
 66 69  1  0  0  0
 67 68  2  0  0  0
 73 67  1  0  0  0
 69 70  1  0  0  0
 70 71  1  0  0  0
 70 72  1  0  0  0
 76 73  1  0  0  0
 74 75  2  0  0  0
 74 76  1  0  0  0
 74 92  1  0  0  0
 76 77  1  0  0  0
 77 78  1  0  0  0
 78 79  4  0  0  0
 78 80  4  0  0  0
 79 81  4  0  0  0
 80 82  4  0  0  0
 81 83  4  0  0  0
 82 83  4  0  0  0
 83 84  1  0  0  0
 84 85  1  0  0  0
 84 86  1  0  0  0
 86 87  4  0  0  0
 86 88  4  0  0  0
 87 89  4  0  0  0
 88 90  4  0  0  0
 89 91  4  0  0  0
 90 91  4  0  0  0
 92 93  1  0  0  0
 93 94  1  0  0  0
 93 96  1  0  0  0
 94 95  2  0  0  0
 94106  1  0  0  0
 96 97  1  0  0  0
 97 98  4  0  0  0
 97 99  4  0  0  0
 98100  4  0  0  0
 99101  4  0  0  0
 99102  4  0  0  0
100101  4  0  0  0
101103  4  0  0  0
102104  4  0  0  0
103105  4  0  0  0
104105  4  0  0  0
106107  1  0  0  0
107108  1  0  0  0
107110  1  0  0  0
108109  2  0  0  0
108112  1  0  0  0
110111  1  0  0  0
112113  1  0  0  0
113114  1  0  0  0
113116  1  0  0  0
114115  2  0  0  0
114119  1  0  0  0
116117  1  0  0  0
116118  1  0  0  0
  1120  1  0  0  0
  1121  1  0  0  0
  1122  1  0  0  0
  2123  1  0  0  0
  5124  1  0  0  0
  5125  1  0  0  0
  7126  1  0  0  0
  9127  1  0  0  0
 10128  1  0  0  0
 13129  1  0  0  0
 13130  1  0  0  0
 15131  1  0  0  0
 16132  1  0  0  0
 19133  1  0  0  0
 19134  1  0  0  0
 19135  1  0  0  0
 20136  1  0  0  0
 21137  1  0  0  0
 24138  1  0  0  0
 24139  1  0  0  0
 26140  1  0  0  0
 30141  1  0  0  0
 31142  1  0  0  0
 32143  1  0  0  0
 33144  1  0  0  0
 34145  1  0  0  0
 35146  1  0  0  0
 38147  1  0  0  0
 38148  1  0  0  0
 41149  1  0  0  0
 42150  1  0  0  0
 44151  1  0  0  0
 45152  1  0  0  0
 48153  1  0  0  0
 48154  1  0  0  0
 49155  1  0  0  0
 50156  1  0  0  0
 50157  1  0  0  0
 50158  1  0  0  0
 51159  1  0  0  0
 51160  1  0  0  0
 51161  1  0  0  0
 52162  1  0  0  0
 53163  1  0  0  0
 53164  1  0  0  0
 56165  1  0  0  0
 57166  1  0  0  0
 60167  1  0  0  0
 60168  1  0  0  0
 61169  1  0  0  0
 61170  1  0  0  0
 63171  1  0  0  0
 65172  1  0  0  0
 66173  1  0  0  0
 69174  1  0  0  0
 69175  1  0  0  0
 70176  1  0  0  0
 71177  1  0  0  0
 71178  1  0  0  0
 71179  1  0  0  0
 72180  1  0  0  0
 72181  1  0  0  0
 72182  1  0  0  0
 73183  1  0  0  0
 76184  1  0  0  0
 77185  1  0  0  0
 77186  1  0  0  0
 79187  1  0  0  0
 80188  1  0  0  0
 81189  1  0  0  0
 82190  1  0  0  0
 84191  1  0  0  0
 85192  1  0  0  0
 87193  1  0  0  0
 88194  1  0  0  0
 89195  1  0  0  0
 90196  1  0  0  0
 91197  1  0  0  0
 92198  1  0  0  0
 93199  1  0  0  0
 96200  1  0  0  0
 96201  1  0  0  0
 98202  1  0  0  0
102203  1  0  0  0
103204  1  0  0  0
104205  1  0  0  0
105206  1  0  0  0
106207  1  0  0  0
107208  1  0  0  0
110209  1  0  0  0
110210  1  0  0  0
112211  1  0  0  0
113212  1  0  0  0
116213  1  0  0  0
117214  1  0  0  0
118215  1  0  0  0
118216  1  0  0  0
118217  1  0  0  0
119218  1  0  0  0
M  END
$$$$
