### 
### Created by X-TOOL on Mon Aug  2 16:10:01 2021
### 

@<TRIPOS>MOLECULE
6n9t_ligand
  218   225     1     0     0
SMALL
GAST_HUCK


@<TRIPOS>ATOM
      1 N         -24.6330  -15.9520  158.2290 N.4       1 ASP         0.2391
      2 CA        -26.0190  -16.2820  157.9150 C.3       1 ASP         0.0764
      3 C         -26.5670  -15.3430  156.8400 C.2       1 ASP         0.2284
      4 O         -26.0040  -15.2620  155.7490 O.2       1 ASP        -0.3906
      5 CB        -26.8770  -16.2290  159.1820 C.3       1 ASP         0.0607
      6 CG        -26.6010  -14.9970  160.0220 C.2       1 ASP         0.0425
      7 OD1       -27.5570  -14.4490  160.6120 O.co2     1 ASP        -0.5686
      8 OD2       -25.4290  -14.5690  160.0770 O.co2     1 ASP        -0.5686
      9 N         -27.6540  -14.6330  157.1430 N.am      1 ASP        -0.2601
     10 CA        -28.2920  -13.7350  156.1900 C.3       1 ASP         0.1408
     11 C         -28.1730  -12.2840  156.6400 C.2       1 ASP         0.2047
     12 O         -28.1030  -11.9890  157.8360 O.2       1 ASP        -0.3944
     13 CB        -29.7680  -14.0860  155.9990 C.3       1 ASP         0.0443
     14 SG        -30.0550  -15.7170  155.2710 S.3       1 ASP        -0.0882
     15 N         -28.1540  -11.3780  155.6640 N.am      1 ASP        -0.2640
     16 CA        -28.1680   -9.9440  155.9140 C.3       1 ASP         0.1282
     17 C         -29.3930   -9.3220  155.2570 C.2       1 ASP         0.2037
     18 O         -29.7980   -9.7320  154.1640 O.2       1 ASP        -0.3944
     19 CB        -26.8970   -9.2680  155.3930 C.3       1 ASP        -0.0244
     20 N         -29.9780   -8.3300  155.9300 N.am      1 ASP        -0.2627
     21 CA        -31.1660   -7.6330  155.4520 C.3       1 ASP         0.1352
     22 C         -30.9500   -6.1290  155.5390 C.2       1 ASP         0.2053
     23 O         -30.4010   -5.6280  156.5240 O.2       1 ASP        -0.3942
     24 CB        -32.4080   -8.0270  156.2660 C.3       1 ASP         0.0042
     25 CG        -32.6980   -9.4970  156.2620 C.2       1 ASP        -0.0418
     26 CD1       -32.0390  -10.4660  156.9640 C.2       1 ASP         0.0167
     27 CD2       -33.7320  -10.1650  155.5300 C.ar      1 ASP        -0.0214
     28 NE1       -32.5950  -11.6960  156.7090 N.pl3     1 ASP        -0.2890
     29 CE2       -33.6370  -11.5390  155.8330 C.ar      1 ASP         0.0603
     30 CE3       -34.7280   -9.7360  154.6460 C.ar      1 ASP        -0.0747
     31 CZ2       -34.4990  -12.4860  155.2820 C.ar      1 ASP        -0.0443
     32 CZ3       -35.5820  -10.6770  154.1010 C.ar      1 ASP        -0.0792
     33 CH2       -35.4620  -12.0370  154.4210 C.ar      1 ASP        -0.0768
     34 N         -31.3820   -5.4110  154.5050 N.am      1 ASP        -0.2624
     35 CA        -31.2500   -3.9590  154.4450 C.3       1 ASP         0.1369
     36 C         -32.6000   -3.3660  154.0770 C.2       1 ASP         0.2054
     37 O         -33.1110   -3.6200  152.9810 O.2       1 ASP        -0.3942
     38 CB        -30.1770   -3.5380  153.4330 C.3       1 ASP         0.0145
     39 CG        -30.1490   -2.0660  153.1490 C.2       1 ASP        -0.0027
     40 ND1       -30.5310   -1.5340  151.9360 N.2       1 ASP        -0.3252
     41 CD2       -29.7790   -1.0140  153.9190 C.2       1 ASP         0.0291
     42 CE1       -30.3990   -0.2190  151.9710 C.2       1 ASP         0.0907
     43 NE2       -29.9460    0.1210  153.1640 N.pl3     1 ASP        -0.2752
     44 N         -33.1800   -2.5950  155.0000 N.am      1 ASP        -0.2636
     45 CA        -34.4940   -1.9750  154.8190 C.3       1 ASP         0.1312
     46 C         -35.5810   -3.0060  154.5080 C.2       1 ASP         0.2037
     47 O         -36.6720   -2.6510  154.0470 O.2       1 ASP        -0.3944
     48 CB        -34.4550   -0.8990  153.7270 C.3       1 ASP        -0.0101
     49 CG        -33.5140    0.2850  153.9570 C.3       1 ASP        -0.0425
     50 CD1       -33.5490    1.2370  152.7700 C.3       1 ASP        -0.0625
     51 CD2       -33.8690    1.0160  155.2440 C.3       1 ASP        -0.0625
     52 N         -35.3030   -4.2870  154.7580 N.am      1 ASP        -0.2664
     53 CA        -36.2420   -5.3550  154.4950 C.3       1 ASP         0.1201
     54 C         -35.9530   -6.1740  153.2540 C.2       1 ASP         0.2007
     55 O         -36.6210   -7.1930  153.0400 O.2       1 ASP        -0.3947
     56 N         -34.9900   -5.7650  152.4320 N.am      1 ASP        -0.2639
     57 CA        -34.6570   -6.4930  151.2140 C.3       1 ASP         0.1324
     58 C         -33.6030   -7.5510  151.5180 C.2       1 ASP         0.2040
     59 O         -32.5480   -7.2400  152.0800 O.2       1 ASP        -0.3944
     60 CB        -34.1550   -5.5380  150.1260 C.3       1 ASP        -0.0008
     61 CG        -33.6150   -6.2370  148.8740 C.3       1 ASP         0.0044
     62 CD        -33.2470   -5.2680  147.7540 C.2       1 ASP         0.0350
     63 OE1       -33.5210   -5.5790  146.5750 O.co2     1 ASP        -0.5690
     64 OE2       -32.6840   -4.1930  148.0490 O.co2     1 ASP        -0.5690
     65 N         -33.8980   -8.7980  151.1560 N.am      1 ASP        -0.2637
     66 CA        -32.9500   -9.8920  151.3340 C.3       1 ASP         0.1312
     67 C         -31.6840   -9.6270  150.5350 C.2       1 ASP         0.2040
     68 O         -31.7070   -9.5990  149.3040 O.2       1 ASP        -0.3944
     69 CB        -33.5650  -11.2260  150.9080 C.3       1 ASP        -0.0101
     70 CG        -32.6520  -12.4540  151.0100 C.3       1 ASP        -0.0425
     71 CD1       -32.2540  -12.7250  152.4560 C.3       1 ASP        -0.0625
     72 CD2       -33.3140  -13.6790  150.3960 C.3       1 ASP        -0.0625
     73 N         -30.5780   -9.4310  151.2410 N.am      1 ASP        -0.2620
     74 C         -28.6130  -10.3280  150.1410 C.2       1 ASP         0.2059
     75 O         -28.4210  -10.5350  148.9230 O.2       1 ASP        -0.3942
     76 CA        -29.3280   -9.0960  150.5970 C.3       1 ASP         0.1396
     77 CB        -28.4560   -8.2920  151.5560 C.3       1 ASP         0.0184
     78 CG        -28.5010   -6.8900  151.0090 C.ar      1 ASP        -0.0450
     79 CD1       -27.3370   -6.2080  150.6690 C.ar      1 ASP        -0.0661
     80 CD2       -29.7440   -6.2990  150.8380 C.ar      1 ASP        -0.0661
     81 CE1       -27.4250   -4.9200  150.1520 C.ar      1 ASP        -0.0623
     82 CE2       -29.8300   -5.0160  150.3230 C.ar      1 ASP        -0.0623
     83 CZ        -28.6730   -4.3120  150.0090 C.ar      1 ASP        -0.0101
     84 CN1       -28.8450   -2.9400  149.4220 C.3       1 ASP         0.1193
     85 ON2       -30.2790   -2.5320  149.6240 O.3       1 ASP        -0.3681
     86 CT        -27.9650   -1.8360  149.9660 C.ar      1 ASP        -0.0046
     87 CI1       -27.3290   -1.9200  151.2020 C.ar      1 ASP        -0.0561
     88 CI2       -27.8230   -0.6710  149.2170 C.ar      1 ASP        -0.0561
     89 CK1       -26.5400   -0.8730  151.6690 C.ar      1 ASP        -0.0682
     90 CK2       -27.0370    0.3800  149.6790 C.ar      1 ASP        -0.0682
     91 CL        -26.3940    0.2780  150.9070 C.ar      1 ASP        -0.0685
     92 N         -28.2190  -11.1620  151.0930 N.am      1 ASP        -0.2625
     93 CA        -27.4300  -12.3400  150.7830 C.3       1 ASP         0.1352
     94 C         -27.4540  -13.3010  151.9570 C.2       1 ASP         0.2052
     95 O         -27.7790  -12.9090  153.0760 O.2       1 ASP        -0.3942
     96 CB        -25.9950  -11.9400  150.4530 C.3       1 ASP         0.0042
     97 CG        -25.2670  -12.9280  149.6140 C.2       1 ASP        -0.0418
     98 CD1       -24.4400  -13.9210  150.0490 C.2       1 ASP         0.0167
     99 CD2       -25.2880  -13.0170  148.1860 C.ar      1 ASP        -0.0214
    100 NE1       -23.9450  -14.6260  148.9790 N.pl3     1 ASP        -0.2890
    101 CE2       -24.4490  -14.0900  147.8230 C.ar      1 ASP         0.0603
    102 CE3       -25.9350  -12.2930  147.1780 C.ar      1 ASP        -0.0747
    103 CZ2       -24.2410  -14.4590  146.4930 C.ar      1 ASP        -0.0443
    104 CZ3       -25.7260  -12.6590  145.8600 C.ar      1 ASP        -0.0792
    105 CH2       -24.8860  -13.7330  145.5300 C.ar      1 ASP        -0.0768
    106 N         -27.1020  -14.5600  151.7110 N.am      1 ASP        -0.2628
    107 CA        -27.0900  -15.5650  152.7620 C.3       1 ASP         0.1406
    108 C         -25.9090  -16.5020  152.5660 C.2       1 ASP         0.2043
    109 O         -25.6000  -16.8990  151.4410 O.2       1 ASP        -0.3944
    110 CB        -28.3920  -16.3740  152.7850 C.3       1 ASP         0.0443
    111 SG        -29.9040  -15.4730  153.2150 S.3       1 ASP        -0.0882
    112 N         -25.2570  -16.8550  153.6670 N.am      1 ASP        -0.2669
    113 CA        -24.1860  -17.8390  153.6520 C.3       1 ASP         0.1198
    114 C         -24.6740  -19.1130  154.3330 C.2       1 ASP         0.0626
    115 O         -24.4480  -19.3170  155.5280 O.co2     1 ASP        -0.5665
    116 CB        -22.9200  -17.3180  154.3600 C.3       1 ASP         0.0869
    117 OG1       -23.2460  -16.9300  155.7000 O.3       1 ASP        -0.3880
    118 CG2       -22.3470  -16.1240  153.6120 C.3       1 ASP        -0.0352
    119 OXT       -25.3040  -19.9650  153.7020 O.co2     1 ASP        -0.5665
    120 H1        -24.2903  -16.5809  158.9383 H         1 ASP         0.2016
    121 H2        -24.5817  -15.0039  158.5674 H         1 ASP         0.2016
    122 H3        -24.0694  -16.0433  157.3983 H         1 ASP         0.2016
    123 H4        -26.0494  -17.3087  157.5214 H         1 ASP         0.1117
    124 H5        -26.6665  -17.1227  159.7877 H         1 ASP         0.0512
    125 H6        -27.9374  -16.2256  158.8895 H         1 ASP         0.0512
    126 H7        -28.0460  -14.7202  158.0588 H         1 ASP         0.1885
    127 H8        -27.7802  -13.8435  155.2224 H         1 ASP         0.0808
    128 H9        -30.2198  -13.3300  155.3400 H         1 ASP         0.0432
    129 H10       -30.2597  -14.0561  156.9825 H         1 ASP         0.0432
    130 H11       -28.1290  -11.6972  154.7167 H         1 ASP         0.1883
    131 H12       -28.2274   -9.7807  157.0002 H         1 ASP         0.0797
    132 H13       -26.9447   -8.1887  155.5997 H         1 ASP         0.0277
    133 H14       -26.8137   -9.4302  154.3082 H         1 ASP         0.0277
    134 H15       -26.0194   -9.6994  155.8967 H         1 ASP         0.0277
    135 H16       -29.5825   -8.0508  156.8050 H         1 ASP         0.1884
    136 H17       -31.3344   -7.9081  154.4004 H         1 ASP         0.0815
    137 H18       -33.2782   -7.5017  155.8455 H         1 ASP         0.0397
    138 H19       -32.2548   -7.7075  157.3074 H         1 ASP         0.0397
    139 H20       -31.1952  -10.2891  157.6293 H         1 ASP         0.0795
    140 H21       -32.2800  -12.5906  157.1108 H         1 ASP         0.2216
    141 H22       -34.8282   -8.6866  154.3934 H         1 ASP         0.0540
    142 H23       -34.4094  -13.5382  155.5267 H         1 ASP         0.0541
    143 H24       -36.3578  -10.3579  153.4144 H         1 ASP         0.0510
    144 H25       -36.1481  -12.7485  153.9758 H         1 ASP         0.0530
    145 H26       -31.8144   -5.8857  153.7384 H         1 ASP         0.1885
    146 H27       -30.9555   -3.5878  155.4377 H         1 ASP         0.0817
    147 H28       -30.3657   -4.0688  152.4882 H         1 ASP         0.0420
    148 H29       -29.1939   -3.8324  153.8290 H         1 ASP         0.0420
    149 H30       -29.4168   -1.0600  154.9450 H         1 ASP         0.0729
    150 H31       -30.6251    0.4665  151.1556 H         1 ASP         0.1199
    151 H32       -29.7496    1.0822  153.4776 H         1 ASP         0.2361
    152 H33       -32.6925   -2.4329  155.8579 H         1 ASP         0.1883
    153 H34       -34.7609   -1.4841  155.7665 H         1 ASP         0.0800
    154 H35       -35.4736   -0.4980  153.6187 H         1 ASP         0.0315
    155 H36       -34.1516   -1.3876  152.7894 H         1 ASP         0.0315
    156 H37       -32.4899   -0.1044  154.0551 H         1 ASP         0.0298
    157 H38       -32.8667    2.0796  152.9556 H         1 ASP         0.0232
    158 H39       -34.5724    1.6169  152.6347 H         1 ASP         0.0232
    159 H40       -33.2331    0.7026  151.8619 H         1 ASP         0.0232
    160 H41       -33.8376    0.3102  156.0871 H         1 ASP         0.0232
    161 H42       -34.8805    1.4397  155.1580 H         1 ASP         0.0232
    162 H43       -33.1455    1.8263  155.4170 H         1 ASP         0.0232
    163 H44       -34.4093   -4.5178  155.1427 H         1 ASP         0.1881
    164 H45       -37.2419   -4.9100  154.3843 H         1 ASP         0.0763
    165 H46       -36.2366   -6.0342  155.3603 H         1 ASP         0.0763
    166 H47       -34.4802   -4.9345  152.6563 H         1 ASP         0.1883
    167 H48       -35.5642   -6.9945  150.8460 H         1 ASP         0.0801
    168 H49       -33.3485   -4.9234  150.5523 H         1 ASP         0.0330
    169 H50       -34.9905   -4.8890  149.8249 H         1 ASP         0.0330
    170 H51       -34.3853   -6.9272  148.4996 H         1 ASP         0.0433
    171 H52       -32.7161   -6.8067  149.1523 H         1 ASP         0.0433
    172 H53       -34.7924   -8.9893  150.7517 H         1 ASP         0.1883
    173 H54       -32.6866   -9.9539  152.4002 H         1 ASP         0.0800
    174 H55       -33.8826  -11.1298  149.8593 H         1 ASP         0.0315
    175 H56       -34.4449  -11.4081  151.5424 H         1 ASP         0.0315
    176 H57       -31.7354  -12.2419  150.4401 H         1 ASP         0.0298
    177 H58       -31.6010  -13.6093  152.4970 H         1 ASP         0.0232
    178 H59       -33.1571  -12.9080  153.0568 H         1 ASP         0.0232
    179 H60       -31.7165  -11.8535  152.8579 H         1 ASP         0.0232
    180 H61       -33.5926  -13.4618  149.3543 H         1 ASP         0.0232
    181 H62       -34.2161  -13.9352  150.9710 H         1 ASP         0.0232
    182 H63       -32.6118  -14.5254  150.4188 H         1 ASP         0.0232
    183 H64       -30.6097   -9.5166  152.2368 H         1 ASP         0.1885
    184 H65       -29.5444   -8.4751  149.7152 H         1 ASP         0.0822
    185 H66       -27.4252   -8.6759  151.5610 H         1 ASP         0.0461
    186 H67       -28.8649   -8.3258  152.5766 H         1 ASP         0.0461
    187 H68       -26.3693   -6.6768  150.8060 H         1 ASP         0.0540
    188 H69       -30.6448   -6.8391  151.1064 H         1 ASP         0.0540
    189 H70       -26.5259   -4.3893  149.8606 H         1 ASP         0.0545
    190 H71       -30.8007   -4.5603  150.1646 H         1 ASP         0.0545
    191 H72       -28.6403   -3.0181  148.3441 H         1 ASP         0.0905
    192 H73       -30.4761   -2.5213  150.5532 H         1 ASP         0.2159
    193 H74       -27.4499   -2.8111  151.8073 H         1 ASP         0.0561
    194 H75       -28.3305   -0.5818  148.2633 H         1 ASP         0.0561
    195 H76       -26.0398   -0.9563  152.6271 H         1 ASP         0.0600
    196 H77       -26.9262    1.2777  149.0816 H         1 ASP         0.0600
    197 H78       -25.7802    1.0950  151.2686 H         1 ASP         0.0560
    198 H79       -28.4702  -10.9759  152.0429 H         1 ASP         0.1884
    199 H80       -27.8678  -12.8402  149.9066 H         1 ASP         0.0815
    200 H81       -25.4448  -11.8170  151.3975 H         1 ASP         0.0397
    201 H82       -26.0188  -10.9809  149.9149 H         1 ASP         0.0397
    202 H83       -24.2060  -14.1254  151.0927 H         1 ASP         0.0795
    203 H84       -23.3001  -15.4270  149.0363 H         1 ASP         0.2216
    204 H85       -26.5865  -11.4625  147.4247 H         1 ASP         0.0540
    205 H86       -23.5934  -15.2887  146.2335 H         1 ASP         0.0541
    206 H87       -26.2198  -12.1063  145.0689 H         1 ASP         0.0510
    207 H88       -24.7448  -13.9936  144.4873 H         1 ASP         0.0530
    208 H89       -26.8396  -14.8213  150.7821 H         1 ASP         0.1884
    209 H90       -26.9805  -15.0542  153.7300 H         1 ASP         0.0808
    210 H91       -28.2675  -17.1847  153.5180 H         1 ASP         0.0432
    211 H92       -28.5345  -16.8045  151.7828 H         1 ASP         0.0432
    212 H93       -25.5107  -16.4301  154.5360 H         1 ASP         0.1876
    213 H94       -23.9317  -18.0661  152.6062 H         1 ASP         0.0752
    214 H95       -22.1677  -18.1200  154.3873 H         1 ASP         0.0632
    215 H96       -23.5866  -17.6809  156.1720 H         1 ASP         0.2100
    216 H97       -21.4453  -15.7652  154.1299 H         1 ASP         0.0256
    217 H98       -23.0955  -15.3186  153.5785 H         1 ASP         0.0256
    218 H99       -22.0857  -16.4246  152.5867 H         1 ASP         0.0256
@<TRIPOS>BOND
     1    2    1 1  
     2    3    2 1  
     3    2    5 1  
     4    3    4 2  
     5    9    3 am 
     6    5    6 1  
     7    6    7 ar 
     8    6    8 ar 
     9   10    9 1  
    10   11   10 1  
    11   10   13 1  
    12   11   12 2  
    13   15   11 am 
    14   13   14 1  
    15   14  111 1  
    16   16   15 1  
    17   17   16 1  
    18   16   19 1  
    19   17   18 2  
    20   20   17 am 
    21   21   20 1  
    22   22   21 1  
    23   21   24 1  
    24   22   23 2  
    25   34   22 am 
    26   24   25 1  
    27   25   26 2  
    28   25   27 1  
    29   26   28 1  
    30   27   29 ar 
    31   27   30 ar 
    32   29   28 1  
    33   29   31 ar 
    34   30   32 ar 
    35   31   33 ar 
    36   32   33 ar 
    37   35   34 1  
    38   36   35 1  
    39   35   38 1  
    40   36   37 2  
    41   44   36 am 
    42   38   39 1  
    43   39   40 1  
    44   39   41 2  
    45   40   42 2  
    46   41   43 1  
    47   43   42 1  
    48   45   44 1  
    49   46   45 1  
    50   45   48 1  
    51   46   47 2  
    52   52   46 am 
    53   48   49 1  
    54   49   50 1  
    55   49   51 1  
    56   53   52 1  
    57   54   53 1  
    58   54   55 2  
    59   56   54 am 
    60   57   56 1  
    61   58   57 1  
    62   57   60 1  
    63   58   59 2  
    64   65   58 am 
    65   60   61 1  
    66   61   62 1  
    67   62   63 ar 
    68   62   64 ar 
    69   66   65 1  
    70   67   66 1  
    71   66   69 1  
    72   67   68 2  
    73   73   67 am 
    74   69   70 1  
    75   70   71 1  
    76   70   72 1  
    77   76   73 1  
    78   74   75 2  
    79   74   76 1  
    80   74   92 am 
    81   76   77 1  
    82   77   78 1  
    83   78   79 ar 
    84   78   80 ar 
    85   79   81 ar 
    86   80   82 ar 
    87   81   83 ar 
    88   82   83 ar 
    89   83   84 1  
    90   84   85 1  
    91   84   86 1  
    92   86   87 ar 
    93   86   88 ar 
    94   87   89 ar 
    95   88   90 ar 
    96   89   91 ar 
    97   90   91 ar 
    98   92   93 1  
    99   93   94 1  
   100   93   96 1  
   101   94   95 2  
   102   94  106 am 
   103   96   97 1  
   104   97   98 2  
   105   97   99 1  
   106   98  100 1  
   107   99  101 ar 
   108   99  102 ar 
   109  100  101 1  
   110  101  103 ar 
   111  102  104 ar 
   112  103  105 ar 
   113  104  105 ar 
   114  106  107 1  
   115  107  108 1  
   116  107  110 1  
   117  108  109 2  
   118  108  112 am 
   119  110  111 1  
   120  112  113 1  
   121  113  114 1  
   122  113  116 1  
   123  114  115 ar 
   124  114  119 ar 
   125  116  117 1  
   126  116  118 1  
   127    1  120 1  
   128    1  121 1  
   129    1  122 1  
   130    2  123 1  
   131    5  124 1  
   132    5  125 1  
   133    9  126 1  
   134   10  127 1  
   135   13  128 1  
   136   13  129 1  
   137   15  130 1  
   138   16  131 1  
   139   19  132 1  
   140   19  133 1  
   141   19  134 1  
   142   20  135 1  
   143   21  136 1  
   144   24  137 1  
   145   24  138 1  
   146   26  139 1  
   147   28  140 1  
   148   30  141 1  
   149   31  142 1  
   150   32  143 1  
   151   33  144 1  
   152   34  145 1  
   153   35  146 1  
   154   38  147 1  
   155   38  148 1  
   156   41  149 1  
   157   42  150 1  
   158   43  151 1  
   159   44  152 1  
   160   45  153 1  
   161   48  154 1  
   162   48  155 1  
   163   49  156 1  
   164   50  157 1  
   165   50  158 1  
   166   50  159 1  
   167   51  160 1  
   168   51  161 1  
   169   51  162 1  
   170   52  163 1  
   171   53  164 1  
   172   53  165 1  
   173   56  166 1  
   174   57  167 1  
   175   60  168 1  
   176   60  169 1  
   177   61  170 1  
   178   61  171 1  
   179   65  172 1  
   180   66  173 1  
   181   69  174 1  
   182   69  175 1  
   183   70  176 1  
   184   71  177 1  
   185   71  178 1  
   186   71  179 1  
   187   72  180 1  
   188   72  181 1  
   189   72  182 1  
   190   73  183 1  
   191   76  184 1  
   192   77  185 1  
   193   77  186 1  
   194   79  187 1  
   195   80  188 1  
   196   81  189 1  
   197   82  190 1  
   198   84  191 1  
   199   85  192 1  
   200   87  193 1  
   201   88  194 1  
   202   89  195 1  
   203   90  196 1  
   204   91  197 1  
   205   92  198 1  
   206   93  199 1  
   207   96  200 1  
   208   96  201 1  
   209   98  202 1  
   210  100  203 1  
   211  102  204 1  
   212  103  205 1  
   213  104  206 1  
   214  105  207 1  
   215  106  208 1  
   216  107  209 1  
   217  110  210 1  
   218  110  211 1  
   219  112  212 1  
   220  113  213 1  
   221  116  214 1  
   222  117  215 1  
   223  118  216 1  
   224  118  217 1  
   225  118  218 1  
@<TRIPOS>SUBSTRUCTURE
     1 ASP         1

