2psu_ligand
  -I-interpret- 

 71 73  0  0  0  0  0  0  0  0999 V2000
   17.2920   31.4310   14.3860 O   0  0  0  0  0
   18.0940   32.4720   14.9510 S   0  0  0  0  0
   18.6180   33.3620   13.9520 O   0  0  0  0  0
   17.1650   33.3670   15.9940 C   0  0  0  0  0
   17.4560   34.7120   16.2010 C   0  0  0  0  0
   16.6970   35.4830   17.0750 C   0  0  0  0  0
   17.0410   36.8120   17.2240 O   0  0  0  0  0
   16.5380   37.6470   18.2600 C   0  0  0  0  0
   15.6190   34.8970   17.7490 C   0  0  0  0  0
   15.3250   33.5550   17.5580 C   0  0  0  0  0
   16.0940   32.7910   16.6790 C   0  0  0  0  0
   19.3830   31.7780   15.6630 N   0  0  0  0  0
   20.2230   32.7280   16.4250 C   0  0  0  0  0
   21.6600   32.1990   16.4240 C   0  0  0  0  0
   22.7920   33.2120   16.2430 C   0  0  0  0  0
   22.4180   32.2840   15.0960 C   0  0  0  0  0
   19.0940   30.5310   16.4100 C   0  0  0  0  0
   19.9810   29.4260   15.7850 C   0  0  0  0  0
   19.9780   28.2750   16.6280 O   0  0  0  0  0
   19.5790   29.0160   14.3550 C   0  0  0  0  0
   18.2550   28.2500   14.3090 C   0  0  0  0  0
   17.9680   27.8560   12.8810 C   0  0  0  0  0
   18.1700   26.5430   12.4570 C   0  0  0  0  0
   17.9270   26.1740   11.1450 C   0  0  0  0  0
   17.4740   27.1230   10.2400 C   0  0  0  0  0
   17.2930   28.4230   10.6550 C   0  0  0  0  0
   17.5190   28.7950   11.9680 C   0  0  0  0  0
   20.6400   28.1910   13.7550 N   0  0  0  0  0
   21.4040   28.5930   12.7310 C   0  0  0  0  0
   21.3000   29.6940   12.2220 O   0  0  0  0  0
   22.4730   27.6930   12.1880 C   0  0  0  0  0
   21.8470   26.6510   11.2930 C   0  0  0  0  0
   22.9450   25.7490   10.7890 C   0  0  0  0  0
   23.6570   25.1260   11.5870 O   0  0  0  0  0
   23.1030   25.6580    9.4670 N   0  0  0  0  0
   24.1110   24.8000    8.8660 C   0  0  0  0  0
   18.2915   35.1682   15.6701 H   0  0  0  0  0
   15.4519   37.7012   18.1861 H   0  0  0  0  0
   16.8173   37.2310   19.2280 H   0  0  0  0  0
   16.9608   38.6464   18.1569 H   0  0  0  0  0
   15.0095   35.4965   18.4252 H   0  0  0  0  0
   14.4937   33.0973   18.0942 H   0  0  0  0  0
   15.8568   31.7381   16.5265 H   0  0  0  0  0
   19.8562   32.8172   17.4475 H   0  0  0  0  0
   20.1858   33.7153   15.9646 H   0  0  0  0  0
   21.4415   31.4156   17.1497 H   0  0  0  0  0
   23.6890   33.5355   16.7710 H   0  0  0  0  0
   22.9693   34.2748   16.4075 H   0  0  0  0  0
   22.1946   32.3510   14.0313 H   0  0  0  0  0
   22.9131   31.6129   14.3941 H   0  0  0  0  0
   18.0382   30.2699   16.3385 H   0  0  0  0  0
   19.3130   30.6527   17.4708 H   0  0  0  0  0
   20.9797   29.8554   15.7056 H   0  0  0  0  0
   20.5286   27.5924   16.2376 H   0  0  0  0  0
   19.4440   29.9366   13.7873 H   0  0  0  0  0
   17.4505   28.8815   14.6859 H   0  0  0  0  0
   18.3238   27.3575   14.9309 H   0  0  0  0  0
   18.5241   25.7969   13.1684 H   0  0  0  0  0
   18.0905   25.1449   10.8252 H   0  0  0  0  0
   17.2630   26.8414    9.2084 H   0  0  0  0  0
   16.9654   29.1733    9.9354 H   0  0  0  0  0
   17.3442   29.8238   12.2828 H   0  0  0  0  0
   20.8026   27.2608   14.1407 H   0  0  0  0  0
   22.9876   27.2011   13.0134 H   0  0  0  0  0
   23.1876   28.2829   11.6141 H   0  0  0  0  0
   21.3390   27.1298   10.4558 H   0  0  0  0  0
   21.1091   26.0719   11.8483 H   0  0  0  0  0
   22.4969   26.2083    8.8585 H   0  0  0  0  0
   25.0991   25.1079    9.2080 H   0  0  0  0  0
   23.9290   23.7664    9.1604 H   0  0  0  0  0
   24.0580   24.8846    7.7806 H   0  0  0  0  0
  1  2  2  0  0  0
  2  3  2  0  0  0
  2  4  1  0  0  0
  2 12  1  0  0  0
  4  5  4  0  0  0
  4 11  4  0  0  0
  5  6  4  0  0  0
  6  7  1  0  0  0
  6  9  4  0  0  0
  7  8  1  0  0  0
  9 10  4  0  0  0
 10 11  4  0  0  0
 12 13  1  0  0  0
 12 17  1  0  0  0
 13 14  1  0  0  0
 14 15  1  0  0  0
 14 16  1  0  0  0
 15 16  1  0  0  0
 17 18  1  0  0  0
 18 19  1  0  0  0
 18 20  1  0  0  0
 20 21  1  0  0  0
 20 28  1  0  0  0
 21 22  1  0  0  0
 22 23  4  0  0  0
 22 27  4  0  0  0
 23 24  4  0  0  0
 24 25  4  0  0  0
 25 26  4  0  0  0
 26 27  4  0  0  0
 28 29  1  0  0  0
 29 30  2  0  0  0
 29 31  1  0  0  0
 31 32  1  0  0  0
 32 33  1  0  0  0
 33 34  2  0  0  0
 33 35  1  0  0  0
 35 36  1  0  0  0
  5 37  1  0  0  0
  8 38  1  0  0  0
  8 39  1  0  0  0
  8 40  1  0  0  0
  9 41  1  0  0  0
 10 42  1  0  0  0
 11 43  1  0  0  0
 13 44  1  0  0  0
 13 45  1  0  0  0
 14 46  1  0  0  0
 15 47  1  0  0  0
 15 48  1  0  0  0
 16 49  1  0  0  0
 16 50  1  0  0  0
 17 51  1  0  0  0
 17 52  1  0  0  0
 18 53  1  0  0  0
 19 54  1  0  0  0
 20 55  1  0  0  0
 21 56  1  0  0  0
 21 57  1  0  0  0
 23 58  1  0  0  0
 24 59  1  0  0  0
 25 60  1  0  0  0
 26 61  1  0  0  0
 27 62  1  0  0  0
 28 63  1  0  0  0
 31 64  1  0  0  0
 31 65  1  0  0  0
 32 66  1  0  0  0
 32 67  1  0  0  0
 35 68  1  0  0  0
 36 69  1  0  0  0
 36 70  1  0  0  0
 36 71  1  0  0  0
M  END
$$$$
