5kql_ligand
  -I-interpret- 

 33 34  0  0  0  0  0  0  0  0999 V2000
    3.5590   10.7320   -1.0920 N   0  0  0  0  0
    2.6550   10.5870    0.0040 C   0  0  0  0  0
    2.1280   11.5460    0.5680 O   0  0  0  0  0
    2.3770    9.1940    0.4530 C   0  0  0  0  0
    1.2190    8.7130   -0.2930 C   0  0  0  0  0
    0.1360    9.5250   -0.4700 C   0  0  0  0  0
   -1.0110    9.0680   -1.2000 C   0  0  0  0  0
   -1.0480    7.8010   -1.7280 C   0  0  0  0  0
    0.0270    6.9600   -1.5500 C   0  0  0  0  0
    1.1790    7.4210   -0.8320 C   0  0  0  0  0
    2.4270    8.8980    2.1740 S   0  0  0  0  0
    3.6650    9.4860    2.6790 O   0  0  0  0  0
    2.3770    7.4980    2.3920 O   0  0  0  0  0
    1.2250    9.4970    2.7560 O   0  0  0  0  0
    3.8250   11.9710   -1.7710 C   0  0  0  0  0
    3.5470   13.2680   -1.2620 C   0  0  0  0  0
    3.7800   14.3820   -2.0840 C   0  0  0  0  0
    4.2200   14.2180   -3.3830 C   0  0  0  0  0
    4.4490   12.9140   -3.9050 C   0  0  0  0  0
    4.2280   11.8180   -3.0850 C   0  0  0  0  0
    4.0501    9.8986   -1.4156 H   0  0  0  0  0
    3.2238    8.5558    0.2006 H   0  0  0  0  0
    0.1430   10.5316   -0.0520 H   0  0  0  0  0
   -1.8629    9.7340   -1.3372 H   0  0  0  0  0
   -1.9226    7.4636   -2.2842 H   0  0  0  0  0
    0.0025    5.9477   -1.9533 H   0  0  0  0  0
    2.0344    6.7577   -0.7040 H   0  0  0  0  0
    0.4468    9.0722    2.3879 H   0  0  0  0  0
    3.1597   13.3959   -0.2512 H   0  0  0  0  0
    3.6121   15.3857   -1.6935 H   0  0  0  0  0
    4.3927   15.0917   -4.0114 H   0  0  0  0  0
    4.7919   12.7793   -4.9308 H   0  0  0  0  0
    4.3750   10.8146   -3.4845 H   0  0  0  0  0
  1  2  1  0  0  0
  1 15  1  0  0  0
  2  3  2  0  0  0
  2  4  1  0  0  0
  4  5  1  0  0  0
  4 11  1  0  0  0
  5  6  4  0  0  0
  5 10  4  0  0  0
  6  7  4  0  0  0
  7  8  4  0  0  0
  8  9  4  0  0  0
  9 10  4  0  0  0
 11 12  2  0  0  0
 11 13  2  0  0  0
 11 14  1  0  0  0
 15 16  4  0  0  0
 15 20  4  0  0  0
 16 17  4  0  0  0
 17 18  4  0  0  0
 18 19  4  0  0  0
 19 20  4  0  0  0
  1 21  1  0  0  0
  4 22  1  0  0  0
  6 23  1  0  0  0
  7 24  1  0  0  0
  8 25  1  0  0  0
  9 26  1  0  0  0
 10 27  1  0  0  0
 14 28  1  0  0  0
 16 29  1  0  0  0
 17 30  1  0  0  0
 18 31  1  0  0  0
 19 32  1  0  0  0
 20 33  1  0  0  0
M  END
$$$$
