4wrs_ligand
  -I-interpret- 

 53 58  0  0  0  0  0  0  0  0999 V2000
  -43.8530   -3.0580    3.6160 F   0  0  0  0  0
  -44.7770   -2.1080    3.8020 C   0  0  0  0  0
  -45.3310   -1.9690    5.0790 C   0  0  0  0  0
  -46.2970   -0.9910    5.3290 C   0  0  0  0  0
  -46.7040   -0.1480    4.2940 C   0  0  0  0  0
  -46.1460   -0.2870    3.0140 C   0  0  0  0  0
  -46.5690    0.5500    2.0510 F   0  0  0  0  0
  -45.1650   -1.2690    2.7440 C   0  0  0  0  0
  -44.6070   -1.4140    1.4360 C   0  0  0  0  0
  -45.4620   -1.2800    0.3160 C   0  0  0  0  0
  -44.9770   -1.4110   -0.9870 C   0  0  0  0  0
  -43.6070   -1.6910   -1.2140 C   0  0  0  0  0
  -42.9020   -1.8840   -2.3830 N   0  0  0  0  0
  -41.6170   -2.1350   -2.0720 N   0  0  0  0  0
  -41.4510   -2.1140   -0.7330 C   0  0  0  0  0
  -40.2290   -2.3730   -0.0950 C   0  0  0  0  0
  -39.0620   -2.5400   -0.8510 C   0  0  0  0  0
  -37.8750   -2.8160   -0.2610 N   0  0  0  0  0
  -37.8300   -2.9490    1.0840 C   0  0  0  0  0
  -38.9900   -2.8030    1.8510 C   0  0  0  0  0
  -38.8870   -2.9680    3.2700 O   0  0  0  0  0
  -40.1210   -2.8120    4.0130 C   0  0  0  0  0
  -40.7270   -4.1680    4.4150 C   0  0  0  0  0
  -40.0290   -4.8600    5.5260 N   0  3  0  0  0
  -39.6590   -3.9700    6.6510 C   0  0  0  0  0
  -38.9260   -2.7230    6.1530 C   0  0  0  0  0
  -39.7680   -1.9830    5.1820 C   0  0  0  0  0
  -40.7510   -1.0140    5.8170 C   0  0  0  0  0
  -39.4650   -0.4940    5.1960 C   0  0  0  0  0
  -40.1720   -2.5220    1.2470 N   0  0  0  0  0
  -42.7390   -1.8390   -0.1520 C   0  0  0  0  0
  -43.2350   -1.6980    1.1950 C   0  0  0  0  0
  -45.0069   -2.6281    5.8844 H   0  0  0  0  0
  -46.7292   -0.8873    6.3243 H   0  0  0  0  0
  -47.4559    0.6189    4.4800 H   0  0  0  0  0
  -46.5200   -1.0704    0.4736 H   0  0  0  0  0
  -45.6552   -1.2974   -1.8327 H   0  0  0  0  0
  -39.1102   -2.4459   -1.9359 H   0  0  0  0  0
  -36.8822   -3.1717    1.5740 H   0  0  0  0  0
  -40.8962   -2.3368    3.4119 H   0  0  0  0  0
  -40.6528   -4.8175    3.5428 H   0  0  0  0  0
  -41.7434   -3.9706    4.7556 H   0  0  0  0  0
  -39.1638   -5.2450    5.1471 H   0  0  0  0  0
  -40.6690   -5.5637    5.8943 H   0  0  0  0  0
  -38.9979   -4.5164    7.3236 H   0  0  0  0  0
  -40.5702   -3.6572    7.1610 H   0  0  0  0  0
  -38.0011   -3.0265    5.6625 H   0  0  0  0  0
  -38.7098   -2.0749    7.0023 H   0  0  0  0  0
  -41.3108   -0.9091    6.7464 H   0  0  0  0  0
  -41.8187   -0.7967    5.7886 H   0  0  0  0  0
  -39.1491    0.2827    4.4995 H   0  0  0  0  0
  -38.6412    0.1703    5.4571 H   0  0  0  0  0
  -42.5512   -1.8103    2.0364 H   0  0  0  0  0
  1  2  1  0  0  0
  2  3  4  0  0  0
  2  8  4  0  0  0
  3  4  4  0  0  0
  4  5  4  0  0  0
  5  6  4  0  0  0
  6  7  1  0  0  0
  6  8  4  0  0  0
  8  9  1  0  0  0
  9 10  4  0  0  0
  9 32  4  0  0  0
 10 11  4  0  0  0
 11 12  4  0  0  0
 12 13  4  0  0  0
 12 31  4  0  0  0
 13 14  4  0  0  0
 14 15  4  0  0  0
 15 16  1  0  0  0
 15 31  4  0  0  0
 16 17  4  0  0  0
 16 30  4  0  0  0
 17 18  4  0  0  0
 18 19  4  0  0  0
 19 20  4  0  0  0
 20 21  1  0  0  0
 20 30  4  0  0  0
 21 22  1  0  0  0
 22 23  1  0  0  0
 22 27  1  0  0  0
 23 24  1  0  0  0
 24 25  1  0  0  0
 25 26  1  0  0  0
 26 27  1  0  0  0
 27 28  1  0  0  0
 27 29  1  0  0  0
 28 29  1  0  0  0
 31 32  4  0  0  0
  3 33  1  0  0  0
  4 34  1  0  0  0
  5 35  1  0  0  0
 10 36  1  0  0  0
 11 37  1  0  0  0
 17 38  1  0  0  0
 19 39  1  0  0  0
 22 40  1  0  0  0
 23 41  1  0  0  0
 23 42  1  0  0  0
 24 43  1  0  0  0
 24 44  1  0  0  0
 25 45  1  0  0  0
 25 46  1  0  0  0
 26 47  1  0  0  0
 26 48  1  0  0  0
 28 49  1  0  0  0
 28 50  1  0  0  0
 29 51  1  0  0  0
 29 52  1  0  0  0
 32 53  1  0  0  0
M  END
$$$$
