### 
### Created by X-TOOL on Mon Sep 10 21:13:19 2018
### 

@<TRIPOS>MOLECULE
4n7y_ligand
  173   172     1     0     0
SMALL
GAST_HUCK


@<TRIPOS>ATOM
      1 N          16.7380   10.7970   18.7280 N.4       1 GLN         0.2380
      2 CA         16.3620   10.8550   17.3250 C.3       1 GLN         0.0671
      3 C          15.4370   12.0180   17.0230 C.2       1 GLN         0.2267
      4 O          14.7530   12.5100   17.8980 O.2       1 GLN        -0.3907
      5 CB         15.6890    9.5590   16.9280 C.3       1 GLN         0.0247
      6 CG         16.6590    8.4310   16.6700 C.3       1 GLN         0.0443
      7 CD         17.5310    8.6620   15.4570 C.2       1 GLN         0.1738
      8 OE1        17.2280    9.4630   14.5850 O.2       1 GLN        -0.3973
      9 NE2        18.6290    7.9460   15.4080 N.am      1 GLN        -0.3009
     10 N          15.4370   12.4480   15.7060 N.am      1 GLY        -0.2637
     11 CA         14.6780   13.5590   15.1180 C.3       1 GLY         0.1200
     12 C          13.2880   13.0330   15.0280 C.2       1 GLY         0.1978
     13 O          13.0310   11.8660   14.8780 O.2       1 GLY        -0.3950
     14 OAE        10.0300   12.3730   13.7570 O.2       1 2JN        -0.3419
     15 CAG        10.7980   13.2710   13.4160 C.2       1 2JN         0.2263
     16 CAQ        11.1300   14.4250   14.3620 C.3       1 2JN         0.1302
     17 CAA        11.1280   15.7350   13.5730 C.3       1 2JN        -0.0320
     18 NAC        12.4490   14.1880   14.9650 N.am      1 2JN        -0.2745
     19 CAO        10.0540   14.5000   15.4470 C.3       1 2JN        -0.0201
     20 CAM        10.3090   13.4140   16.4940 C.3       1 2JN        -0.0518
     21 CAK        10.2950   14.0380   17.8910 C.3       1 2JN        -0.0560
     22 CAI         9.7370   13.0290   18.8960 C.3       1 2JN        -0.0653
     23 N          11.4920   13.4750   12.1150 N.am      1 LEU        -0.2629
     24 CA         11.3510   12.7920   10.8210 C.3       1 LEU         0.1314
     25 C          11.4590   11.2990   11.0710 C.2       1 LEU         0.2041
     26 O          10.5980   10.5350   10.6030 O.2       1 LEU        -0.3944
     27 CB         12.3880   13.2990    9.7940 C.3       1 LEU        -0.0099
     28 CG         12.0380   14.6750    9.1540 C.3       1 LEU        -0.0425
     29 CD1        12.7000   14.8700    7.7740 C.3       1 LEU        -0.0625
     30 CD2        10.5350   14.8900    9.0090 C.3       1 LEU        -0.0625
     31 N          12.4710   10.9050   11.8600 N.am      1 ASP        -0.2622
     32 CA         12.8680    9.4970   11.9960 C.3       1 ASP         0.1420
     33 C          12.0580    8.7760   13.0420 C.2       1 ASP         0.2027
     34 O          11.4780    7.7190   12.7620 O.2       1 ASP        -0.3946
     35 CB         14.3820    9.3500   12.2540 C.3       1 ASP         0.0406
     36 CG         15.2140    9.7580   11.0460 C.2       1 ASP         0.0393
     37 OD1        14.9520    9.2580    9.9360 O.co2     1 ASP        -0.5688
     38 OD2        16.1070   10.6110   11.2000 O.co2     1 ASP        -0.5688
     39 C           9.6780    8.2740   15.3480 C.2       1 MK8         0.2263
     40 N          11.8480    8.8810   14.6720 N.am      1 MK8        -0.2742
     41 O           9.2440    7.1070   15.2520 O.2       1 MK8        -0.3419
     42 CA         11.1530    8.5020   15.9350 C.3       1 MK8         0.1302
     43 CB         11.3660    9.7560   16.9670 C.3       1 MK8        -0.0201
     44 CD         10.9400   10.5980   19.3440 C.3       1 MK8        -0.0560
     45 CE         11.2510   11.9270   18.5920 C.3       1 MK8        -0.0653
     46 CG         10.5890    9.4620   18.2860 C.3       1 MK8        -0.0518
     47 CB1        12.1030    7.2460   16.1130 C.3       1 MK8        -0.0320
     48 N           9.3380    9.3330   14.4790 N.am      1 LEU        -0.2629
     49 CA          7.9180    9.3490   14.1650 C.3       1 LEU         0.1314
     50 C           7.6200    8.9280   12.7070 C.2       1 LEU         0.2041
     51 O           6.4570    8.9370   12.2830 O.2       1 LEU        -0.3944
     52 CB          7.1570   10.6160   14.6150 C.3       1 LEU        -0.0099
     53 CG          6.7820   10.7630   16.1330 C.3       1 LEU        -0.0425
     54 CD1         6.4660   12.2230   16.4940 C.3       1 LEU        -0.0625
     55 CD2         5.6160    9.8370   16.5420 C.3       1 LEU        -0.0625
     56 N           8.6560    8.5400   11.9390 N.am      1 ASP        -0.2622
     57 CA          8.3970    8.0090   10.5780 C.3       1 ASP         0.1423
     58 C           7.3940    8.9300    9.7910 C.2       1 ASP         0.2056
     59 O           6.3680    8.4930    9.2180 O.2       1 ASP        -0.3943
     60 CB          7.8850    6.5670   10.6830 C.3       1 ASP         0.0406
     61 CG          8.0000    5.7770    9.3390 C.2       1 ASP         0.0393
     62 OD1         8.4870    6.3460    8.3250 O.co2     1 ASP        -0.5688
     63 OD2         7.6230    4.5730    9.3190 O.co2     1 ASP        -0.5688
     64 N           7.7170   10.2130    9.7800 N.am      1 LEU        -0.2636
     65 CA          6.8060   11.2590    9.2900 C.3       1 LEU         0.1312
     66 C           6.6190   11.1580    7.7820 C.2       1 LEU         0.2039
     67 O           7.6150   11.0310    7.0680 O.2       1 LEU        -0.3944
     68 CB          7.3470   12.6490    9.6830 C.3       1 LEU        -0.0101
     69 CG          7.2080   12.8910   11.1840 C.3       1 LEU        -0.0425
     70 CD1         7.6910   14.3010   11.5220 C.3       1 LEU        -0.0625
     71 CD2         5.7770   12.6040   11.6930 C.3       1 LEU        -0.0625
     72 N           5.3740   11.2150    7.2780 N.am      1 ALA        -0.2640
     73 CA          5.2030   11.1150    5.7960 C.3       1 ALA         0.1282
     74 C           5.4600   12.4680    5.1160 C.2       1 ALA         0.2032
     75 O           5.7880   13.4550    5.7940 O.2       1 ALA        -0.3944
     76 CB          3.8400   10.5640    5.4010 C.3       1 ALA        -0.0244
     77 N           5.3050   12.4810    3.7860 N.am      1 SER        -0.2648
     78 CA          5.4420   13.6690    2.9060 C.3       1 SER         0.1454
     79 C           6.9040   14.0090    2.6400 C.2       1 SER         0.2172
     80 O           7.5210   13.4000    1.7710 O.co2     1 SER        -0.4119
     81 CB          4.6490   14.8980    3.4060 C.3       1 SER         0.0812
     82 OG          5.2770   16.1030    2.9770 O.3       1 SER        -0.3909
     83 H          17.3506   10.0110   18.8794 H         1 GLN         0.2015
     84 H          15.9103   10.6917   19.2936 H         1 GLN         0.2015
     85 H          17.2138   11.6480   18.9838 H         1 GLN         0.2015
     86 H          17.2773   10.9778   16.7274 H         1 GLN         0.1100
     87 H          15.1080    9.7351   16.0107 H         1 GLN         0.0370
     88 H          15.0107    9.2561   17.7393 H         1 GLN         0.0370
     89 H          16.0857    7.5048   16.5172 H         1 GLN         0.0506
     90 H          17.3080    8.3194   17.5511 H         1 GLN         0.0506
     91 H          19.2560    8.0444   14.6352 H         1 GLN         0.1814
     92 H          18.8391    7.3018   16.1434 H         1 GLN         0.1814
     93 H          16.0264   11.9391   15.0786 H         1 GLY         0.1882
     94 H          15.0657   13.8136   14.1206 H         1 GLY         0.0763
     95 H          14.7193   14.4474   15.7653 H         1 GLY         0.0763
     96 H          11.3663   16.5700   14.2482 H         1 2JN         0.0242
     97 H          10.1341   15.8944   13.1294 H         1 2JN         0.0242
     98 H          11.8821   15.6829   12.7739 H         1 2JN         0.0242
     99 H          12.8343   14.9911   15.4196 H         1 2JN         0.1839
    100 H           9.0640   14.3462   14.9929 H         1 2JN         0.0277
    101 H          10.0870   15.4885   15.9285 H         1 2JN         0.0277
    102 H          11.2892   12.9500   16.3097 H         1 2JN         0.0264
    103 H           9.5223   12.6481   16.4268 H         1 2JN         0.0264
    104 H           9.6614   14.9372   17.8844 H         1 2JN         0.0263
    105 H          11.3200   14.3138   18.1794 H         1 2JN         0.0263
    106 H           9.7273   13.4785   19.8999 H         1 2JN         0.0230
    107 H          10.3705   12.1298   18.9030 H         1 2JN         0.0230
    108 H           8.7119   12.7531   18.6079 H         1 2JN         0.0230
    109 H          12.1747   14.2057   12.1227 H         1 LEU         0.1889
    110 H          10.3500   13.0056   10.4181 H         1 LEU         0.0802
    111 H          12.4668   12.5546    8.9880 H         1 LEU         0.0315
    112 H          13.3588   13.3929   10.3026 H         1 LEU         0.0315
    113 H          12.4263   15.4531    9.8277 H         1 LEU         0.0298
    114 H          12.4206   15.8539    7.3691 H         1 LEU         0.0232
    115 H          12.3579   14.0808    7.0884 H         1 LEU         0.0232
    116 H          13.7934   14.8145    7.8807 H         1 LEU         0.0232
    117 H          10.0492   14.7540    9.9865 H         1 LEU         0.0232
    118 H          10.1278   14.1613    8.2926 H         1 LEU         0.0232
    119 H          10.3440   15.9097    8.6434 H         1 LEU         0.0232
    120 H          12.9750   11.5977   12.3760 H         1 ASP         0.1884
    121 H          12.6559    9.0100   11.0328 H         1 ASP         0.0819
    122 H          14.5998    8.2991   12.4954 H         1 ASP         0.0478
    123 H          14.6595    9.9872   13.1066 H         1 ASP         0.0478
    124 H          12.5450    9.5354   14.9651 H         1 MK8         0.1839
    125 H          10.9814   10.6797   16.5100 H         1 MK8         0.0277
    126 H          12.4370    9.8745   17.1880 H         1 MK8         0.0277
    127 H          10.0838   10.7492   20.0178 H         1 MK8         0.0263
    128 H          11.8192   10.2939   19.9309 H         1 MK8         0.0263
    129 H          11.4938   12.7132   19.3220 H         1 MK8         0.0230
    130 H          10.3716   12.2306   18.0051 H         1 MK8         0.0230
    131 H          12.1071   11.7754   17.9182 H         1 MK8         0.0230
    132 H          10.8889    8.4807   18.6823 H         1 MK8         0.0264
    133 H           9.5072    9.4620   18.0870 H         1 MK8         0.0264
    134 H          11.8285    6.7058   17.0311 H         1 MK8         0.0242
    135 H          13.1475    7.5835   16.1846 H         1 MK8         0.0242
    136 H          11.9924    6.5769   15.2470 H         1 MK8         0.0242
    137 H           9.9965    9.9950   14.1210 H         1 LEU         0.1889
    138 H           7.4918    8.5437   14.7813 H         1 LEU         0.0802
    139 H           6.2179   10.6515   14.0433 H         1 LEU         0.0315
    140 H           7.7812   11.4818   14.3490 H         1 LEU         0.0315
    141 H           7.6632   10.4596   16.7173 H         1 LEU         0.0298
    142 H           6.2082   12.2892   17.5613 H         1 LEU         0.0232
    143 H           5.6171   12.5748   15.8893 H         1 LEU         0.0232
    144 H           7.3464   12.8500   16.2899 H         1 LEU         0.0232
    145 H           5.8617    8.7985   16.2754 H         1 LEU         0.0232
    146 H           4.7012   10.1443   16.0142 H         1 LEU         0.0232
    147 H           5.4545    9.9084   17.6277 H         1 LEU         0.0232
    148 H           9.5923    8.6092   12.2833 H         1 ASP         0.1884
    149 H           9.3478    7.9963   10.0250 H         1 ASP         0.0819
    150 H           6.8276    6.5919   10.9852 H         1 ASP         0.0478
    151 H           8.4732    6.0414   11.4496 H         1 ASP         0.0478
    152 H           8.6182   10.4830   10.1190 H         1 LEU         0.1883
    153 H           5.8256   11.1185    9.7686 H         1 LEU         0.0800
    154 H           6.7807   13.4208    9.1412 H         1 LEU         0.0315
    155 H           8.4098   12.7118    9.4063 H         1 LEU         0.0315
    156 H           7.8763   12.1835   11.6966 H         1 LEU         0.0298
    157 H           7.5902   14.4736   12.6037 H         1 LEU         0.0232
    158 H           7.0840   15.0375   10.9750 H         1 LEU         0.0232
    159 H           8.7464   14.4068   11.2307 H         1 LEU         0.0232
    160 H           5.4894   11.5781   11.4194 H         1 LEU         0.0232
    161 H           5.0750   13.3161   11.2346 H         1 LEU         0.0232
    162 H           5.7482   12.7134   12.7872 H         1 LEU         0.0232
    163 H           4.5821   11.3216    7.8792 H         1 ALA         0.1883
    164 H           5.9611   10.4083    5.4275 H         1 ALA         0.0797
    165 H           3.7692   10.5122    4.3045 H         1 ALA         0.0277
    166 H           3.0509   11.2251    5.7885 H         1 ALA         0.0277
    167 H           3.7150    9.5565    5.8245 H         1 ALA         0.0277
    168 H           5.0765   11.6126    3.3459 H         1 SER         0.1877
    169 H           5.0017   13.3896    1.9375 H         1 SER         0.0774
    170 O1          7.4762   14.9106    3.3088 O.co2     1 SER        -0.4119
    171 H           4.6098   14.8813    4.5052 H         1 SER         0.0600
    172 H           3.6267   14.8585    3.0020 H         1 SER         0.0600
    173 H           6.1596   16.1406    3.3265 H         1 SER         0.2096
@<TRIPOS>BOND
     1    2    1 1  
     2    3    2 1  
     3    2    5 1  
     4    3    4 2  
     5   10    3 am 
     6    5    6 1  
     7    6    7 1  
     8    7    8 2  
     9    7    9 am 
    10   11   10 1  
    11   12   11 1  
    12   12   13 2  
    13   18   12 am 
    14   15   14 2  
    15   15   16 1  
    16   23   15 am 
    17   16   17 1  
    18   16   18 1  
    19   16   19 1  
    20   19   20 1  
    21   20   21 1  
    22   21   22 1  
    23   24   23 1  
    24   25   24 1  
    25   24   27 1  
    26   25   26 2  
    27   31   25 am 
    28   27   28 1  
    29   28   29 1  
    30   28   30 1  
    31   32   31 1  
    32   33   32 1  
    33   32   35 1  
    34   33   34 2  
    35   40   33 am 
    36   35   36 1  
    37   36   37 ar 
    38   36   38 ar 
    39   39   41 2  
    40   42   39 1  
    41   39   48 am 
    42   42   40 1  
    43   43   42 1  
    44   42   47 1  
    45   46   43 1  
    46   44   45 1  
    47   44   46 1  
    48   48   49 1  
    49   49   50 1  
    50   49   52 1  
    51   50   51 2  
    52   50   56 am 
    53   52   53 1  
    54   53   54 1  
    55   53   55 1  
    56   56   57 1  
    57   57   58 1  
    58   57   60 1  
    59   58   59 2  
    60   58   64 am 
    61   60   61 1  
    62   61   62 ar 
    63   61   63 ar 
    64   64   65 1  
    65   65   66 1  
    66   65   68 1  
    67   66   67 2  
    68   66   72 am 
    69   68   69 1  
    70   69   70 1  
    71   69   71 1  
    72   72   73 1  
    73   73   74 1  
    74   73   76 1  
    75   74   75 2  
    76   74   77 am 
    77   77   78 1  
    78   78   79 1  
    79   78   81 1  
    80   79   80 ar 
    81   81   82 1  
    82    1   83 1  
    83    1   84 1  
    84    1   85 1  
    85    2   86 1  
    86    5   87 1  
    87    5   88 1  
    88    6   89 1  
    89    6   90 1  
    90    9   91 1  
    91    9   92 1  
    92   10   93 1  
    93   11   94 1  
    94   11   95 1  
    95   17   96 1  
    96   17   97 1  
    97   17   98 1  
    98   18   99 1  
    99   19  100 1  
   100   19  101 1  
   101   20  102 1  
   102   20  103 1  
   103   21  104 1  
   104   21  105 1  
   105   22  106 1  
   106   22  107 1  
   107   22  108 1  
   108   23  109 1  
   109   24  110 1  
   110   27  111 1  
   111   27  112 1  
   112   28  113 1  
   113   29  114 1  
   114   29  115 1  
   115   29  116 1  
   116   30  117 1  
   117   30  118 1  
   118   30  119 1  
   119   31  120 1  
   120   32  121 1  
   121   35  122 1  
   122   35  123 1  
   123   40  124 1  
   124   43  125 1  
   125   43  126 1  
   126   44  127 1  
   127   44  128 1  
   128   45  129 1  
   129   45  130 1  
   130   45  131 1  
   131   46  132 1  
   132   46  133 1  
   133   47  134 1  
   134   47  135 1  
   135   47  136 1  
   136   48  137 1  
   137   49  138 1  
   138   52  139 1  
   139   52  140 1  
   140   53  141 1  
   141   54  142 1  
   142   54  143 1  
   143   54  144 1  
   144   55  145 1  
   145   55  146 1  
   146   55  147 1  
   147   56  148 1  
   148   57  149 1  
   149   60  150 1  
   150   60  151 1  
   151   64  152 1  
   152   65  153 1  
   153   68  154 1  
   154   68  155 1  
   155   69  156 1  
   156   70  157 1  
   157   70  158 1  
   158   70  159 1  
   159   71  160 1  
   160   71  161 1  
   161   71  162 1  
   162   72  163 1  
   163   73  164 1  
   164   76  165 1  
   165   76  166 1  
   166   76  167 1  
   167   77  168 1  
   168   78  169 1  
   169   79  170 ar 
   170   81  171 1  
   171   81  172 1  
   172   82  173 1  
@<TRIPOS>SUBSTRUCTURE
     1 GLN         1

