4n7y_ligand
  -I-interpret- 

176175  0  0  0  0  0  0  0  0999 V2000
   16.7380   10.7970   18.7280 N   0  3  0  0  0
   16.3620   10.8550   17.3250 C   0  0  0  0  0
   15.4370   12.0180   17.0230 C   0  0  0  0  0
   14.7530   12.5100   17.8980 O   0  0  0  0  0
   15.6890    9.5590   16.9280 C   0  0  0  0  0
   16.6590    8.4310   16.6700 C   0  0  0  0  0
   17.5310    8.6620   15.4570 C   0  0  0  0  0
   17.2280    9.4630   14.5850 O   0  0  0  0  0
   18.6290    7.9460   15.4080 N   0  0  0  0  0
   15.4370   12.4480   15.7060 N   0  0  0  0  0
   14.6780   13.5590   15.1180 C   0  0  0  0  0
   13.2880   13.0330   15.0280 C   0  0  0  0  0
   13.0310   11.8660   14.8780 O   0  0  0  0  0
   10.0300   12.3730   13.7570 O   0  0  0  0  0
   10.7980   13.2710   13.4160 C   0  0  0  0  0
   11.1300   14.4250   14.3620 C   0  0  0  0  0
   11.1280   15.7350   13.5730 C   0  0  0  0  0
   12.4490   14.1880   14.9650 N   0  0  0  0  0
   10.0540   14.5000   15.4470 C   0  0  0  0  0
   10.3090   13.4140   16.4940 C   0  0  0  0  0
   10.2950   14.0380   17.8910 C   0  0  0  0  0
    9.7370   13.0290   18.8960 C   0  0  0  0  0
   11.4920   13.4750   12.1150 N   0  0  0  0  0
   11.3510   12.7920   10.8210 C   0  0  0  0  0
   11.4590   11.2990   11.0710 C   0  0  0  0  0
   10.5980   10.5350   10.6030 O   0  0  0  0  0
   12.3880   13.2990    9.7940 C   0  0  0  0  0
   12.0380   14.6750    9.1540 C   0  0  0  0  0
   12.7000   14.8700    7.7740 C   0  0  0  0  0
   10.5350   14.8900    9.0090 C   0  0  0  0  0
   12.4710   10.9050   11.8600 N   0  0  0  0  0
   12.8680    9.4970   11.9960 C   0  0  0  0  0
   12.0580    8.7760   13.0420 C   0  0  0  0  0
   11.4780    7.7190   12.7620 O   0  0  0  0  0
   14.3820    9.3500   12.2540 C   0  0  0  0  0
   15.2140    9.7580   11.0460 C   0  0  0  0  0
   14.9520    9.2580    9.9360 O   0  0  0  0  0
   16.1070   10.6110   11.2000 O   0  0  0  0  0
    9.6780    8.2740   15.3480 C   0  0  0  0  0
   11.8480    8.8810   14.6720 N   0  0  0  0  0
    9.2440    7.1070   15.2520 O   0  0  0  0  0
   11.1530    8.5020   15.9350 C   0  0  0  0  0
   11.3660    9.7560   16.9670 C   0  0  0  0  0
   10.9400   10.5980   19.3440 C   0  0  0  0  0
   11.2510   11.9270   18.5920 C   0  0  0  0  0
   10.5890    9.4620   18.2860 C   0  0  0  0  0
   12.1030    7.2460   16.1130 C   0  0  0  0  0
    9.3380    9.3330   14.4790 N   0  0  0  0  0
    7.9180    9.3490   14.1650 C   0  0  0  0  0
    7.6200    8.9280   12.7070 C   0  0  0  0  0
    6.4570    8.9370   12.2830 O   0  0  0  0  0
    7.1570   10.6160   14.6150 C   0  0  0  0  0
    6.7820   10.7630   16.1330 C   0  0  0  0  0
    6.4660   12.2230   16.4940 C   0  0  0  0  0
    5.6160    9.8370   16.5420 C   0  0  0  0  0
    8.6560    8.5400   11.9390 N   0  0  0  0  0
    8.3970    8.0090   10.5780 C   0  0  0  0  0
    7.3940    8.9300    9.7910 C   0  0  0  0  0
    6.3680    8.4930    9.2180 O   0  0  0  0  0
    7.8850    6.5670   10.6830 C   0  0  0  0  0
    8.0000    5.7770    9.3390 C   0  0  0  0  0
    8.4870    6.3460    8.3250 O   0  0  0  0  0
    7.6230    4.5730    9.3190 O   0  0  0  0  0
    7.7170   10.2130    9.7800 N   0  0  0  0  0
    6.8060   11.2590    9.2900 C   0  0  0  0  0
    6.6190   11.1580    7.7820 C   0  0  0  0  0
    7.6150   11.0310    7.0680 O   0  0  0  0  0
    7.3470   12.6490    9.6830 C   0  0  0  0  0
    7.2080   12.8910   11.1840 C   0  0  0  0  0
    7.6910   14.3010   11.5220 C   0  0  0  0  0
    5.7770   12.6040   11.6930 C   0  0  0  0  0
    5.3740   11.2150    7.2780 N   0  0  0  0  0
    5.2030   11.1150    5.7960 C   0  0  0  0  0
    5.4600   12.4680    5.1160 C   0  0  0  0  0
    5.7880   13.4550    5.7940 O   0  0  0  0  0
    3.8400   10.5640    5.4010 C   0  0  0  0  0
    5.3050   12.4810    3.7860 N   0  0  0  0  0
    5.4420   13.6690    2.9060 C   0  0  0  0  0
    6.9040   14.0090    2.6400 C   0  0  0  0  0
    7.5210   13.4000    1.7710 O   0  0  0  0  0
    4.6490   14.8980    3.4060 C   0  0  0  0  0
    5.2770   16.1030    2.9770 O   0  0  0  0  0
    7.4762   14.9106    3.3088 O   0  0  0  0  0
   17.1914   11.6712   18.9937 H   0  0  0  0  0
   15.9029   10.6590   19.2971 H   0  0  0  0  0
   17.3827   10.0202   18.8742 H   0  0  0  0  0
   17.2746   11.0033   16.7476 H   0  0  0  0  0
   15.1459    9.7425   16.0009 H   0  0  0  0  0
   15.0472    9.2563   17.7554 H   0  0  0  0  0
   16.0756    7.5279   16.4905 H   0  0  0  0  0
   17.3139    8.3532   17.5379 H   0  0  0  0  0
   19.2686    8.0465   14.6199 H   0  0  0  0  0
   18.8432    7.2887   16.1580 H   0  0  0  0  0
   16.0382   11.9290   15.0661 H   0  0  0  0  0
   15.0705   13.8611   14.1470 H   0  0  0  0  0
   14.7396   14.4667   15.7184 H   0  0  0  0  0
   11.8756   15.6821   12.7815 H   0  0  0  0  0
   10.1427   15.8917   13.1340 H   0  0  0  0  0
   11.3643   16.5616   14.2431 H   0  0  0  0  0
   12.8420   15.0071   15.4287 H   0  0  0  0  0
    9.0730   14.3477   14.9970 H   0  0  0  0  0
   10.0867   15.4795   15.9241 H   0  0  0  0  0
   11.2804   12.9545   16.3113 H   0  0  0  0  0
    9.5293   12.6553   16.4274 H   0  0  0  0  0
    9.6668   14.9287   17.8843 H   0  0  0  0  0
   11.3109   14.3108   18.1767 H   0  0  0  0  0
    8.7213   12.7565   18.6094 H   0  0  0  0  0
   10.3655   12.1385   18.9019 H   0  0  0  0  0
    9.7279   13.4755   19.8903 H   0  0  0  0  0
   12.1883   14.2203   12.1228 H   0  0  0  0  0
   10.3791   13.0134   10.3800 H   0  0  0  0  0
   12.4214   12.5688    8.9854 H   0  0  0  0  0
   13.3311   13.4238   10.3260 H   0  0  0  0  0
   12.4362   15.4147    9.8485 H   0  0  0  0  0
   13.7833   14.8147    7.8811 H   0  0  0  0  0
   12.3602   14.0874    7.0956 H   0  0  0  0  0
   12.4225   15.8452    7.3739 H   0  0  0  0  0
   10.1172   14.1091    8.3737 H   0  0  0  0  0
   10.0669   14.8492    9.9925 H   0  0  0  0  0
   10.3506   15.8648    8.5576 H   0  0  0  0  0
   12.9850   11.6115   12.3863 H   0  0  0  0  0
   12.6524    9.0191   11.0404 H   0  0  0  0  0
   14.5889    8.3018   12.4697 H   0  0  0  0  0
   14.6491   10.0023   13.0855 H   0  0  0  0  0
   14.2361    8.6257   10.0321 H   0  0  0  0  0
   12.5590    9.5485   14.9710 H   0  0  0  0  0
   10.9899   10.6736   16.5145 H   0  0  0  0  0
   12.4271    9.8785   17.1839 H   0  0  0  0  0
   10.0920   10.7477   20.0123 H   0  0  0  0  0
   11.8108   10.2968   19.9263 H   0  0  0  0  0
   12.0994   11.7754   17.9247 H   0  0  0  0  0
   10.3790   12.2267   18.0108 H   0  0  0  0  0
   11.4914   12.7052   19.3164 H   0  0  0  0  0
   10.8778    8.4868   18.6781 H   0  0  0  0  0
    9.5165    9.4536   18.0916 H   0  0  0  0  0
   11.6391    6.5352   16.7969 H   0  0  0  0  0
   12.2602    6.7708   15.1447 H   0  0  0  0  0
   13.0607    7.5711   16.5194 H   0  0  0  0  0
   10.0097   10.0082   14.1139 H   0  0  0  0  0
    7.4950    8.5689   14.7979 H   0  0  0  0  0
    6.2038   10.5791   14.0876 H   0  0  0  0  0
    7.8336   11.4448   14.4064 H   0  0  0  0  0
    7.6591   10.4511   16.7001 H   0  0  0  0  0
    7.3391   12.8432   16.2912 H   0  0  0  0  0
    5.6248   12.5703   15.8942 H   0  0  0  0  0
    6.2108   12.2873   17.5517 H   0  0  0  0  0
    4.7339   10.0829   15.9508 H   0  0  0  0  0
    5.8976    8.7994   16.3626 H   0  0  0  0  0
    5.3963    9.9774   17.6004 H   0  0  0  0  0
    9.6110    8.6106   12.2901 H   0  0  0  0  0
    9.3279    8.0051   10.0110 H   0  0  0  0  0
    6.8300    6.6087   10.9538 H   0  0  0  0  0
    8.4960    6.0514   11.4239 H   0  0  0  0  0
    7.2848    4.3304   10.1841 H   0  0  0  0  0
    8.6362   10.4884   10.1258 H   0  0  0  0  0
    5.8299   11.1164    9.7536 H   0  0  0  0  0
    6.7722   13.4087    9.1533 H   0  0  0  0  0
    8.4033   12.6988    9.4188 H   0  0  0  0  0
    7.8438   12.1820   11.7143 H   0  0  0  0  0
    8.7368   14.4045   11.2328 H   0  0  0  0  0
    7.0888   15.0298   10.9794 H   0  0  0  0  0
    7.5906   14.4708   12.5940 H   0  0  0  0  0
    5.0719   13.2564   11.1780 H   0  0  0  0  0
    5.5235   11.5629   11.4929 H   0  0  0  0  0
    5.7300   12.7909   12.7658 H   0  0  0  0  0
    4.5662   11.3237    7.8913 H   0  0  0  0  0
    5.9493   10.4025    5.4446 H   0  0  0  0  0
    3.7174    9.5658    5.8212 H   0  0  0  0  0
    3.0590   11.2199    5.7856 H   0  0  0  0  0
    3.7711   10.5132    4.3144 H   0  0  0  0  0
    5.0719   11.5952    3.3371 H   0  0  0  0  0
    4.9884   13.3895    1.9551 H   0  0  0  0  0
    4.6191   14.8818    4.4955 H   0  0  0  0  0
    3.6393   14.8591    2.9973 H   0  0  0  0  0
    4.7733   16.8558    3.2950 H   0  0  0  0  0
    6.8556   15.2818    3.9402 H   0  0  0  0  0
  2  1  1  0  0  0
  3  2  1  0  0  0
  2  5  1  0  0  0
  3  4  2  0  0  0
 10  3  1  0  0  0
  5  6  1  0  0  0
  6  7  1  0  0  0
  7  8  2  0  0  0
  7  9  1  0  0  0
 11 10  1  0  0  0
 12 11  1  0  0  0
 12 13  2  0  0  0
 18 12  1  0  0  0
 15 14  2  0  0  0
 15 16  1  0  0  0
 23 15  1  0  0  0
 16 17  1  0  0  0
 16 18  1  0  0  0
 16 19  1  0  0  0
 19 20  1  0  0  0
 20 21  1  0  0  0
 21 22  1  0  0  0
 24 23  1  0  0  0
 25 24  1  0  0  0
 24 27  1  0  0  0
 25 26  2  0  0  0
 31 25  1  0  0  0
 27 28  1  0  0  0
 28 29  1  0  0  0
 28 30  1  0  0  0
 32 31  1  0  0  0
 33 32  1  0  0  0
 32 35  1  0  0  0
 33 34  2  0  0  0
 40 33  1  0  0  0
 35 36  1  0  0  0
 36 37  1  0  0  0
 36 38  2  0  0  0
 39 41  2  0  0  0
 42 39  1  0  0  0
 39 48  1  0  0  0
 42 40  1  0  0  0
 43 42  1  0  0  0
 42 47  1  0  0  0
 46 43  1  0  0  0
 44 45  1  0  0  0
 44 46  1  0  0  0
 48 49  1  0  0  0
 49 50  1  0  0  0
 49 52  1  0  0  0
 50 51  2  0  0  0
 50 56  1  0  0  0
 52 53  1  0  0  0
 53 54  1  0  0  0
 53 55  1  0  0  0
 56 57  1  0  0  0
 57 58  1  0  0  0
 57 60  1  0  0  0
 58 59  2  0  0  0
 58 64  1  0  0  0
 60 61  1  0  0  0
 61 62  2  0  0  0
 61 63  1  0  0  0
 64 65  1  0  0  0
 65 66  1  0  0  0
 65 68  1  0  0  0
 66 67  2  0  0  0
 66 72  1  0  0  0
 68 69  1  0  0  0
 69 70  1  0  0  0
 69 71  1  0  0  0
 72 73  1  0  0  0
 73 74  1  0  0  0
 73 76  1  0  0  0
 74 75  2  0  0  0
 74 77  1  0  0  0
 77 78  1  0  0  0
 78 79  1  0  0  0
 78 81  1  0  0  0
 79 80  2  0  0  0
 81 82  1  0  0  0
 79 83  1  0  0  0
  1 84  1  0  0  0
  1 85  1  0  0  0
  1 86  1  0  0  0
  2 87  1  0  0  0
  5 88  1  0  0  0
  5 89  1  0  0  0
  6 90  1  0  0  0
  6 91  1  0  0  0
  9 92  1  0  0  0
  9 93  1  0  0  0
 10 94  1  0  0  0
 11 95  1  0  0  0
 11 96  1  0  0  0
 17 97  1  0  0  0
 17 98  1  0  0  0
 17 99  1  0  0  0
 18100  1  0  0  0
 19101  1  0  0  0
 19102  1  0  0  0
 20103  1  0  0  0
 20104  1  0  0  0
 21105  1  0  0  0
 21106  1  0  0  0
 22107  1  0  0  0
 22108  1  0  0  0
 22109  1  0  0  0
 23110  1  0  0  0
 24111  1  0  0  0
 27112  1  0  0  0
 27113  1  0  0  0
 28114  1  0  0  0
 29115  1  0  0  0
 29116  1  0  0  0
 29117  1  0  0  0
 30118  1  0  0  0
 30119  1  0  0  0
 30120  1  0  0  0
 31121  1  0  0  0
 32122  1  0  0  0
 35123  1  0  0  0
 35124  1  0  0  0
 37125  1  0  0  0
 40126  1  0  0  0
 43127  1  0  0  0
 43128  1  0  0  0
 44129  1  0  0  0
 44130  1  0  0  0
 45131  1  0  0  0
 45132  1  0  0  0
 45133  1  0  0  0
 46134  1  0  0  0
 46135  1  0  0  0
 47136  1  0  0  0
 47137  1  0  0  0
 47138  1  0  0  0
 48139  1  0  0  0
 49140  1  0  0  0
 52141  1  0  0  0
 52142  1  0  0  0
 53143  1  0  0  0
 54144  1  0  0  0
 54145  1  0  0  0
 54146  1  0  0  0
 55147  1  0  0  0
 55148  1  0  0  0
 55149  1  0  0  0
 56150  1  0  0  0
 57151  1  0  0  0
 60152  1  0  0  0
 60153  1  0  0  0
 63154  1  0  0  0
 64155  1  0  0  0
 65156  1  0  0  0
 68157  1  0  0  0
 68158  1  0  0  0
 69159  1  0  0  0
 70160  1  0  0  0
 70161  1  0  0  0
 70162  1  0  0  0
 71163  1  0  0  0
 71164  1  0  0  0
 71165  1  0  0  0
 72166  1  0  0  0
 73167  1  0  0  0
 76168  1  0  0  0
 76169  1  0  0  0
 76170  1  0  0  0
 77171  1  0  0  0
 78172  1  0  0  0
 81173  1  0  0  0
 81174  1  0  0  0
 82175  1  0  0  0
 83176  1  0  0  0
M  END
$$$$
