5hld_ligand
  -I-interpret- 

 41 42  0  0  0  0  0  0  0  0999 V2000
   -3.2730   14.2360   60.2950 O   0  0  0  0  0
   -3.6930   14.7110   61.3800 C   0  0  0  0  0
   -2.9360   14.8370   62.3740 O   0  0  0  0  0
   -5.1010   15.1810   61.5130 C   0  0  0  0  0
   -5.2390   16.4680   61.9970 N   0  3  0  0  0
   -6.2000   14.4730   60.9560 C   0  0  0  0  0
   -6.1610   12.9720   61.2260 C   0  0  0  0  0
   -7.5400   14.9490   61.1800 C   0  0  0  0  0
   -7.7350   16.2900   62.4100 S   0  0  0  0  0
   -6.3880   17.1090   61.4720 C   0  0  0  0  0
   -6.3480   18.5910   61.3700 C   0  0  0  0  0
   -5.1470   19.1290   60.9470 C   0  0  0  0  0
   -4.5580   18.6980   59.9560 O   0  0  0  0  0
   -7.2000   18.6740   60.2010 N   0  0  0  0  0
   -8.6050   19.0420   60.2060 C   0  0  0  0  0
   -9.1980   19.2890   61.2310 O   0  0  0  0  0
   -9.3660   19.0710   58.8630 C   0  0  0  0  0
   -9.6700   17.6230   58.5080 C   0  0  0  0  0
  -10.7480   16.6490   59.3820 S   0  0  0  0  0
  -10.5140   15.2340   58.3890 C   0  0  0  0  0
   -9.5600   15.5650   57.3550 C   0  0  0  0  0
   -9.0970   16.9420   57.4540 C   0  0  0  0  0
   -3.9896   14.2174   59.6564 H   0  0  0  0  0
   -5.5111   14.5059   62.2641 H   0  0  0  0  0
   -4.4177   17.0046   61.7179 H   0  0  0  0  0
   -5.3349   16.4198   63.0113 H   0  0  0  0  0
   -6.0090   14.6975   59.9066 H   0  0  0  0  0
   -6.4536   12.7822   62.2587 H   0  0  0  0  0
   -6.8516   12.4649   60.5522 H   0  0  0  0  0
   -5.1500   12.6003   61.0593 H   0  0  0  0  0
   -8.1013   14.0992   61.5684 H   0  0  0  0  0
   -7.8772   15.3606   60.2287 H   0  0  0  0  0
   -6.5249   16.9792   60.3984 H   0  0  0  0  0
   -6.5772   19.0882   62.3125 H   0  0  0  0  0
   -4.7101   19.9567   61.5058 H   0  0  0  0  0
   -6.7775   18.4556   59.2986 H   0  0  0  0  0
   -8.7680   19.5464   58.0855 H   0  0  0  0  0
  -10.2835   19.6534   58.9466 H   0  0  0  0  0
  -11.0020   14.2688   58.5246 H   0  0  0  0  0
   -9.2257   14.8647   56.5895 H   0  0  0  0  0
   -8.3753   17.3869   56.7689 H   0  0  0  0  0
  1  2  1  0  0  0
  2  3  2  0  0  0
  2  4  1  0  0  0
  4  5  1  0  0  0
  4  6  1  0  0  0
  5 10  1  0  0  0
  6  7  1  0  0  0
  6  8  1  0  0  0
  8  9  1  0  0  0
  9 10  1  0  0  0
 10 11  1  0  0  0
 11 12  1  0  0  0
 11 14  1  0  0  0
 12 13  2  0  0  0
 14 15  1  0  0  0
 15 16  2  0  0  0
 15 17  1  0  0  0
 17 18  1  0  0  0
 18 19  4  0  0  0
 18 22  4  0  0  0
 19 20  4  0  0  0
 20 21  4  0  0  0
 21 22  4  0  0  0
  1 23  1  0  0  0
  4 24  1  0  0  0
  5 25  1  0  0  0
  5 26  1  0  0  0
  6 27  1  0  0  0
  7 28  1  0  0  0
  7 29  1  0  0  0
  7 30  1  0  0  0
  8 31  1  0  0  0
  8 32  1  0  0  0
 10 33  1  0  0  0
 11 34  1  0  0  0
 12 35  1  0  0  0
 14 36  1  0  0  0
 17 37  1  0  0  0
 17 38  1  0  0  0
 20 39  1  0  0  0
 21 40  1  0  0  0
 22 41  1  0  0  0
M  END
$$$$
