5he2_ligand
  -I-interpret- 

 67 71  0  0  0  0  0  0  0  0999 V2000
  -20.0660   28.7510   16.3640 O   0  0  0  0  0
  -19.5560   28.0590   17.2040 C   0  0  0  0  0
  -19.9920   26.8740   17.6820 N   0  0  0  0  0
  -21.2310   26.2960   17.5610 C   0  0  0  0  0
  -22.2470   26.7380   16.7240 C   0  0  0  0  0
  -23.4860   26.1040   16.6820 C   0  0  0  0  0
  -24.6470   26.4170   15.9100 C   0  0  0  0  0
  -25.6250   25.5570   16.1940 N   0  0  0  0  0
  -25.0260   24.7280   17.1600 N   0  0  0  0  0
  -23.7460   25.0300   17.4620 C   0  0  0  0  0
  -22.7670   24.5520   18.3240 C   0  0  0  0  0
  -21.5210   25.1920   18.3690 C   0  0  0  0  0
  -18.3530   28.6840   17.7980 C   0  0  0  0  0
  -18.4470   29.1320   19.1930 C   0  0  0  0  0
  -19.7130   28.9560   19.9900 C   0  0  0  0  0
  -17.3990   29.7520   19.7600 N   0  0  0  0  0
  -16.3240   30.1440   19.0600 C   0  0  0  0  0
  -15.4670   30.8470   19.6490 O   0  0  0  0  0
  -16.1600   29.8170   17.7650 N   0  0  0  0  0
  -17.0980   28.9270   17.0350 C   0  0  0  0  0
  -16.3710   27.6760   16.6350 C   0  0  0  0  0
  -15.1530   27.2970   17.2220 C   0  0  0  0  0
  -16.8930   26.8980   15.6110 C   0  0  0  0  0
  -16.2210   25.7560   15.2070 C   0  0  0  0  0
  -15.0150   25.3830   15.8050 C   0  0  0  0  0
  -14.3730   24.2600   15.4020 F   0  0  0  0  0
  -14.4850   26.1450   16.8200 C   0  0  0  0  0
  -13.1580   25.7510   17.3980 C   0  0  0  0  0
  -12.2760   25.5000   16.5940 O   0  0  0  0  0
  -12.8590   25.7480   18.6830 N   0  0  0  0  0
  -11.4780   25.5590   19.0540 C   0  0  0  0  0
  -11.2800   25.2770   20.5180 C   0  0  0  0  0
  -11.3780   23.9680   20.9740 C   0  0  0  0  0
  -11.6740   22.9220   20.1290 O   0  0  0  0  0
  -12.9540   22.8310   19.5020 C   0  0  0  0  0
  -10.9780   26.3080   21.4060 C   0  0  0  0  0
  -10.8620   27.6220   20.9870 O   0  0  0  0  0
   -9.6460   28.1020   20.3660 C   0  0  0  0  0
  -10.7880   26.0320   22.7600 C   0  0  0  0  0
  -10.8940   24.7210   23.2260 C   0  0  0  0  0
  -11.1760   23.6920   22.3240 C   0  0  0  0  0
  -19.3046   26.3327   18.2063 H   0  0  0  0  0
  -22.0703   27.6025   16.0841 H   0  0  0  0  0
  -24.7217   27.2367   15.1955 H   0  0  0  0  0
  -22.9658   23.6884   18.9586 H   0  0  0  0  0
  -20.7576   24.8194   19.0520 H   0  0  0  0  0
  -20.5266   29.4909   19.5000 H   0  0  0  0  0
  -19.9582   27.8957   20.0507 H   0  0  0  0  0
  -19.5671   29.3545   20.9940 H   0  0  0  0  0
  -17.4215   29.9321   20.7637 H   0  0  0  0  0
  -15.3571   30.1967   17.2635 H   0  0  0  0  0
  -17.4357   29.4183   16.1225 H   0  0  0  0  0
  -14.7226   27.9176   18.0080 H   0  0  0  0  0
  -17.8269   27.1841   15.1272 H   0  0  0  0  0
  -16.6393   25.1397   14.4112 H   0  0  0  0  0
  -13.5815   25.8753   19.3916 H   0  0  0  0  0
  -10.9490   26.4841   18.8253 H   0  0  0  0  0
  -11.1069   24.6954   18.5021 H   0  0  0  0  0
  -13.7283   22.7708   20.2668 H   0  0  0  0  0
  -13.1186   23.7145   18.8851 H   0  0  0  0  0
  -12.9885   21.9385   18.8772 H   0  0  0  0  0
   -8.8136   27.9820   21.0594 H   0  0  0  0  0
   -9.4513   27.5283   19.4599 H   0  0  0  0  0
   -9.7605   29.1560   20.1127 H   0  0  0  0  0
  -10.5568   26.8402   23.4539 H   0  0  0  0  0
  -10.7579   24.5015   24.2850 H   0  0  0  0  0
  -11.2385   22.6637   22.6802 H   0  0  0  0  0
  1  2  2  0  0  0
  2  3  1  0  0  0
  2 13  1  0  0  0
  3  4  1  0  0  0
  4  5  4  0  0  0
  4 12  4  0  0  0
  5  6  4  0  0  0
  6  7  4  0  0  0
  6 10  4  0  0  0
  7  8  4  0  0  0
  8  9  4  0  0  0
  9 10  4  0  0  0
 10 11  4  0  0  0
 11 12  4  0  0  0
 13 14  2  0  0  0
 13 20  1  0  0  0
 14 15  1  0  0  0
 14 16  1  0  0  0
 16 17  1  0  0  0
 17 18  2  0  0  0
 17 19  1  0  0  0
 19 20  1  0  0  0
 20 21  1  0  0  0
 21 22  4  0  0  0
 21 23  4  0  0  0
 22 27  4  0  0  0
 23 24  4  0  0  0
 24 25  4  0  0  0
 25 26  1  0  0  0
 25 27  4  0  0  0
 27 28  1  0  0  0
 28 29  2  0  0  0
 28 30  1  0  0  0
 30 31  1  0  0  0
 31 32  1  0  0  0
 32 33  4  0  0  0
 32 36  4  0  0  0
 33 34  1  0  0  0
 33 41  4  0  0  0
 34 35  1  0  0  0
 36 37  1  0  0  0
 36 39  4  0  0  0
 37 38  1  0  0  0
 39 40  4  0  0  0
 40 41  4  0  0  0
  3 42  1  0  0  0
  5 43  1  0  0  0
  7 44  1  0  0  0
 11 45  1  0  0  0
 12 46  1  0  0  0
 15 47  1  0  0  0
 15 48  1  0  0  0
 15 49  1  0  0  0
 16 50  1  0  0  0
 19 51  1  0  0  0
 20 52  1  0  0  0
 22 53  1  0  0  0
 23 54  1  0  0  0
 24 55  1  0  0  0
 30 56  1  0  0  0
 31 57  1  0  0  0
 31 58  1  0  0  0
 35 59  1  0  0  0
 35 60  1  0  0  0
 35 61  1  0  0  0
 38 62  1  0  0  0
 38 63  1  0  0  0
 38 64  1  0  0  0
 39 65  1  0  0  0
 40 66  1  0  0  0
 41 67  1  0  0  0
M  END
$$$$
