5wdj_ligand
  -I-interpret- 

 27 29  0  0  0  0  0  0  0  0999 V2000
  -22.7930  -51.3290   15.9630 C   0  0  0  0  0
  -22.6020  -49.9510   15.8350 C   0  0  0  0  0
  -24.2100  -50.9490   17.8790 C   0  0  0  0  0
  -19.8680  -47.9190   16.1320 N   0  0  0  0  0
  -21.7260  -49.4080   14.7230 C   0  0  0  0  0
  -24.0240  -49.5710   17.7590 C   0  0  0  0  0
  -23.5980  -51.8290   16.9850 C   0  0  0  0  0
  -23.2190  -49.0730   16.7320 C   0  0  0  0  0
  -19.4320  -45.9630   17.3340 N   0  0  0  0  0
  -19.0410  -47.2020   16.9420 C   0  0  0  0  0
  -19.5280  -49.1550   15.7080 C   0  0  0  0  0
  -18.2180  -49.7120   16.1510 C   0  0  0  0  0
  -17.5480  -50.8680   15.9510 N   0  0  0  0  0
  -16.3370  -50.7860   16.6620 N   0  0  0  0  0
  -16.2860  -49.5360   17.3040 N   0  0  0  0  0
  -17.4410  -48.9140   16.9740 C   0  0  0  0  0
  -17.8420  -47.6830   17.3670 N   0  0  0  0  0
  -20.3790  -49.8570   14.8980 O   0  0  0  0  0
  -22.3125  -52.0131   15.2636 H   0  0  0  0  0
  -24.8389  -51.3415   18.6781 H   0  0  0  0  0
  -21.7472  -48.3185   14.7493 H   0  0  0  0  0
  -22.1013  -49.7650   13.7640 H   0  0  0  0  0
  -24.5032  -48.8888   18.4612 H   0  0  0  0  0
  -23.7491  -52.9038   17.0858 H   0  0  0  0  0
  -23.0713  -47.9979   16.6294 H   0  0  0  0  0
  -20.3279  -45.5884   17.0219 H   0  0  0  0  0
  -18.8300  -45.4064   17.9407 H   0  0  0  0  0
  2  1  4  0  0  0
  1  7  4  0  0  0
  5  2  1  0  0  0
  2  8  4  0  0  0
  6  3  4  0  0  0
  7  3  4  0  0  0
  4 10  4  0  0  0
 11  4  4  0  0  0
 18  5  1  0  0  0
  8  6  4  0  0  0
 10  9  1  0  0  0
 10 17  4  0  0  0
 11 12  4  0  0  0
 11 18  1  0  0  0
 12 13  4  0  0  0
 12 16  4  0  0  0
 13 14  4  0  0  0
 14 15  4  0  0  0
 15 16  4  0  0  0
 16 17  4  0  0  0
  1 19  1  0  0  0
  3 20  1  0  0  0
  5 21  1  0  0  0
  5 22  1  0  0  0
  6 23  1  0  0  0
  7 24  1  0  0  0
  8 25  1  0  0  0
  9 26  1  0  0  0
  9 27  1  0  0  0
M  END
$$$$
