1eat_ligand
  -I-interpret- 

 57 58  0  0  0  0  0  0  0  0999 V2000
   -8.2040   22.4010   36.7880 C   0  0  0  0  0
   -8.7890   23.5050   37.7160 C   0  0  0  0  0
  -10.3040   23.4010   37.8790 C   0  0  0  0  0
  -11.1400   24.6340   38.2900 C   0  0  0  0  0
  -12.6170   24.4600   38.0110 C   0  0  0  0  0
  -10.9110   25.0880   39.7170 C   0  0  0  0  0
  -11.3540   21.2360   38.4010 C   0  0  0  0  0
  -11.4600   20.1430   39.4620 C   0  0  0  0  0
  -13.8800   19.6170   39.3700 C   0  0  0  0  0
  -14.8990   18.5650   39.2610 C   0  0  0  0  0
  -14.4860   17.3190   38.9440 C   0  0  0  0  0
  -12.2340   17.9170   38.7430 C   0  0  0  0  0
  -10.8370   17.4790   38.4100 C   0  0  0  0  0
  -10.1170   18.0820   37.3630 C   0  0  0  0  0
   -8.8520   17.6470   37.0630 C   0  0  0  0  0
   -8.3080   16.5610   37.7550 C   0  0  0  0  0
   -9.0600   15.8830   38.7070 C   0  0  0  0  0
  -10.3000   16.3570   39.0490 C   0  0  0  0  0
  -16.5730   18.1200   42.0370 C   0  0  0  0  0
  -10.5670   22.2490   38.7670 N   0  0  0  0  0
  -12.5550   19.2090   39.1760 N   0  0  0  0  0
  -13.1710   17.0010   38.6600 N   0  0  0  0  0
  -16.2420   18.9510   39.5160 N   0  0  0  0  0
   -6.9670   16.1770   37.5120 N   0  0  0  0  0
   -8.4550   24.7180   37.1560 O   0  0  0  0  0
  -12.0050   21.1960   37.3630 O   0  0  0  0  0
  -14.1720   20.7850   39.6380 O   0  0  0  0  0
  -18.4720   18.8100   40.5070 O   0  0  0  0  0
  -17.2400   16.7790   40.0020 O   0  0  0  0  0
   -8.4420   21.1710   37.2250 F   0  0  0  0  0
   -6.8910   22.4790   36.6400 F   0  0  0  0  0
   -8.7120   22.4680   35.5710 F   0  0  0  0  0
  -17.2630   18.1010   40.4550 S   0  0  0  0  0
   -8.3720   23.3896   38.7164 H   0  0  0  0  0
  -10.6704   23.2848   36.8590 H   0  0  0  0  0
  -10.7696   25.4338   37.6487 H   0  0  0  0  0
  -13.0277   23.7113   38.6884 H   0  0  0  0  0
  -13.1288   25.4101   38.1642 H   0  0  0  0  0
  -12.7548   24.1337   36.9802 H   0  0  0  0  0
  -11.4141   26.0413   39.8788 H   0  0  0  0  0
  -11.3130   24.3425   40.4031 H   0  0  0  0  0
   -9.8416   25.2057   39.8923 H   0  0  0  0  0
  -11.6570   20.6172   40.4235 H   0  0  0  0  0
  -10.5253   19.5823   39.4704 H   0  0  0  0  0
  -15.2287   16.5219   38.9103 H   0  0  0  0  0
  -10.5644   18.8945   36.7906 H   0  0  0  0  0
   -8.2720   18.1466   36.2870 H   0  0  0  0  0
   -8.6671   14.9818   39.1778 H   0  0  0  0  0
  -10.8736   15.8539   39.8274 H   0  0  0  0  0
  -16.3949   19.1512   42.3420 H   0  0  0  0  0
  -17.2605   17.6461   42.7376 H   0  0  0  0  0
  -15.6293   17.5746   42.0270 H   0  0  0  0  0
  -10.1326   22.2279   39.6896 H   0  0  0  0  0
  -16.5857   19.8097   39.0860 H   0  0  0  0  0
   -6.4037   16.6919   36.8352 H   0  0  0  0  0
   -6.5643   15.3855   38.0137 H   0  0  0  0  0
   -7.5015   24.7724   37.0583 H   0  0  0  0  0
  2  1  1  0  0  0
  1 30  1  0  0  0
  1 31  1  0  0  0
  1 32  1  0  0  0
  3  2  1  0  0  0
  2 25  1  0  0  0
  3  4  1  0  0  0
 20  3  1  0  0  0
  4  5  1  0  0  0
  4  6  1  0  0  0
  8  7  1  0  0  0
  7 20  1  0  0  0
  7 26  2  0  0  0
 21  8  1  0  0  0
 10  9  1  0  0  0
  9 21  1  0  0  0
  9 27  2  0  0  0
 10 11  2  0  0  0
 23 10  1  0  0  0
 11 22  1  0  0  0
 12 13  1  0  0  0
 21 12  1  0  0  0
 22 12  2  0  0  0
 13 14  4  0  0  0
 13 18  4  0  0  0
 14 15  4  0  0  0
 15 16  4  0  0  0
 17 16  4  0  0  0
 16 24  1  0  0  0
 18 17  4  0  0  0
 33 19  1  0  0  0
 23 33  1  0  0  0
 33 28  2  0  0  0
 33 29  2  0  0  0
  2 34  1  0  0  0
  3 35  1  0  0  0
  4 36  1  0  0  0
  5 37  1  0  0  0
  5 38  1  0  0  0
  5 39  1  0  0  0
  6 40  1  0  0  0
  6 41  1  0  0  0
  6 42  1  0  0  0
  8 43  1  0  0  0
  8 44  1  0  0  0
 11 45  1  0  0  0
 14 46  1  0  0  0
 15 47  1  0  0  0
 17 48  1  0  0  0
 18 49  1  0  0  0
 19 50  1  0  0  0
 19 51  1  0  0  0
 19 52  1  0  0  0
 20 53  1  0  0  0
 23 54  1  0  0  0
 24 55  1  0  0  0
 24 56  1  0  0  0
 25 57  1  0  0  0
M  END
$$$$
