2d1x_ligand
  -I-interpret- 

140145  0  0  0  0  0  0  0  0999 V2000
    7.7230   60.2540   28.6700 N   0  3  0  0  0
    8.6340   60.7570   27.6010 C   0  0  0  0  0
    7.8900   61.7460   26.7120 C   0  0  0  0  0
    6.6570   61.7920   26.7190 O   0  0  0  0  0
    9.1520   59.5880   26.7530 C   0  0  0  0  0
   10.2230   59.9630   25.7270 C   0  0  0  0  0
   10.7420   58.7230   25.0100 C   0  0  0  0  0
   11.7780   59.0660   23.9470 C   0  0  0  0  0
   13.0310   59.6490   24.5050 N   0  3  0  0  0
    8.6430   62.5360   25.9520 N   0  0  0  0  0
    8.0560   63.5250   25.0570 C   0  0  0  0  0
    7.3290   62.8370   23.9160 C   0  0  0  0  0
    7.5510   61.6600   23.6490 O   0  0  0  0  0
    9.1390   64.4310   24.4720 C   0  0  0  0  0
   10.1330   63.7160   23.5650 C   0  0  0  0  0
   10.9930   64.7260   22.8260 C   0  0  0  0  0
   11.9990   64.1240   21.9540 N   0  0  0  0  0
   13.0670   63.4560   22.3830 C   0  0  0  0  0
   13.2750   63.2940   23.6820 N   0  0  0  0  0
   13.9380   62.9650   21.5120 N   0  0  0  0  0
    6.4460   63.5670   23.2250 N   0  0  0  0  0
    5.7200   62.9600   22.1100 C   0  0  0  0  0
    6.6460   62.8130   20.9020 C   0  0  0  0  0
    7.6080   63.5610   20.7520 O   0  0  0  0  0
    4.5920   63.9580   21.8590 C   0  0  0  0  0
    5.2640   65.2710   22.1600 C   0  0  0  0  0
    6.0040   64.9560   23.4490 C   0  0  0  0  0
    6.3740   61.8340   20.0320 N   0  0  0  0  0
    7.2390   61.6700   18.8620 C   0  0  0  0  0
    7.0270   62.8270   17.8980 C   0  0  0  0  0
    5.9660   63.4410   17.8850 O   0  0  0  0  0
    6.7820   60.3330   18.2860 C   0  0  0  0  0
    5.3270   60.2970   18.6450 C   0  0  0  0  0
    5.3310   60.7920   20.0700 C   0  0  0  0  0
    8.0410   63.1570   17.0910 N   0  0  0  0  0
    7.8340   64.2650   16.1650 C   0  0  0  0  0
    6.9900   63.7770   15.0040 C   0  0  0  0  0
    7.0390   62.6050   14.6430 O   0  0  0  0  0
    9.2570   64.6300   15.7480 C   0  0  0  0  0
    9.9340   63.3110   15.7360 C   0  0  0  0  0
    9.4220   62.6510   17.0060 C   0  0  0  0  0
    6.1880   64.6640   14.4110 N   0  0  0  0  0
    5.3690   64.2170   13.2880 C   0  0  0  0  0
    6.2700   63.9170   12.0970 C   0  0  0  0  0
    7.3730   64.4590   11.9940 O   0  0  0  0  0
    4.4580   65.4160   13.0390 C   0  0  0  0  0
    5.3510   66.5690   13.3690 C   0  0  0  0  0
    6.0200   66.1090   14.6470 C   0  0  0  0  0
    5.8260   63.0270   11.1940 N   0  0  0  0  0
    6.6400   62.7010   10.0200 C   0  0  0  0  0
    6.9630   64.0130    9.3020 C   0  0  0  0  0
    6.1740   64.9540    9.3540 O   0  0  0  0  0
    5.7090   61.8100    9.1970 C   0  0  0  0  0
    4.8840   61.1260   10.2450 C   0  0  0  0  0
    4.5730   62.2490   11.2040 C   0  0  0  0  0
    8.1170   64.0950    8.6230 N   0  0  0  0  0
    8.4490   65.3440    7.9290 C   0  0  0  0  0
    7.4210   65.7170    6.8630 C   0  0  0  0  0
    6.7670   64.8470    6.2850 O   0  0  0  0  0
    9.8290   65.0550    7.3400 C   0  0  0  0  0
    9.7670   63.5900    7.0640 C   0  0  0  0  0
    9.1110   63.0510    8.3190 C   0  0  0  0  0
    7.2810   67.0160    6.6140 N   0  0  0  0  0
    6.3330   67.4790    5.6180 C   0  0  0  0  0
    6.7020   67.0190    4.2200 C   0  0  0  0  0
    7.7550   66.3600    4.0720 O   0  0  0  0  0
    5.9263   67.3088    3.1792 O   0  0  0  0  0
    8.2269   59.5929   29.2611 H   0  0  0  0  0
    7.3984   61.0385   29.2353 H   0  0  0  0  0
    6.9231   59.7879   28.2418 H   0  0  0  0  0
    9.4817   61.2582   28.0682 H   0  0  0  0  0
    8.3000   59.2016   26.1936 H   0  0  0  0  0
    9.6089   58.8767   27.4410 H   0  0  0  0  0
   11.0533   60.4433   26.2448 H   0  0  0  0  0
    9.7845   60.6371   24.9912 H   0  0  0  0  0
    9.8991   58.2371   24.5185 H   0  0  0  0  0
   11.2150   58.0763   25.7491 H   0  0  0  0  0
   11.3354   59.8115   23.2864 H   0  0  0  0  0
   12.0455   58.1395   23.4389 H   0  0  0  0  0
   13.6777   59.8542   23.7434 H   0  0  0  0  0
   12.8104   60.5094   25.0064 H   0  0  0  0  0
   13.4594   58.9810   25.1458 H   0  0  0  0  0
    9.6582   62.4473   25.9967 H   0  0  0  0  0
    7.3530   64.1244   25.6355 H   0  0  0  0  0
    9.7048   64.8368   25.3106 H   0  0  0  0  0
    8.6345   65.1828   23.8650 H   0  0  0  0  0
    9.5844   63.1165   22.8385 H   0  0  0  0  0
   10.7753   63.0790   24.1731 H   0  0  0  0  0
   11.5241   65.3101   23.5776 H   0  0  0  0  0
   10.3287   65.3160   22.1945 H   0  0  0  0  0
   11.8740   64.2226   20.9465 H   0  0  0  0  0
   12.6154   63.6819   24.3564 H   0  0  0  0  0
   14.7635   62.4653   21.8427 H   0  0  0  0  0
   13.7825   63.0870   20.5113 H   0  0  0  0  0
    5.3450   61.9559   22.3082 H   0  0  0  0  0
    3.7088   63.7745   22.4709 H   0  0  0  0  0
    4.1834   63.9032   20.8500 H   0  0  0  0  0
    5.9179   65.6160   21.3590 H   0  0  0  0  0
    4.5658   66.1027   22.2542 H   0  0  0  0  0
    6.8274   65.6414   23.6497 H   0  0  0  0  0
    5.3848   65.0712   24.3386 H   0  0  0  0  0
    8.3065   61.6736   19.0821 H   0  0  0  0  0
    7.3390   59.4859   18.6863 H   0  0  0  0  0
    6.9565   60.2512   17.2132 H   0  0  0  0  0
    4.7084   60.9036   17.9836 H   0  0  0  0  0
    4.8847   59.3065   18.5378 H   0  0  0  0  0
    4.3612   61.1649   20.3993 H   0  0  0  0  0
    5.5329   60.0066   20.7984 H   0  0  0  0  0
    7.3062   65.1249   16.5775 H   0  0  0  0  0
    9.7290   65.3470   16.4197 H   0  0  0  0  0
    9.3030   65.1432   14.7875 H   0  0  0  0  0
    9.7123   62.7310   14.8401 H   0  0  0  0  0
   11.0205   63.3946   15.7124 H   0  0  0  0  0
    9.4779   61.5629   16.9753 H   0  0  0  0  0
   10.0207   62.8915   17.8845 H   0  0  0  0  0
    4.8019   63.3036   13.4675 H   0  0  0  0  0
    3.5472   65.3941   13.6374 H   0  0  0  0  0
    4.0672   65.4537   12.0222 H   0  0  0  0  0
    6.0606   66.8009   12.5748 H   0  0  0  0  0
    4.8108   67.5087   13.4838 H   0  0  0  0  0
    6.9600   66.6229   14.8480 H   0  0  0  0  0
    5.4373   66.3327   15.5406 H   0  0  0  0  0
    7.5891   62.2060   10.2254 H   0  0  0  0  0
    6.2488   61.1092    8.5601 H   0  0  0  0  0
    5.1055   62.3731    8.4851 H   0  0  0  0  0
    3.9901   60.6510    9.8408 H   0  0  0  0  0
    5.4026   60.2925   10.7187 H   0  0  0  0  0
    3.7021   62.8349   10.9103 H   0  0  0  0  0
    4.2933   61.8992   12.1977 H   0  0  0  0  0
    8.4450   66.2091    8.5921 H   0  0  0  0  0
   10.6435   65.3273    8.0112 H   0  0  0  0  0
   10.0442   65.6468    6.4503 H   0  0  0  0  0
    9.2161   63.3483    6.1551 H   0  0  0  0  0
   10.7445   63.1492    6.8685 H   0  0  0  0  0
    8.6698   62.0635    8.1835 H   0  0  0  0  0
    9.8157   62.8783    9.1324 H   0  0  0  0  0
    7.8452   67.6928    7.1279 H   0  0  0  0  0
    6.3346   68.5689    5.6284 H   0  0  0  0  0
    5.3541   67.0673    5.8637 H   0  0  0  0  0
    5.1680   67.8161    3.4781 H   0  0  0  0  0
  2  1  1  0  0  0
  2  5  1  0  0  0
  3  2  1  0  0  0
  3  4  2  0  0  0
  5  6  1  0  0  0
  6  7  1  0  0  0
  7  8  1  0  0  0
  8  9  1  0  0  0
 11 10  1  0  0  0
 11 14  1  0  0  0
 12 11  1  0  0  0
 12 13  2  0  0  0
 14 15  1  0  0  0
 15 16  1  0  0  0
 16 17  1  0  0  0
 17 18  1  0  0  0
 18 20  1  0  0  0
 18 19  2  0  0  0
 10  3  1  0  0  0
 23 22  1  0  0  0
 22 25  1  0  0  0
 22 21  1  0  0  0
 21 27  1  0  0  0
 27 26  1  0  0  0
 25 26  1  0  0  0
 23 24  2  0  0  0
 21 12  1  0  0  0
 30 29  1  0  0  0
 29 32  1  0  0  0
 29 28  1  0  0  0
 28 34  1  0  0  0
 34 33  1  0  0  0
 32 33  1  0  0  0
 30 31  2  0  0  0
 28 23  1  0  0  0
 37 36  1  0  0  0
 36 39  1  0  0  0
 36 35  1  0  0  0
 35 41  1  0  0  0
 41 40  1  0  0  0
 39 40  1  0  0  0
 37 38  2  0  0  0
 35 30  1  0  0  0
 44 43  1  0  0  0
 43 46  1  0  0  0
 43 42  1  0  0  0
 42 48  1  0  0  0
 48 47  1  0  0  0
 46 47  1  0  0  0
 44 45  2  0  0  0
 42 37  1  0  0  0
 51 50  1  0  0  0
 50 53  1  0  0  0
 50 49  1  0  0  0
 49 55  1  0  0  0
 55 54  1  0  0  0
 53 54  1  0  0  0
 51 52  2  0  0  0
 49 44  1  0  0  0
 58 57  1  0  0  0
 57 60  1  0  0  0
 57 56  1  0  0  0
 56 62  1  0  0  0
 62 61  1  0  0  0
 60 61  1  0  0  0
 58 59  2  0  0  0
 56 51  1  0  0  0
 63 64  1  0  0  0
 64 65  1  0  0  0
 65 66  2  0  0  0
 58 63  1  0  0  0
 65 67  1  0  0  0
  1 68  1  0  0  0
  1 69  1  0  0  0
  1 70  1  0  0  0
  2 71  1  0  0  0
  5 72  1  0  0  0
  5 73  1  0  0  0
  6 74  1  0  0  0
  6 75  1  0  0  0
  7 76  1  0  0  0
  7 77  1  0  0  0
  8 78  1  0  0  0
  8 79  1  0  0  0
  9 80  1  0  0  0
  9 81  1  0  0  0
  9 82  1  0  0  0
 10 83  1  0  0  0
 11 84  1  0  0  0
 14 85  1  0  0  0
 14 86  1  0  0  0
 15 87  1  0  0  0
 15 88  1  0  0  0
 16 89  1  0  0  0
 16 90  1  0  0  0
 17 91  1  0  0  0
 19 92  1  0  0  0
 20 93  1  0  0  0
 20 94  1  0  0  0
 22 95  1  0  0  0
 25 96  1  0  0  0
 25 97  1  0  0  0
 26 98  1  0  0  0
 26 99  1  0  0  0
 27100  1  0  0  0
 27101  1  0  0  0
 29102  1  0  0  0
 32103  1  0  0  0
 32104  1  0  0  0
 33105  1  0  0  0
 33106  1  0  0  0
 34107  1  0  0  0
 34108  1  0  0  0
 36109  1  0  0  0
 39110  1  0  0  0
 39111  1  0  0  0
 40112  1  0  0  0
 40113  1  0  0  0
 41114  1  0  0  0
 41115  1  0  0  0
 43116  1  0  0  0
 46117  1  0  0  0
 46118  1  0  0  0
 47119  1  0  0  0
 47120  1  0  0  0
 48121  1  0  0  0
 48122  1  0  0  0
 50123  1  0  0  0
 53124  1  0  0  0
 53125  1  0  0  0
 54126  1  0  0  0
 54127  1  0  0  0
 55128  1  0  0  0
 55129  1  0  0  0
 57130  1  0  0  0
 60131  1  0  0  0
 60132  1  0  0  0
 61133  1  0  0  0
 61134  1  0  0  0
 62135  1  0  0  0
 62136  1  0  0  0
 63137  1  0  0  0
 64138  1  0  0  0
 64139  1  0  0  0
 67140  1  0  0  0
M  END
$$$$
