2wnj_ligand
  -I-interpret- 

 43 45  0  0  0  0  0  0  0  0999 V2000
   30.3020   -6.7100   62.7110 C   0  0  0  0  0
   31.0570   -7.2610   63.8820 C   0  0  0  0  0
   30.6470   -8.5950   64.3840 C   0  0  0  0  0
   29.6210   -9.2440   63.7410 O   0  0  0  0  0
   29.1900  -10.5610   64.1110 C   0  0  0  0  0
   31.3190   -9.1360   65.4880 C   0  0  0  0  0
   32.1050   -6.6110   64.5400 C   0  0  0  0  0
   32.7410   -7.1750   65.6360 C   0  0  0  0  0
   32.3540   -8.4320   66.1050 C   0  0  0  0  0
   32.9820   -8.9720   67.1950 O   0  0  0  0  0
   30.2700   -5.4240   62.2900 C   0  0  0  0  0
   31.0430   -4.2860   62.8960 C   0  0  0  0  0
   30.0170   -3.1790   63.1270 C   0  0  0  0  0
   29.5340   -2.6710   61.7770 C   0  0  0  0  0
   29.0690   -3.8500   61.0520 N   0  0  0  0  0
   29.4280   -5.0570   61.1470 C   0  0  0  0  0
   28.9980   -5.9840   60.0430 C   0  0  0  0  0
   27.6530   -6.1190   59.7620 C   0  0  0  0  0
   27.1810   -6.8870   58.7760 N   0  0  0  0  0
   28.0280   -7.5600   57.9960 C   0  0  0  0  0
   29.4040   -7.4490   58.2090 C   0  0  0  0  0
   29.8940   -6.6550   59.2400 C   0  0  0  0  0
   33.5530   -8.1350   68.2020 C   0  0  0  0  0
   29.7135   -7.4236   62.1344 H   0  0  0  0  0
   30.0205  -11.2582   64.0001 H   0  0  0  0  0
   28.8556  -10.5544   65.1484 H   0  0  0  0  0
   28.3676  -10.8677   63.4647 H   0  0  0  0  0
   31.0307  -10.1159   65.8685 H   0  0  0  0  0
   32.4313   -5.6345   64.1821 H   0  0  0  0  0
   33.5464   -6.6346   66.1334 H   0  0  0  0  0
   31.8492   -3.9552   62.2412 H   0  0  0  0  0
   31.5297   -4.5819   63.8253 H   0  0  0  0  0
   30.4730   -2.3631   63.6877 H   0  0  0  0  0
   29.1747   -3.5687   63.6986 H   0  0  0  0  0
   30.3317   -2.1618   61.2362 H   0  0  0  0  0
   28.7373   -1.9360   61.8916 H   0  0  0  0  0
   26.9392   -5.5705   60.3765 H   0  0  0  0  0
   27.6479   -8.1943   57.1952 H   0  0  0  0  0
   30.0975   -7.9878   57.5634 H   0  0  0  0  0
   30.9670   -6.5652   59.4097 H   0  0  0  0  0
   34.3185   -7.5010   67.7546 H   0  0  0  0  0
   32.7733   -7.5116   68.6396 H   0  0  0  0  0
   34.0014   -8.7560   68.9775 H   0  0  0  0  0
  1  2  1  0  0  0
  1 11  2  0  0  0
  2  3  4  0  0  0
  2  7  4  0  0  0
  3  4  1  0  0  0
  3  6  4  0  0  0
  4  5  1  0  0  0
  6  9  4  0  0  0
  7  8  4  0  0  0
  8  9  4  0  0  0
  9 10  1  0  0  0
 10 23  1  0  0  0
 11 12  1  0  0  0
 11 16  1  0  0  0
 12 13  1  0  0  0
 13 14  1  0  0  0
 14 15  1  0  0  0
 15 16  2  0  0  0
 16 17  1  0  0  0
 17 18  4  0  0  0
 17 22  4  0  0  0
 18 19  4  0  0  0
 19 20  4  0  0  0
 20 21  4  0  0  0
 21 22  4  0  0  0
  1 24  1  0  0  0
  5 25  1  0  0  0
  5 26  1  0  0  0
  5 27  1  0  0  0
  6 28  1  0  0  0
  7 29  1  0  0  0
  8 30  1  0  0  0
 12 31  1  0  0  0
 12 32  1  0  0  0
 13 33  1  0  0  0
 13 34  1  0  0  0
 14 35  1  0  0  0
 14 36  1  0  0  0
 18 37  1  0  0  0
 20 38  1  0  0  0
 21 39  1  0  0  0
 22 40  1  0  0  0
 23 41  1  0  0  0
 23 42  1  0  0  0
 23 43  1  0  0  0
M  END
$$$$
