4o7f_ligand
  -I-interpret- 

 58 62  0  0  0  0  0  0  0  0999 V2000
   61.5510   21.0090   24.9450 C   0  0  0  0  0
   62.6560   21.5550   24.1880 O   0  0  0  0  0
   63.9100   21.1600   24.5530 C   0  0  0  0  0
   64.1570   20.1540   25.5140 C   0  0  0  0  0
   65.4870   19.8210   25.8520 C   0  0  0  0  0
   66.5630   20.5050   25.2530 C   0  0  0  0  0
   66.3090   21.4970   24.3020 C   0  0  0  0  0
   64.9810   21.8290   23.9470 C   0  0  0  0  0
   64.7240   22.8570   23.0650 O   0  0  0  0  0
   64.2920   22.5720   21.8080 C   0  0  0  0  0
   64.2510   23.6200   20.9320 N   0  0  0  0  0
   63.8810   23.4300   19.6580 C   0  0  0  0  0
   63.5270   22.1540   19.2280 C   0  0  0  0  0
   63.5130   21.0770   20.1560 C   0  0  0  0  0
   63.9240   21.3230   21.4310 N   0  0  0  0  0
   63.1570   19.7690   19.7310 C   0  0  0  0  0
   62.3240   19.4030   18.6410 C   0  0  0  0  0
   62.2920   18.0590   18.5810 N   0  0  0  0  0
   63.1050   17.5980   19.5190 C   0  0  0  0  0
   63.6580   18.6020   20.2350 N   0  0  0  0  0
   64.5490   18.3700   21.3710 C   0  0  0  0  0
   65.9650   17.8030   21.1010 C   0  0  0  0  0
   66.7220   17.4780   22.4100 C   0  0  0  0  0
   65.9580   16.5020   23.2130 N   0  3  0  0  0
   64.6350   17.0310   23.5910 C   0  0  0  0  0
   63.7820   17.4090   22.3440 C   0  0  0  0  0
   61.4500   20.1200   17.7770 C   0  0  0  0  0
   61.0490   19.6020   16.5240 C   0  0  0  0  0
   60.1190   20.3020   15.7400 C   0  0  0  0  0
   59.5140   21.4890   16.1870 C   0  0  0  0  0
   59.8680   22.0000   17.4530 C   0  0  0  0  0
   60.8110   21.3010   18.2300 C   0  0  0  0  0
   58.6440   22.1140   15.4170 F   0  0  0  0  0
   61.5544   19.9225   24.8581 H   0  0  0  0  0
   61.6553   21.2913   25.9926 H   0  0  0  0  0
   60.6136   21.4032   24.5528 H   0  0  0  0  0
   63.3248   19.6374   25.9922 H   0  0  0  0  0
   65.6817   19.0322   26.5787 H   0  0  0  0  0
   67.5888   20.2617   25.5299 H   0  0  0  0  0
   67.1413   22.0191   23.8300 H   0  0  0  0  0
   63.8574   24.2692   18.9628 H   0  0  0  0  0
   63.2619   21.9816   18.1849 H   0  0  0  0  0
   63.3035   16.5403   19.6921 H   0  0  0  0  0
   64.7714   19.3597   21.7699 H   0  0  0  0  0
   66.5347   18.5567   20.5574 H   0  0  0  0  0
   65.8582   16.8794   20.5321 H   0  0  0  0  0
   66.8466   18.3945   22.9868 H   0  0  0  0  0
   67.6948   17.0528   22.1631 H   0  0  0  0  0
   66.4823   16.3039   24.0652 H   0  0  0  0  0
   65.8215   15.6599   22.6538 H   0  0  0  0  0
   64.7847   17.9307   24.1878 H   0  0  0  0  0
   64.1040   16.2579   24.1464 H   0  0  0  0  0
   63.5492   16.4925   21.8018 H   0  0  0  0  0
   62.8846   17.9220   22.6898 H   0  0  0  0  0
   61.4623   18.6587   16.1669 H   0  0  0  0  0
   59.8583   19.9136   14.7555 H   0  0  0  0  0
   59.4187   22.9213   17.8238 H   0  0  0  0  0
   61.0597   21.6835   19.2199 H   0  0  0  0  0
  1  2  1  0  0  0
  2  3  1  0  0  0
  3  4  4  0  0  0
  3  8  4  0  0  0
  4  5  4  0  0  0
  5  6  4  0  0  0
  6  7  4  0  0  0
  7  8  4  0  0  0
  8  9  1  0  0  0
  9 10  1  0  0  0
 10 11  4  0  0  0
 10 15  4  0  0  0
 11 12  4  0  0  0
 12 13  4  0  0  0
 13 14  4  0  0  0
 14 15  4  0  0  0
 14 16  1  0  0  0
 16 17  4  0  0  0
 16 20  4  0  0  0
 17 18  4  0  0  0
 17 27  1  0  0  0
 18 19  4  0  0  0
 19 20  4  0  0  0
 20 21  1  0  0  0
 21 22  1  0  0  0
 21 26  1  0  0  0
 22 23  1  0  0  0
 23 24  1  0  0  0
 24 25  1  0  0  0
 25 26  1  0  0  0
 27 28  4  0  0  0
 27 32  4  0  0  0
 28 29  4  0  0  0
 29 30  4  0  0  0
 30 31  4  0  0  0
 30 33  1  0  0  0
 31 32  4  0  0  0
  1 34  1  0  0  0
  1 35  1  0  0  0
  1 36  1  0  0  0
  4 37  1  0  0  0
  5 38  1  0  0  0
  6 39  1  0  0  0
  7 40  1  0  0  0
 12 41  1  0  0  0
 13 42  1  0  0  0
 19 43  1  0  0  0
 21 44  1  0  0  0
 22 45  1  0  0  0
 22 46  1  0  0  0
 23 47  1  0  0  0
 23 48  1  0  0  0
 24 49  1  0  0  0
 24 50  1  0  0  0
 25 51  1  0  0  0
 25 52  1  0  0  0
 26 53  1  0  0  0
 26 54  1  0  0  0
 28 55  1  0  0  0
 29 56  1  0  0  0
 31 57  1  0  0  0
 32 58  1  0  0  0
M  END
$$$$
