### 
### Created by X-TOOL on Mon Sep 10 21:13:16 2018
### 

@<TRIPOS>MOLECULE
4o7f_ligand
   58    62     1     0     0
SMALL
GAST_HUCK


@<TRIPOS>ATOM
      1 C01        61.5510   21.0090   24.9450 C.3       1 2RQ         0.0573
      2 O02        62.6560   21.5550   24.1880 O.3       1 2RQ        -0.3236
      3 C03        63.9100   21.1600   24.5530 C.ar      1 2RQ         0.1259
      4 C04        64.1570   20.1540   25.5140 C.ar      1 2RQ        -0.0397
      5 C05        65.4870   19.8210   25.8520 C.ar      1 2RQ        -0.0806
      6 C06        66.5630   20.5050   25.2530 C.ar      1 2RQ        -0.0801
      7 C07        66.3090   21.4970   24.3020 C.ar      1 2RQ        -0.0350
      8 C08        64.9810   21.8290   23.9470 C.ar      1 2RQ         0.1545
      9 O09        64.7240   22.8570   23.0650 O.3       1 2RQ        -0.2203
     10 C10        64.2920   22.5720   21.8080 C.ar      1 2RQ         0.2597
     11 N11        64.2510   23.6200   20.9320 N.ar      1 2RQ        -0.2475
     12 C12        63.8810   23.4300   19.6580 C.ar      1 2RQ         0.0113
     13 C13        63.5270   22.1540   19.2280 C.ar      1 2RQ        -0.0186
     14 C14        63.5130   21.0770   20.1560 C.ar      1 2RQ         0.0755
     15 N15        63.9240   21.3230   21.4310 N.ar      1 2RQ        -0.2427
     16 C16        63.1570   19.7690   19.7310 C.2       1 2RQ         0.1159
     17 C17        62.3240   19.4030   18.6410 C.2       1 2RQ         0.0462
     18 N18        62.2920   18.0590   18.5810 N.2       1 2RQ        -0.3026
     19 C19        63.1050   17.5980   19.5190 C.2       1 2RQ         0.1086
     20 N20        63.6580   18.6020   20.2350 N.pl3     1 2RQ        -0.2316
     21 C21        64.5490   18.3700   21.3710 C.3       1 2RQ         0.0804
     22 C22        65.9650   17.8030   21.1010 C.3       1 2RQ         0.0186
     23 C23        66.7220   17.4780   22.4100 C.3       1 2RQ        -0.0308
     24 N24        65.9580   16.5020   23.2130 N.4       1 2RQ         0.2271
     25 C25        64.6350   17.0310   23.5910 C.3       1 2RQ        -0.0308
     26 C26        63.7820   17.4090   22.3440 C.3       1 2RQ         0.0186
     27 C27        61.4500   20.1200   17.7770 C.ar      1 2RQ        -0.0208
     28 C28        61.0490   19.6020   16.5240 C.ar      1 2RQ        -0.0583
     29 C29        60.1190   20.3020   15.7400 C.ar      1 2RQ        -0.0294
     30 C30        59.5140   21.4890   16.1870 C.ar      1 2RQ         0.1310
     31 C31        59.8680   22.0000   17.4530 C.ar      1 2RQ        -0.0294
     32 C32        60.8110   21.3010   18.2300 C.ar      1 2RQ        -0.0583
     33 F33        58.6440   22.1140   15.4170 F         1 2RQ        -0.1843
     34 H          60.6043   21.4062   24.5501 H         1 2RQ         0.0573
     35 H          61.6550   21.2932   26.0025 H         1 2RQ         0.0573
     36 H          61.5532   19.9125   24.8580 H         1 2RQ         0.0573
     37 H          63.3294   19.6403   25.9896 H         1 2RQ         0.0512
     38 H          65.6806   19.0366   26.5747 H         1 2RQ         0.0505
     39 H          67.5831   20.2630   25.5284 H         1 2RQ         0.0498
     40 H          67.1367   22.0162   23.8326 H         1 2RQ         0.0525
     41 H          63.8575   24.2646   18.9666 H         1 2RQ         0.0876
     42 H          63.2633   21.9825   18.1906 H         1 2RQ         0.0657
     43 H          63.3034   16.5413   19.6920 H         1 2RQ         0.1311
     44 H          64.6928   19.3400   21.8694 H         1 2RQ         0.0662
     45 H          66.5425   18.5472   20.5330 H         1 2RQ         0.0348
     46 H          65.8707   16.8814   20.5079 H         1 2RQ         0.0348
     47 H          66.8549   18.4021   22.9917 H         1 2RQ         0.0815
     48 H          67.7070   17.0544   22.1644 H         1 2RQ         0.0815
     49 H          66.4770   16.2891   24.0505 H         1 2RQ         0.2013
     50 H          65.8320   15.6604   22.6727 H         1 2RQ         0.2013
     51 H          64.7750   17.9286   24.2112 H         1 2RQ         0.0815
     52 H          64.0981   16.2652   24.1700 H         1 2RQ         0.0815
     53 H          63.5217   16.4886   21.8007 H         1 2RQ         0.0348
     54 H          62.8618   17.9079   22.6823 H         1 2RQ         0.0348
     55 H          61.4600   18.6639   16.1688 H         1 2RQ         0.0595
     56 H          59.8597   19.9157   14.7609 H         1 2RQ         0.0601
     57 H          59.4211   22.9162   17.8217 H         1 2RQ         0.0601
     58 H          61.0583   21.6814   19.2145 H         1 2RQ         0.0595
@<TRIPOS>BOND
     1    1    2 1  
     2    2    3 1  
     3    3    4 ar 
     4    3    8 ar 
     5    4    5 ar 
     6    5    6 ar 
     7    6    7 ar 
     8    7    8 ar 
     9    8    9 1  
    10    9   10 1  
    11   10   11 ar 
    12   10   15 ar 
    13   11   12 ar 
    14   12   13 ar 
    15   13   14 ar 
    16   14   15 ar 
    17   14   16 1  
    18   16   17 2  
    19   16   20 1  
    20   17   18 1  
    21   17   27 1  
    22   18   19 2  
    23   19   20 1  
    24   20   21 1  
    25   21   22 1  
    26   21   26 1  
    27   22   23 1  
    28   23   24 1  
    29   24   25 1  
    30   25   26 1  
    31   27   28 ar 
    32   27   32 ar 
    33   28   29 ar 
    34   29   30 ar 
    35   30   31 ar 
    36   30   33 1  
    37   31   32 ar 
    38    1   34 1  
    39    1   35 1  
    40    1   36 1  
    41    4   37 1  
    42    5   38 1  
    43    6   39 1  
    44    7   40 1  
    45   12   41 1  
    46   13   42 1  
    47   19   43 1  
    48   21   44 1  
    49   22   45 1  
    50   22   46 1  
    51   23   47 1  
    52   23   48 1  
    53   24   49 1  
    54   24   50 1  
    55   25   51 1  
    56   25   52 1  
    57   26   53 1  
    58   26   54 1  
    59   28   55 1  
    60   29   56 1  
    61   31   57 1  
    62   32   58 1  
@<TRIPOS>SUBSTRUCTURE
     1 2RQ         1

