3uwo_ligand
  -I-interpret- 

 32 34  0  0  0  0  0  0  0  0999 V2000
   12.0670   -2.3290   33.9800 C   0  0  0  0  0
   10.9470   -3.0460   34.3070 C   0  0  0  0  0
    9.6940   -2.5070   33.9740 C   0  0  0  0  0
    9.6560   -1.2920   33.3250 C   0  0  0  0  0
   10.8420   -0.6340   33.0460 C   0  0  0  0  0
   12.0020   -1.1730   33.3660 N   0  0  0  0  0
    8.6860   -0.5320   32.8940 N   0  0  0  0  0
    9.2600    0.5000   32.3380 C   0  0  0  0  0
   10.5670    0.4820   32.4260 N   0  0  0  0  0
    7.2820   -0.8510   32.9690 C   0  0  0  0  0
    8.6340    1.4300   31.7770 O   0  0  0  0  0
   11.0900   -4.3680   34.9840 C   0  0  0  0  0
   10.2910   -5.4360   34.5870 C   0  0  0  0  0
   10.4100   -6.6720   35.1940 C   0  0  0  0  0
   11.3490   -6.8370   36.1880 C   0  0  0  0  0
   12.1600   -5.7970   36.5740 C   0  0  0  0  0
   12.0380   -4.5670   35.9630 C   0  0  0  0  0
   13.1620   -6.0130   37.6950 C   0  0  0  0  0
   13.5720   -5.0990   38.3330 O   0  0  0  0  0
   13.5260   -7.2330   37.9890 N   0  0  0  0  0
   13.0455   -2.7334   34.2391 H   0  0  0  0  0
    8.7742   -3.0365   34.2227 H   0  0  0  0  0
   11.2241    1.1840   32.0857 H   0  0  0  0  0
    6.7573   -0.0542   33.4962 H   0  0  0  0  0
    6.8786   -0.9486   31.9611 H   0  0  0  0  0
    7.1524   -1.7905   33.5062 H   0  0  0  0  0
    9.5629   -5.2961   33.7880 H   0  0  0  0  0
    9.7716   -7.5020   34.8912 H   0  0  0  0  0
   11.4503   -7.8066   36.6756 H   0  0  0  0  0
   12.6950   -3.7482   36.2562 H   0  0  0  0  0
   14.1632   -7.4015   38.7675 H   0  0  0  0  0
   13.1730   -8.0168   37.4401 H   0  0  0  0  0
  1  2  4  0  0  0
  1  6  4  0  0  0
  2  3  4  0  0  0
  2 12  1  0  0  0
  3  4  4  0  0  0
  4  5  4  0  0  0
  4  7  1  0  0  0
  5  6  4  0  0  0
  5  9  1  0  0  0
  7  8  1  0  0  0
  7 10  1  0  0  0
  8  9  1  0  0  0
  8 11  2  0  0  0
 12 13  4  0  0  0
 12 17  4  0  0  0
 13 14  4  0  0  0
 14 15  4  0  0  0
 15 16  4  0  0  0
 16 17  4  0  0  0
 16 18  1  0  0  0
 18 19  2  0  0  0
 18 20  1  0  0  0
  1 21  1  0  0  0
  3 22  1  0  0  0
  9 23  1  0  0  0
 10 24  1  0  0  0
 10 25  1  0  0  0
 10 26  1  0  0  0
 13 27  1  0  0  0
 14 28  1  0  0  0
 15 29  1  0  0  0
 17 30  1  0  0  0
 20 31  1  0  0  0
 20 32  1  0  0  0
M  END
$$$$
