3f7i_ligand
  -I-interpret- 

 74 77  0  0  0  0  0  0  0  0999 V2000
   75.6050   61.0330   15.5380 O   0  0  0  0  0
   75.8890   62.0910   16.0720 C   0  0  0  0  0
   75.4480   62.3850   17.4890 C   0  0  0  0  0
   76.4370   62.7600   18.3930 C   0  0  0  0  0
   76.1240   63.0660   19.7170 C   0  0  0  0  0
   74.8000   62.9990   20.1410 C   0  0  0  0  0
   73.8030   62.6310   19.2380 C   0  0  0  0  0
   72.4830   62.5710   19.6830 C   0  0  0  0  0
   74.1160   62.3260   17.9120 C   0  0  0  0  0
   73.0820   61.9610   17.0380 C   0  0  0  0  0
   71.7640   61.9030   17.4860 C   0  0  0  0  0
   71.4620   62.2070   18.8100 C   0  0  0  0  0
   76.5930   63.0400   15.4490 N   0  0  0  0  0
   77.3110   62.8560   14.2020 C   0  0  0  0  0
   78.5740   63.7180   14.2000 C   0  0  0  0  0
   78.3230   64.9030   13.2880 C   0  0  0  0  0
   77.0360   64.6260   12.5160 C   0  0  0  0  0
   76.4460   63.3210   13.0430 C   0  0  0  0  0
   79.5300   65.0110   12.3800 C   0  0  0  0  0
   80.1300   63.6170   12.3500 C   0  0  0  0  0
   79.7220   63.0090   13.6160 N   0  0  0  0  0
   80.2750   61.9800   14.2710 C   0  0  0  0  0
   79.8970   61.6720   15.3930 O   0  0  0  0  0
   81.3950   61.1890   13.6420 C   0  0  0  0  0
   80.8600   59.9620   12.8930 C   0  0  0  0  0
   79.9820   60.4060   11.7290 C   0  0  0  0  0
   80.0280   59.0690   13.8070 C   0  0  0  0  0
   82.0090   59.1490   12.3040 C   0  0  0  0  0
   82.3420   60.7950   14.6760 N   0  0  0  0  0
   83.6660   60.8280   14.5370 C   0  0  0  0  0
   84.2240   61.2350   13.5300 O   0  0  0  0  0
   84.4640   60.2990   15.6980 C   0  0  0  0  0
   84.5920   61.3500   16.7970 C   0  0  0  0  0
   85.7750   59.8490   15.2740 N   0  3  0  0  0
   85.8940   58.6740   14.4260 C   0  0  0  0  0
   77.4736   62.8155   18.0608 H   0  0  0  0  0
   76.9101   63.3554   20.4144 H   0  0  0  0  0
   74.5435   63.2331   21.1742 H   0  0  0  0  0
   72.2494   62.8105   20.7204 H   0  0  0  0  0
   73.3112   61.7207   15.9998 H   0  0  0  0  0
   70.9677   61.6189   16.7980 H   0  0  0  0  0
   70.4313   62.1603   19.1615 H   0  0  0  0  0
   76.6283   63.9627   15.8823 H   0  0  0  0  0
   77.5635   61.8005   14.1010 H   0  0  0  0  0
   78.7921   63.9917   15.2323 H   0  0  0  0  0
   78.1969   65.8455   13.8207 H   0  0  0  0  0
   77.2455   64.5426   11.4496 H   0  0  0  0  0
   76.3287   65.4437   12.6546 H   0  0  0  0  0
   75.4195   63.4763   13.3750 H   0  0  0  0  0
   76.4305   62.5672   12.2558 H   0  0  0  0  0
   80.2441   65.7488   12.7457 H   0  0  0  0  0
   79.2539   65.3519   11.3822 H   0  0  0  0  0
   81.2144   63.6436   12.2428 H   0  0  0  0  0
   79.7805   63.0426   11.4921 H   0  0  0  0  0
   81.9015   61.8163   12.9085 H   0  0  0  0  0
   79.1435   60.9890   12.1098 H   0  0  0  0  0
   80.5701   61.0173   11.0445 H   0  0  0  0  0
   79.6067   59.5281   11.2031 H   0  0  0  0  0
   80.6452   58.7255   14.6372 H   0  0  0  0  0
   79.1804   59.6354   14.1928 H   0  0  0  0  0
   79.6658   58.2101   13.2421 H   0  0  0  0  0
   82.5726   59.7703   11.6079 H   0  0  0  0  0
   82.6651   58.8145   13.1076 H   0  0  0  0  0
   81.6073   58.2835   11.7771 H   0  0  0  0  0
   81.9655   60.4718   15.5672 H   0  0  0  0  0
   83.9258   59.4415   16.1020 H   0  0  0  0  0
   85.0950   62.2311   16.3986 H   0  0  0  0  0
   83.5989   61.6262   17.1513 H   0  0  0  0  0
   85.1732   60.9408   17.6234 H   0  0  0  0  0
   86.2507   59.5914   16.1387 H   0  0  0  0  0
   86.1383   60.6142   14.7058 H   0  0  0  0  0
   85.4691   57.8119   14.9401 H   0  0  0  0  0
   85.3556   58.8443   13.4937 H   0  0  0  0  0
   86.9462   58.4880   14.2107 H   0  0  0  0  0
  1  2  2  0  0  0
  2  3  1  0  0  0
  2 13  1  0  0  0
  3  4  4  0  0  0
  3  9  4  0  0  0
  4  5  4  0  0  0
  5  6  4  0  0  0
  6  7  4  0  0  0
  7  8  4  0  0  0
  7  9  4  0  0  0
  8 12  4  0  0  0
  9 10  4  0  0  0
 10 11  4  0  0  0
 11 12  4  0  0  0
 13 14  1  0  0  0
 14 15  1  0  0  0
 14 18  1  0  0  0
 15 16  1  0  0  0
 15 21  1  0  0  0
 16 17  1  0  0  0
 16 19  1  0  0  0
 17 18  1  0  0  0
 19 20  1  0  0  0
 20 21  1  0  0  0
 21 22  1  0  0  0
 22 23  2  0  0  0
 22 24  1  0  0  0
 24 25  1  0  0  0
 24 29  1  0  0  0
 25 26  1  0  0  0
 25 27  1  0  0  0
 25 28  1  0  0  0
 29 30  1  0  0  0
 30 31  2  0  0  0
 30 32  1  0  0  0
 32 33  1  0  0  0
 32 34  1  0  0  0
 34 35  1  0  0  0
  4 36  1  0  0  0
  5 37  1  0  0  0
  6 38  1  0  0  0
  8 39  1  0  0  0
 10 40  1  0  0  0
 11 41  1  0  0  0
 12 42  1  0  0  0
 13 43  1  0  0  0
 14 44  1  0  0  0
 15 45  1  0  0  0
 16 46  1  0  0  0
 17 47  1  0  0  0
 17 48  1  0  0  0
 18 49  1  0  0  0
 18 50  1  0  0  0
 19 51  1  0  0  0
 19 52  1  0  0  0
 20 53  1  0  0  0
 20 54  1  0  0  0
 24 55  1  0  0  0
 26 56  1  0  0  0
 26 57  1  0  0  0
 26 58  1  0  0  0
 27 59  1  0  0  0
 27 60  1  0  0  0
 27 61  1  0  0  0
 28 62  1  0  0  0
 28 63  1  0  0  0
 28 64  1  0  0  0
 29 65  1  0  0  0
 32 66  1  0  0  0
 33 67  1  0  0  0
 33 68  1  0  0  0
 33 69  1  0  0  0
 34 70  1  0  0  0
 34 71  1  0  0  0
 35 72  1  0  0  0
 35 73  1  0  0  0
 35 74  1  0  0  0
M  END
$$$$
