3mhl_ligand
  -I-interpret- 

 36 37  0  0  0  0  0  0  0  0999 V2000
   -3.3010    9.8570   11.0590 N   0  0  0  0  0
   -2.4370    9.1480   11.8180 C   0  0  0  0  0
   -2.7590    7.9360   12.3130 N   0  0  0  0  0
   -3.9750    7.3920   12.0330 C   0  0  0  0  0
   -4.9080    8.1060   11.2010 C   0  0  0  0  0
   -4.5270    9.4110   10.6980 C   0  0  0  0  0
   -4.2880    6.1130   12.5700 N   0  0  0  0  0
   -4.0820    4.3290   14.2150 C   0  0  0  0  0
   -5.4450    4.3270   14.5960 C   0  0  0  0  0
   -5.8950    3.2150   15.3960 C   0  0  0  0  0
   -5.0130    2.1350   15.6740 C   0  0  0  0  0
   -3.6740    2.1640   15.3040 C   0  0  0  0  0
   -3.2290    3.2510   14.5370 C   0  0  0  0  0
   -5.6340    0.8510   16.6480 S   0  0  0  0  0
   -5.1200    0.9100   17.9660 O   0  0  0  0  0
   -7.0900    0.8590   16.4600 O   0  0  0  0  0
   -4.9200   -0.4920   15.9450 N   0  0  0  0  0
   -6.2190    7.3910   10.9460 N   0  0  0  0  0
   -6.2740    6.3990   10.3250 O   0  0  0  0  0
   -7.3770    7.8660   11.3830 O   0  0  0  0  0
   -5.2760   10.3850    9.8140 O   0  0  0  0  0
   -5.7040   11.6980   10.1900 C   0  0  0  0  0
   -3.3920    5.4040   13.3930 C   0  0  0  0  0
   -1.4544    9.5666   12.0357 H   0  0  0  0  0
   -5.1924    5.6949   12.3516 H   0  0  0  0  0
   -6.1222    5.1278   14.2989 H   0  0  0  0  0
   -6.9120    3.2023   15.7879 H   0  0  0  0  0
   -2.9912    1.3676   15.6002 H   0  0  0  0  0
   -2.1989    3.2637   14.1807 H   0  0  0  0  0
   -4.2645   -1.0605   16.4812 H   0  0  0  0  0
   -5.1409   -0.7410   14.9808 H   0  0  0  0  0
   -6.3832   11.6280   11.0397 H   0  0  0  0  0
   -4.8359   12.2968   10.4655 H   0  0  0  0  0
   -6.2178   12.1657    9.3501 H   0  0  0  0  0
   -2.9362    6.1139   14.0832 H   0  0  0  0  0
   -2.6591    4.9166   12.7500 H   0  0  0  0  0
  2  1  4  0  0  0
  6  1  4  0  0  0
  3  2  4  0  0  0
  4  3  4  0  0  0
  4  5  4  0  0  0
  7  4  1  0  0  0
  5  6  4  0  0  0
  5 18  1  0  0  0
  6 21  1  0  0  0
 23  7  1  0  0  0
  8  9  4  0  0  0
  8 13  4  0  0  0
  8 23  1  0  0  0
  9 10  4  0  0  0
 10 11  4  0  0  0
 11 12  4  0  0  0
 11 14  1  0  0  0
 12 13  4  0  0  0
 14 15  2  0  0  0
 14 16  2  0  0  0
 14 17  1  0  0  0
 18 19  2  0  0  0
 18 20  2  0  0  0
 21 22  1  0  0  0
  2 24  1  0  0  0
  7 25  1  0  0  0
  9 26  1  0  0  0
 10 27  1  0  0  0
 12 28  1  0  0  0
 13 29  1  0  0  0
 17 30  1  0  0  0
 17 31  1  0  0  0
 22 32  1  0  0  0
 22 33  1  0  0  0
 22 34  1  0  0  0
 23 35  1  0  0  0
 23 36  1  0  0  0
M  END
$$$$
