2vts_ligand
  -I-interpret- 

 47 49  0  0  0  0  0  0  0  0999 V2000
   31.7240    8.0410   67.5110 C   0  0  0  0  0
   31.0100    8.0970   66.1600 C   0  0  0  0  0
   31.9890    8.0380   64.9870 C   0  0  0  0  0
   30.0560    7.0050   66.0510 N   0  0  0  0  0
   28.9560    7.0590   65.2070 C   0  0  0  0  0
   28.5190    8.2040   64.5560 C   0  0  0  0  0
   27.4090    8.1090   63.7260 C   0  0  0  0  0
   26.9100    9.1870   63.0360 N   0  0  0  0  0
   25.9330    9.0630   61.9680 C   0  0  0  0  0
   25.4090   10.4490   61.5900 C   0  0  0  0  0
   24.4520   10.3920   60.4190 C   0  0  0  0  0
   25.1660    9.8090   59.2200 C   0  0  0  0  0
   24.2510    9.8180   58.0280 N   0  3  0  0  0
   25.6620    8.3890   59.5120 C   0  0  0  0  0
   26.5550    8.3460   60.7540 C   0  0  0  0  0
   26.7240    6.9590   63.5520 N   0  0  0  0  0
   27.1590    5.8640   64.1770 C   0  0  0  0  0
   26.7310    4.5640   64.1720 C   0  0  0  0  0
   25.6120    4.0780   63.4540 C   0  0  0  0  0
   24.7040    3.6870   62.8630 N   0  0  0  0  0
   27.5810    3.8630   65.0320 C   0  0  0  0  0
   28.5050    4.6760   65.5630 N   0  0  0  0  0
   28.2410    5.9040   65.0120 N   0  0  0  0  0
   30.9900    8.1262   68.3123 H   0  0  0  0  0
   32.2540    7.0928   67.6014 H   0  0  0  0  0
   32.4352    8.8642   67.5790 H   0  0  0  0  0
   30.4881    9.0527   66.1121 H   0  0  0  0  0
   32.5209    7.0868   65.0069 H   0  0  0  0  0
   31.4381    8.1282   64.0508 H   0  0  0  0  0
   32.7034    8.8571   65.0701 H   0  0  0  0  0
   30.2008    6.1682   66.6160 H   0  0  0  0  0
   29.0342    9.1548   64.6926 H   0  0  0  0  0
   27.2413   10.1189   63.2854 H   0  0  0  0  0
   25.0926    8.4598   62.3115 H   0  0  0  0  0
   26.2590   11.0695   61.3062 H   0  0  0  0  0
   24.8747   10.8575   62.4478 H   0  0  0  0  0
   24.1027   11.3972   60.1832 H   0  0  0  0  0
   23.5974    9.7659   60.6755 H   0  0  0  0  0
   26.0379   10.4253   59.0011 H   0  0  0  0  0
   24.7387    9.4237   57.2236 H   0  0  0  0  0
   23.4227    9.2590   58.2325 H   0  0  0  0  0
   23.9727   10.7774   57.8217 H   0  0  0  0  0
   26.2454    8.0463   58.6574 H   0  0  0  0  0
   24.7954    7.7521   59.6897 H   0  0  0  0  0
   26.6983    7.2997   61.0239 H   0  0  0  0  0
   27.4877    8.8545   60.5101 H   0  0  0  0  0
   27.5029    2.7965   65.2429 H   0  0  0  0  0
  1  2  1  0  0  0
  2  3  1  0  0  0
  2  4  1  0  0  0
  4  5  1  0  0  0
  5  6  4  0  0  0
  5 23  4  0  0  0
  6  7  4  0  0  0
  7  8  1  0  0  0
  7 16  4  0  0  0
  8  9  1  0  0  0
  9 10  1  0  0  0
  9 15  1  0  0  0
 10 11  1  0  0  0
 11 12  1  0  0  0
 12 13  1  0  0  0
 12 14  1  0  0  0
 14 15  1  0  0  0
 16 17  4  0  0  0
 17 18  4  0  0  0
 17 23  4  0  0  0
 18 19  1  0  0  0
 18 21  4  0  0  0
 19 20  3  0  0  0
 21 22  4  0  0  0
 22 23  4  0  0  0
  1 24  1  0  0  0
  1 25  1  0  0  0
  1 26  1  0  0  0
  2 27  1  0  0  0
  3 28  1  0  0  0
  3 29  1  0  0  0
  3 30  1  0  0  0
  4 31  1  0  0  0
  6 32  1  0  0  0
  8 33  1  0  0  0
  9 34  1  0  0  0
 10 35  1  0  0  0
 10 36  1  0  0  0
 11 37  1  0  0  0
 11 38  1  0  0  0
 12 39  1  0  0  0
 13 40  1  0  0  0
 13 41  1  0  0  0
 13 42  1  0  0  0
 14 43  1  0  0  0
 14 44  1  0  0  0
 15 45  1  0  0  0
 15 46  1  0  0  0
 21 47  1  0  0  0
M  END
$$$$
