1bzf_ligand
  -I-interpret- 

 50 52  0  0  0  0  0  0  0  0999 V2000
    3.9530   -8.5550   -1.7280 N   0  0  0  0  0
    3.7570   -7.4290   -1.0260 C   0  0  0  0  0
    2.6130   -6.7090   -1.1230 N   0  0  0  0  0
    1.5980   -7.1090   -1.9510 C   0  0  0  0  0
    3.0020   -9.0480   -2.5880 C   0  0  0  0  0
    1.7290   -8.3270   -2.7520 C   0  0  0  0  0
    0.7400   -8.8960   -3.6890 C   0  0  0  0  0
    1.0570  -10.1190   -4.3960 C   0  0  0  0  0
    2.2900  -10.7630   -4.1970 C   0  0  0  0  0
    3.2420  -10.2470   -3.3190 C   0  0  0  0  0
    0.0630  -10.7340   -5.3690 C   0  0  0  0  0
    0.4050  -12.1030   -5.7710 N   0  0  0  0  0
    0.3300  -13.1510   -4.8810 C   0  0  0  0  0
   -0.4640  -13.0590   -3.7030 C   0  0  0  0  0
   -0.5330  -14.1690   -2.7840 C   0  0  0  0  0
    0.1940  -15.3520   -3.0690 C   0  0  0  0  0
    0.9880  -15.4550   -4.2400 C   0  0  0  0  0
    1.0520  -14.3370   -5.1510 C   0  0  0  0  0
   -0.6090   -8.2500   -3.9480 C   0  0  0  0  0
   -1.3140  -14.1260   -1.5890 O   0  0  0  0  0
    0.1280  -16.4190   -2.1960 O   0  0  0  0  0
    1.6980  -16.6710   -4.4720 O   0  0  0  0  0
   -2.3510  -13.1460   -1.6530 C   0  0  0  0  0
    1.2970  -16.4170   -1.4150 C   0  0  0  0  0
    2.0310  -16.8500   -5.8490 C   0  0  0  0  0
    4.7360   -6.9970   -0.1950 N   0  0  0  0  0
    0.5030   -6.2930   -1.9510 N   0  0  0  0  0
    2.5062  -11.6834   -4.7394 H   0  0  0  0  0
    4.1888  -10.7713   -3.1892 H   0  0  0  0  0
    0.0636  -10.1192   -6.2691 H   0  0  0  0  0
   -0.9041  -10.7725   -4.8676 H   0  0  0  0  0
    0.7045  -12.2821   -6.7295 H   0  0  0  0  0
   -1.0221  -12.1462   -3.4945 H   0  0  0  0  0
    1.6605  -14.4072   -6.0526 H   0  0  0  0  0
   -1.1697   -8.1960   -3.0148 H   0  0  0  0  0
   -0.4594   -7.2448   -4.3422 H   0  0  0  0  0
   -1.1632   -8.8469   -4.6723 H   0  0  0  0  0
   -1.9094  -12.1609   -1.8036 H   0  0  0  0  0
   -3.0174  -13.3777   -2.4839 H   0  0  0  0  0
   -2.9149  -13.1541   -0.7202 H   0  0  0  0  0
    2.1666  -16.5157   -2.0647 H   0  0  0  0  0
    1.3604  -15.4807   -0.8606 H   0  0  0  0  0
    1.2671  -17.2531   -0.7163 H   0  0  0  0  0
    1.1170  -16.8736   -6.4424 H   0  0  0  0  0
    2.6594  -16.0231   -6.1800 H   0  0  0  0  0
    2.5699  -17.7894   -5.9720 H   0  0  0  0  0
    5.6041   -7.5259   -0.1113 H   0  0  0  0  0
    4.6049   -6.1429    0.3469 H   0  0  0  0  0
    0.4878   -5.4599   -1.3626 H   0  0  0  0  0
   -0.2996   -6.5166   -2.5394 H   0  0  0  0  0
  1  2  4  0  0  0
  5  1  4  0  0  0
  3  2  4  0  0  0
  2 26  1  0  0  0
  4  3  4  0  0  0
  6  4  4  0  0  0
  4 27  1  0  0  0
  6  5  4  0  0  0
 10  5  4  0  0  0
  7  6  4  0  0  0
  8  7  4  0  0  0
  7 19  1  0  0  0
  8  9  4  0  0  0
 11  8  1  0  0  0
  9 10  4  0  0  0
 12 11  1  0  0  0
 13 12  1  0  0  0
 14 13  4  0  0  0
 13 18  4  0  0  0
 15 14  4  0  0  0
 15 16  4  0  0  0
 20 15  1  0  0  0
 16 17  4  0  0  0
 16 21  1  0  0  0
 17 18  4  0  0  0
 17 22  1  0  0  0
 20 23  1  0  0  0
 21 24  1  0  0  0
 22 25  1  0  0  0
  9 28  1  0  0  0
 10 29  1  0  0  0
 11 30  1  0  0  0
 11 31  1  0  0  0
 12 32  1  0  0  0
 14 33  1  0  0  0
 18 34  1  0  0  0
 19 35  1  0  0  0
 19 36  1  0  0  0
 19 37  1  0  0  0
 23 38  1  0  0  0
 23 39  1  0  0  0
 23 40  1  0  0  0
 24 41  1  0  0  0
 24 42  1  0  0  0
 24 43  1  0  0  0
 25 44  1  0  0  0
 25 45  1  0  0  0
 25 46  1  0  0  0
 26 47  1  0  0  0
 26 48  1  0  0  0
 27 49  1  0  0  0
 27 50  1  0  0  0
M  END
$$$$
