3pi5_ligand
  -I-interpret- 

 56 59  0  0  0  0  0  0  0  0999 V2000
   30.8570    9.7680   19.7320 Br  0  0  0  0  0
   31.2840    9.6140   17.9000 C   0  0  0  0  0
   31.0820   10.7050   17.0480 C   0  0  0  0  0
   31.4590   10.6060   15.7050 C   0  0  0  0  0
   32.0160    9.4230   15.1980 C   0  0  0  0  0
   32.1800    8.3210   16.0470 C   0  0  0  0  0
   31.8120    8.4120   17.4020 C   0  0  0  0  0
   32.7660    7.0140   15.4730 C   0  0  0  0  0
   31.6480    6.2010   14.7520 C   0  0  0  0  0
   32.1840    4.8130   14.4050 C   0  0  0  0  0
   31.2290    3.9860   13.5560 C   0  0  0  0  0
   29.8940    3.7330   14.2590 C   0  0  0  0  0
   29.1090    5.3160   14.5550 S   0  0  0  0  0
   30.3920    6.0960   15.6250 C   0  0  0  0  0
   27.9310    5.1400   15.3120 O   0  0  0  0  0
   29.0540    6.0510   13.3160 O   0  0  0  0  0
   31.9180    2.6970   13.2510 N   0  3  0  0  0
   31.3020    1.9300   12.1490 C   0  0  0  0  0
   31.2410    2.6960   10.8010 C   0  0  0  0  0
   32.3910    3.1890   10.1530 C   0  0  0  0  0
   32.2610    3.8950    8.9290 C   0  0  0  0  0
   31.0000    4.0830    8.3640 C   0  0  0  0  0
   29.8650    3.5750    9.0030 C   0  0  0  0  0
   29.9800    2.8930   10.2190 C   0  0  0  0  0
   33.4420    4.4980    8.1460 C   0  0  0  0  0
   34.7160    3.6590    8.3150 C   0  0  0  0  0
   34.5520    4.9610    9.1010 C   0  0  0  0  0
   33.4000    4.9620   13.6700 O   0  0  0  0  0
   30.5130   11.8790   17.5320 O   0  0  0  0  0
   31.3180   11.4603   15.0429 H   0  0  0  0  0
   32.3186    9.3616   14.1526 H   0  0  0  0  0
   31.9362    7.5535   18.0620 H   0  0  0  0  0
   33.1760    6.4165   16.2872 H   0  0  0  0  0
   33.5516    7.2567   14.7574 H   0  0  0  0  0
   31.3649    6.7195   13.8360 H   0  0  0  0  0
   32.3261    4.2882   15.3497 H   0  0  0  0  0
   30.9863    4.5307   12.6436 H   0  0  0  0  0
   30.0599    3.2144   15.2033 H   0  0  0  0  0
   29.2545    3.1082   13.6355 H   0  0  0  0  0
   30.0719    7.0748   15.9822 H   0  0  0  0  0
   30.5777    5.5037   16.5210 H   0  0  0  0  0
   31.8616    2.1189   14.0895 H   0  0  0  0  0
   32.8704    2.9241   12.9651 H   0  0  0  0  0
   30.2753    1.7115   12.4426 H   0  0  0  0  0
   31.9170    1.0444   11.9892 H   0  0  0  0  0
   33.3765    3.0287   10.5902 H   0  0  0  0  0
   30.8993    4.6260    7.4242 H   0  0  0  0  0
   28.8829    3.7114    8.5502 H   0  0  0  0  0
   29.0870    2.5135   10.7157 H   0  0  0  0  0
   32.9068    4.9316    7.3013 H   0  0  0  0  0
   35.4628    3.1732    7.6869 H   0  0  0  0  0
   34.9909    2.6211    8.5030 H   0  0  0  0  0
   34.6518    5.3134   10.1276 H   0  0  0  0  0
   35.1232    5.8650    9.3123 H   0  0  0  0  0
   33.7458    4.0948   13.4466 H   0  0  0  0  0
   30.4478   12.5191   16.8195 H   0  0  0  0  0
  1  2  1  0  0  0
  2  3  4  0  0  0
  2  7  4  0  0  0
  3  4  4  0  0  0
  3 29  1  0  0  0
  4  5  4  0  0  0
  5  6  4  0  0  0
  6  7  4  0  0  0
  6  8  1  0  0  0
  8  9  1  0  0  0
  9 10  1  0  0  0
  9 14  1  0  0  0
 10 11  1  0  0  0
 10 28  1  0  0  0
 11 12  1  0  0  0
 11 17  1  0  0  0
 12 13  1  0  0  0
 13 14  1  0  0  0
 13 15  2  0  0  0
 13 16  2  0  0  0
 17 18  1  0  0  0
 18 19  1  0  0  0
 19 20  4  0  0  0
 19 24  4  0  0  0
 20 21  4  0  0  0
 21 22  4  0  0  0
 21 25  1  0  0  0
 22 23  4  0  0  0
 23 24  4  0  0  0
 25 26  1  0  0  0
 25 27  1  0  0  0
 26 27  1  0  0  0
  4 30  1  0  0  0
  5 31  1  0  0  0
  7 32  1  0  0  0
  8 33  1  0  0  0
  8 34  1  0  0  0
  9 35  1  0  0  0
 10 36  1  0  0  0
 11 37  1  0  0  0
 12 38  1  0  0  0
 12 39  1  0  0  0
 14 40  1  0  0  0
 14 41  1  0  0  0
 17 42  1  0  0  0
 17 43  1  0  0  0
 18 44  1  0  0  0
 18 45  1  0  0  0
 20 46  1  0  0  0
 22 47  1  0  0  0
 23 48  1  0  0  0
 24 49  1  0  0  0
 25 50  1  0  0  0
 26 51  1  0  0  0
 26 52  1  0  0  0
 27 53  1  0  0  0
 27 54  1  0  0  0
 28 55  1  0  0  0
 29 56  1  0  0  0
M  END
$$$$
