1v79_ligand
  -I-interpret- 

 39 40  0  0  0  0  0  0  0  0999 V2000
   62.0880   65.4480   46.3820 C   0  0  0  0  0
   61.0600   65.2680   45.3450 N   0  0  0  0  0
   61.6880   65.5840   44.2340 C   0  0  0  0  0
   62.9900   65.8200   44.3710 N   0  0  0  0  0
   63.2640   65.7220   45.7940 C   0  0  0  0  0
   64.5920   65.8730   46.4960 C   0  0  0  0  0
   64.4650   66.0780   47.6370 O   0  0  0  0  0
   65.7620   65.8040   45.9000 N   0  0  0  0  0
   59.6230   65.2920   45.6040 C   0  0  0  0  0
   59.1240   63.8220   45.9310 C   0  0  0  0  0
   59.3510   62.6680   45.0710 O   0  0  0  0  0
   59.2300   66.3100   46.7330 C   0  0  0  0  0
   59.8110   67.7760   46.6780 C   0  0  0  0  0
   59.3510   68.6040   47.8340 C   0  0  0  0  0
   58.1360   69.2790   47.7600 C   0  0  0  0  0
   57.5320   69.8640   48.8940 C   0  0  0  0  0
   58.1750   69.8190   50.1350 C   0  0  0  0  0
   59.4470   69.2760   50.1570 C   0  0  0  0  0
   60.0210   68.6790   49.0320 C   0  0  0  0  0
   60.3630   69.4420   51.6430 Cl  0  0  0  0  0
   61.6070   68.0660   49.1230 Cl  0  0  0  0  0
   59.6760   63.2060   47.2370 C   0  0  0  0  0
   61.9217   65.3712   47.4565 H   0  0  0  0  0
   61.1795   65.6479   43.2720 H   0  0  0  0  0
   66.6178   65.9326   46.4399 H   0  0  0  0  0
   65.8138   65.6219   44.8977 H   0  0  0  0  0
   59.1190   65.6463   44.7048 H   0  0  0  0  0
   58.0872   64.1527   45.8703 H   0  0  0  0  0
   58.9598   61.8889   45.4730 H   0  0  0  0  0
   59.6348   65.8820   47.6501 H   0  0  0  0  0
   58.1511   66.4320   46.6377 H   0  0  0  0  0
   59.4603   68.2475   45.7600 H   0  0  0  0  0
   60.8986   67.7133   46.7149 H   0  0  0  0  0
   57.6347   69.3585   46.7954 H   0  0  0  0  0
   56.5618   70.3521   48.8020 H   0  0  0  0  0
   57.6973   70.1934   51.0404 H   0  0  0  0  0
   60.7635   63.1569   47.1827 H   0  0  0  0  0
   59.3808   63.8266   48.0831 H   0  0  0  0  0
   59.2715   62.2017   47.3628 H   0  0  0  0  0
  1  2  4  0  0  0
  1  5  4  0  0  0
  2  3  4  0  0  0
  2  9  1  0  0  0
  3  4  4  0  0  0
  4  5  4  0  0  0
  5  6  1  0  0  0
  6  7  2  0  0  0
  6  8  1  0  0  0
  9 10  1  0  0  0
  9 12  1  0  0  0
 10 11  1  0  0  0
 10 22  1  0  0  0
 12 13  1  0  0  0
 13 14  1  0  0  0
 14 15  4  0  0  0
 14 19  4  0  0  0
 15 16  4  0  0  0
 16 17  4  0  0  0
 17 18  4  0  0  0
 18 19  4  0  0  0
 18 20  1  0  0  0
 19 21  1  0  0  0
  1 23  1  0  0  0
  3 24  1  0  0  0
  8 25  1  0  0  0
  8 26  1  0  0  0
  9 27  1  0  0  0
 10 28  1  0  0  0
 11 29  1  0  0  0
 12 30  1  0  0  0
 12 31  1  0  0  0
 13 32  1  0  0  0
 13 33  1  0  0  0
 15 34  1  0  0  0
 16 35  1  0  0  0
 17 36  1  0  0  0
 22 37  1  0  0  0
 22 38  1  0  0  0
 22 39  1  0  0  0
M  END
$$$$
