2v3d_ligand
  -I-interpret- 

 37 37  0  0  0  0  0  0  0  0999 V2000
   34.6420   34.2760   -1.1950 O   0  0  0  0  0
   33.8390   33.4890   -0.2680 C   0  0  0  0  0
   34.6480   32.2880    0.3200 C   0  0  0  0  0
   35.8210   32.7510    1.1910 C   0  0  0  0  0
   35.4120   33.7460    2.1780 O   0  0  0  0  0
   36.5240   31.5590    1.8670 C   0  0  0  0  0
   37.7380   31.9710    2.5030 O   0  0  0  0  0
   36.9050   30.4670    0.8500 C   0  0  0  0  0
   37.1310   29.2710    1.6000 O   0  0  0  0  0
   35.2190   31.4520   -0.7420 N   0  3  0  0  0
   35.8120   30.2110   -0.1820 C   0  0  0  0  0
   34.2610   31.2750   -1.8520 C   0  0  0  0  0
   34.8060   30.3340   -2.9390 C   0  0  0  0  0
   34.1390   30.6730   -4.3020 C   0  0  0  0  0
   34.5900   29.7200   -5.4350 C   0  0  0  0  0
   34.1152   35.0027   -1.5356 H   0  0  0  0  0
   32.9794   33.0928   -0.8085 H   0  0  0  0  0
   33.5338   34.1342    0.5558 H   0  0  0  0  0
   33.9316   31.7248    0.9181 H   0  0  0  0  0
   36.5382   33.2313    0.5254 H   0  0  0  0  0
   34.9774   34.4770    1.7326 H   0  0  0  0  0
   35.8136   31.1669    2.5948 H   0  0  0  0  0
   37.5438   32.6549    3.1482 H   0  0  0  0  0
   37.7857   30.7897    0.2948 H   0  0  0  0  0
   37.8188   29.4281    2.2511 H   0  0  0  0  0
   36.0097   31.9297   -1.1746 H   0  0  0  0  0
   35.0126   29.6641    0.3180 H   0  0  0  0  0
   36.2653   29.6640   -1.0087 H   0  0  0  0  0
   34.0801   32.2499   -2.3047 H   0  0  0  0  0
   33.3485   30.8366   -1.4479 H   0  0  0  0  0
   34.5806   29.3016   -2.6715 H   0  0  0  0  0
   35.8854   30.4616   -3.0215 H   0  0  0  0  0
   34.4324   31.6860   -4.5775 H   0  0  0  0  0
   33.0604   30.5689   -4.1840 H   0  0  0  0  0
   35.6701   29.7935   -5.5614 H   0  0  0  0  0
   34.3222   28.6959   -5.1748 H   0  0  0  0  0
   34.0942   30.0017   -6.3639 H   0  0  0  0  0
  1  2  1  0  0  0
  2  3  1  0  0  0
  3  4  1  0  0  0
  3 10  1  0  0  0
  4  5  1  0  0  0
  4  6  1  0  0  0
  6  7  1  0  0  0
  6  8  1  0  0  0
  8  9  1  0  0  0
  8 11  1  0  0  0
 10 11  1  0  0  0
 10 12  1  0  0  0
 12 13  1  0  0  0
 13 14  1  0  0  0
 14 15  1  0  0  0
  1 16  1  0  0  0
  2 17  1  0  0  0
  2 18  1  0  0  0
  3 19  1  0  0  0
  4 20  1  0  0  0
  5 21  1  0  0  0
  6 22  1  0  0  0
  7 23  1  0  0  0
  8 24  1  0  0  0
  9 25  1  0  0  0
 10 26  1  0  0  0
 11 27  1  0  0  0
 11 28  1  0  0  0
 12 29  1  0  0  0
 12 30  1  0  0  0
 13 31  1  0  0  0
 13 32  1  0  0  0
 14 33  1  0  0  0
 14 34  1  0  0  0
 15 35  1  0  0  0
 15 36  1  0  0  0
 15 37  1  0  0  0
M  END
$$$$
