3b5j_ligand
  -I-interpret- 

 58 62  0  0  0  0  0  0  0  0999 V2000
   23.5610    1.0270   29.1430 P   0  0  0  0  0
   23.4280    1.3440   27.6720 O   0  0  0  0  0
   24.0180   -0.3830   29.4250 O   0  0  0  0  0
   22.3400    1.3870   29.9520 O   0  0  0  0  0
   25.4100    3.2500   29.0560 P   0  0  0  0  0
   26.4710    2.8850   28.0370 O   0  0  0  0  0
   24.3280    4.2100   28.6580 O   0  0  0  0  0
   24.7710    1.9180   29.7050 O   0  0  0  0  0
   26.1500    3.8940   30.3310 O   0  0  0  0  0
   27.3760    3.3770   30.8510 C   0  0  0  0  0
   27.9060    4.3310   31.9140 C   0  0  0  0  0
   28.4360    5.5140   31.3010 O   0  0  0  0  0
   26.7360    4.7620   32.7780 C   0  0  0  0  0
   27.0490    4.7550   34.1670 O   0  0  0  0  0
   26.4470    6.2010   32.4130 C   0  0  0  0  0
   26.2550    6.8720   33.6470 O   0  0  0  0  0
   27.7140    6.6850   31.7250 C   0  0  0  0  0
   27.4740    7.6530   30.6190 N   0  0  0  0  0
   26.6700    7.5020   29.5520 C   0  0  0  0  0
   26.7400    8.6140   28.7870 N   0  0  0  0  0
   27.5890    9.4670   29.3850 C   0  0  0  0  0
   28.0440   10.7400   29.0670 C   0  0  0  0  0
   27.6090   11.3610   27.9390 N   0  0  0  0  0
   28.9260   11.3410   29.9010 N   0  0  0  0  0
   29.3600   10.7450   31.0250 C   0  0  0  0  0
   28.9390    9.5080   31.3420 N   0  0  0  0  0
   28.0540    8.8560   30.5400 C   0  0  0  0  0
   26.5540    5.9780   34.7330 C   0  0  0  0  0
   27.6390    6.6160   35.5940 C   0  0  0  0  0
   27.3900    7.0060   36.9040 C   0  0  0  0  0
   26.1560    6.8150   37.5060 C   0  0  0  0  0
   25.1200    6.2260   36.8040 C   0  0  0  0  0
   25.2470    5.7870   35.4920 C   0  0  0  0  0
   28.8980    6.8630   35.1330 N   0  0  0  0  0
   25.9670    7.2180   38.7870 N   0  0  0  0  0
   24.1150    5.2340   34.9570 N   0  0  0  0  0
   29.2960    6.5290   33.8500 O   0  0  0  0  0
   29.8480    7.4720   35.9460 O   0  0  0  0  0
   24.7380    7.0380   39.4180 O   0  0  0  0  0
   27.0140    7.8170   39.4800 O   0  0  0  0  0
   24.0310    4.7370   33.6580 O   0  0  0  0  0
   22.9710    5.1400   35.7500 O   0  0  0  0  0
   24.2350    1.0918   27.2172 H   0  0  0  0  0
   24.7944   -0.5785   28.8953 H   0  0  0  0  0
   27.0915    2.2670   28.4302 H   0  0  0  0  0
   28.1052    3.2817   30.0464 H   0  0  0  0  0
   27.2031    2.3952   31.2918 H   0  0  0  0  0
   28.6836    3.8300   32.4905 H   0  0  0  0  0
   25.9068    4.0754   32.6074 H   0  0  0  0  0
   25.5806    6.3569   31.7702 H   0  0  0  0  0
   28.3082    7.2660   32.4303 H   0  0  0  0  0
   26.0601    6.6243   29.3384 H   0  0  0  0  0
   26.9457   10.8921   27.3221 H   0  0  0  0  0
   27.9458   12.2960   27.7093 H   0  0  0  0  0
   30.0560   11.2666   31.6820 H   0  0  0  0  0
   28.1896    7.4767   37.4760 H   0  0  0  0  0
   24.1593    6.1004   37.3033 H   0  0  0  0  0
   25.9794    5.3350   34.8231 H   0  0  0  0  0
  1  2  1  0  0  0
  1  3  1  0  0  0
  1  4  2  0  0  0
  8  1  1  0  0  0
  5  6  1  0  0  0
  5  7  2  0  0  0
  5  8  1  0  0  0
  5  9  1  0  0  0
  9 10  1  0  0  0
 10 11  1  0  0  0
 11 12  1  0  0  0
 11 13  1  0  0  0
 12 17  1  0  0  0
 13 14  1  0  0  0
 13 15  1  0  0  0
 14 28  1  0  0  0
 15 16  1  0  0  0
 15 17  1  0  0  0
 16 28  1  0  0  0
 17 18  1  0  0  0
 18 19  4  0  0  0
 18 27  4  0  0  0
 19 20  4  0  0  0
 20 21  4  0  0  0
 21 22  4  0  0  0
 21 27  4  0  0  0
 22 23  1  0  0  0
 22 24  4  0  0  0
 24 25  4  0  0  0
 25 26  4  0  0  0
 26 27  4  0  0  0
 28 29  1  0  0  0
 28 33  1  0  0  0
 29 30  2  0  0  0
 29 34  1  0  0  0
 30 31  1  0  0  0
 31 32  2  0  0  0
 31 35  1  0  0  0
 32 33  1  0  0  0
 33 36  1  0  0  0
 34 37  2  0  0  0
 34 38  2  0  0  0
 35 39  2  0  0  0
 35 40  2  0  0  0
 36 41  2  0  0  0
 36 42  2  0  0  0
  2 43  1  0  0  0
  3 44  1  0  0  0
  6 45  1  0  0  0
 10 46  1  0  0  0
 10 47  1  0  0  0
 11 48  1  0  0  0
 13 49  1  0  0  0
 15 50  1  0  0  0
 17 51  1  0  0  0
 19 52  1  0  0  0
 23 53  1  0  0  0
 23 54  1  0  0  0
 25 55  1  0  0  0
 30 56  1  0  0  0
 32 57  1  0  0  0
 33 58  1  0  0  0
M  END
$$$$
