4ycw_ligand
  -I-interpret- 

 41 43  0  0  0  0  0  0  0  0999 V2000
    6.1330    9.9590  -11.3690 O   0  0  0  0  0
    6.7280    9.3570  -12.2470 C   0  0  0  0  0
    8.2020    9.1190  -12.1670 C   0  0  0  0  0
    8.8730    8.4580  -13.3030 C   0  0  0  0  0
   10.2440    8.2370  -13.2430 C   0  0  0  0  0
   10.9820    8.6260  -12.1240 C   0  0  0  0  0
   12.3230    8.3890  -12.1010 O   0  0  0  0  0
   10.3860    9.2540  -11.0290 C   0  0  0  0  0
    9.0210    9.5200  -11.0010 C   0  0  0  0  0
    8.4480   10.1330   -9.9280 O   0  0  0  0  0
    6.0030    8.8740  -13.4130 O   0  0  0  0  0
    6.6240    7.7350  -14.0180 C   0  0  0  0  0
    8.0430    8.0490  -14.4950 C   0  0  0  0  0
    5.7740    7.2720  -15.1970 C   0  0  0  0  0
    4.3780    6.8750  -14.7230 C   0  0  0  0  0
    4.4510    5.6970  -13.9140 O   0  0  0  0  0
    4.9450    4.5540  -14.6150 C   0  0  0  0  0
    5.1120    3.3890  -13.6460 C   0  0  0  0  0
    3.9890    4.1980  -15.7450 C   0  0  0  0  0
    3.8570    5.3850  -16.6900 C   0  0  0  0  0
    3.4580    6.6360  -15.9180 C   0  0  0  0  0
   10.7488    7.7542  -14.0798 H   0  0  0  0  0
   12.6894    8.7097  -11.2737 H   0  0  0  0  0
   11.0033    9.5420  -10.1780 H   0  0  0  0  0
    9.1218   10.3202   -9.2703 H   0  0  0  0  0
    6.6957    6.9462  -13.2692 H   0  0  0  0  0
    8.4793    7.1682  -14.9660 H   0  0  0  0  0
    8.0183    8.8582  -15.2249 H   0  0  0  0  0
    6.2505    6.4083  -15.6608 H   0  0  0  0  0
    5.6867    8.0883  -15.9141 H   0  0  0  0  0
    3.9675    7.6893  -14.1260 H   0  0  0  0  0
    5.9199    4.7776  -15.0482 H   0  0  0  0  0
    5.8185    3.6670  -12.8639 H   0  0  0  0  0
    4.1476    3.1497  -13.1979 H   0  0  0  0  0
    5.4889    2.5203  -14.1858 H   0  0  0  0  0
    3.0112    3.9527  -15.3304 H   0  0  0  0  0
    4.3768    3.3388  -16.2923 H   0  0  0  0  0
    3.0888    5.1650  -17.4314 H   0  0  0  0  0
    4.8162    5.5593  -17.1774 H   0  0  0  0  0
    3.5328    7.4929  -16.5875 H   0  0  0  0  0
    2.4409    6.5037  -15.5491 H   0  0  0  0  0
  1  2  2  0  0  0
  2  3  1  0  0  0
  2 11  1  0  0  0
  3  4  4  0  0  0
  3  9  4  0  0  0
  4  5  4  0  0  0
  4 13  1  0  0  0
  5  6  4  0  0  0
  6  7  1  0  0  0
  6  8  4  0  0  0
  8  9  4  0  0  0
  9 10  1  0  0  0
 11 12  1  0  0  0
 12 13  1  0  0  0
 12 14  1  0  0  0
 14 15  1  0  0  0
 15 16  1  0  0  0
 15 21  1  0  0  0
 16 17  1  0  0  0
 17 18  1  0  0  0
 17 19  1  0  0  0
 19 20  1  0  0  0
 20 21  1  0  0  0
  5 22  1  0  0  0
  7 23  1  0  0  0
  8 24  1  0  0  0
 10 25  1  0  0  0
 12 26  1  0  0  0
 13 27  1  0  0  0
 13 28  1  0  0  0
 14 29  1  0  0  0
 14 30  1  0  0  0
 15 31  1  0  0  0
 17 32  1  0  0  0
 18 33  1  0  0  0
 18 34  1  0  0  0
 18 35  1  0  0  0
 19 36  1  0  0  0
 19 37  1  0  0  0
 20 38  1  0  0  0
 20 39  1  0  0  0
 21 40  1  0  0  0
 21 41  1  0  0  0
M  END
$$$$
