5x73_ligand
  -I-interpret- 

 39 42  0  0  0  0  0  0  0  0999 V2000
   19.2310  -17.7130   16.0750 F   0  0  0  0  0
   19.7040  -16.6340   15.3500 C   0  0  0  0  0
   20.3420  -15.5520   15.9890 C   0  0  0  0  0
   20.8230  -14.4490   15.2780 C   0  0  0  0  0
   20.6690  -14.4590   13.8900 C   0  0  0  0  0
   20.0250  -15.5470   13.2500 C   0  0  0  0  0
   19.5530  -16.6600   13.9790 C   0  0  0  0  0
   18.8960  -17.7890   13.4360 C   0  0  0  0  0
   19.8330  -18.9040   13.3870 N   0  0  0  0  0
   20.7070  -18.9780   12.3310 C   0  0  0  0  0
   21.8410  -19.7170   12.4800 C   0  0  0  0  0
   22.7510  -19.8140   11.4620 C   0  0  0  0  0
   22.4750  -19.1760   10.2820 C   0  0  0  0  0
   21.3030  -18.4580   10.1380 C   0  0  0  0  0
   20.4290  -18.3110   11.1820 C   0  0  0  0  0
   19.2010  -17.6610   11.0480 C   0  0  0  0  0
   18.7170  -17.4400    9.9530 O   0  0  0  0  0
   18.3850  -17.5160   12.0900 N   0  0  0  0  0
   17.1200  -17.1380   11.9540 C   0  0  0  0  0
   16.2120  -18.1650   11.7810 C   0  0  0  0  0
   14.8630  -17.9310   11.6350 C   0  0  0  0  0
   14.4210  -16.6260   11.6470 C   0  0  0  0  0
   15.3270  -15.5770   11.7910 C   0  0  0  0  0
   16.6930  -15.8300   11.9540 C   0  0  0  0  0
   20.4642  -15.5761   17.0719 H   0  0  0  0  0
   21.3005  -13.6122   15.7878 H   0  0  0  0  0
   21.0459  -13.6262   13.2963 H   0  0  0  0  0
   19.8908  -15.5240   12.1685 H   0  0  0  0  0
   18.0460  -18.0346   14.0727 H   0  0  0  0  0
   19.8393  -19.6130   14.1203 H   0  0  0  0  0
   22.0261  -20.2369   13.4200 H   0  0  0  0  0
   23.6714  -20.3843   11.5873 H   0  0  0  0  0
   23.1816  -19.2347    9.4542 H   0  0  0  0  0
   21.0701  -18.0006    9.1764 H   0  0  0  0  0
   16.5750  -19.1926   11.7594 H   0  0  0  0  0
   14.1625  -18.7572   11.5130 H   0  0  0  0  0
   13.3571  -16.4130   11.5433 H   0  0  0  0  0
   14.9673  -14.5482   11.7765 H   0  0  0  0  0
   17.4017  -15.0112   12.0780 H   0  0  0  0  0
  1  2  1  0  0  0
  2  3  4  0  0  0
  2  7  4  0  0  0
  3  4  4  0  0  0
  4  5  4  0  0  0
  5  6  4  0  0  0
  6  7  4  0  0  0
  7  8  1  0  0  0
  8  9  1  0  0  0
  8 18  1  0  0  0
  9 10  1  0  0  0
 10 11  4  0  0  0
 10 15  4  0  0  0
 11 12  4  0  0  0
 12 13  4  0  0  0
 13 14  4  0  0  0
 14 15  4  0  0  0
 15 16  1  0  0  0
 16 17  2  0  0  0
 16 18  1  0  0  0
 18 19  1  0  0  0
 19 20  4  0  0  0
 19 24  4  0  0  0
 20 21  4  0  0  0
 21 22  4  0  0  0
 22 23  4  0  0  0
 23 24  4  0  0  0
  3 25  1  0  0  0
  4 26  1  0  0  0
  5 27  1  0  0  0
  6 28  1  0  0  0
  8 29  1  0  0  0
  9 30  1  0  0  0
 11 31  1  0  0  0
 12 32  1  0  0  0
 13 33  1  0  0  0
 14 34  1  0  0  0
 20 35  1  0  0  0
 21 36  1  0  0  0
 22 37  1  0  0  0
 23 38  1  0  0  0
 24 39  1  0  0  0
M  END
$$$$
