4m5g_ligand
  -I-interpret- 

 31 33  0  0  0  0  0  0  0  0999 V2000
   54.7510    6.3420   32.0090 N   0  0  0  0  0
   54.2460    7.2810   31.1930 C   0  0  0  0  0
   54.6620    8.5370   31.1770 N   0  0  0  0  0
   55.6530    8.8650   32.0450 C   0  0  0  0  0
   56.2090    7.9350   32.8990 C   0  0  0  0  0
   55.7290    6.6080   32.8720 C   0  0  0  0  0
   56.2250    5.6400   33.6920 O   0  0  0  0  0
   53.2090    6.9130   30.3150 N   0  0  0  0  0
   56.2840   10.0440   32.2650 N   0  0  0  0  0
   57.1850    9.8330   33.2240 C   0  0  0  0  0
   57.1690    8.5640   33.6480 N   0  0  0  0  0
   58.1900   11.1240   33.8040 S   0  0  0  0  0
   57.1230   12.5710   33.7700 C   0  0  0  0  0
   55.7390   12.5960   34.3810 C   0  0  0  0  0
   54.9130   13.8550   34.4270 C   0  0  0  0  0
   55.2550   11.5730   34.8460 O   0  0  0  0  0
   53.5560   13.7850   34.7300 C   0  0  0  0  0
   52.7760   14.9360   34.7800 C   0  0  0  0  0
   53.3500   16.1690   34.5180 C   0  0  0  0  0
   54.7000   16.2520   34.2130 C   0  0  0  0  0
   55.4790   15.0990   34.1700 C   0  0  0  0  0
   54.3735    5.3954   31.9663 H   0  0  0  0  0
   52.7998    7.6072   29.6897 H   0  0  0  0  0
   52.8668    5.9522   30.3042 H   0  0  0  0  0
   56.9251   12.7059   32.7066 H   0  0  0  0  0
   57.6712   13.2952   34.3726 H   0  0  0  0  0
   53.0988   12.8161   34.9306 H   0  0  0  0  0
   51.7160   14.8676   35.0247 H   0  0  0  0  0
   52.7414   17.0726   34.5515 H   0  0  0  0  0
   55.1523   17.2220   34.0065 H   0  0  0  0  0
   56.5405   15.1718   33.9331 H   0  0  0  0  0
  1  2  1  0  0  0
  1  6  1  0  0  0
  2  3  2  0  0  0
  2  8  1  0  0  0
  3  4  1  0  0  0
  4  5  4  0  0  0
  4  9  4  0  0  0
  5  6  1  0  0  0
  5 11  4  0  0  0
  6  7  2  0  0  0
  9 10  4  0  0  0
 10 11  4  0  0  0
 10 12  1  0  0  0
 12 13  1  0  0  0
 13 14  1  0  0  0
 14 15  1  0  0  0
 14 16  2  0  0  0
 15 17  4  0  0  0
 15 21  4  0  0  0
 17 18  4  0  0  0
 18 19  4  0  0  0
 19 20  4  0  0  0
 20 21  4  0  0  0
  1 22  1  0  0  0
  8 23  1  0  0  0
  8 24  1  0  0  0
 13 25  1  0  0  0
 13 26  1  0  0  0
 17 27  1  0  0  0
 18 28  1  0  0  0
 19 29  1  0  0  0
 20 30  1  0  0  0
 21 31  1  0  0  0
M  END
$$$$
