4n7u_ligand
  -I-interpret- 

 31 30  0  0  0  0  0  0  0  0999 V2000
   21.8930    1.9230  145.2130 O   0  0  0  0  0
   21.0250    0.5720  145.0120 P   0  0  0  0  0
   21.2170    0.1880  143.4530 O   0  0  0  0  0
   19.5990    0.7820  145.3620 O   0  0  0  0  0
   21.7750   -0.6010  145.8190 O   0  0  0  0  0
   21.4760   -0.9740  147.3720 P   0  0  0  0  0
   22.0110   -2.4830  147.6070 O   0  0  0  0  0
   20.0520   -0.8360  147.7750 O   0  0  0  0  0
   22.4830    0.0120  148.3160 C   0  0  0  0  0
   23.8940   -0.5490  148.2850 C   0  0  0  0  0
   24.6310    0.3370  149.2600 C   0  0  0  0  0
   24.7480   -0.3910  150.5930 C   0  0  0  0  0
   24.2450   -1.8270  150.7100 C   0  0  0  0  0
   25.4380    0.2500  151.7720 C   0  0  0  0  0
   24.7260    1.4530  152.0450 O   0  0  0  0  0
   22.8080    1.7520  144.9783 H   0  0  0  0  0
   22.1505    0.0610  143.2685 H   0  0  0  0  0
   22.9308   -2.5407  147.3383 H   0  0  0  0  0
   22.1184    0.0335  149.3430 H   0  0  0  0  0
   22.4820    1.0267  147.9178 H   0  0  0  0  0
   24.3325   -0.5366  147.2872 H   0  0  0  0  0
   23.9360   -1.6038  148.5566 H   0  0  0  0  0
   24.0854    1.2708  149.3957 H   0  0  0  0  0
   25.6250    0.5638  148.8745 H   0  0  0  0  0
   23.9071    0.2426  150.8751 H   0  0  0  0  0
   23.1803   -1.8577  150.4784 H   0  0  0  0  0
   24.7891   -2.4595  150.0086 H   0  0  0  0  0
   24.4076   -2.1859  151.7263 H   0  0  0  0  0
   26.4851    0.4556  151.5497 H   0  0  0  0  0
   25.4342   -0.4132  152.6370 H   0  0  0  0  0
   25.1299    1.9000  152.7925 H   0  0  0  0  0
  1  2  1  0  0  0
  2  3  1  0  0  0
  2  4  2  0  0  0
  2  5  1  0  0  0
  5  6  1  0  0  0
  6  7  1  0  0  0
  6  8  2  0  0  0
  6  9  1  0  0  0
  9 10  1  0  0  0
 10 11  1  0  0  0
 11 12  1  0  0  0
 12 13  1  0  0  0
 12 14  1  0  0  0
 14 15  1  0  0  0
  1 16  1  0  0  0
  3 17  1  0  0  0
  7 18  1  0  0  0
  9 19  1  0  0  0
  9 20  1  0  0  0
 10 21  1  0  0  0
 10 22  1  0  0  0
 11 23  1  0  0  0
 11 24  1  0  0  0
 12 25  1  0  0  0
 13 26  1  0  0  0
 13 27  1  0  0  0
 13 28  1  0  0  0
 14 29  1  0  0  0
 14 30  1  0  0  0
 15 31  1  0  0  0
M  END
$$$$
