### 
### Created by X-TOOL on Mon Aug  2 16:13:43 2021
### 

@<TRIPOS>MOLECULE
6h77_ligand
   43    45     1     0     0
SMALL
GAST_HUCK


@<TRIPOS>ATOM
      1 PG         17.6770    9.3820   26.6660 P.3       1 ATP         0.1879
      2 O1G        17.3390    9.0930   25.2510 O.co2     1 ATP        -0.6091
      3 O2G        16.6430   10.1950   27.3510 O.co2     1 ATP        -0.6091
      4 O3G        19.0510    9.9190   26.8550 O.co2     1 ATP        -0.6091
      5 PB         18.7660    6.8300   27.2020 P.3       1 ATP         0.3553
      6 O1B        19.2980    6.9280   25.8620 O.co2     1 ATP        -0.5652
      7 O2B        19.7560    6.7320   28.2960 O.co2     1 ATP        -0.5652
      8 O3B        17.6820    7.9840   27.4160 O.3       1 ATP        -0.1546
      9 PA         16.6800    5.0020   26.4870 P.3       1 ATP         0.3266
     10 O1A        16.4400    6.0960   25.4840 O.co2     1 ATP        -0.5692
     11 O2A        15.5530    4.7670   27.4210 O.co2     1 ATP        -0.5692
     12 O3A        17.9850    5.4300   27.3410 O.3       1 ATP        -0.1171
     13 O5'        17.1870    3.8120   25.5200 O.3       1 ATP        -0.2441
     14 C5'        17.3470    2.5210   25.9950 C.3       1 ATP         0.1131
     15 C4'        18.7740    1.9740   25.9890 C.3       1 ATP         0.1189
     16 O4'        19.1710    1.3270   24.7990 O.3       1 ATP        -0.3364
     17 C3'        19.8910    2.9190   26.3670 C.3       1 ATP         0.1149
     18 O3'        20.1610    2.5070   27.7060 O.3       1 ATP        -0.3864
     19 C2'        20.9950    2.4840   25.4360 C.3       1 ATP         0.1385
     20 O2'        22.2970    2.5270   26.0490 O.3       1 ATP        -0.3836
     21 C1'        20.5500    1.1020   24.9360 C.3       1 ATP         0.2010
     22 N9         21.3020    0.8890   23.6920 N.pl3     1 ATP        -0.1919
     23 C8         21.2370    1.6110   22.5640 C.2       1 ATP         0.1123
     24 N7         22.1070    1.1640   21.6500 N.2       1 ATP        -0.2958
     25 C5         22.7650    0.1400   22.2020 C.ar      1 ATP         0.1045
     26 C6         23.8480   -0.7700   21.8030 C.ar      1 ATP         0.1298
     27 N6         24.4140   -0.6990   20.6010 N.pl3     1 ATP        -0.3152
     28 N1         24.2280   -1.7070   22.6820 N.ar      1 ATP        -0.2698
     29 C2         23.6600   -1.8400   23.9090 C.ar      1 ATP         0.0533
     30 N3         22.6900   -1.0260   24.3540 N.ar      1 ATP        -0.2714
     31 C4         22.2150   -0.0430   23.5460 C.ar      1 ATP         0.1613
     32 H1         16.7295    1.8555   25.3739 H         1 ATP         0.0648
     33 H2         16.9824    2.4971   27.0325 H         1 ATP         0.0648
     34 H3         18.7650    1.1987   26.7692 H         1 ATP         0.0651
     35 H4         19.6494    3.9887   26.2813 H         1 ATP         0.0648
     36 H5         20.4213    1.5933   27.7086 H         1 ATP         0.2100
     37 H6         21.0267    3.1701   24.5768 H         1 ATP         0.0676
     38 H7         22.3100    1.9492   26.8030 H         1 ATP         0.2101
     39 H8         20.7522    0.2882   25.6479 H         1 ATP         0.0996
     40 H9         20.5632    2.4527   22.4111 H         1 ATP         0.1349
     41 H10        25.1712   -1.3502   20.3491 H         1 ATP         0.1820
     42 H11        24.0949    0.0071   19.9224 H         1 ATP         0.1820
     43 H12        24.0051   -2.6379   24.5565 H         1 ATP         0.0996
@<TRIPOS>BOND
     1    1    2 ar 
     2    1    3 ar 
     3    1    4 ar 
     4    8    1 1  
     5    5    6 ar 
     6    5    7 ar 
     7    5    8 1  
     8   12    5 1  
     9    9   10 ar 
    10    9   11 ar 
    11    9   12 1  
    12    9   13 1  
    13   13   14 1  
    14   14   15 1  
    15   15   16 1  
    16   15   17 1  
    17   16   21 1  
    18   17   18 1  
    19   17   19 1  
    20   19   20 1  
    21   19   21 1  
    22   21   22 1  
    23   22   23 1  
    24   22   31 1  
    25   23   24 2  
    26   24   25 1  
    27   25   26 ar 
    28   25   31 ar 
    29   26   27 1  
    30   26   28 ar 
    31   28   29 ar 
    32   29   30 ar 
    33   30   31 ar 
    34   14   32 1  
    35   14   33 1  
    36   15   34 1  
    37   17   35 1  
    38   18   36 1  
    39   19   37 1  
    40   20   38 1  
    41   21   39 1  
    42   23   40 1  
    43   27   41 1  
    44   27   42 1  
    45   29   43 1  
@<TRIPOS>SUBSTRUCTURE
     1 ATP         1

