6h77_ligand
  -I-interpret- 

 47 49  0  0  0  0  0  0  0  0999 V2000
   17.6770    9.3820   26.6660 P   0  0  0  0  0
   17.3390    9.0930   25.2510 O   0  0  0  0  0
   16.6430   10.1950   27.3510 O   0  0  0  0  0
   19.0510    9.9190   26.8550 O   0  0  0  0  0
   18.7660    6.8300   27.2020 P   0  0  0  0  0
   19.2980    6.9280   25.8620 O   0  0  0  0  0
   19.7560    6.7320   28.2960 O   0  0  0  0  0
   17.6820    7.9840   27.4160 O   0  0  0  0  0
   16.6800    5.0020   26.4870 P   0  0  0  0  0
   16.4400    6.0960   25.4840 O   0  0  0  0  0
   15.5530    4.7670   27.4210 O   0  0  0  0  0
   17.9850    5.4300   27.3410 O   0  0  0  0  0
   17.1870    3.8120   25.5200 O   0  0  0  0  0
   17.3470    2.5210   25.9950 C   0  0  0  0  0
   18.7740    1.9740   25.9890 C   0  0  0  0  0
   19.1710    1.3270   24.7990 O   0  0  0  0  0
   19.8910    2.9190   26.3670 C   0  0  0  0  0
   20.1610    2.5070   27.7060 O   0  0  0  0  0
   20.9950    2.4840   25.4360 C   0  0  0  0  0
   22.2970    2.5270   26.0490 O   0  0  0  0  0
   20.5500    1.1020   24.9360 C   0  0  0  0  0
   21.3020    0.8890   23.6920 N   0  0  0  0  0
   21.2370    1.6110   22.5640 C   0  0  0  0  0
   22.1070    1.1640   21.6500 N   0  0  0  0  0
   22.7650    0.1400   22.2020 C   0  0  0  0  0
   23.8480   -0.7700   21.8030 C   0  0  0  0  0
   24.4140   -0.6990   20.6010 N   0  0  0  0  0
   24.2280   -1.7070   22.6820 N   0  0  0  0  0
   23.6600   -1.8400   23.9090 C   0  0  0  0  0
   22.6900   -1.0260   24.3540 N   0  0  0  0  0
   22.2150   -0.0430   23.5460 C   0  0  0  0  0
   18.0385    8.5665   24.8572 H   0  0  0  0  0
   19.6788    9.3582   26.3935 H   0  0  0  0  0
   19.2970    6.6721   29.1370 H   0  0  0  0  0
   17.2112    6.1858   24.9194 H   0  0  0  0  0
   16.7708    1.8776   25.3300 H   0  0  0  0  0
   17.0313    2.5384   27.0381 H   0  0  0  0  0
   18.6550    1.2532   26.7979 H   0  0  0  0  0
   19.7281    3.9949   26.3034 H   0  0  0  0  0
   20.8697    3.0439   28.0680 H   0  0  0  0  0
   21.1325    3.1650   24.5961 H   0  0  0  0  0
   22.9580    2.2414   25.4141 H   0  0  0  0  0
   20.7258    0.2108   25.5384 H   0  0  0  0  0
   20.5626    2.4535   22.4109 H   0  0  0  0  0
   24.0980    0.0003   19.9290 H   0  0  0  0  0
   25.1639   -1.3438   20.3515 H   0  0  0  0  0
   24.0070   -2.6423   24.5601 H   0  0  0  0  0
  1  2  1  0  0  0
  1  3  2  0  0  0
  1  4  1  0  0  0
  8  1  1  0  0  0
  5  6  2  0  0  0
  5  7  1  0  0  0
  5  8  1  0  0  0
 12  5  1  0  0  0
  9 10  1  0  0  0
  9 11  2  0  0  0
  9 12  1  0  0  0
  9 13  1  0  0  0
 13 14  1  0  0  0
 14 15  1  0  0  0
 15 16  1  0  0  0
 15 17  1  0  0  0
 16 21  1  0  0  0
 17 18  1  0  0  0
 17 19  1  0  0  0
 19 20  1  0  0  0
 19 21  1  0  0  0
 21 22  1  0  0  0
 22 23  4  0  0  0
 22 31  4  0  0  0
 23 24  4  0  0  0
 24 25  4  0  0  0
 25 26  4  0  0  0
 25 31  4  0  0  0
 26 27  1  0  0  0
 26 28  4  0  0  0
 28 29  4  0  0  0
 29 30  4  0  0  0
 30 31  4  0  0  0
  2 32  1  0  0  0
  4 33  1  0  0  0
  7 34  1  0  0  0
 10 35  1  0  0  0
 14 36  1  0  0  0
 14 37  1  0  0  0
 15 38  1  0  0  0
 17 39  1  0  0  0
 18 40  1  0  0  0
 19 41  1  0  0  0
 20 42  1  0  0  0
 21 43  1  0  0  0
 23 44  1  0  0  0
 27 45  1  0  0  0
 27 46  1  0  0  0
 29 47  1  0  0  0
M  END
$$$$
