5ehw_ligand
  -I-interpret- 

 19 19  0  0  0  0  0  0  0  0999 V2000
   14.8410    1.2690   15.9360 O   0  0  0  0  0
   15.9900    0.9440   15.5470 C   0  0  0  0  0
   16.9840    2.0510   15.2790 C   0  0  0  0  0
   16.4760    3.2900   15.1200 C   0  0  0  0  0
   17.3510    4.4910   14.8640 C   0  0  0  0  0
   16.8090    5.7550   15.0010 C   0  0  0  0  0
   15.1350    5.9370   15.4450 Cl  0  0  0  0  0
   17.5870    6.8750   14.7870 C   0  0  0  0  0
   18.9140    6.7220   14.4320 C   0  0  0  0  0
   19.8880    8.1380   14.1640 Cl  0  0  0  0  0
   19.4710    5.4610   14.3020 C   0  0  0  0  0
   18.6820    4.3420   14.5210 C   0  0  0  0  0
   16.3350   -0.2530   15.4190 O   0  0  0  0  0
   14.7741    2.2261   15.9682 H   0  0  0  0  0
   18.0550    1.8579   15.2175 H   0  0  0  0  0
   15.3964    3.4280   15.1785 H   0  0  0  0  0
   17.1586    7.8712   14.8970 H   0  0  0  0  0
   20.5205    5.3490   14.0299 H   0  0  0  0  0
   19.1111    3.3449   14.4227 H   0  0  0  0  0
  1  2  1  0  0  0
  2  3  1  0  0  0
  2 13  2  0  0  0
  3  4  2  0  0  0
  4  5  1  0  0  0
  5  6  4  0  0  0
  5 12  4  0  0  0
  6  7  1  0  0  0
  6  8  4  0  0  0
  8  9  4  0  0  0
  9 10  1  0  0  0
  9 11  4  0  0  0
 11 12  4  0  0  0
  1 14  1  0  0  0
  3 15  1  0  0  0
  4 16  1  0  0  0
  8 17  1  0  0  0
 11 18  1  0  0  0
 12 19  1  0  0  0
M  END
$$$$
