6bau_ligand
  -I-interpret- 

 15 14  0  0  0  0  0  0  0  0999 V2000
    3.0190  -10.1310   -3.6660 N   0  3  0  0  0
    3.8970  -10.5110   -4.7740 C   0  0  0  0  0
    3.3600  -11.7370   -5.5050 C   0  0  0  0  0
    2.9090  -11.6440   -6.6460 O   0  0  0  0  0
    5.3150  -10.7790   -4.2620 C   0  0  0  0  0
    6.0870   -9.3710   -3.4220 S   0  0  0  0  0
    3.3670  -12.8430   -4.9660 O   0  0  0  0  0
    2.0796   -9.9561   -4.0228 H   0  0  0  0  0
    2.9890  -10.8876   -2.9826 H   0  0  0  0  0
    3.3788   -9.2854   -3.2233 H   0  0  0  0  0
    3.9268   -9.6811   -5.4800 H   0  0  0  0  0
    2.9660  -10.7313   -6.9380 H   0  0  0  0  0
    5.9306  -11.0092   -5.1315 H   0  0  0  0  0
    5.2444  -11.5865   -3.5332 H   0  0  0  0  0
    7.3084   -9.7116   -3.0206 H   0  0  0  0  0
  1  2  1  0  0  0
  2  3  1  0  0  0
  2  5  1  0  0  0
  3  4  1  0  0  0
  3  7  2  0  0  0
  5  6  1  0  0  0
  1  8  1  0  0  0
  1  9  1  0  0  0
  1 10  1  0  0  0
  2 11  1  0  0  0
  4 12  1  0  0  0
  5 13  1  0  0  0
  5 14  1  0  0  0
  6 15  1  0  0  0
M  END
$$$$
