5t9w_ligand
  -I-interpret- 

 83 85  0  0  0  0  0  0  0  0999 V2000
    5.7200  -19.6850   -0.8560 N   0  3  0  0  0
    6.3350  -19.4910    1.9960 C   0  0  0  0  0
    6.4590  -20.6720   -0.1620 N   0  0  0  0  0
    4.8180  -18.9000    0.0130 C   0  0  0  0  0
    4.2100  -17.7040   -0.7240 C   0  0  0  0  0
    2.1980  -16.3480   -0.7880 C   0  0  0  0  0
    1.6340  -17.7640   -2.8160 C   0  0  0  0  0
    5.0170  -25.0320   -5.5030 C   0  0  0  0  0
    2.0630  -16.3990   -2.3230 C   0  0  0  0  0
    2.3090  -18.4560   -3.7480 C   0  0  0  0  0
    5.5200  -18.3870    1.3080 C   0  0  0  0  0
    7.2570  -20.1730    0.9690 C   0  0  0  0  0
    1.8800  -19.7560   -4.2050 C   0  0  0  0  0
    2.9670  -17.4300   -0.2670 O   0  0  0  0  0
    2.5480  -20.4630   -5.1280 C   0  0  0  0  0
    4.8000  -17.0850   -1.6010 O   0  0  0  0  0
    4.6730  -25.6070   -4.4720 O   0  0  0  0  0
    2.1010  -21.8230   -5.6100 C   0  0  0  0  0
    3.3010  -22.7440   -5.8280 C   0  0  0  0  0
    2.9550  -24.0210   -6.6090 C   0  0  0  0  0
    4.0960  -25.0550   -6.7220 C   0  0  0  0  0
    6.1770  -24.3700   -5.6350 N   0  0  0  0  0
    7.1920  -24.1830   -4.5980 C   0  0  0  0  0
    6.7400  -22.9790   -3.7630 C   0  0  0  0  0
    6.9930  -21.8300   -4.1270 O   0  0  0  0  0
    8.6730  -24.2360   -5.0610 C   0  0  0  0  0
    9.0170  -25.3600   -6.0540 C   0  0  0  0  0
    9.6060  -24.2960   -3.8310 C   0  0  0  0  0
    6.0390  -23.2580   -2.6690 N   0  0  0  0  0
    5.4560  -22.2940   -1.7550 C   0  0  0  0  0
    4.1610  -22.9980   -1.2720 C   0  0  0  0  0
    3.3120  -22.1710   -0.3160 C   0  0  0  0  0
    2.3730  -21.2320   -0.8060 C   0  0  0  0  0
    1.5910  -20.4700    0.0930 C   0  0  0  0  0
    3.4580  -22.3550    1.0710 C   0  0  0  0  0
    2.6900  -21.5940    1.9700 C   0  0  0  0  0
    1.7530  -20.6560    1.4820 C   0  0  0  0  0
    2.8590  -21.7830    3.3110 O   0  0  0  0  0
    6.3680  -21.9620   -0.5510 C   0  0  0  0  0
    6.9730  -22.8560    0.0270 O   0  0  0  0  0
    5.1400  -20.1651   -1.5442 H   0  0  0  0  0
    6.3897  -19.0351   -1.2678 H   0  0  0  0  0
    5.6556  -20.2311    2.4187 H   0  0  0  0  0
    6.9403  -19.0519    2.7890 H   0  0  0  0  0
    4.0257  -19.5920    0.2987 H   0  0  0  0  0
    1.1970  -16.4130   -0.3616 H   0  0  0  0  0
    2.7067  -15.4199   -0.5274 H   0  0  0  0  0
    0.7323  -18.2074   -2.3936 H   0  0  0  0  0
    3.0375  -16.1736   -2.7561 H   0  0  0  0  0
    1.3020  -15.6773   -2.6200 H   0  0  0  0  0
    3.2127  -18.0206   -4.1744 H   0  0  0  0  0
    6.2015  -17.5828    1.0306 H   0  0  0  0  0
    4.7504  -18.0488    2.0018 H   0  0  0  0  0
    7.7707  -21.0086    1.4444 H   0  0  0  0  0
    7.9873  -19.4507    0.6043 H   0  0  0  0  0
    0.9713  -20.1827   -3.7804 H   0  0  0  0  0
    3.4573  -20.0358   -5.5508 H   0  0  0  0  0
    1.5731  -21.7041   -6.5562 H   0  0  0  0  0
    1.4505  -22.2664   -4.8561 H   0  0  0  0  0
    3.6653  -23.0473   -4.8465 H   0  0  0  0  0
    4.0380  -22.1915   -6.4109 H   0  0  0  0  0
    2.7143  -23.7096   -7.6255 H   0  0  0  0  0
    2.1447  -24.5084   -6.0669 H   0  0  0  0  0
    3.6496  -26.0470   -6.7916 H   0  0  0  0  0
    4.6909  -24.8094   -7.6017 H   0  0  0  0  0
    6.3698  -23.9569   -6.5474 H   0  0  0  0  0
    7.2406  -25.0575   -3.9492 H   0  0  0  0  0
    8.8313  -23.3156   -5.6231 H   0  0  0  0  0
    8.8026  -26.3257   -5.5962 H   0  0  0  0  0
    8.4163  -25.2427   -6.9559 H   0  0  0  0  0
   10.0749  -25.3050   -6.3108 H   0  0  0  0  0
    9.4521  -23.4091   -3.2163 H   0  0  0  0  0
    9.3788  -25.1881   -3.2474 H   0  0  0  0  0
   10.6430  -24.3329   -4.1646 H   0  0  0  0  0
    5.8973  -24.2443   -2.4511 H   0  0  0  0  0
    5.2895  -21.3340   -2.2436 H   0  0  0  0  0
    4.4672  -23.8944   -0.7328 H   0  0  0  0  0
    3.5525  -23.1883   -2.1561 H   0  0  0  0  0
    2.2521  -21.0956   -1.8806 H   0  0  0  0  0
    0.8694  -19.7453   -0.2841 H   0  0  0  0  0
    4.1685  -23.0896    1.4499 H   0  0  0  0  0
    1.1530  -20.0738    2.1814 H   0  0  0  0  0
    2.2704  -21.1969    3.7923 H   0  0  0  0  0
  1  3  1  0  0  0
  4  1  1  0  0  0
 11  2  1  0  0  0
  2 12  1  0  0  0
  3 12  1  0  0  0
  3 39  1  0  0  0
  5  4  1  0  0  0
  4 11  1  0  0  0
 14  5  1  0  0  0
  5 16  2  0  0  0
  9  6  1  0  0  0
  6 14  1  0  0  0
  7  9  1  0  0  0
 10  7  2  0  0  0
  8 17  2  0  0  0
 21  8  1  0  0  0
  8 22  1  0  0  0
 13 10  1  0  0  0
 15 13  2  0  0  0
 18 15  1  0  0  0
 19 18  1  0  0  0
 20 19  1  0  0  0
 20 21  1  0  0  0
 22 23  1  0  0  0
 23 24  1  0  0  0
 23 26  1  0  0  0
 24 25  2  0  0  0
 24 29  1  0  0  0
 26 27  1  0  0  0
 26 28  1  0  0  0
 29 30  1  0  0  0
 30 31  1  0  0  0
 30 39  1  0  0  0
 31 32  1  0  0  0
 32 33  4  0  0  0
 32 35  4  0  0  0
 33 34  4  0  0  0
 34 37  4  0  0  0
 35 36  4  0  0  0
 36 37  4  0  0  0
 36 38  1  0  0  0
 39 40  2  0  0  0
  1 41  1  0  0  0
  1 42  1  0  0  0
  2 43  1  0  0  0
  2 44  1  0  0  0
  4 45  1  0  0  0
  6 46  1  0  0  0
  6 47  1  0  0  0
  7 48  1  0  0  0
  9 49  1  0  0  0
  9 50  1  0  0  0
 10 51  1  0  0  0
 11 52  1  0  0  0
 11 53  1  0  0  0
 12 54  1  0  0  0
 12 55  1  0  0  0
 13 56  1  0  0  0
 15 57  1  0  0  0
 18 58  1  0  0  0
 18 59  1  0  0  0
 19 60  1  0  0  0
 19 61  1  0  0  0
 20 62  1  0  0  0
 20 63  1  0  0  0
 21 64  1  0  0  0
 21 65  1  0  0  0
 22 66  1  0  0  0
 23 67  1  0  0  0
 26 68  1  0  0  0
 27 69  1  0  0  0
 27 70  1  0  0  0
 27 71  1  0  0  0
 28 72  1  0  0  0
 28 73  1  0  0  0
 28 74  1  0  0  0
 29 75  1  0  0  0
 30 76  1  0  0  0
 31 77  1  0  0  0
 31 78  1  0  0  0
 33 79  1  0  0  0
 34 80  1  0  0  0
 35 81  1  0  0  0
 37 82  1  0  0  0
 38 83  1  0  0  0
M  END
$$$$
