3hw1_ligand
  -I-interpret- 

 30 32  0  0  0  0  0  0  0  0999 V2000
  -19.6390  -92.7290   10.6900 N   0  0  0  0  0
  -18.5200  -92.6780   11.5250 C   0  0  0  0  0
  -17.8170  -91.4930   11.4830 N   0  0  0  0  0
  -16.7000  -91.3200   12.2620 C   0  0  0  0  0
  -16.0200  -90.1190   12.1940 C   0  0  0  0  0
  -14.8900  -89.9270   12.9690 C   0  0  0  0  0
  -18.1230  -93.7270   12.3570 C   0  0  0  0  0
  -16.9860  -93.5480   13.1450 N   0  0  0  0  0
  -16.2740  -92.3510   13.0960 C   0  0  0  0  0
  -15.1400  -92.1540   13.8760 C   0  0  0  0  0
  -14.4530  -90.9420   13.8070 C   0  0  0  0  0
  -18.8410  -94.9560   12.4300 N   0  0  0  0  0
  -20.3000  -95.0270   12.6800 C   0  0  0  0  0
  -20.5420  -96.0200   13.8000 C   0  0  0  0  0
  -19.1930  -96.5850   14.1440 C   0  0  0  0  0
  -18.3000  -96.2260   12.9630 C   0  0  0  0  0
  -19.8796  -91.9252   10.1100 H   0  0  0  0  0
  -20.2153  -93.5701   10.6604 H   0  0  0  0  0
  -16.3720  -89.3269   11.5332 H   0  0  0  0  0
  -14.3464  -88.9834   12.9212 H   0  0  0  0  0
  -14.7889  -92.9443   14.5395 H   0  0  0  0  0
  -13.5632  -90.7910   14.4182 H   0  0  0  0  0
  -20.8194  -95.3474   11.7769 H   0  0  0  0  0
  -20.6797  -94.0449   12.9619 H   0  0  0  0  0
  -21.2338  -96.8041   13.4924 H   0  0  0  0  0
  -21.0028  -95.5398   14.6632 H   0  0  0  0  0
  -19.2360  -97.6623   14.3042 H   0  0  0  0  0
  -18.8102  -96.1744   15.0784 H   0  0  0  0  0
  -17.2587  -96.1201   13.2673 H   0  0  0  0  0
  -18.3039  -97.0106   12.2063 H   0  0  0  0  0
  1  2  1  0  0  0
  2  3  4  0  0  0
  2  7  4  0  0  0
  3  4  4  0  0  0
  4  5  4  0  0  0
  4  9  4  0  0  0
  5  6  4  0  0  0
  6 11  4  0  0  0
  7  8  4  0  0  0
  7 12  1  0  0  0
  8  9  4  0  0  0
  9 10  4  0  0  0
 10 11  4  0  0  0
 12 13  1  0  0  0
 12 16  1  0  0  0
 13 14  1  0  0  0
 14 15  1  0  0  0
 15 16  1  0  0  0
  1 17  1  0  0  0
  1 18  1  0  0  0
  5 19  1  0  0  0
  6 20  1  0  0  0
 10 21  1  0  0  0
 11 22  1  0  0  0
 13 23  1  0  0  0
 13 24  1  0  0  0
 14 25  1  0  0  0
 14 26  1  0  0  0
 15 27  1  0  0  0
 15 28  1  0  0  0
 16 29  1  0  0  0
 16 30  1  0  0  0
M  END
$$$$
