5l2t_ligand
  -I-interpret- 

 63 67  0  0  0  0  0  0  0  0999 V2000
   24.4000   34.2510   -8.9610 C   0  0  0  0  0
   25.7960   32.7650   -7.9590 C   0  0  0  0  0
   25.7050   33.3940   -6.7240 C   0  0  0  0  0
   24.8810   34.5370   -6.7750 C   0  0  0  0  0
   21.8310   37.0400  -11.7570 C   0  0  0  0  0
   22.7180   36.0630  -11.5160 N   0  0  0  0  0
   26.1470   33.2650   -5.3930 C   0  0  0  0  0
   20.8230   36.7970   -9.6210 C   0  0  0  0  0
   20.8630   37.4560  -10.8420 C   0  0  0  0  0
   25.6160   34.2890   -4.6630 C   0  0  0  0  0
   22.6730   35.4560  -10.3210 C   0  0  0  0  0
   25.7890   34.5600   -3.1990 C   0  0  0  0  0
   21.7870   37.2330   -5.4120 C   0  0  0  0  0
   22.7760   38.0630   -6.1490 C   0  0  0  0  0
   22.4210   35.8770   -5.2510 C   0  0  0  0  0
   24.1660   37.5320   -5.7600 C   0  0  0  0  0
   20.0070   39.7010  -10.2820 C   0  0  0  0  0
   19.4940   38.7540  -12.4770 C   0  0  0  0  0
   18.6350   40.3310  -10.2230 C   0  0  0  0  0
   18.1250   39.3940  -12.4470 C   0  0  0  0  0
   23.9070   36.1900   -5.0740 C   0  0  0  0  0
   26.7790   35.9150   -1.4100 C   0  0  0  0  0
   27.2290   36.4740   -3.7640 C   0  0  0  0  0
   21.7250   35.7880   -9.3450 C   0  0  0  0  0
   25.1890   33.1700   -9.0790 N   0  0  0  0  0
   24.2280   35.0020   -7.8520 N   0  0  0  0  0
   24.8190   35.0970   -5.5080 N   0  0  0  0  0
   19.9730   38.4970  -11.1150 N   0  0  0  0  0
   23.6270   34.4910  -10.0630 N   0  0  0  0  0
   26.5500   35.5920   -2.8200 N   0  0  0  0  0
   18.1380   40.6160  -11.5980 N   0  3  0  0  0
   25.2860   33.7710   -2.3990 O   0  0  0  0  0
   26.4125   31.8682   -8.0199 H   0  0  0  0  0
   21.8686   37.5388  -12.7255 H   0  0  0  0  0
   26.8013   32.4814   -5.0110 H   0  0  0  0  0
   20.0770   37.0768   -8.8772 H   0  0  0  0  0
   20.8446   37.1661   -5.9557 H   0  0  0  0  0
   21.5452   37.6731   -4.4445 H   0  0  0  0  0
   22.6733   39.1164   -5.8886 H   0  0  0  0  0
   22.6187   37.9944   -7.2254 H   0  0  0  0  0
   22.2321   35.2258   -6.1045 H   0  0  0  0  0
   22.0094   35.3233   -4.4071 H   0  0  0  0  0
   24.6906   38.2246   -5.1019 H   0  0  0  0  0
   24.8111   37.4196   -6.6314 H   0  0  0  0  0
   20.3194   39.4294   -9.2737 H   0  0  0  0  0
   20.7097   40.4142  -10.7129 H   0  0  0  0  0
   20.1893   39.4301  -12.9744 H   0  0  0  0  0
   19.4299   37.8074  -13.0135 H   0  0  0  0  0
   18.6961   41.2657   -9.6656 H   0  0  0  0  0
   17.9478   39.6422   -9.7317 H   0  0  0  0  0
   17.4111   38.6826  -12.0319 H   0  0  0  0  0
   17.8422   39.6718  -13.4623 H   0  0  0  0  0
   24.1423   36.2664   -4.0125 H   0  0  0  0  0
   25.8249   36.1271   -0.9276 H   0  0  0  0  0
   27.2563   35.0679   -0.9174 H   0  0  0  0  0
   27.4257   36.7896   -1.3393 H   0  0  0  0  0
   27.9180   35.8898   -4.3740 H   0  0  0  0  0
   26.4907   36.9541   -4.4062 H   0  0  0  0  0
   27.7837   37.2345   -3.2143 H   0  0  0  0  0
   21.6996   35.2626   -8.3903 H   0  0  0  0  0
   23.7829   33.8405  -10.8330 H   0  0  0  0  0
   18.7619   41.2984  -12.0288 H   0  0  0  0  0
   17.1827   40.9664  -11.5268 H   0  0  0  0  0
  1 25  4  0  0  0
 26  1  4  0  0  0
  1 29  1  0  0  0
  3  2  4  0  0  0
  2 25  4  0  0  0
  4  3  4  0  0  0
  7  3  4  0  0  0
  4 26  4  0  0  0
 27  4  4  0  0  0
  6  5  4  0  0  0
  5  9  4  0  0  0
 11  6  4  0  0  0
 10  7  4  0  0  0
  8  9  4  0  0  0
 24  8  4  0  0  0
  9 28  1  0  0  0
 10 12  1  0  0  0
 27 10  4  0  0  0
 11 24  4  0  0  0
 29 11  1  0  0  0
 12 30  1  0  0  0
 12 32  2  0  0  0
 14 13  1  0  0  0
 15 13  1  0  0  0
 16 14  1  0  0  0
 21 15  1  0  0  0
 21 16  1  0  0  0
 17 19  1  0  0  0
 28 17  1  0  0  0
 18 20  1  0  0  0
 28 18  1  0  0  0
 19 31  1  0  0  0
 20 31  1  0  0  0
 21 27  1  0  0  0
 30 22  1  0  0  0
 30 23  1  0  0  0
  2 33  1  0  0  0
  5 34  1  0  0  0
  7 35  1  0  0  0
  8 36  1  0  0  0
 13 37  1  0  0  0
 13 38  1  0  0  0
 14 39  1  0  0  0
 14 40  1  0  0  0
 15 41  1  0  0  0
 15 42  1  0  0  0
 16 43  1  0  0  0
 16 44  1  0  0  0
 17 45  1  0  0  0
 17 46  1  0  0  0
 18 47  1  0  0  0
 18 48  1  0  0  0
 19 49  1  0  0  0
 19 50  1  0  0  0
 20 51  1  0  0  0
 20 52  1  0  0  0
 21 53  1  0  0  0
 22 54  1  0  0  0
 22 55  1  0  0  0
 22 56  1  0  0  0
 23 57  1  0  0  0
 23 58  1  0  0  0
 23 59  1  0  0  0
 24 60  1  0  0  0
 29 61  1  0  0  0
 31 62  1  0  0  0
 31 63  1  0  0  0
M  END
$$$$
