5yzc_ligand
  -I-interpret- 

 35 36  0  0  0  0  0  0  0  0999 V2000
  -22.0300  -18.4820   -3.1570 C   0  0  0  0  0
  -22.8720  -19.2960   -2.3950 C   0  0  0  0  0
  -23.6240  -20.2920   -3.0050 C   0  0  0  0  0
  -23.5050  -20.4530   -4.3870 C   0  0  0  0  0
  -22.6700  -19.6440   -5.1680 C   0  0  0  0  0
  -21.9220  -18.6500   -4.5450 C   0  0  0  0  0
  -21.2020  -17.4130   -2.4360 C   0  0  0  0  0
  -21.1930  -17.4690   -6.6620 C   0  0  0  0  0
  -20.1840  -16.4930   -7.2760 C   0  0  0  0  0
  -19.6210  -17.1150   -8.5350 C   0  0  0  0  0
  -20.4630  -17.2160   -9.6560 C   0  0  0  0  0
  -19.9640  -17.7990  -10.8220 C   0  0  0  0  0
  -18.6510  -18.2860  -10.8510 C   0  0  0  0  0
  -17.8150  -18.1800   -9.7150 C   0  0  0  0  0
  -18.3000  -17.5900   -8.5420 C   0  0  0  0  0
  -20.3100  -16.5410   -3.1230 N   0  0  0  0  0
  -24.2730  -21.4360   -5.0380 N   0  0  0  0  0
  -21.0400  -17.7800   -5.2760 N   0  0  0  0  0
  -21.3330  -17.2950   -1.2340 O   0  0  0  0  0
  -24.4200  -21.3950   -6.2380 O   0  0  0  0  0
  -24.8300  -22.2980   -4.4140 O   0  0  0  0  0
  -22.0770  -17.9880   -7.3380 O   0  0  0  0  0
  -22.9391  -19.1488   -1.3171 H   0  0  0  0  0
  -24.2881  -20.9297   -2.4215 H   0  0  0  0  0
  -22.6072  -19.7908   -6.2462 H   0  0  0  0  0
  -19.3801  -16.2937   -6.5674 H   0  0  0  0  0
  -20.6758  -15.5499   -7.5143 H   0  0  0  0  0
  -21.4874  -16.8457   -9.6155 H   0  0  0  0  0
  -20.5946  -17.8751  -11.7078 H   0  0  0  0  0
  -18.2691  -18.7520  -11.7594 H   0  0  0  0  0
  -16.7932  -18.5577   -9.7530 H   0  0  0  0  0
  -17.6689  -17.5017   -7.6577 H   0  0  0  0  0
  -19.7923  -15.8303   -2.6060 H   0  0  0  0  0
  -20.1888  -16.6271   -4.1321 H   0  0  0  0  0
  -20.2578  -17.3595   -4.7743 H   0  0  0  0  0
  1  2  4  0  0  0
  6  1  4  0  0  0
  1  7  1  0  0  0
  2  3  4  0  0  0
  4  3  4  0  0  0
  5  4  4  0  0  0
  4 17  1  0  0  0
  6  5  4  0  0  0
 18  6  1  0  0  0
  7 16  1  0  0  0
  7 19  2  0  0  0
  8  9  1  0  0  0
  8 18  1  0  0  0
  8 22  2  0  0  0
  9 10  1  0  0  0
 10 11  4  0  0  0
 10 15  4  0  0  0
 11 12  4  0  0  0
 12 13  4  0  0  0
 13 14  4  0  0  0
 14 15  4  0  0  0
 17 20  2  0  0  0
 17 21  2  0  0  0
  2 23  1  0  0  0
  3 24  1  0  0  0
  5 25  1  0  0  0
  9 26  1  0  0  0
  9 27  1  0  0  0
 11 28  1  0  0  0
 12 29  1  0  0  0
 13 30  1  0  0  0
 14 31  1  0  0  0
 15 32  1  0  0  0
 16 33  1  0  0  0
 16 34  1  0  0  0
 18 35  1  0  0  0
M  END
$$$$
