4x9v_ligand
  -I-interpret- 

147150  0  0  0  0  0  0  0  0999 V2000
    1.9420    3.7160  -11.8910 C   0  0  0  0  0
    0.6260    4.4750  -11.9240 C   0  0  0  0  0
   -0.2310    4.3000  -10.6770 C   0  0  0  0  0
   -0.8270    2.9120  -10.4910 C   0  0  0  0  0
   -1.7450    2.7990   -9.2740 C   0  0  0  0  0
   -2.5420    1.4970   -9.1610 C   0  0  0  0  0
   -3.5280    1.2250  -10.2740 C   0  0  0  0  0
   -4.7890    3.5140  -14.7190 C   0  0  0  0  0
   -5.6340    2.6560  -14.9780 O   0  0  0  0  0
   -4.8110    4.2800  -13.3970 C   0  0  0  0  0
   -3.9320    3.5500  -12.3760 C   0  0  0  0  0
   -4.9280    2.6290  -11.6840 C   0  0  0  0  0
   -6.1680    3.5030  -11.5210 C   0  0  0  0  0
   -6.1170    4.3480  -12.7240 N   0  0  0  0  0
   -7.1590    5.0650  -13.1770 C   0  0  0  0  0
   -8.1850    5.1930  -12.4820 O   0  0  0  0  0
   -6.9800    5.7740  -14.4650 C   0  0  0  0  0
   -4.4500    2.3140  -10.3730 O   0  0  0  0  0
    2.7440    3.8840  -13.1740 C   0  0  0  0  0
   -3.8030    3.8500  -15.5560 N   0  0  0  0  0
   -3.6890    3.2350  -16.8740 C   0  0  0  0  0
   -2.6740    2.0990  -16.9150 C   0  0  0  0  0
   -2.5100    1.4390  -17.9350 O   0  0  0  0  0
   -3.4030    4.2850  -17.9470 C   0  0  0  0  0
   -4.5300    5.2780  -18.1720 C   0  0  0  0  0
   -4.1400    6.3350  -19.1970 C   0  0  0  0  0
   -5.7940    4.5830  -18.6240 C   0  0  0  0  0
   -1.1880    0.3160  -14.1110 C   0  0  0  0  0
   -2.0510    1.8370  -15.7710 N   0  0  0  0  0
   -1.6070    1.1130  -13.2820 O   0  0  0  0  0
   -1.2630    0.6370  -15.5930 C   0  0  0  0  0
    0.1190    0.8110  -16.2180 C   0  0  0  0  0
    0.8660    1.9940  -15.6210 C   0  0  0  0  0
    0.5620    3.5180  -17.5990 C   0  0  0  0  0
    1.6550    3.1930  -18.5730 C   0  0  0  0  0
    1.1750    3.2800  -19.9910 C   0  0  0  0  0
    2.1790    2.6730  -20.9220 C   0  0  0  0  0
    1.6600    2.5360  -22.3250 C   0  0  0  0  0
    2.7770    2.1730  -23.2860 C   0  0  0  0  0
    3.3510    0.7690  -23.0900 C   0  0  0  0  0
    4.3140    0.3070  -24.1870 C   0  0  0  0  0
    3.7000    0.4070  -25.5610 C   0  0  0  0  0
    2.7390   -0.5000  -25.9750 C   0  0  0  0  0
    2.1690   -0.4030  -27.2320 C   0  0  0  0  0
    2.5470    0.6060  -28.0930 C   0  0  0  0  0
    3.5070    1.5060  -27.6990 C   0  0  0  0  0
    4.0750    1.4120  -26.4390 C   0  0  0  0  0
    0.9960    3.2250  -16.2310 N   0  3  0  0  0
    1.5190    2.0730  -14.4500 C   0  0  0  0  0
    1.6900    4.0330  -15.4240 C   0  0  0  0  0
    2.0110    3.3440  -14.3410 N   0  0  0  0  0
   -0.6230   -0.8440  -13.8000 N   0  0  0  0  0
   -0.5700   -1.3420  -12.4500 C   0  0  0  0  0
    0.5610   -0.6980  -11.6500 C   0  0  0  0  0
    1.3230    0.1180  -12.1580 O   0  0  0  0  0
   -0.4280   -2.8630  -12.4710 C   0  0  0  0  0
    0.7550   -3.2520  -13.1910 O   0  0  0  0  0
    0.6250   -1.0450  -10.3650 N   0  0  0  0  0
    1.4960   -0.3670   -9.4210 C   0  0  0  0  0
    1.3030   -0.9450   -8.0150 C   0  0  0  0  0
    2.0910   -0.2200   -6.9430 C   0  0  0  0  0
   -0.0980   -0.8280   -7.7310 O   0  0  0  0  0
   -1.0470   -2.1140   -7.5800 P   0  0  0  0  0
   -1.1270   -2.7890   -8.9520 O   0  0  0  0  0
   -0.4280   -2.9680   -6.5630 O   0  0  0  0  0
   -2.3970   -1.5540   -7.1470 O   0  0  0  0  0
    2.9820   -0.4640   -9.8070 C   0  0  0  0  0
    3.4410   -1.5560  -10.1120 O   0  0  0  0  0
    3.7160    0.6340   -9.7520 N   0  0  0  0  0
    1.7162    2.6563  -11.7718 H   0  0  0  0  0
    2.5375    4.1109  -11.0679 H   0  0  0  0  0
    0.0521    4.0848  -12.7645 H   0  0  0  0  0
    0.8692    5.5348  -11.9995 H   0  0  0  0  0
   -1.0689    4.9904  -10.7733 H   0  0  0  0  0
    0.4205    4.4784   -9.8215 H   0  0  0  0  0
    0.0003    2.2181  -10.3422 H   0  0  0  0  0
   -1.4265    2.6924  -11.3744 H   0  0  0  0  0
   -2.4769    3.6016   -9.3644 H   0  0  0  0  0
   -1.1002    2.8429   -8.3963 H   0  0  0  0  0
   -3.1280    1.5753   -8.2453 H   0  0  0  0  0
   -1.8125    0.6877   -9.1937 H   0  0  0  0  0
   -4.0736    0.3062  -10.0588 H   0  0  0  0  0
   -2.9908    1.1177  -11.2163 H   0  0  0  0  0
   -4.4880    5.2831  -13.6756 H   0  0  0  0  0
   -3.4252    4.2261  -11.6874 H   0  0  0  0  0
   -3.1006    3.0138  -12.8336 H   0  0  0  0  0
   -5.0977    1.7034  -12.2340 H   0  0  0  0  0
   -6.1693    4.0765  -10.5941 H   0  0  0  0  0
   -7.0903    2.9277  -11.4401 H   0  0  0  0  0
   -7.7739    5.4819  -15.1524 H   0  0  0  0  0
   -7.0224    6.8498  -14.2950 H   0  0  0  0  0
   -6.0125    5.5102  -14.8921 H   0  0  0  0  0
    3.6821    3.3386  -13.0707 H   0  0  0  0  0
    2.9200    4.9474  -13.3365 H   0  0  0  0  0
   -3.1180    4.5488  -15.2683 H   0  0  0  0  0
   -4.6561    2.7818  -17.0917 H   0  0  0  0  0
   -3.2564    3.7505  -18.8856 H   0  0  0  0  0
   -2.5368    4.8557  -17.6122 H   0  0  0  0  0
   -4.7180    5.7653  -17.2153 H   0  0  0  0  0
   -3.2643    6.8781  -18.8417 H   0  0  0  0  0
   -3.9088    5.8512  -20.1460 H   0  0  0  0  0
   -4.9689    7.0295  -19.3342 H   0  0  0  0  0
   -5.6032    4.0569  -19.5594 H   0  0  0  0  0
   -6.1073    3.8696  -17.8618 H   0  0  0  0  0
   -6.5797    5.3231  -18.7756 H   0  0  0  0  0
   -2.1304    2.4987  -14.9988 H   0  0  0  0  0
   -1.7337   -0.2037  -16.1026 H   0  0  0  0  0
   -0.0086    0.9905  -17.2855 H   0  0  0  0  0
    0.6980   -0.0920  -16.0245 H   0  0  0  0  0
   -0.3137    2.9122  -17.8318 H   0  0  0  0  0
    0.3203    4.5781  -17.6762 H   0  0  0  0  0
    1.9914    2.1733  -18.3853 H   0  0  0  0  0
    2.4619    3.9132  -18.4379 H   0  0  0  0  0
    1.0360    4.3285  -20.2544 H   0  0  0  0  0
    0.2345    2.7365  -20.0808 H   0  0  0  0  0
    2.4161    1.6748  -20.5539 H   0  0  0  0  0
    3.0492    3.3289  -20.9496 H   0  0  0  0  0
    1.2300    3.4891  -22.6331 H   0  0  0  0  0
    0.9111    1.7443  -22.3447 H   0  0  0  0  0
    3.5901    2.8774  -23.1107 H   0  0  0  0  0
    2.3571    2.2085  -24.2912 H   0  0  0  0  0
    2.5072    0.0791  -23.0999 H   0  0  0  0  0
    3.9183    0.7872  -22.1594 H   0  0  0  0  0
    4.5639   -0.7377  -24.0018 H   0  0  0  0  0
    5.1934    0.9505  -24.1602 H   0  0  0  0  0
    2.4280   -1.2997  -25.3028 H   0  0  0  0  0
    1.4171   -1.1280  -27.5435 H   0  0  0  0  0
    2.0877    0.6886  -29.0781 H   0  0  0  0  0
    3.8228    2.2965  -28.3798 H   0  0  0  0  0
    4.8277    2.1388  -26.1336 H   0  0  0  0  0
    1.6353    1.2713  -13.7207 H   0  0  0  0  0
    1.9459    5.0738  -15.6225 H   0  0  0  0  0
   -0.2105   -1.4042  -14.5459 H   0  0  0  0  0
   -1.5011   -1.0752  -11.9500 H   0  0  0  0  0
   -1.2993   -3.2919  -12.9659 H   0  0  0  0  0
   -0.3518   -3.2245  -11.4455 H   0  0  0  0  0
    0.8266   -4.2093  -13.1932 H   0  0  0  0  0
    0.0421   -1.8133  -10.0329 H   0  0  0  0  0
    1.2169    0.6865   -9.4403 H   0  0  0  0  0
    1.6657   -1.9728   -8.0018 H   0  0  0  0  0
    3.1546   -0.2775   -7.1742 H   0  0  0  0  0
    1.7810    0.8245   -6.9098 H   0  0  0  0  0
    1.9022   -0.6873   -5.9765 H   0  0  0  0  0
   -1.5387   -2.1896   -9.5788 H   0  0  0  0  0
   -2.7543   -1.0048   -7.8486 H   0  0  0  0  0
    4.7117    0.5932   -9.9694 H   0  0  0  0  0
    3.2866    1.5220   -9.4922 H   0  0  0  0  0
  2  1  1  0  0  0
  1 19  1  0  0  0
  3  2  1  0  0  0
  4  3  1  0  0  0
  5  4  1  0  0  0
  6  5  1  0  0  0
  7  6  1  0  0  0
 18  7  1  0  0  0
  8  9  2  0  0  0
  8 10  1  0  0  0
 20  8  1  0  0  0
 10 11  1  0  0  0
 10 14  1  0  0  0
 11 12  1  0  0  0
 13 12  1  0  0  0
 12 18  1  0  0  0
 14 13  1  0  0  0
 14 15  1  0  0  0
 15 16  2  0  0  0
 15 17  1  0  0  0
 19 51  1  0  0  0
 21 20  1  0  0  0
 22 21  1  0  0  0
 21 24  1  0  0  0
 22 23  2  0  0  0
 29 22  1  0  0  0
 24 25  1  0  0  0
 25 26  1  0  0  0
 25 27  1  0  0  0
 28 30  2  0  0  0
 31 28  1  0  0  0
 28 52  1  0  0  0
 31 29  1  0  0  0
 32 31  1  0  0  0
 33 32  1  0  0  0
 48 33  4  0  0  0
 33 49  4  0  0  0
 34 35  1  0  0  0
 34 48  1  0  0  0
 35 36  1  0  0  0
 36 37  1  0  0  0
 37 38  1  0  0  0
 38 39  1  0  0  0
 39 40  1  0  0  0
 40 41  1  0  0  0
 41 42  1  0  0  0
 42 43  4  0  0  0
 42 47  4  0  0  0
 43 44  4  0  0  0
 44 45  4  0  0  0
 45 46  4  0  0  0
 46 47  4  0  0  0
 48 50  4  0  0  0
 49 51  4  0  0  0
 50 51  4  0  0  0
 52 53  1  0  0  0
 53 54  1  0  0  0
 53 56  1  0  0  0
 54 55  2  0  0  0
 54 58  1  0  0  0
 56 57  1  0  0  0
 58 59  1  0  0  0
 59 60  1  0  0  0
 59 67  1  0  0  0
 60 61  1  0  0  0
 60 62  1  0  0  0
 62 63  1  0  0  0
 63 64  1  0  0  0
 63 65  2  0  0  0
 63 66  1  0  0  0
 67 68  2  0  0  0
 67 69  1  0  0  0
  1 70  1  0  0  0
  1 71  1  0  0  0
  2 72  1  0  0  0
  2 73  1  0  0  0
  3 74  1  0  0  0
  3 75  1  0  0  0
  4 76  1  0  0  0
  4 77  1  0  0  0
  5 78  1  0  0  0
  5 79  1  0  0  0
  6 80  1  0  0  0
  6 81  1  0  0  0
  7 82  1  0  0  0
  7 83  1  0  0  0
 10 84  1  0  0  0
 11 85  1  0  0  0
 11 86  1  0  0  0
 12 87  1  0  0  0
 13 88  1  0  0  0
 13 89  1  0  0  0
 17 90  1  0  0  0
 17 91  1  0  0  0
 17 92  1  0  0  0
 19 93  1  0  0  0
 19 94  1  0  0  0
 20 95  1  0  0  0
 21 96  1  0  0  0
 24 97  1  0  0  0
 24 98  1  0  0  0
 25 99  1  0  0  0
 26100  1  0  0  0
 26101  1  0  0  0
 26102  1  0  0  0
 27103  1  0  0  0
 27104  1  0  0  0
 27105  1  0  0  0
 29106  1  0  0  0
 31107  1  0  0  0
 32108  1  0  0  0
 32109  1  0  0  0
 34110  1  0  0  0
 34111  1  0  0  0
 35112  1  0  0  0
 35113  1  0  0  0
 36114  1  0  0  0
 36115  1  0  0  0
 37116  1  0  0  0
 37117  1  0  0  0
 38118  1  0  0  0
 38119  1  0  0  0
 39120  1  0  0  0
 39121  1  0  0  0
 40122  1  0  0  0
 40123  1  0  0  0
 41124  1  0  0  0
 41125  1  0  0  0
 43126  1  0  0  0
 44127  1  0  0  0
 45128  1  0  0  0
 46129  1  0  0  0
 47130  1  0  0  0
 49131  1  0  0  0
 50132  1  0  0  0
 52133  1  0  0  0
 53134  1  0  0  0
 56135  1  0  0  0
 56136  1  0  0  0
 57137  1  0  0  0
 58138  1  0  0  0
 59139  1  0  0  0
 60140  1  0  0  0
 61141  1  0  0  0
 61142  1  0  0  0
 61143  1  0  0  0
 64144  1  0  0  0
 66145  1  0  0  0
 69146  1  0  0  0
 69147  1  0  0  0
M  END
$$$$
