### 
### Created by X-TOOL on Mon Sep 10 21:13:20 2018
### 

@<TRIPOS>MOLECULE
4x9v_ligand
  145   148     1     0     0
SMALL
GAST_HUCK


@<TRIPOS>ATOM
      1 C13         1.9420    3.7160  -11.8910 C.3       1 4KY        -0.0216
      2 C14         0.6260    4.4750  -11.9240 C.3       1 4KY        -0.0503
      3 C15        -0.2310    4.3000  -10.6770 C.3       1 4KY        -0.0530
      4 C16        -0.8270    2.9120  -10.4910 C.3       1 4KY        -0.0530
      5 C17        -1.7450    2.7990   -9.2740 C.3       1 4KY        -0.0510
      6 C18        -2.5420    1.4970   -9.1610 C.3       1 4KY        -0.0294
      7 C19        -3.5280    1.2250  -10.2740 C.3       1 4KY         0.0481
      8 C          -4.7890    3.5140  -14.7190 C.2       1 4KY         0.2042
      9 O          -5.6340    2.6560  -14.9780 O.2       1 4KY        -0.3944
     10 CA         -4.8110    4.2800  -13.3970 C.3       1 4KY         0.1361
     11 CB         -3.9320    3.5500  -12.3760 C.3       1 4KY         0.0160
     12 CG         -4.9280    2.6290  -11.6840 C.3       1 4KY         0.0833
     13 CD         -6.1680    3.5030  -11.5210 C.3       1 4KY         0.0631
     14 N          -6.1170    4.3480  -12.7240 N.am      1 4KY        -0.2494
     15 C43        -7.1590    5.0650  -13.1770 C.2       1 4KY         0.1777
     16 O6         -8.1850    5.1930  -12.4820 O.2       1 4KY        -0.3970
     17 C44        -6.9800    5.7740  -14.4650 C.3       1 4KY         0.0260
     18 O5         -4.4500    2.3140  -10.3730 O.3       1 4KY        -0.3743
     19 C12         2.7440    3.8840  -13.1740 C.3       1 4KY         0.0847
     20 N          -3.8030    3.8500  -15.5560 N.am      1 LEU        -0.2637
     21 CA         -3.6890    3.2350  -16.8740 C.3       1 LEU         0.1312
     22 C          -2.6740    2.0990  -16.9150 C.2       1 LEU         0.2042
     23 O          -2.5100    1.4390  -17.9350 O.2       1 LEU        -0.3944
     24 CB         -3.4030    4.2850  -17.9470 C.3       1 LEU        -0.0101
     25 CG         -4.5300    5.2780  -18.1720 C.3       1 LEU        -0.0425
     26 CD1        -4.1400    6.3350  -19.1970 C.3       1 LEU        -0.0625
     27 CD2        -5.7940    4.5830  -18.6240 C.3       1 LEU        -0.0625
     28 C          -1.1880    0.3160  -14.1110 C.2       1 56A         0.2090
     29 N          -2.0510    1.8370  -15.7710 N.am      1 56A        -0.2594
     30 O          -1.6070    1.1130  -13.2820 O.2       1 56A        -0.3939
     31 CA         -1.2630    0.6370  -15.5930 C.3       1 56A         0.1549
     32 CB          0.1190    0.8110  -16.2180 C.3       1 56A         0.0774
     33 CG          0.8660    1.9940  -15.6210 C.2       1 56A         0.1423
     34 C27         0.5620    3.5180  -17.5990 C.3       1 56A         0.0112
     35 C28         1.6550    3.1930  -18.5730 C.3       1 56A        -0.0429
     36 C29         1.1750    3.2800  -19.9910 C.3       1 56A        -0.0523
     37 C30         2.1790    2.6730  -20.9220 C.3       1 56A        -0.0530
     38 C31         1.6600    2.5360  -22.3250 C.3       1 56A        -0.0529
     39 C32         2.7770    2.1730  -23.2860 C.3       1 56A        -0.0513
     40 C33         3.3510    0.7690  -23.0900 C.3       1 56A        -0.0433
     41 C34         4.3140    0.3070  -24.1870 C.3       1 56A        -0.0192
     42 C35         3.7000    0.4070  -25.5610 C.ar      1 56A        -0.0430
     43 C36         2.7390   -0.5000  -25.9750 C.ar      1 56A        -0.0603
     44 C37         2.1690   -0.4030  -27.2320 C.ar      1 56A        -0.0686
     45 C38         2.5470    0.6060  -28.0930 C.ar      1 56A        -0.0687
     46 C39         3.5070    1.5060  -27.6990 C.ar      1 56A        -0.0686
     47 C40         4.0750    1.4120  -26.4390 C.ar      1 56A        -0.0603
     48 ND1         0.9960    3.2250  -16.2310 N.2       1 56A        -0.2820
     49 CD2         1.5190    2.0730  -14.4500 C.2       1 56A         0.1834
     50 CE1         1.6900    4.0330  -15.4240 C.2       1 56A         0.1683
     51 NE2         2.0110    3.3440  -14.3410 N.pl3     1 56A        -0.1512
     52 N          -0.6230   -0.8440  -13.8000 N.am      1 SER        -0.2612
     53 CA         -0.5700   -1.3420  -12.4500 C.3       1 SER         0.1539
     54 C           0.5610   -0.6980  -11.6500 C.2       1 SER         0.2063
     55 O           1.3230    0.1180  -12.1580 O.2       1 SER        -0.3943
     56 CB         -0.4280   -2.8630  -12.4710 C.3       1 SER         0.0843
     57 OG          0.7550   -3.2520  -13.1910 O.3       1 SER        -0.3903
     58 N           0.6250   -1.0450  -10.3650 N.am      1 TPO        -0.2610
     59 CA          1.4960   -0.3670   -9.4210 C.3       1 TPO         0.1608
     60 CB          1.3030   -0.9450   -8.0150 C.3       1 TPO         0.1262
     61 CG2         2.0910   -0.2200   -6.9430 C.3       1 TPO        -0.0298
     62 OG1        -0.0980   -0.8280   -7.7310 O.3       1 TPO        -0.2685
     63 P          -1.0470   -2.1140   -7.5800 P.3       1 TPO         0.2014
     64 O1P        -1.1270   -2.7890   -8.9520 O.co2     1 TPO        -0.5537
     65 O2P        -0.4280   -2.9680   -6.5630 O.co2     1 TPO        -0.5537
     66 O3P        -2.3970   -1.5540   -7.1470 O.co2     1 TPO        -0.5537
     67 C           2.9820   -0.4640   -9.8070 C.2       1 TPO         0.2021
     68 O           3.4410   -1.5560  -10.1120 O.2       1 TPO        -0.3946
     69 N           3.7160    0.6340   -9.7520 N.am      1 NH2        -0.2989
     70 H1          1.7290    2.6467  -11.7456 H         1 4KY         0.0295
     71 H2          2.5429    4.0881  -11.0481 H         1 4KY         0.0295
     72 H3          0.0476    4.1239  -12.7913 H         1 4KY         0.0266
     73 H4          0.8489    5.5458  -12.0411 H         1 4KY         0.0266
     74 H5         -1.0593    5.0220  -10.7290 H         1 4KY         0.0265
     75 H6          0.3946    4.5222   -9.7999 H         1 4KY         0.0265
     76 H7         -0.0033    2.1926  -10.3733 H         1 4KY         0.0265
     77 H8         -1.4085    2.6598  -11.3900 H         1 4KY         0.0265
     78 H9         -2.4625    3.6318   -9.3137 H         1 4KY         0.0266
     79 H10        -1.1229    2.8936   -8.3717 H         1 4KY         0.0266
     80 H11        -3.1022    1.5263   -8.2148 H         1 4KY         0.0287
     81 H12        -1.8241    0.6640   -9.1364 H         1 4KY         0.0287
     82 H13        -4.0784    0.2976  -10.0574 H         1 4KY         0.0560
     83 H14        -2.9861    1.1162  -11.2251 H         1 4KY         0.0560
     84 H15        -4.4373    5.2983  -13.5796 H         1 4KY         0.0803
     85 H16        -3.4810    4.2557  -11.6628 H         1 4KY         0.0338
     86 H17        -3.1380    2.9745  -12.8742 H         1 4KY         0.0338
     87 H18        -5.1269    1.7184  -12.2681 H         1 4KY         0.0618
     88 H19        -6.1100    4.1098  -10.6054 H         1 4KY         0.0550
     89 H20        -7.0842    2.8946  -11.5003 H         1 4KY         0.0550
     90 H21        -7.9030    6.3174  -14.7158 H         1 4KY         0.0467
     91 H22        -6.7574    5.0443  -15.2574 H         1 4KY         0.0467
     92 H23        -6.1468    6.4869  -14.3784 H         1 4KY         0.0467
     93 H24         3.6995    3.3486  -13.0720 H         1 4KY         0.0657
     94 H25         2.9389    4.9542  -13.3372 H         1 4KY         0.0657
     95 H26        -3.1314    4.5351  -15.2739 H         1 LEU         0.1883
     96 H27        -4.6692    2.7931  -17.1060 H         1 LEU         0.0800
     97 H28        -3.2103    3.7631  -18.8959 H         1 LEU         0.0315
     98 H29        -2.5052    4.8460  -17.6482 H         1 LEU         0.0315
     99 H30        -4.7347    5.7815  -17.2157 H         1 LEU         0.0298
    100 H31        -4.9757    7.0365  -19.3364 H         1 LEU         0.0232
    101 H32        -3.9064    5.8480  -20.1552 H         1 LEU         0.0232
    102 H33        -3.2563    6.8839  -18.8396 H         1 LEU         0.0232
    103 H34        -6.0769    3.8193  -17.8846 H         1 LEU         0.0232
    104 H35        -5.6203    4.1033  -19.5985 H         1 LEU         0.0232
    105 H36        -6.6046    5.3206  -18.7177 H         1 LEU         0.0232
    106 H37        -2.1288    2.4857  -15.0140 H         1 56A         0.1887
    107 H38        -1.7667   -0.1967  -16.1040 H         1 56A         0.0858
    108 H39         0.0024    0.9732  -17.2997 H         1 56A         0.0714
    109 H40         0.7052   -0.1036  -16.0454 H         1 56A         0.0714
    110 H41        -0.3261    2.9134  -17.8352 H         1 56A         0.0388
    111 H42         0.3105    4.5859  -17.6789 H         1 56A         0.0388
    112 H43         2.0133    2.1711  -18.3796 H         1 56A         0.0273
    113 H44         2.4820    3.9044  -18.4319 H         1 56A         0.0273
    114 H45         1.0254    4.3364  -20.2586 H         1 56A         0.0266
    115 H46         0.2215    2.7395  -20.0844 H         1 56A         0.0266
    116 H47         2.4478    1.6744  -20.5472 H         1 56A         0.0265
    117 H48         3.0745    3.3116  -20.9389 H         1 56A         0.0265
    118 H49         1.2128    3.4911  -22.6378 H         1 56A         0.0265
    119 H50         0.8940    1.7469  -22.3496 H         1 56A         0.0265
    120 H51         3.5928    2.8991  -23.1546 H         1 56A         0.0267
    121 H52         2.3847    2.2437  -24.3112 H         1 56A         0.0267
    122 H53         2.5117    0.0591  -23.0511 H         1 56A         0.0287
    123 H54         3.8909    0.7513  -22.1318 H         1 56A         0.0287
    124 H55         4.5907   -0.7407  -23.9978 H         1 56A         0.0426
    125 H56         5.2159    0.9360  -24.1551 H         1 56A         0.0426
    126 H57         2.4297   -1.2953  -25.3065 H         1 56A         0.0557
    127 H58         1.4212   -1.1240  -27.5418 H         1 56A         0.0599
    128 H59         2.0902    0.6881  -29.0726 H         1 56A         0.0559
    129 H60         3.8211    2.2921  -28.3761 H         1 56A         0.0599
    130 H61         4.8236    2.1348  -26.1352 H         1 56A         0.0557
    131 H62         1.6352    1.2720  -13.7214 H         1 56A         0.1941
    132 H63         1.9457    5.0728  -15.6223 H         1 56A         0.1815
    133 H64        -0.2186   -1.3932  -14.5313 H         1 SER         0.1884
    134 H65        -1.5194   -1.0904  -11.9546 H         1 SER         0.0823
    135 H66        -1.3098   -3.3015  -12.9611 H         1 SER         0.0606
    136 H67        -0.3604   -3.2339  -11.4376 H         1 SER         0.0606
    137 H68         1.5190   -2.8771  -12.7687 H         1 SER         0.2097
    138 H69         0.0536   -1.7983  -10.0394 H         1 TPO         0.1884
    139 H70         1.2155    0.6965   -9.4054 H         1 TPO         0.0830
    140 H71         1.6025   -2.0034   -8.0145 H         1 TPO         0.0695
    141 H72         1.9013   -0.6907   -5.9670 H         1 TPO         0.0260
    142 H73         1.7791    0.8343   -6.9084 H         1 TPO         0.0260
    143 H74         3.1647   -0.2773   -7.1752 H         1 TPO         0.0260
    144 H75         4.6849    0.6006   -9.9973 H         1 NH2         0.1815
    145 H76         3.3024    1.4981   -9.4651 H         1 NH2         0.1815
@<TRIPOS>BOND
     1    2    1 1  
     2    1   19 1  
     3    3    2 1  
     4    4    3 1  
     5    5    4 1  
     6    6    5 1  
     7    7    6 1  
     8   18    7 1  
     9    8    9 2  
    10    8   10 1  
    11   20    8 am 
    12   10   11 1  
    13   10   14 1  
    14   11   12 1  
    15   13   12 1  
    16   12   18 1  
    17   14   13 1  
    18   14   15 am 
    19   15   16 2  
    20   15   17 1  
    21   19   51 1  
    22   21   20 1  
    23   22   21 1  
    24   21   24 1  
    25   22   23 2  
    26   29   22 am 
    27   24   25 1  
    28   25   26 1  
    29   25   27 1  
    30   28   30 2  
    31   31   28 1  
    32   28   52 am 
    33   31   29 1  
    34   32   31 1  
    35   33   32 1  
    36   48   33 1  
    37   33   49 2  
    38   34   35 1  
    39   34   48 1  
    40   35   36 1  
    41   36   37 1  
    42   37   38 1  
    43   38   39 1  
    44   39   40 1  
    45   40   41 1  
    46   41   42 1  
    47   42   43 ar 
    48   42   47 ar 
    49   43   44 ar 
    50   44   45 ar 
    51   45   46 ar 
    52   46   47 ar 
    53   48   50 2  
    54   49   51 1  
    55   50   51 1  
    56   52   53 1  
    57   53   54 1  
    58   53   56 1  
    59   54   55 2  
    60   54   58 am 
    61   56   57 1  
    62   58   59 1  
    63   59   60 1  
    64   59   67 1  
    65   60   61 1  
    66   60   62 1  
    67   62   63 1  
    68   63   64 ar 
    69   63   65 ar 
    70   63   66 ar 
    71   67   68 2  
    72   67   69 am 
    73    1   70 1  
    74    1   71 1  
    75    2   72 1  
    76    2   73 1  
    77    3   74 1  
    78    3   75 1  
    79    4   76 1  
    80    4   77 1  
    81    5   78 1  
    82    5   79 1  
    83    6   80 1  
    84    6   81 1  
    85    7   82 1  
    86    7   83 1  
    87   10   84 1  
    88   11   85 1  
    89   11   86 1  
    90   12   87 1  
    91   13   88 1  
    92   13   89 1  
    93   17   90 1  
    94   17   91 1  
    95   17   92 1  
    96   19   93 1  
    97   19   94 1  
    98   20   95 1  
    99   21   96 1  
   100   24   97 1  
   101   24   98 1  
   102   25   99 1  
   103   26  100 1  
   104   26  101 1  
   105   26  102 1  
   106   27  103 1  
   107   27  104 1  
   108   27  105 1  
   109   29  106 1  
   110   31  107 1  
   111   32  108 1  
   112   32  109 1  
   113   34  110 1  
   114   34  111 1  
   115   35  112 1  
   116   35  113 1  
   117   36  114 1  
   118   36  115 1  
   119   37  116 1  
   120   37  117 1  
   121   38  118 1  
   122   38  119 1  
   123   39  120 1  
   124   39  121 1  
   125   40  122 1  
   126   40  123 1  
   127   41  124 1  
   128   41  125 1  
   129   43  126 1  
   130   44  127 1  
   131   45  128 1  
   132   46  129 1  
   133   47  130 1  
   134   49  131 1  
   135   50  132 1  
   136   52  133 1  
   137   53  134 1  
   138   56  135 1  
   139   56  136 1  
   140   57  137 1  
   141   58  138 1  
   142   59  139 1  
   143   60  140 1  
   144   61  141 1  
   145   61  142 1  
   146   61  143 1  
   147   69  144 1  
   148   69  145 1  
@<TRIPOS>SUBSTRUCTURE
     1 4KY         1

