5W13_LIGAND
  -I-interpret- 

 36 37  0  0  0  0  0  0  0  0999 V2000
   -1.0550   -8.5200  -11.3090 C   0  0  0  0  0
   -0.2460   -7.8580  -10.3610 C   0  0  0  0  0
   -0.8220   -7.7600   -9.0920 C   0  0  0  0  0
   -2.3820   -8.4950   -9.1340 S   0  0  0  0  0
   -2.2910   -8.9460  -10.8190 C   0  0  0  0  0
   -3.4450   -9.7240  -11.4950 C   0  0  0  0  0
   -3.5530  -10.9810  -10.6590 C   0  0  0  0  0
   -2.7670  -11.9190  -10.8420 O   0  0  0  0  0
   -4.5500  -11.0050   -9.7580 N   0  0  0  0  0
   -4.9010  -12.1920   -9.0160 C   0  0  0  0  0
   -6.4240  -12.3230   -8.5350 B   0  0  0  0  0
   -6.7250  -13.4420   -7.6290 O   0  0  0  0  0
   -7.0930  -11.0510   -8.0270 O   0  0  0  0  0
   -4.1220  -12.3280   -7.7580 C   0  0  0  0  0
   -4.3130  -11.4240   -6.7080 C   0  0  0  0  0
   -3.2890  -13.4470   -7.5520 C   0  0  0  0  0
   -2.6100  -13.5930   -6.3420 C   0  0  0  0  0
   -2.7800  -12.6530   -5.3180 C   0  0  0  0  0
   -3.6520  -11.5680   -5.4900 C   0  0  0  0  0
   -3.8690  -10.5460   -4.3790 C   0  0  0  0  0
   -3.9590   -9.3200   -4.6450 O   0  0  0  0  0
   -3.9530  -10.9310   -3.1890 O   0  0  0  0  0
   -0.7406   -8.6852  -12.3395 H   0  0  0  0  0
    0.7402   -7.4588  -10.5977 H   0  0  0  0  0
   -0.3618   -7.2959   -8.2197 H   0  0  0  0  0
   -3.2501   -9.9345  -12.5466 H   0  0  0  0  0
   -4.3751   -9.1563  -11.5217 H   0  0  0  0  0
   -5.0801  -10.1495   -9.5919 H   0  0  0  0  0
   -4.6854  -12.9572   -9.7617 H   0  0  0  0  0
   -7.6582  -13.4281   -7.4041 H   0  0  0  0  0
   -7.9964  -11.2473   -7.7682 H   0  0  0  0  0
   -4.9961  -10.5859   -6.8460 H   0  0  0  0  0
   -3.1759  -14.1958   -8.3359 H   0  0  0  0  0
   -1.9439  -14.4429   -6.1930 H   0  0  0  0  0
   -2.2319  -12.7651   -4.3825 H   0  0  0  0  0
   -3.8750   -9.1923   -5.5928 H   0  0  0  0  0
  1  2  4  0  0  0
  1  5  4  0  0  0
  2  3  4  0  0  0
  3  4  4  0  0  0
  4  5  4  0  0  0
  5  6  1  0  0  0
  6  7  1  0  0  0
  7  8  2  0  0  0
  7  9  1  0  0  0
  9 10  1  0  0  0
 10 11  1  0  0  0
 10 14  1  0  0  0
 11 12  1  0  0  0
 11 13  1  0  0  0
 14 15  4  0  0  0
 14 16  4  0  0  0
 15 19  4  0  0  0
 16 17  4  0  0  0
 17 18  4  0  0  0
 18 19  4  0  0  0
 19 20  1  0  0  0
 20 21  1  0  0  0
 20 22  2  0  0  0
  1 23  1  0  0  0
  2 24  1  0  0  0
  3 25  1  0  0  0
  6 26  1  0  0  0
  6 27  1  0  0  0
  9 28  1  0  0  0
 10 29  1  0  0  0
 12 30  1  0  0  0
 13 31  1  0  0  0
 15 32  1  0  0  0
 16 33  1  0  0  0
 17 34  1  0  0  0
 18 35  1  0  0  0
 21 36  1  0  0  0
M  END
$$$$
