### 
### Created by X-TOOL on Mon Sep 10 21:13:32 2018
### 

@<TRIPOS>MOLECULE
5W13_LIGAND
   35    36     1     0     0
SMALL
GAST_HUCK


@<TRIPOS>ATOM
      1 CAF        -1.0550   -8.5200  -11.3090 C.2       1 SM2        -0.0791
      2 CAC        -0.2460   -7.8580  -10.3610 C.2       1 SM2        -0.0924
      3 CAB        -0.8220   -7.7600   -9.0920 C.2       1 SM2        -0.0189
      4 SAD        -2.3820   -8.4950   -9.1340 S.3       1 SM2        -0.0419
      5 CAE        -2.2910   -8.9460  -10.8190 C.2       1 SM2         0.0307
      6 CAG        -3.4450   -9.7240  -11.4950 C.3       1 SM2         0.0819
      7 CAH        -3.5530  -10.9810  -10.6590 C.2       1 SM2         0.1916
      8 OAI        -2.7670  -11.9190  -10.8420 O.2       1 SM2        -0.3935
      9 NAJ        -4.5500  -11.0050   -9.7580 N.am      1 SM2        -0.2693
     10 CAK        -4.9010  -12.1920   -9.0160 C.3       1 SM2         0.0871
     11 B          -6.4240  -12.3230   -8.5350 B         1 SM2         3.0000
     12 OAT        -6.7250  -13.4420   -7.6290 O.3       1 SM2        -0.8710
     13 OAO        -7.0930  -11.0510   -8.0270 O.3       1 SM2        -0.8710
     14 CAL        -4.1220  -12.3280   -7.7580 C.ar      1 SM2        -0.1045
     15 CAQ        -4.3130  -11.4240   -6.7080 C.ar      1 SM2        -0.1513
     16 CAM        -3.2890  -13.4470   -7.5520 C.ar      1 SM2        -0.1587
     17 CAN        -2.6100  -13.5930   -6.3420 C.ar      1 SM2        -0.1585
     18 CAS        -2.7800  -12.6530   -5.3180 C.ar      1 SM2        -0.1499
     19 CAR        -3.6520  -11.5680   -5.4900 C.ar      1 SM2        -0.1189
     20 CAU        -3.8690  -10.5460   -4.3790 C.2       1 SM2        -0.0164
     21 OAW        -3.9590   -9.3200   -4.6450 O.co2     1 SM2        -0.5951
     22 OAV        -3.9530  -10.9310   -3.1890 O.co2     1 SM2        -0.5951
     23 H          -0.7406   -8.6852  -12.3395 H         1 SM2         0.0284
     24 H           0.7402   -7.4588  -10.5977 H         1 SM2         0.0373
     25 H          -0.3618   -7.2959   -8.2197 H         1 SM2         0.0603
     26 H          -3.2501   -9.9345  -12.5466 H         1 SM2         0.0685
     27 H          -4.3751   -9.1563  -11.5217 H         1 SM2         0.0685
     28 H          -5.0801  -10.1495   -9.5919 H         1 SM2         0.1883
     29 H          -4.6854  -12.9572   -9.7617 H         1 SM2         0.0735
     30 H          -6.3008  -14.2392   -7.9549 H         1 SM2        -0.1290
     31 H          -8.0432  -11.1832   -7.9905 H         1 SM2        -0.1290
     32 H          -4.9961  -10.5859   -6.8460 H         1 SM2         0.0020
     33 H          -3.1759  -14.1958   -8.3359 H         1 SM2        -0.0200
     34 H          -1.9439  -14.4429   -6.1930 H         1 SM2         0.0176
     35 H          -2.2319  -12.7651   -4.3825 H         1 SM2         0.0281
@<TRIPOS>BOND
     1    1    2 1  
     2    1    5 2  
     3    2    3 2  
     4    3    4 1  
     5    4    5 1  
     6    5    6 1  
     7    6    7 1  
     8    7    8 2  
     9    7    9 am 
    10    9   10 1  
    11   10   11 1  
    12   10   14 1  
    13   11   12 1  
    14   11   13 1  
    15   14   15 ar 
    16   14   16 ar 
    17   15   19 ar 
    18   16   17 ar 
    19   17   18 ar 
    20   18   19 ar 
    21   19   20 1  
    22   20   21 ar 
    23   20   22 ar 
    24    1   23 1  
    25    2   24 1  
    26    3   25 1  
    27    6   26 1  
    28    6   27 1  
    29    9   28 1  
    30   10   29 1  
    31   12   30 1  
    32   13   31 1  
    33   15   32 1  
    34   16   33 1  
    35   17   34 1  
    36   18   35 1  
@<TRIPOS>SUBSTRUCTURE
     1 SM2         1

