3pax_ligand
  -I-interpret- 

 20 20  0  0  0  0  0  0  0  0999 V2000
   39.6170   22.1600   22.0970 C   0  0  0  0  0
   38.3090   21.7930   21.7350 O   0  0  0  0  0
   37.7000   22.2580   20.5070 C   0  0  0  0  0
   40.5300   22.7300   21.1720 C   0  0  0  0  0
   41.8440   23.0820   21.5820 C   0  0  0  0  0
   42.8110   23.6850   20.5890 C   0  0  0  0  0
   43.9680   23.9310   20.9360 O   0  0  0  0  0
   42.4050   23.9540   19.3400 N   0  0  0  0  0
   42.2430   22.8600   22.9280 C   0  0  0  0  0
   41.3340   22.3030   23.8440 C   0  0  0  0  0
   40.0310   21.9570   23.4280 C   0  0  0  0  0
   37.6578   23.3472   20.5136 H   0  0  0  0  0
   38.2947   21.9213   19.6578 H   0  0  0  0  0
   36.6905   21.8545   20.4281 H   0  0  0  0  0
   40.2212   22.8988   20.1404 H   0  0  0  0  0
   43.0549   24.3649   18.6698 H   0  0  0  0  0
   41.4461   23.7478   19.0599 H   0  0  0  0  0
   43.2514   23.1211   23.2491 H   0  0  0  0  0
   41.6364   22.1380   24.8781 H   0  0  0  0  0
   39.3344   21.5262   24.1472 H   0  0  0  0  0
  1  2  1  0  0  0
  1  4  4  0  0  0
  1 11  4  0  0  0
  2  3  1  0  0  0
  4  5  4  0  0  0
  5  6  1  0  0  0
  5  9  4  0  0  0
  6  7  2  0  0  0
  6  8  1  0  0  0
  9 10  4  0  0  0
 10 11  4  0  0  0
  3 12  1  0  0  0
  3 13  1  0  0  0
  3 14  1  0  0  0
  4 15  1  0  0  0
  8 16  1  0  0  0
  8 17  1  0  0  0
  9 18  1  0  0  0
 10 19  1  0  0  0
 11 20  1  0  0  0
M  END
$$$$
