4x7k_ligand
  -I-interpret- 

 70 75  0  0  0  0  0  0  0  0999 V2000
   28.8040   12.2180    9.1050 C   0  0  0  0  0
   29.4620   13.4510    9.1840 C   0  0  0  0  0
   29.0100   14.5140    8.4000 C   0  0  0  0  0
   27.9100   14.3390    7.5590 C   0  0  0  0  0
   27.2480   13.1070    7.4860 C   0  0  0  0  0
   27.6970   12.0370    8.2610 C   0  0  0  0  0
   27.0710   10.7770    8.2470 C   0  0  0  0  0
   26.5620   10.1150    9.2990 N   0  3  0  0  0
   26.5520   10.6810   10.6630 C   0  0  0  0  0
   26.0570    9.0180    8.9750 N   0  0  0  0  0
   25.5150    8.1190    9.8270 C   0  0  0  0  0
   24.1690    7.7590    9.8170 C   0  0  0  0  0
   23.6930    6.8060   10.7290 C   0  0  0  0  0
   24.5610    6.1970   11.6410 C   0  0  0  0  0
   25.9140    6.5450   11.6560 C   0  0  0  0  0
   26.3810    7.4970   10.7400 C   0  0  0  0  0
   26.2220    8.8140    7.6660 C   0  0  0  0  0
   25.8460    7.8070    7.0580 O   0  0  0  0  0
   26.8620    9.9470    7.1450 C   0  0  0  0  0
   27.3060   10.2500    5.7060 C   0  0  0  0  0
   28.2650   11.0110    5.5460 O   0  0  0  0  0
   26.6400    9.5840    4.4770 C   0  0  0  0  0
   27.3890    9.3690    3.3020 C   0  0  0  0  0
   28.6700    9.7470    3.2480 N   0  0  0  0  0
   25.2890    9.2080    4.5340 C   0  0  0  0  0
   24.6980    8.6010    3.4260 C   0  0  0  0  0
   25.4410    8.3850    2.2600 C   0  0  0  0  0
   24.7120    7.7340    1.0670 C   0  0  0  0  0
   26.7950    8.7650    2.1840 C   0  0  0  0  0
   27.4950    8.4820    0.9970 C   0  0  0  0  0
   28.1000    7.2100    0.8370 C   0  0  0  0  0
   28.7680    6.8780   -0.3390 C   0  0  0  0  0
   28.8450    7.7930   -1.3870 C   0  0  0  0  0
   29.4990    7.4900   -2.5450 N   0  0  0  0  0
   29.5450    8.4090   -3.5430 C   0  0  0  0  0
   30.1620    8.2180   -4.7270 N   0  0  0  0  0
   30.9660    7.0220   -5.0570 C   0  0  0  0  0
   28.9480    9.6000   -3.3700 N   0  0  0  0  0
   28.3120    9.9420   -2.2570 C   0  0  0  0  0
   28.2370    9.0380   -1.2220 C   0  0  0  0  0
   27.5640    9.3820   -0.0410 C   0  0  0  0  0
   26.9870   10.5830    0.1140 F   0  0  0  0  0
   29.1577   11.3831    9.7099 H   0  0  0  0  0
   30.3161   13.5795    9.8489 H   0  0  0  0  0
   29.5152   15.4788    8.4446 H   0  0  0  0  0
   27.5611   15.1732    6.9503 H   0  0  0  0  0
   26.3876   12.9848    6.8281 H   0  0  0  0  0
   27.5756   10.8817   10.9792 H   0  0  0  0  0
   25.9809   11.6094   10.6656 H   0  0  0  0  0
   26.0921    9.9682   11.3474 H   0  0  0  0  0
   23.4868    8.2176    9.1011 H   0  0  0  0  0
   22.6366    6.5374   10.7271 H   0  0  0  0  0
   24.1821    5.4512   12.3398 H   0  0  0  0  0
   26.5961    6.0829   12.3696 H   0  0  0  0  0
   27.4388    7.7600   10.7363 H   0  0  0  0  0
   26.9477   10.0253    6.0612 H   0  0  0  0  0
   29.1053   10.1908    4.0567 H   0  0  0  0  0
   29.2122    9.5916    2.3981 H   0  0  0  0  0
   24.7062    9.3889    5.4371 H   0  0  0  0  0
   23.6531    8.2936    3.4685 H   0  0  0  0  0
   24.3410    6.7522    1.3614 H   0  0  0  0  0
   23.8755    8.3646    0.7660 H   0  0  0  0  0
   25.4061    7.6266    0.2334 H   0  0  0  0  0
   28.0415    6.4816    1.6458 H   0  0  0  0  0
   29.2330    5.8974   -0.4401 H   0  0  0  0  0
   30.0682    8.9431   -5.4383 H   0  0  0  0  0
   31.7967    6.9394   -4.3561 H   0  0  0  0  0
   30.3390    6.1333   -4.9856 H   0  0  0  0  0
   31.3530    7.1146   -6.0718 H   0  0  0  0  0
   27.8545   10.9269   -2.1635 H   0  0  0  0  0
  1  2  4  0  0  0
  1  6  4  0  0  0
  2  3  4  0  0  0
  3  4  4  0  0  0
  4  5  4  0  0  0
  5  6  4  0  0  0
  6  7  1  0  0  0
  7  8  2  0  0  0
  7 19  1  0  0  0
  8  9  1  0  0  0
  8 10  1  0  0  0
 10 11  1  0  0  0
 10 17  1  0  0  0
 11 12  4  0  0  0
 11 16  4  0  0  0
 12 13  4  0  0  0
 13 14  4  0  0  0
 14 15  4  0  0  0
 15 16  4  0  0  0
 17 18  2  0  0  0
 17 19  1  0  0  0
 19 20  1  0  0  0
 20 21  2  0  0  0
 20 22  1  0  0  0
 22 23  4  0  0  0
 22 25  4  0  0  0
 23 24  1  0  0  0
 23 29  4  0  0  0
 25 26  4  0  0  0
 26 27  4  0  0  0
 27 28  1  0  0  0
 27 29  4  0  0  0
 29 30  1  0  0  0
 30 31  4  0  0  0
 30 41  4  0  0  0
 31 32  4  0  0  0
 32 33  4  0  0  0
 33 34  4  0  0  0
 33 40  4  0  0  0
 34 35  4  0  0  0
 35 36  1  0  0  0
 35 38  4  0  0  0
 36 37  1  0  0  0
 38 39  4  0  0  0
 39 40  4  0  0  0
 40 41  4  0  0  0
 41 42  1  0  0  0
  1 43  1  0  0  0
  2 44  1  0  0  0
  3 45  1  0  0  0
  4 46  1  0  0  0
  5 47  1  0  0  0
  9 48  1  0  0  0
  9 49  1  0  0  0
  9 50  1  0  0  0
 12 51  1  0  0  0
 13 52  1  0  0  0
 14 53  1  0  0  0
 15 54  1  0  0  0
 16 55  1  0  0  0
 19 56  1  0  0  0
 24 57  1  0  0  0
 24 58  1  0  0  0
 25 59  1  0  0  0
 26 60  1  0  0  0
 28 61  1  0  0  0
 28 62  1  0  0  0
 28 63  1  0  0  0
 31 64  1  0  0  0
 32 65  1  0  0  0
 36 66  1  0  0  0
 37 67  1  0  0  0
 37 68  1  0  0  0
 37 69  1  0  0  0
 39 70  1  0  0  0
M  END
$$$$
