### 
### Created by X-TOOL on Mon Sep 10 21:12:44 2018
### 

@<TRIPOS>MOLECULE
8gpb_ligand
   35    37     1     0     0
SMALL
GAST_HUCK


@<TRIPOS>ATOM
      1 P          31.1120    1.9730   51.2100 P.3       1 AMP         0.2008
      2 O1P        32.3750    1.2580   51.2420 O.co2     1 AMP        -0.5537
      3 O2P        30.6820    2.4470   49.8470 O.co2     1 AMP        -0.5537
      4 O3P        31.1330    3.1420   52.1560 O.co2     1 AMP        -0.5537
      5 O5         30.0490    0.9560   51.8310 O.3       1 AMP        -0.2734
      6 C5         29.5220   -0.1750   51.0700 C.3       1 AMP         0.1072
      7 C4         28.2040   -0.8740   51.6510 C.3       1 AMP         0.1182
      8 O4         28.5290   -2.3020   51.6600 O.3       1 AMP        -0.3365
      9 C3         27.7830   -0.6400   53.0620 C.3       1 AMP         0.1149
     10 O3         26.8320    0.4460   53.1210 O.3       1 AMP        -0.3864
     11 C2         27.0570   -1.9970   53.3820 C.3       1 AMP         0.1385
     12 O2         25.8840   -2.2770   52.6140 O.3       1 AMP        -0.3836
     13 C1         28.0570   -2.9710   52.8390 C.3       1 AMP         0.2010
     14 N9         29.2200   -3.1970   53.7270 N.pl3     1 AMP        -0.1919
     15 C8         30.3640   -2.4050   53.8760 C.2       1 AMP         0.1123
     16 N7         31.2240   -2.7410   54.7850 N.2       1 AMP        -0.2958
     17 C5         30.5860   -3.8780   55.2940 C.ar      1 AMP         0.1045
     18 C6         30.9850   -4.7110   56.3420 C.ar      1 AMP         0.1298
     19 N6         32.1450   -4.3900   56.9790 N.pl3     1 AMP        -0.3152
     20 N1         30.1560   -5.7330   56.6900 N.ar      1 AMP        -0.2698
     21 C2         29.0360   -5.9130   55.9610 C.ar      1 AMP         0.0533
     22 N3         28.5210   -5.1670   54.9700 N.ar      1 AMP        -0.2714
     23 C4         29.3570   -4.1400   54.6990 C.ar      1 AMP         0.1613
     24 H1         30.3109   -0.9398   51.0183 H         1 AMP         0.0639
     25 H2         29.2912    0.1829   50.0558 H         1 AMP         0.0639
     26 H3         27.3611   -0.6406   50.9839 H         1 AMP         0.0650
     27 H4         28.6356   -0.4487   53.7302 H         1 AMP         0.0648
     28 H5         26.0692    0.2261   52.5993 H         1 AMP         0.2100
     29 H6         26.8585   -2.1045   54.4586 H         1 AMP         0.0676
     30 H7         26.1108   -2.3097   51.6921 H         1 AMP         0.2101
     31 H8         27.5770   -3.9325   52.6043 H         1 AMP         0.0996
     32 H9         30.5267   -1.5316   53.2462 H         1 AMP         0.1349
     33 H10        32.4828   -4.9725   57.7584 H         1 AMP         0.1820
     34 H11        32.6846   -3.5647   56.6814 H         1 AMP         0.1820
     35 H12        28.4622   -6.7971   56.2141 H         1 AMP         0.0996
@<TRIPOS>BOND
     1    1    2 ar 
     2    1    3 ar 
     3    1    4 ar 
     4    1    5 1  
     5    5    6 1  
     6    6    7 1  
     7    7    8 1  
     8    7    9 1  
     9    8   13 1  
    10    9   10 1  
    11    9   11 1  
    12   11   12 1  
    13   11   13 1  
    14   13   14 1  
    15   14   15 1  
    16   14   23 1  
    17   15   16 2  
    18   16   17 1  
    19   17   18 ar 
    20   17   23 ar 
    21   18   19 1  
    22   18   20 ar 
    23   20   21 ar 
    24   21   22 ar 
    25   22   23 ar 
    26    6   24 1  
    27    6   25 1  
    28    7   26 1  
    29    9   27 1  
    30   10   28 1  
    31   11   29 1  
    32   12   30 1  
    33   13   31 1  
    34   15   32 1  
    35   19   33 1  
    36   19   34 1  
    37   21   35 1  
@<TRIPOS>SUBSTRUCTURE
     1 AMP         1

