8gpb_ligand
  -I-interpret- 

 37 39  0  0  0  0  0  0  0  0999 V2000
   31.1120    1.9730   51.2100 P   0  0  0  0  0
   32.3750    1.2580   51.2420 O   0  0  0  0  0
   30.6820    2.4470   49.8470 O   0  0  0  0  0
   31.1330    3.1420   52.1560 O   0  0  0  0  0
   30.0490    0.9560   51.8310 O   0  0  0  0  0
   29.5220   -0.1750   51.0700 C   0  0  0  0  0
   28.2040   -0.8740   51.6510 C   0  0  0  0  0
   28.5290   -2.3020   51.6600 O   0  0  0  0  0
   27.7830   -0.6400   53.0620 C   0  0  0  0  0
   26.8320    0.4460   53.1210 O   0  0  0  0  0
   27.0570   -1.9970   53.3820 C   0  0  0  0  0
   25.8840   -2.2770   52.6140 O   0  0  0  0  0
   28.0570   -2.9710   52.8390 C   0  0  0  0  0
   29.2200   -3.1970   53.7270 N   0  0  0  0  0
   30.3640   -2.4050   53.8760 C   0  0  0  0  0
   31.2240   -2.7410   54.7850 N   0  0  0  0  0
   30.5860   -3.8780   55.2940 C   0  0  0  0  0
   30.9850   -4.7110   56.3420 C   0  0  0  0  0
   32.1450   -4.3900   56.9790 N   0  0  0  0  0
   30.1560   -5.7330   56.6900 N   0  0  0  0  0
   29.0360   -5.9130   55.9610 C   0  0  0  0  0
   28.5210   -5.1670   54.9700 N   0  0  0  0  0
   29.3570   -4.1400   54.6990 C   0  0  0  0  0
   29.8422    2.9064   49.9194 H   0  0  0  0  0
   30.2893    3.5984   52.1177 H   0  0  0  0  0
   30.3002   -0.9380   51.0850 H   0  0  0  0  0
   29.2480    0.2204   50.0919 H   0  0  0  0  0
   27.4021   -0.4729   51.0311 H   0  0  0  0  0
   28.5943   -0.3799   53.7418 H   0  0  0  0  0
   26.5672    0.5888   54.0326 H   0  0  0  0  0
   26.7630   -2.0133   54.4315 H   0  0  0  0  0
   25.5196   -3.1227   52.8852 H   0  0  0  0  0
   27.6026   -3.9513   52.6957 H   0  0  0  0  0
   30.5269   -1.5308   53.2457 H   0  0  0  0  0
   32.6794   -3.5727   56.6843 H   0  0  0  0  0
   32.4795   -4.9669   57.7508 H   0  0  0  0  0
   28.4590   -6.8020   56.2155 H   0  0  0  0  0
  1  2  2  0  0  0
  1  3  1  0  0  0
  1  4  1  0  0  0
  1  5  1  0  0  0
  5  6  1  0  0  0
  6  7  1  0  0  0
  7  8  1  0  0  0
  7  9  1  0  0  0
  8 13  1  0  0  0
  9 10  1  0  0  0
  9 11  1  0  0  0
 11 12  1  0  0  0
 11 13  1  0  0  0
 13 14  1  0  0  0
 14 15  4  0  0  0
 14 23  4  0  0  0
 15 16  4  0  0  0
 16 17  4  0  0  0
 17 18  4  0  0  0
 17 23  4  0  0  0
 18 19  1  0  0  0
 18 20  4  0  0  0
 20 21  4  0  0  0
 21 22  4  0  0  0
 22 23  4  0  0  0
  3 24  1  0  0  0
  4 25  1  0  0  0
  6 26  1  0  0  0
  6 27  1  0  0  0
  7 28  1  0  0  0
  9 29  1  0  0  0
 10 30  1  0  0  0
 11 31  1  0  0  0
 12 32  1  0  0  0
 13 33  1  0  0  0
 15 34  1  0  0  0
 19 35  1  0  0  0
 19 36  1  0  0  0
 21 37  1  0  0  0
M  END
$$$$
