4ucs_ligand
  -I-interpret- 

 21 22  0  0  0  0  0  0  0  0999 V2000
   18.1970   94.0110   14.4650 C   0  0  0  0  0
   19.0990   93.8310   15.4280 N   0  0  0  0  0
   17.0210   93.5820   14.4980 O   0  0  0  0  0
   19.9300   95.7290   12.0180 C   0  0  0  0  0
   18.6590   94.6840   13.3370 N   0  0  0  0  0
   21.0120   96.9220   10.2270 O   0  0  0  0  0
   17.9360   95.0350   12.2100 C   0  0  0  0  0
   19.9510   95.1450   13.2090 N   0  0  0  0  0
   21.1170   96.3460   11.4610 C   0  0  0  0  0
   18.7270   95.6750   11.3380 N   0  0  0  0  0
   22.2620   97.4130    9.9230 C   0  0  0  0  0
   16.6480   94.7550   12.0350 N   0  0  0  0  0
   23.1070   97.1820   10.9160 C   0  0  0  0  0
   22.3830   96.4580   11.9160 C   0  0  0  0  0
   18.8500   93.3105   16.2692 H   0  0  0  0  0
   20.0388   94.2136   15.3245 H   0  0  0  0  0
   22.5201   97.9213    8.9939 H   0  0  0  0  0
   16.1328   94.2517   12.7572 H   0  0  0  0  0
   16.1752   95.0435   11.1785 H   0  0  0  0  0
   24.1530   97.4850   10.9628 H   0  0  0  0  0
   22.7756   96.0736   12.8574 H   0  0  0  0  0
  1  2  1  0  0  0
  1  3  2  0  0  0
  5  1  1  0  0  0
  8  4  4  0  0  0
  4  9  1  0  0  0
  4 10  4  0  0  0
  5  7  4  0  0  0
  5  8  4  0  0  0
  9  6  4  0  0  0
  6 11  4  0  0  0
  7 10  4  0  0  0
  7 12  1  0  0  0
  9 14  4  0  0  0
 11 13  4  0  0  0
 13 14  4  0  0  0
  2 15  1  0  0  0
  2 16  1  0  0  0
 11 17  1  0  0  0
 12 18  1  0  0  0
 12 19  1  0  0  0
 13 20  1  0  0  0
 14 21  1  0  0  0
M  END
$$$$
