6i96_ligand
  -I-interpret- 

 93 95  0  0  0  0  0  0  0  0999 V2000
   -8.4290   34.4080    1.3100 O   0  0  0  0  0
   -8.7930   32.3830    3.0030 O   0  0  0  0  0
  -11.0140   33.3360    1.4660 O   0  0  0  0  0
  -10.3480   31.1250    1.6000 O   0  0  0  0  0
   -9.5110   33.0940   -0.7290 O   0  0  0  0  0
   -8.0200   31.2860    0.7130 O   0  0  0  0  0
   -7.9060   34.8530    2.6630 N   0  3  0  0  0
   -7.8950   33.2730    3.6270 C   0  0  0  0  0
   -7.5500   33.0470    4.8470 C   0  0  0  0  0
   -7.8620   34.0790    5.8780 C   0  0  0  0  0
   -9.2030   34.7960    5.9270 C   0  0  0  0  0
   -9.2430   35.9980    6.1200 O   0  0  0  0  0
  -10.3990   34.1010    5.6910 N   0  0  0  0  0
  -11.6390   34.9970    5.8360 C   0  0  0  0  0
  -12.0310   35.7790    4.5220 C   0  0  0  0  0
  -13.3880   33.4700    3.6430 C   0  0  0  0  0
  -13.4310   35.0800    3.9760 C   0  0  0  0  0
  -13.2210   33.2380    1.9980 C   0  0  0  0  0
  -12.3750   32.7900    1.5780 N   0  3  0  0  0
  -11.7550   31.1910    2.1610 C   0  0  0  0  0
  -12.6750   30.3560    2.5650 C   0  0  0  0  0
  -12.2230   28.9150    2.1530 C   0  0  0  0  0
  -12.5080   28.8410    0.5930 C   0  0  0  0  0
  -13.5900   29.3010    0.0930 O   0  0  0  0  0
  -11.4380   28.2150   -0.1710 N   0  0  0  0  0
  -11.5920   28.1390   -1.6500 C   0  0  0  0  0
  -10.4250   29.0680   -2.1630 C   0  0  0  0  0
  -10.8980   30.5360   -2.5300 C   0  0  0  0  0
   -9.6020   30.9620   -3.3730 C   0  0  0  0  0
   -8.7460   32.2400   -3.1030 C   0  0  0  0  0
   -8.6670   32.2010   -1.6490 N   0  0  0  0  0
   -7.5720   31.2660   -0.7360 C   0  0  0  0  0
   -6.7300   30.3470   -1.4280 C   0  0  0  0  0
   -7.8190   35.8060    3.0040 C   0  0  0  0  0
   -6.4570   36.4440    2.4970 C   0  0  0  0  0
   -6.5800   37.4070    1.2130 C   0  0  0  0  0
   -5.1530   37.3920    0.4870 C   0  0  0  0  0
   -5.2850   38.0690   -0.9570 C   0  0  0  0  0
   -4.2170   37.4090   -1.7930 N   0  3  0  0  0
   -9.2870   32.6850    1.1980 Fe  0  0  0  0  0
   -6.9280   34.5692    2.6048 H   0  0  0  0  0
   -8.6198   34.4791    3.2884 H   0  0  0  0  0
   -8.4154   34.2304    3.6519 H   0  0  0  0  0
   -6.9723   33.1949    3.0520 H   0  0  0  0  0
   -6.4620   32.9829    4.8282 H   0  0  0  0  0
   -8.1180   32.1657    5.1451 H   0  0  0  0  0
   -7.1535   34.8784    5.6608 H   0  0  0  0  0
   -7.8377   33.5200    6.8134 H   0  0  0  0  0
  -10.4407   33.1108    5.4499 H   0  0  0  0  0
  -11.4092   35.7427    6.5971 H   0  0  0  0  0
  -12.4777   34.3469    6.0851 H   0  0  0  0  0
  -11.2404   35.7164    3.7742 H   0  0  0  0  0
  -12.1715   36.8413    4.7215 H   0  0  0  0  0
  -14.3153   33.0070    3.9803 H   0  0  0  0  0
  -12.5412   33.0174    4.1589 H   0  0  0  0  0
  -13.6575   35.5717    3.0299 H   0  0  0  0  0
  -14.1538   35.1957    4.7837 H   0  0  0  0  0
  -13.1928   34.2528    1.6012 H   0  0  0  0  0
  -14.0223   32.5388    1.7588 H   0  0  0  0  0
  -12.2214   32.0190    2.2279 H   0  0  0  0  0
  -12.6470   32.7452    0.5960 H   0  0  0  0  0
  -12.0934   32.2231    2.2529 H   0  0  0  0  0
  -13.5921   30.6159    3.0937 H   0  0  0  0  0
  -12.7617   28.1442    2.7041 H   0  0  0  0  0
  -11.1738   28.7332    2.3861 H   0  0  0  0  0
  -10.6098   27.8407    0.2920 H   0  0  0  0  0
  -12.5754   28.4594   -1.9940 H   0  0  0  0  0
  -11.5277   27.1210   -2.0343 H   0  0  0  0  0
  -10.0232   28.6174   -3.0705 H   0  0  0  0  0
   -9.6952   29.1513   -1.3577 H   0  0  0  0  0
  -11.1503   31.1795   -1.6872 H   0  0  0  0  0
  -11.8517   30.6123   -3.0522 H   0  0  0  0  0
  -10.0195   31.1634   -4.3595 H   0  0  0  0  0
   -8.9010   30.1582   -3.1479 H   0  0  0  0  0
   -9.1762   33.1584   -3.5025 H   0  0  0  0  0
   -7.7775   32.2428   -3.6031 H   0  0  0  0  0
   -6.5294   31.5155   -0.5389 H   0  0  0  0  0
   -7.3457   29.6211   -1.9590 H   0  0  0  0  0
   -6.1101   30.8903   -2.1412 H   0  0  0  0  0
   -6.0927   29.8294   -0.7110 H   0  0  0  0  0
   -7.8267   35.7982    4.0939 H   0  0  0  0  0
   -8.6534   36.3982    2.6281 H   0  0  0  0  0
   -5.8155   35.6135    2.2023 H   0  0  0  0  0
   -6.0799   37.0605    3.3129 H   0  0  0  0  0
   -6.8528   38.4191    1.5118 H   0  0  0  0  0
   -7.3620   37.0572    0.5390 H   0  0  0  0  0
   -4.8111   36.3629    0.3769 H   0  0  0  0  0
   -4.4335   37.9498    1.0864 H   0  0  0  0  0
   -5.1533   39.1500   -0.9112 H   0  0  0  0  0
   -6.2784   37.9260   -1.3822 H   0  0  0  0  0
   -4.2401   37.7936   -2.7374 H   0  0  0  0  0
   -3.3031   37.5845   -1.3754 H   0  0  0  0  0
   -4.3881   36.4041   -1.8296 H   0  0  0  0  0
  1  7  1  0  0  0
  2  8  1  0  0  0
  3 19  1  0  0  0
  4 20  1  0  0  0
 31  5  1  0  0  0
 32  6  1  0  0  0
  7 34  1  0  0  0
  8  9  1  0  0  0
  9 10  1  0  0  0
 10 11  1  0  0  0
 11 12  2  0  0  0
 11 13  1  0  0  0
 13 14  1  0  0  0
 15 14  1  0  0  0
 17 15  1  0  0  0
 16 17  1  0  0  0
 18 16  1  0  0  0
 19 18  1  0  0  0
 20 21  2  0  0  0
 21 22  1  0  0  0
 22 23  1  0  0  0
 23 24  2  0  0  0
 23 25  1  0  0  0
 25 26  1  0  0  0
 26 27  1  0  0  0
 27 28  1  0  0  0
 28 29  1  0  0  0
 29 30  1  0  0  0
 30 31  1  0  0  0
 31 32  1  0  0  0
 32 33  1  0  0  0
 34 35  1  0  0  0
 35 36  1  0  0  0
 36 37  1  0  0  0
 37 38  1  0  0  0
 38 39  1  0  0  0
 40  1  1  0  0  0
 40  2  1  0  0  0
 40  3  1  0  0  0
 40  4  1  0  0  0
 40  5  1  0  0  0
 40  6  1  0  0  0
  7 41  1  0  0  0
  7 42  1  0  0  0
  8 43  1  0  0  0
  8 44  1  0  0  0
  9 45  1  0  0  0
  9 46  1  0  0  0
 10 47  1  0  0  0
 10 48  1  0  0  0
 13 49  1  0  0  0
 14 50  1  0  0  0
 14 51  1  0  0  0
 15 52  1  0  0  0
 15 53  1  0  0  0
 16 54  1  0  0  0
 16 55  1  0  0  0
 17 56  1  0  0  0
 17 57  1  0  0  0
 18 58  1  0  0  0
 18 59  1  0  0  0
 19 60  1  0  0  0
 19 61  1  0  0  0
 20 62  1  0  0  0
 21 63  1  0  0  0
 22 64  1  0  0  0
 22 65  1  0  0  0
 25 66  1  0  0  0
 26 67  1  0  0  0
 26 68  1  0  0  0
 27 69  1  0  0  0
 27 70  1  0  0  0
 28 71  1  0  0  0
 28 72  1  0  0  0
 29 73  1  0  0  0
 29 74  1  0  0  0
 30 75  1  0  0  0
 30 76  1  0  0  0
 32 77  1  0  0  0
 33 78  1  0  0  0
 33 79  1  0  0  0
 33 80  1  0  0  0
 34 81  1  0  0  0
 34 82  1  0  0  0
 35 83  1  0  0  0
 35 84  1  0  0  0
 36 85  1  0  0  0
 36 86  1  0  0  0
 37 87  1  0  0  0
 37 88  1  0  0  0
 38 89  1  0  0  0
 38 90  1  0  0  0
 39 91  1  0  0  0
 39 92  1  0  0  0
 39 93  1  0  0  0
M  END
$$$$
