### 
### Created by X-TOOL on Mon Aug  2 16:17:22 2021
### 

@<TRIPOS>MOLECULE
6i96_ligand
   92    94     1     0     0
SMALL
GAST_HUCK


@<TRIPOS>ATOM
      1 O11        -8.4290   34.4080    1.3100 O.3       1 0UE        -0.1225
      2 O12        -8.7930   32.3830    3.0030 O.3       1 0UE        -0.2346
      3 O21       -11.0140   33.3360    1.4660 O.3       1 0UE        -0.1225
      4 O22       -10.3480   31.1250    1.6000 O.3       1 0UE        -0.1634
      5 O31        -9.5110   33.0940   -0.7290 O.3       1 0UE        -0.0763
      6 O32        -8.0200   31.2860    0.7130 O.3       1 0UE        -0.1821
      7 N11        -7.9060   34.8530    2.6630 N.4       1 0UE         0.4213
      8 C11        -7.8950   33.2730    3.6270 C.3       1 0UE         0.0849
      9 C12        -7.5500   33.0470    4.8470 C.3       1 0UE        -0.0095
     10 C13        -7.8620   34.0790    5.8780 C.3       1 0UE         0.0394
     11 C14        -9.2030   34.7960    5.9270 C.2       1 0UE         0.1760
     12 O13        -9.2430   35.9980    6.1200 O.2       1 0UE        -0.3971
     13 N12       -10.3990   34.1010    5.6910 N.am      1 0UE        -0.2870
     14 C15       -11.6390   34.9970    5.8360 C.3       1 0UE         0.0309
     15 C16       -12.0310   35.7790    4.5220 C.3       1 0UE        -0.0326
     16 C18       -13.3880   33.4700    3.6430 C.3       1 0UE        -0.0114
     17 C17       -13.4310   35.0800    3.9760 C.3       1 0UE        -0.0464
     18 C19       -13.2210   33.2380    1.9980 C.3       1 0UE         0.0006
     19 N21       -12.3750   32.7900    1.5780 N.4       1 0UE         0.4213
     20 C21       -11.7550   31.1910    2.1610 C.2       1 0UE         0.0820
     21 C22       -12.6750   30.3560    2.5650 C.2       1 0UE        -0.0570
     22 C23       -12.2230   28.9150    2.1530 C.3       1 0UE         0.0486
     23 C24       -12.5080   28.8410    0.5930 C.2       1 0UE         0.1813
     24 O23       -13.5900   29.3010    0.0930 O.2       1 0UE        -0.3952
     25 N22       -11.4380   28.2150   -0.1710 N.am      1 0UE        -0.2859
     26 C25       -11.5920   28.1390   -1.6500 C.3       1 0UE         0.0309
     27 C26       -10.4250   29.0680   -2.1630 C.3       1 0UE        -0.0327
     28 C27       -10.8980   30.5360   -2.5300 C.3       1 0UE        -0.0493
     29 C28        -9.6020   30.9620   -3.3730 C.3       1 0UE        -0.0310
     30 C29        -8.7460   32.2400   -3.1030 C.3       1 0UE         0.0511
     31 N31        -8.6670   32.2010   -1.6490 N.pl3     1 0UE        -0.1668
     32 C31        -7.5720   31.2660   -0.7360 C.2       1 0UE         0.1573
     33 C32        -6.7300   30.3470   -1.4280 C.3       1 0UE        -0.0165
     34 C39        -7.8190   35.8060    3.0040 C.3       1 0UE         0.0006
     35 C40        -6.4570   36.4440    2.4970 C.3       1 0UE        -0.0113
     36 C41        -6.5800   37.4070    1.2130 C.3       1 0UE        -0.0434
     37 C42        -5.1530   37.3920    0.4870 C.3       1 0UE        -0.0125
     38 C43        -5.2850   38.0690   -0.9570 C.3       1 0UE        -0.0354
     39 N44        -4.2170   37.4090   -1.7930 N.4       1 0UE         0.2185
     40 FE         -9.2870   32.6850    1.1980 Fe        1 0UE         0.0000
     41 H1         -6.9744   34.4720    2.7187 H         1 0UE         0.2392
     42 H2         -8.4988   34.3908    3.3346 H         1 0UE         0.2392
     43 H3         -8.3567   34.2710    3.6004 H         1 0UE         0.0593
     44 H4         -6.9740   33.2789    3.0256 H         1 0UE         0.0593
     45 H5         -6.4599   32.9001    4.8543 H         1 0UE         0.0313
     46 H6         -8.0475   32.1166    5.1581 H         1 0UE         0.0313
     47 H7         -7.0985   34.8632    5.7684 H         1 0UE         0.0503
     48 H8         -7.7425   33.5846    6.8533 H         1 0UE         0.0503
     49 H9        -10.4399   33.1302    5.4546 H         1 0UE         0.1850
     50 H10       -11.4416   35.7331    6.6292 H         1 0UE         0.0520
     51 H11       -12.4899   34.3636    6.1270 H         1 0UE         0.0520
     52 H12       -11.2360   35.6823    3.7679 H         1 0UE         0.0285
     53 H13       -12.1969   36.8432    4.7455 H         1 0UE         0.0285
     54 H14       -14.3224   33.0011    3.9850 H         1 0UE         0.0317
     55 H15       -12.5352   33.0116    4.1650 H         1 0UE         0.0317
     56 H16       -13.7225   35.6011    3.0522 H         1 0UE         0.0268
     57 H17       -14.2015   35.2382    4.7450 H         1 0UE         0.0268
     58 H18       -13.2988   34.2347    1.5391 H         1 0UE         0.0825
     59 H19       -14.0786   32.6233    1.6872 H         1 0UE         0.0825
     60 H20       -12.2618   31.9303    2.0920 H         1 0UE         0.2392
     61 H21       -12.6434   32.5813    0.6291 H         1 0UE         0.2392
     62 H22       -12.0931   32.2221    2.2528 H         1 0UE         0.0900
     63 H23       -13.5912   30.6157    3.0932 H         1 0UE         0.0355
     64 H24       -12.8079   28.1549    2.6917 H         1 0UE         0.0590
     65 H25       -11.1526   28.7689    2.3602 H         1 0UE         0.0590
     66 H26       -10.6261   27.8480    0.2830 H         1 0UE         0.1851
     67 H27       -12.5733   28.5214   -1.9677 H         1 0UE         0.0520
     68 H28       -11.4663   27.1073   -2.0103 H         1 0UE         0.0520
     69 H29        -9.9847   28.6098   -3.0608 H         1 0UE         0.0285
     70 H30        -9.6617   29.1356   -1.3739 H         1 0UE         0.0285
     71 H31       -11.0446   31.1647   -1.6394 H         1 0UE         0.0267
     72 H32       -11.8147   30.5419   -3.1380 H         1 0UE         0.0267
     73 H33        -9.9442   31.0513   -4.4146 H         1 0UE         0.0285
     74 H34        -8.9038   30.1163   -3.2876 H         1 0UE         0.0285
     75 H35        -9.2511   33.1502   -3.4584 H         1 0UE         0.0539
     76 H36        -7.7509   32.1682   -3.5662 H         1 0UE         0.0539
     77 H37        -6.6312   30.6595   -2.4780 H         1 0UE         0.0325
     78 H38        -7.1721   29.3407   -1.3850 H         1 0UE         0.0325
     79 H39        -5.7370   30.3318   -0.9550 H         1 0UE         0.0325
     80 H40        -7.8315   35.8015    4.1039 H         1 0UE         0.0825
     81 H41        -8.6626   36.4047    2.6301 H         1 0UE         0.0825
     82 H42        -5.7724   35.6222    2.2402 H         1 0UE         0.0317
     83 H43        -6.0301   37.0324    3.3225 H         1 0UE         0.0317
     84 H44        -6.8335   38.4296    1.5292 H         1 0UE         0.0269
     85 H45        -7.3564   37.0311    0.5304 H         1 0UE         0.0269
     86 H46        -4.8088   36.3532    0.3753 H         1 0UE         0.0317
     87 H47        -4.4274   37.9557    1.0918 H         1 0UE         0.0317
     88 H48        -5.1119   39.1534   -0.8935 H         1 0UE         0.0813
     89 H49        -6.2815   37.8810   -1.3832 H         1 0UE         0.0813
     90 H50        -4.2389   37.7884   -2.7266 H         1 0UE         0.1994
     91 H51        -4.3851   36.4158   -1.8299 H         1 0UE         0.1994
     92 H52        -3.3133   37.5818   -1.3812 H         1 0UE         0.1994
@<TRIPOS>BOND
     1    1    7 1  
     2    2    8 1  
     3    3   19 1  
     4    4   20 1  
     5   31    5 1  
     6   32    6 1  
     7    7   34 1  
     8    8    9 1  
     9    9   10 1  
    10   10   11 1  
    11   11   12 2  
    12   11   13 am 
    13   13   14 1  
    14   15   14 1  
    15   17   15 1  
    16   16   17 1  
    17   18   16 1  
    18   19   18 1  
    19   20   21 2  
    20   21   22 1  
    21   22   23 1  
    22   23   24 2  
    23   23   25 am 
    24   25   26 1  
    25   26   27 1  
    26   27   28 1  
    27   28   29 1  
    28   29   30 1  
    29   30   31 1  
    30   31   32 1  
    31   32   33 1  
    32   34   35 1  
    33   35   36 1  
    34   36   37 1  
    35   37   38 1  
    36   38   39 1  
    37   40    1 1  
    38   40    2 1  
    39   40    3 1  
    40   40    4 1  
    41   40    5 1  
    42   40    6 1  
    43    7   41 1  
    44    7   42 1  
    45    8   43 1  
    46    8   44 1  
    47    9   45 1  
    48    9   46 1  
    49   10   47 1  
    50   10   48 1  
    51   13   49 1  
    52   14   50 1  
    53   14   51 1  
    54   15   52 1  
    55   15   53 1  
    56   16   54 1  
    57   16   55 1  
    58   17   56 1  
    59   17   57 1  
    60   18   58 1  
    61   18   59 1  
    62   19   60 1  
    63   19   61 1  
    64   20   62 1  
    65   21   63 1  
    66   22   64 1  
    67   22   65 1  
    68   25   66 1  
    69   26   67 1  
    70   26   68 1  
    71   27   69 1  
    72   27   70 1  
    73   28   71 1  
    74   28   72 1  
    75   29   73 1  
    76   29   74 1  
    77   30   75 1  
    78   30   76 1  
    79   33   77 1  
    80   33   78 1  
    81   33   79 1  
    82   34   80 1  
    83   34   81 1  
    84   35   82 1  
    85   35   83 1  
    86   36   84 1  
    87   36   85 1  
    88   37   86 1  
    89   37   87 1  
    90   38   88 1  
    91   38   89 1  
    92   39   90 1  
    93   39   91 1  
    94   39   92 1  
@<TRIPOS>SUBSTRUCTURE
     1 0UE         1

