3wzq_ligand
  -I-interpret- 

 52 53  0  0  0  0  0  0  0  0999 V2000
   17.3100   -8.8310    5.5710 O   0  0  0  0  0
   16.3410   -9.3580    6.1920 C   0  0  0  0  0
   16.3990  -10.3400    6.9830 O   0  0  0  0  0
   14.9550   -8.7370    5.9800 C   0  0  0  0  0
   14.8330   -7.4730    6.8480 C   0  0  0  0  0
   13.3870   -7.3210    7.3110 C   0  0  0  0  0
   13.2180   -5.9440    7.9410 C   0  0  0  0  0
   12.0120   -5.2180    7.3310 C   0  0  0  0  0
   11.6480   -4.0460    8.1390 N   0  0  0  0  0
   12.4540   -2.9520    8.3090 C   0  0  0  0  0
   13.5810   -2.8120    7.8200 O   0  0  0  0  0
   11.8410   -1.8390    9.1590 C   0  0  0  0  0
   12.9100   -1.0840    9.9830 C   0  0  0  0  0
   13.3450   -1.9660   11.1820 C   0  0  0  0  0
   14.4190   -1.1950   11.9790 C   0  0  0  0  0
   14.7690   -2.1060   13.2350 C   0  0  0  0  0
   13.5850   -2.0910   14.6050 S   0  0  0  0  0
   14.7410   -2.9550   15.6710 C   0  0  0  0  0
   16.1120   -2.2100   15.4050 C   0  0  0  0  0
   16.1340   -1.7470   13.9330 C   0  0  0  0  0
   16.2870   -0.2710   14.0100 N   0  0  0  0  0
   16.3460    0.0730   15.3100 C   0  0  0  0  0
   16.4650    1.3550   15.6930 N   0  0  0  0  0
   16.2320   -0.9680   16.1730 N   0  0  0  0  0
   16.9876   -8.1008    5.0377 H   0  0  0  0  0
   14.1843   -9.4534    6.2645 H   0  0  0  0  0
   14.8269   -8.4749    4.9298 H   0  0  0  0  0
   15.1246   -6.5992    6.2653 H   0  0  0  0  0
   15.4878   -7.5597    7.7150 H   0  0  0  0  0
   13.1489   -8.0942    8.0415 H   0  0  0  0  0
   12.7131   -7.4243    6.4605 H   0  0  0  0  0
   14.1167   -5.3564    7.7538 H   0  0  0  0  0
   13.0552   -6.0624    9.0123 H   0  0  0  0  0
   11.1651   -5.9036    7.3033 H   0  0  0  0  0
   12.2721   -4.8860    6.3259 H   0  0  0  0  0
   10.7390   -4.0473    8.6018 H   0  0  0  0  0
   11.1322   -2.2910    9.8529 H   0  0  0  0  0
   11.3593   -1.1255    8.4904 H   0  0  0  0  0
   12.4939   -0.1459   10.3505 H   0  0  0  0  0
   13.7737   -0.8700    9.3535 H   0  0  0  0  0
   13.7496   -2.9130   10.8248 H   0  0  0  0  0
   12.4878   -2.1834   11.8193 H   0  0  0  0  0
   14.0537   -0.2163   12.2901 H   0  0  0  0  0
   15.3028   -1.0050   11.3699 H   0  0  0  0  0
   14.7774   -3.0781   12.7421 H   0  0  0  0  0
   14.7948   -4.0216   15.4530 H   0  0  0  0  0
   14.4454   -2.9263   16.7197 H   0  0  0  0  0
   16.9052   -2.9074   15.6745 H   0  0  0  0  0
   16.9290   -2.2224   13.3585 H   0  0  0  0  0
   16.3383    0.3689   13.2173 H   0  0  0  0  0
   16.5128    2.0944   14.9920 H   0  0  0  0  0
   16.2302   -0.8974   17.1905 H   0  0  0  0  0
  1  2  1  0  0  0
  2  3  2  0  0  0
  2  4  1  0  0  0
  4  5  1  0  0  0
  5  6  1  0  0  0
  6  7  1  0  0  0
  7  8  1  0  0  0
  8  9  1  0  0  0
  9 10  1  0  0  0
 10 11  2  0  0  0
 10 12  1  0  0  0
 12 13  1  0  0  0
 13 14  1  0  0  0
 14 15  1  0  0  0
 15 16  1  0  0  0
 16 17  1  0  0  0
 16 20  1  0  0  0
 17 18  1  0  0  0
 18 19  1  0  0  0
 19 20  1  0  0  0
 19 24  1  0  0  0
 20 21  1  0  0  0
 21 22  1  0  0  0
 22 23  2  0  0  0
 22 24  1  0  0  0
  1 25  1  0  0  0
  4 26  1  0  0  0
  4 27  1  0  0  0
  5 28  1  0  0  0
  5 29  1  0  0  0
  6 30  1  0  0  0
  6 31  1  0  0  0
  7 32  1  0  0  0
  7 33  1  0  0  0
  8 34  1  0  0  0
  8 35  1  0  0  0
  9 36  1  0  0  0
 12 37  1  0  0  0
 12 38  1  0  0  0
 13 39  1  0  0  0
 13 40  1  0  0  0
 14 41  1  0  0  0
 14 42  1  0  0  0
 15 43  1  0  0  0
 15 44  1  0  0  0
 16 45  1  0  0  0
 18 46  1  0  0  0
 18 47  1  0  0  0
 19 48  1  0  0  0
 20 49  1  0  0  0
 21 50  1  0  0  0
 23 51  1  0  0  0
 24 52  1  0  0  0
M  END
$$$$
