4ogv_ligand
  -I-interpret- 

 67 69  0  0  0  0  0  0  0  0999 V2000
   15.9080    1.9380  -37.5460 C   0  0  0  0  0
   16.9120    2.8970  -37.6330 C   0  0  0  0  0
   16.5590    4.4530  -38.2960 Cl  0  0  0  0  0
   18.2030    2.6090  -37.1890 C   0  0  0  0  0
   18.4980    1.3610  -36.6490 C   0  0  0  0  0
   17.4980    0.3930  -36.5610 C   0  0  0  0  0
   16.2030    0.6890  -37.0070 C   0  0  0  0  0
   15.0940   -0.3530  -36.9080 C   0  0  0  0  0
   15.5610   -1.6050  -37.4130 O   0  0  0  0  0
   14.4470   -2.4190  -37.7500 C   0  0  0  0  0
   15.0040   -3.7640  -38.2260 C   0  0  0  0  0
   15.4100   -3.6390  -39.6890 C   0  0  0  0  0
   16.6340   -3.6650  -39.9470 O   0  0  0  0  0
   14.4770   -3.4740  -40.5070 O   0  0  0  0  0
   13.6010   -2.6170  -36.5020 C   0  0  0  0  0
   12.8580   -3.5910  -36.4700 O   0  0  0  0  0
   13.6670   -1.7020  -35.4120 N   0  0  0  0  0
   12.8560   -1.9470  -34.1940 C   0  0  0  0  0
   11.3800   -1.6480  -34.4670 C   0  0  0  0  0
   10.6620   -1.1720  -33.2140 C   0  0  0  0  0
   12.9970   -3.4090  -33.7470 C   0  0  0  0  0
   14.6870   -3.8820  -33.2290 S   0  0  0  0  0
   15.6820   -3.6220  -34.3230 O   0  0  0  0  0
   15.0180   -3.0320  -32.0350 O   0  0  0  0  0
   14.7170   -5.6680  -32.7660 C   0  0  0  0  0
   13.3790   -6.0750  -32.1290 C   0  0  0  0  0
   14.9800   -6.5350  -34.0010 C   0  0  0  0  0
   15.8410   -5.8920  -31.7560 C   0  0  0  0  0
   14.5700   -0.5220  -35.4750 C   0  0  0  0  0
   13.8680    0.8010  -35.1040 C   0  0  0  0  0
   12.8160    1.3070  -35.8780 C   0  0  0  0  0
   12.1990    2.5140  -35.5410 C   0  0  0  0  0
   12.6520    3.2150  -34.4260 C   0  0  0  0  0
   11.9190    4.7180  -33.9960 Cl  0  0  0  0  0
   13.7000    2.7200  -33.6520 C   0  0  0  0  0
   14.3130    1.5150  -33.9980 C   0  0  0  0  0
   14.9005    2.1624  -37.8964 H   0  0  0  0  0
   18.9842    3.3653  -37.2655 H   0  0  0  0  0
   19.5057    1.1411  -36.2965 H   0  0  0  0  0
   17.7228   -0.5899  -36.1469 H   0  0  0  0  0
   14.2587    0.0023  -37.5115 H   0  0  0  0  0
   13.8315   -1.9662  -38.5273 H   0  0  0  0  0
   14.2429   -4.5369  -38.1192 H   0  0  0  0  0
   15.8710   -4.0377  -37.6248 H   0  0  0  0  0
   13.6374   -3.4974  -40.0421 H   0  0  0  0  0
   13.2190   -1.2879  -33.4053 H   0  0  0  0  0
   10.9013   -2.5653  -34.8098 H   0  0  0  0  0
   11.3222   -0.8590  -35.2168 H   0  0  0  0  0
   10.7203   -1.9449  -32.4476 H   0  0  0  0  0
   11.1358   -0.2606  -32.8494 H   0  0  0  0  0
    9.6171   -0.9705  -33.4499 H   0  0  0  0  0
   12.7392   -4.0315  -34.6038 H   0  0  0  0  0
   12.3481   -3.5427  -32.8814 H   0  0  0  0  0
   13.2074   -5.4771  -31.2339 H   0  0  0  0  0
   12.5720   -5.9045  -32.8416 H   0  0  0  0  0
   13.4119   -7.1311  -31.8612 H   0  0  0  0  0
   14.1899   -6.3707  -34.7337 H   0  0  0  0  0
   15.9422   -6.2639  -34.4354 H   0  0  0  0  0
   14.9944   -7.5852  -33.7097 H   0  0  0  0  0
   16.7930   -5.6088  -32.2050 H   0  0  0  0  0
   15.6595   -5.2820  -30.8711 H   0  0  0  0  0
   15.8697   -6.9444  -31.4738 H   0  0  0  0  0
   15.3664   -0.7143  -34.7561 H   0  0  0  0  0
   12.4752    0.7530  -36.7526 H   0  0  0  0  0
   11.3758    2.9013  -36.1413 H   0  0  0  0  0
   14.0406    3.2737  -32.7770 H   0  0  0  0  0
   15.1411    1.1337  -33.4005 H   0  0  0  0  0
  1  2  4  0  0  0
  1  7  4  0  0  0
  2  3  1  0  0  0
  2  4  4  0  0  0
  4  5  4  0  0  0
  5  6  4  0  0  0
  6  7  4  0  0  0
  7  8  1  0  0  0
  8  9  1  0  0  0
  8 29  1  0  0  0
  9 10  1  0  0  0
 10 11  1  0  0  0
 10 15  1  0  0  0
 11 12  1  0  0  0
 12 13  2  0  0  0
 12 14  1  0  0  0
 15 16  2  0  0  0
 15 17  1  0  0  0
 17 18  1  0  0  0
 17 29  1  0  0  0
 18 19  1  0  0  0
 18 21  1  0  0  0
 19 20  1  0  0  0
 21 22  1  0  0  0
 22 23  2  0  0  0
 22 24  2  0  0  0
 22 25  1  0  0  0
 25 26  1  0  0  0
 25 27  1  0  0  0
 25 28  1  0  0  0
 29 30  1  0  0  0
 30 31  4  0  0  0
 30 36  4  0  0  0
 31 32  4  0  0  0
 32 33  4  0  0  0
 33 34  1  0  0  0
 33 35  4  0  0  0
 35 36  4  0  0  0
  1 37  1  0  0  0
  4 38  1  0  0  0
  5 39  1  0  0  0
  6 40  1  0  0  0
  8 41  1  0  0  0
 10 42  1  0  0  0
 11 43  1  0  0  0
 11 44  1  0  0  0
 14 45  1  0  0  0
 18 46  1  0  0  0
 19 47  1  0  0  0
 19 48  1  0  0  0
 20 49  1  0  0  0
 20 50  1  0  0  0
 20 51  1  0  0  0
 21 52  1  0  0  0
 21 53  1  0  0  0
 26 54  1  0  0  0
 26 55  1  0  0  0
 26 56  1  0  0  0
 27 57  1  0  0  0
 27 58  1  0  0  0
 27 59  1  0  0  0
 28 60  1  0  0  0
 28 61  1  0  0  0
 28 62  1  0  0  0
 29 63  1  0  0  0
 31 64  1  0  0  0
 32 65  1  0  0  0
 35 66  1  0  0  0
 36 67  1  0  0  0
M  END
$$$$
