6mkq_ligand
  -I-interpret- 

 31 31  0  0  0  0  0  0  0  0999 V2000
   22.8960  -19.9070    9.5010 O   0  0  0  0  0
   23.2470  -20.2710   10.6040 C   0  0  0  0  0
   24.2590  -20.9720   10.8860 N   0  0  0  0  0
   24.6710  -21.2640   12.2680 C   0  0  0  0  0
   25.0080  -21.5910    9.8160 C   0  0  0  0  0
   24.7090  -23.1080    9.8680 C   0  0  0  0  0
   23.8550  -23.5590   10.5720 O   0  0  0  0  0
   25.5130  -24.0050    9.0480 N   0  0  0  0  0
   26.4810  -21.3100    9.9740 C   0  0  0  0  0
   27.0000  -21.5200   11.4070 C   0  0  0  0  0
   26.1300  -20.9240   12.5190 C   0  0  0  0  0
   26.2340  -19.4540   12.6050 N   0  3  0  0  0
   26.6890  -18.7960   11.4380 O   0  0  0  0  0
   25.7910  -17.3760   11.3460 S   0  0  0  0  0
   26.0670  -16.4100   12.4140 O   0  0  0  0  0
   25.9860  -16.5940   10.1370 O   0  0  0  0  0
   24.3570  -17.5960   11.4090 O   0  0  0  0  0
   22.6220  -19.9597   11.4410 H   0  0  0  0  0
   24.5380  -22.3318   12.4420 H   0  0  0  0  0
   24.0623  -20.6565   12.9377 H   0  0  0  0  0
   24.7152  -21.1873    8.8467 H   0  0  0  0  0
   25.3452  -25.0107    9.0773 H   0  0  0  0  0
   26.2436  -23.6272    8.4448 H   0  0  0  0  0
   26.6423  -20.2626    9.7190 H   0  0  0  0  0
   27.0168  -22.0055    9.3280 H   0  0  0  0  0
   27.9647  -21.0158   11.4643 H   0  0  0  0  0
   27.0218  -22.5969   11.5741 H   0  0  0  0  0
   26.4917  -21.3538   13.4531 H   0  0  0  0  0
   26.9220  -19.2572   13.3319 H   0  0  0  0  0
   25.2898  -19.1094   12.7789 H   0  0  0  0  0
   25.9627  -16.8388   13.2666 H   0  0  0  0  0
  1  2  2  0  0  0
  2  3  1  0  0  0
  3  4  1  0  0  0
  3  5  1  0  0  0
  4 11  1  0  0  0
  5  6  1  0  0  0
  5  9  1  0  0  0
  6  7  2  0  0  0
  6  8  1  0  0  0
  9 10  1  0  0  0
 10 11  1  0  0  0
 11 12  1  0  0  0
 12 13  1  0  0  0
 13 14  1  0  0  0
 14 15  1  0  0  0
 14 16  2  0  0  0
 14 17  2  0  0  0
  2 18  1  0  0  0
  4 19  1  0  0  0
  4 20  1  0  0  0
  5 21  1  0  0  0
  8 22  1  0  0  0
  8 23  1  0  0  0
  9 24  1  0  0  0
  9 25  1  0  0  0
 10 26  1  0  0  0
 10 27  1  0  0  0
 11 28  1  0  0  0
 12 29  1  0  0  0
 12 30  1  0  0  0
 15 31  1  0  0  0
M  END
$$$$
