3pcu_ligand
  -I-interpret- 

 50 52  0  0  0  0  0  0  0  0999 V2000
  -19.3250   -0.0320    7.4080 C   0  0  0  0  0
  -20.9670    9.7580    2.1320 C   0  0  0  0  0
  -20.6690   -1.7170    5.6440 C   0  0  0  0  0
  -18.4110   -2.7370    5.1910 C   0  0  0  0  0
  -18.8480    7.4990    3.0840 C   0  0  0  0  0
  -17.4100    7.1880    1.0170 C   0  0  0  0  0
  -18.6320   10.0380    1.7100 O   0  0  0  0  0
  -19.3730   -2.1650    2.5310 O   0  0  0  0  0
  -18.6070   -0.7860    6.4790 C   0  0  0  0  0
  -18.7200    2.9780    3.6680 C   0  0  0  0  0
  -18.9610    2.1960    0.9820 C   0  0  0  0  0
  -18.8570    0.7780    4.3740 C   0  0  0  0  0
  -18.6430    5.3690    2.7370 C   0  0  0  0  0
  -19.5860    8.1380    0.8820 O   0  0  0  0  0
  -18.8170    4.7240    0.5810 O   0  0  0  0  0
  -19.0840   -0.1010    1.7270 O   0  0  0  0  0
  -19.6320    9.3280    1.5620 C   0  0  0  0  0
  -18.7250    3.9010    2.6560 C   0  0  0  0  0
  -18.8460    3.5550    1.3130 C   0  0  0  0  0
  -19.0820   -0.5530    4.1280 C   0  0  0  0  0
  -19.1910   -0.9770    2.7900 C   0  0  0  0  0
  -18.8120    1.6530    3.3280 C   0  0  0  0  0
  -18.9600    1.2350    2.0060 C   0  0  0  0  0
  -19.3690    5.7370    1.4810 C   0  0  0  0  0
  -19.1840   -1.4420    5.3840 C   0  0  0  0  0
  -18.8170    7.1560    1.5870 C   0  0  0  0  0
  -20.4049    0.0744    7.3056 H   0  0  0  0  0
  -18.8059    0.4506    8.2361 H   0  0  0  0  0
  -20.8813    9.8653    3.2133 H   0  0  0  0  0
  -21.2577   10.7123    1.6928 H   0  0  0  0  0
  -21.7197    9.0049    1.8988 H   0  0  0  0  0
  -20.7713   -2.3460    6.5283 H   0  0  0  0  0
  -21.1891   -0.7729    5.8060 H   0  0  0  0  0
  -21.0991   -2.2270    4.7820 H   0  0  0  0  0
  -17.3631   -2.5077    4.9974 H   0  0  0  0  0
  -18.4908   -3.3441    6.0927 H   0  0  0  0  0
  -18.8268   -3.2842    4.3450 H   0  0  0  0  0
  -18.4197    8.4895    3.2374 H   0  0  0  0  0
  -19.8794    7.4892    3.4364 H   0  0  0  0  0
  -18.2668    6.7608    3.6367 H   0  0  0  0  0
  -17.4451    6.9549   -0.0472 H   0  0  0  0  0
  -16.9844    8.1814    1.1588 H   0  0  0  0  0
  -16.7940    6.4506    1.5317 H   0  0  0  0  0
  -17.5286   -0.8699    6.6139 H   0  0  0  0  0
  -18.6452    3.2871    4.7106 H   0  0  0  0  0
  -19.0503    1.8893   -0.0601 H   0  0  0  0  0
  -18.7156    1.1328    5.3949 H   0  0  0  0  0
  -17.6282    5.7613    2.8031 H   0  0  0  0  0
  -19.0684    5.7953    3.6455 H   0  0  0  0  0
  -20.4289    5.7444    1.2268 H   0  0  0  0  0
  9  1  2  0  0  0
 17  2  1  0  0  0
 25  3  1  0  0  0
 25  4  1  0  0  0
 26  5  1  0  0  0
 26  6  1  0  0  0
 17  7  2  0  0  0
 21  8  2  0  0  0
 25  9  1  0  0  0
 18 10  4  0  0  0
 10 22  4  0  0  0
 19 11  4  0  0  0
 11 23  4  0  0  0
 12 20  2  0  0  0
 22 12  1  0  0  0
 13 18  1  0  0  0
 24 13  1  0  0  0
 14 17  1  0  0  0
 26 14  1  0  0  0
 15 19  1  0  0  0
 24 15  1  0  0  0
 16 21  1  0  0  0
 23 16  1  0  0  0
 19 18  4  0  0  0
 21 20  1  0  0  0
 20 25  1  0  0  0
 23 22  4  0  0  0
 24 26  1  0  0  0
  1 27  1  0  0  0
  1 28  1  0  0  0
  2 29  1  0  0  0
  2 30  1  0  0  0
  2 31  1  0  0  0
  3 32  1  0  0  0
  3 33  1  0  0  0
  3 34  1  0  0  0
  4 35  1  0  0  0
  4 36  1  0  0  0
  4 37  1  0  0  0
  5 38  1  0  0  0
  5 39  1  0  0  0
  5 40  1  0  0  0
  6 41  1  0  0  0
  6 42  1  0  0  0
  6 43  1  0  0  0
  9 44  1  0  0  0
 10 45  1  0  0  0
 11 46  1  0  0  0
 12 47  1  0  0  0
 13 48  1  0  0  0
 13 49  1  0  0  0
 24 50  1  0  0  0
M  END
$$$$
