5igl_ligand
  -I-interpret- 

 48 50  0  0  0  0  0  0  0  0999 V2000
    2.5860   24.1430   28.5070 C   0  0  0  0  0
    3.4610   26.4080   28.6530 N   0  0  0  0  0
    3.0660   27.0600   26.0900 C   0  0  0  0  0
    2.9650   26.9050   23.6480 C   0  0  0  0  0
    0.6250   27.3400   21.7150 C   0  0  0  0  0
    2.7010   25.7760   26.5540 C   0  0  0  0  0
    4.6590   28.6460   30.2410 C   0  0  0  0  0
    1.5740   21.9360   28.3100 C   0  0  0  0  0
    1.4420   20.3950   30.0400 C   0  0  0  0  0
    1.8550   21.6360   29.6410 C   0  0  0  0  0
    2.5170   22.5630   30.4840 C   0  0  0  0  0
    2.7250   22.2250   31.8250 N   0  0  0  0  0
    4.3280   21.9900   32.3160 S   0  0  0  0  0
    4.3170   20.4770   33.1610 C   0  0  0  0  0
    4.7310   23.1210   33.2990 O   0  0  0  0  0
    5.1270   21.9510   31.0430 O   0  0  0  0  0
    2.8590   23.8100   29.8850 C   0  0  0  0  0
    2.9210   25.4130   27.9090 C   0  0  0  0  0
    3.7500   27.5180   28.2010 N   0  0  0  0  0
    3.5910   27.9280   26.9710 C   0  0  0  0  0
    2.9230   27.5730   24.8450 N   0  0  0  0  0
    2.8290   27.6440   22.4890 O   0  0  0  0  0
    2.0880   27.1100   21.3650 C   0  0  0  0  0
    3.1170   25.6840   23.5630 O   0  0  0  0  0
    4.0400   29.1980   26.9280 N   0  0  0  0  0
    4.4370   29.5510   27.9030 N   0  0  0  0  0
    4.2840   28.5680   28.7780 C   0  0  0  0  0
    1.9320   23.1510   27.7530 C   0  0  0  0  0
    0.3874   26.8156   22.6406 H   0  0  0  0  0
    0.4473   28.4076   21.8448 H   0  0  0  0  0
   -0.0039   26.9610   20.9094 H   0  0  0  0  0
    2.2481   25.0603   25.8679 H   0  0  0  0  0
    3.7694   28.4911   30.8515 H   0  0  0  0  0
    5.3955   27.8751   30.4676 H   0  0  0  0  0
    5.0814   29.6279   30.4546 H   0  0  0  0  0
    1.0609   21.1976   27.6939 H   0  0  0  0  0
    0.3619   20.3160   29.9169 H   0  0  0  0  0
    1.9347   19.6365   29.4317 H   0  0  0  0  0
    1.7013   20.2468   31.0883 H   0  0  0  0  0
    1.9470   22.1247   32.4770 H   0  0  0  0  0
    5.3115   20.2781   33.5603 H   0  0  0  0  0
    3.5984   20.5245   33.9792 H   0  0  0  0  0
    4.0342   19.6802   32.4731 H   0  0  0  0  0
    3.3563   24.5568   30.5040 H   0  0  0  0  0
    2.7647   28.5792   24.7909 H   0  0  0  0  0
    2.3622   27.5994   20.4304 H   0  0  0  0  0
    2.3040   26.0540   21.2030 H   0  0  0  0  0
    1.7020   23.3443   26.7052 H   0  0  0  0  0
  1 17  4  0  0  0
 18  1  1  0  0  0
  1 28  4  0  0  0
 18  2  4  0  0  0
 19  2  4  0  0  0
  3  6  4  0  0  0
  3 20  4  0  0  0
 21  3  1  0  0  0
  4 21  1  0  0  0
 22  4  1  0  0  0
  4 24  2  0  0  0
 23  5  1  0  0  0
  6 18  4  0  0  0
 27  7  1  0  0  0
  8 10  4  0  0  0
 28  8  4  0  0  0
 10  9  1  0  0  0
 11 10  4  0  0  0
 11 12  1  0  0  0
 17 11  4  0  0  0
 12 13  1  0  0  0
 13 14  1  0  0  0
 13 15  2  0  0  0
 13 16  2  0  0  0
 20 19  4  0  0  0
 19 27  4  0  0  0
 20 25  4  0  0  0
 22 23  1  0  0  0
 25 26  4  0  0  0
 26 27  4  0  0  0
  5 29  1  0  0  0
  5 30  1  0  0  0
  5 31  1  0  0  0
  6 32  1  0  0  0
  7 33  1  0  0  0
  7 34  1  0  0  0
  7 35  1  0  0  0
  8 36  1  0  0  0
  9 37  1  0  0  0
  9 38  1  0  0  0
  9 39  1  0  0  0
 12 40  1  0  0  0
 14 41  1  0  0  0
 14 42  1  0  0  0
 14 43  1  0  0  0
 17 44  1  0  0  0
 21 45  1  0  0  0
 23 46  1  0  0  0
 23 47  1  0  0  0
 28 48  1  0  0  0
M  END
$$$$
