6udt_ligand
  -I-interpret- 

 81 86  0  0  0  0  0  0  0  0999 V2000
    9.3980    1.4860   96.6070 C   0  0  0  0  0
   10.8620    1.4880   97.0290 C   0  0  0  0  0
   11.6860    2.2440   96.0070 C   0  0  0  0  0
   11.1010    3.6160   95.7310 C   0  0  0  0  0
   11.9440    4.5750   95.1910 C   0  0  0  0  0
   11.4780    5.8500   94.9280 C   0  0  0  0  0
   12.5700    6.9900   94.2670 Cl  0  0  0  0  0
   10.1670    6.1870   95.1790 C   0  0  0  0  0
    9.3260    5.2380   95.7240 C   0  0  0  0  0
    9.7720    3.9540   95.9960 C   0  0  0  0  0
    8.7980    2.9090   96.5910 C   0  0  0  0  0
    8.4230    3.2870   98.0190 C   0  0  0  0  0
    7.4960    2.8730   95.7780 C   0  0  0  0  0
    6.5630    3.9220   96.1960 O   0  0  0  0  0
    5.6860    3.4910   97.1580 C   0  0  0  0  0
    4.3530    3.8190   96.9150 C   0  0  0  0  0
    3.3490    3.4150   97.7970 C   0  0  0  0  0
    3.6940    2.6970   98.9340 C   0  0  0  0  0
    5.0310    2.3780   99.1660 C   0  0  0  0  0
    6.0390    2.7660   98.2870 C   0  0  0  0  0
    7.3120    2.5010   98.5590 N   0  0  0  0  0
    7.7140    1.6520   99.7150 C   0  0  0  0  0
    7.6550    2.4190  101.0680 C   0  0  0  0  0
    8.8890    3.2990  101.3600 C   0  0  0  0  0
    8.8990    2.7110  102.7810 C   0  0  0  0  0
    8.1240    1.5150  102.2270 C   0  0  0  0  0
    7.0090    0.9920  103.1370 C   0  0  0  0  0
    7.6400    0.1040  104.0930 O   0  0  0  0  0
    6.2730    2.0800  103.9200 C   0  0  0  0  0
    4.8940    1.9790  104.0530 C   0  0  0  0  0
    4.0930    3.0250  104.8250 C   0  0  0  0  0
    3.1100    3.7390  103.9150 C   0  0  0  0  0
    1.9980    2.8460  103.5750 N   0  0  0  0  0
    1.0230    2.3930  104.5800 C   0  0  0  0  0
    1.8100    2.3740  102.3400 C   0  0  0  0  0
    0.8990    1.5970  102.0240 O   0  0  0  0  0
    2.8500    2.8450  101.2930 C   0  0  0  0  0
    2.6350    2.2050   99.9350 C   0  0  0  0  0
    2.8060    0.6780  100.0520 C   0  0  0  0  0
    3.5480    0.2720  100.9760 O   0  0  0  0  0
    2.2320   -0.0560   99.2170 O   0  0  0  0  0
    1.3270    2.5120   99.4740 O   0  0  0  0  0
    8.8372    0.8879   97.3253 H   0  0  0  0  0
    9.3349    1.0783   95.5981 H   0  0  0  0  0
   11.2209    0.4609   97.0946 H   0  0  0  0  0
   10.9576    1.9726   98.0006 H   0  0  0  0  0
   11.6905    1.6758   95.0768 H   0  0  0  0  0
   12.6948    2.3702   96.4002 H   0  0  0  0  0
   12.9814    4.3222   94.9722 H   0  0  0  0  0
    9.7991    7.1874   94.9509 H   0  0  0  0  0
    8.2920    5.5031   95.9446 H   0  0  0  0  0
    8.1113    4.3315   98.0102 H   0  0  0  0  0
    9.2935    3.0980   98.6471 H   0  0  0  0  0
    7.0186    1.9064   95.9392 H   0  0  0  0  0
    7.7434    3.0334   94.7286 H   0  0  0  0  0
    4.0922    4.3963   96.0280 H   0  0  0  0  0
    2.3063    3.6605   97.5952 H   0  0  0  0  0
    5.2943    1.8102  100.0584 H   0  0  0  0  0
    8.7436    1.3320   99.5548 H   0  0  0  0  0
    7.0199    0.8136   99.7735 H   0  0  0  0  0
    6.6610    2.8619  101.0061 H   0  0  0  0  0
    8.8679    4.3760  101.1936 H   0  0  0  0  0
    9.7744    3.2602  100.7255 H   0  0  0  0  0
    8.5275    3.2813  103.6324 H   0  0  0  0  0
    9.8300    2.5766  103.3317 H   0  0  0  0  0
    8.6128    0.5597  102.0359 H   0  0  0  0  0
    6.2626    0.5103  102.5054 H   0  0  0  0  0
    6.9743   -0.2495  104.6875 H   0  0  0  0  0
    6.8171    2.9142  104.3628 H   0  0  0  0  0
    4.3735    1.1366  103.5974 H   0  0  0  0  0
    4.7842    3.7598  105.2378 H   0  0  0  0  0
    3.5359    2.5242  105.6167 H   0  0  0  0  0
    3.6216    4.0376  103.0000 H   0  0  0  0  0
    2.7193    4.6170  104.4293 H   0  0  0  0  0
    1.5420    1.8459  105.3671 H   0  0  0  0  0
    0.5174    3.2579  105.0095 H   0  0  0  0  0
    0.2900    1.7409  104.1051 H   0  0  0  0  0
    3.8396    2.5575  101.6481 H   0  0  0  0  0
    2.7467    3.9239  101.1772 H   0  0  0  0  0
    3.8683    1.0230  101.4811 H   0  0  0  0  0
    0.6821    2.1972  100.1117 H   0  0  0  0  0
  1  2  1  0  0  0
  1 11  1  0  0  0
  2  3  1  0  0  0
  3  4  1  0  0  0
  4  5  4  0  0  0
  4 10  4  0  0  0
  5  6  4  0  0  0
  6  7  1  0  0  0
  6  8  4  0  0  0
  8  9  4  0  0  0
  9 10  4  0  0  0
 10 11  1  0  0  0
 11 12  1  0  0  0
 11 13  1  0  0  0
 12 21  1  0  0  0
 13 14  1  0  0  0
 14 15  1  0  0  0
 15 16  4  0  0  0
 15 20  4  0  0  0
 16 17  4  0  0  0
 17 18  4  0  0  0
 18 19  4  0  0  0
 18 38  1  0  0  0
 19 20  4  0  0  0
 20 21  1  0  0  0
 21 22  1  0  0  0
 22 23  1  0  0  0
 23 24  1  0  0  0
 23 26  1  0  0  0
 24 25  1  0  0  0
 25 26  1  0  0  0
 26 27  1  0  0  0
 27 28  1  0  0  0
 27 29  1  0  0  0
 29 30  2  0  0  0
 30 31  1  0  0  0
 31 32  1  0  0  0
 32 33  1  0  0  0
 33 34  1  0  0  0
 33 35  1  0  0  0
 35 36  2  0  0  0
 35 37  1  0  0  0
 37 38  1  0  0  0
 38 39  1  0  0  0
 38 42  1  0  0  0
 39 40  1  0  0  0
 39 41  2  0  0  0
  1 43  1  0  0  0
  1 44  1  0  0  0
  2 45  1  0  0  0
  2 46  1  0  0  0
  3 47  1  0  0  0
  3 48  1  0  0  0
  5 49  1  0  0  0
  8 50  1  0  0  0
  9 51  1  0  0  0
 12 52  1  0  0  0
 12 53  1  0  0  0
 13 54  1  0  0  0
 13 55  1  0  0  0
 16 56  1  0  0  0
 17 57  1  0  0  0
 19 58  1  0  0  0
 22 59  1  0  0  0
 22 60  1  0  0  0
 23 61  1  0  0  0
 24 62  1  0  0  0
 24 63  1  0  0  0
 25 64  1  0  0  0
 25 65  1  0  0  0
 26 66  1  0  0  0
 27 67  1  0  0  0
 28 68  1  0  0  0
 29 69  1  0  0  0
 30 70  1  0  0  0
 31 71  1  0  0  0
 31 72  1  0  0  0
 32 73  1  0  0  0
 32 74  1  0  0  0
 34 75  1  0  0  0
 34 76  1  0  0  0
 34 77  1  0  0  0
 37 78  1  0  0  0
 37 79  1  0  0  0
 40 80  1  0  0  0
 42 81  1  0  0  0
M  END
$$$$
