5nbw_ligand
  -I-interpret- 

 33 37  0  0  0  0  0  0  0  0999 V2000
   13.1500  -32.0840    4.4880 C   0  0  0  0  0
   13.0520  -33.3060    3.8150 C   0  0  0  0  0
   12.4180  -34.4040    4.4330 C   0  0  0  0  0
   11.8910  -34.2590    5.7360 C   0  0  0  0  0
   12.0030  -33.0280    6.4360 C   0  0  0  0  0
   12.6420  -31.9450    5.7990 C   0  0  0  0  0
   12.7660  -30.7230    6.4670 C   0  0  0  0  0
   12.2640  -30.5580    7.7620 C   0  0  0  0  0
   12.4030  -29.3030    8.3850 C   0  0  0  0  0
   11.9270  -29.1150    9.6880 C   0  0  0  0  0
   11.3010  -30.1860   10.3510 C   0  0  0  0  0
   11.1320  -31.4330    9.7370 C   0  0  0  0  0
   11.6220  -31.6440    8.4260 C   0  0  0  0  0
   11.4860  -32.8900    7.7640 C   0  0  0  0  0
   10.8480  -34.0000    8.3710 C   0  0  0  0  0
   10.7330  -35.2170    7.6790 C   0  0  0  0  0
   11.2590  -35.3510    6.3590 C   0  0  0  0  0
   11.1600  -36.5660    5.6570 C   0  0  0  0  0
   11.6760  -36.7220    4.3700 C   0  0  0  0  0
   12.3010  -35.6420    3.7560 C   0  0  0  0  0
   12.7960  -35.8010    2.5050 O   0  0  0  0  0
   13.6218  -31.2326    3.9975 H   0  0  0  0  0
   13.4659  -33.4100    2.8120 H   0  0  0  0  0
   13.2607  -29.8875    5.9718 H   0  0  0  0  0
   12.8803  -28.4795    7.8538 H   0  0  0  0  0
   12.0401  -28.1504   10.1828 H   0  0  0  0  0
   10.9382  -30.0415   11.3687 H   0  0  0  0  0
   10.6245  -32.2389   10.2671 H   0  0  0  0  0
   10.4446  -33.9091    9.3795 H   0  0  0  0  0
   10.2387  -36.0648    8.1534 H   0  0  0  0  0
   10.6647  -37.4121    6.1333 H   0  0  0  0  0
   11.5904  -37.6776    3.8528 H   0  0  0  0  0
   12.6270  -36.6977    2.2068 H   0  0  0  0  0
  1  2  4  0  0  0
  1  6  4  0  0  0
  2  3  4  0  0  0
  3  4  4  0  0  0
  3 20  4  0  0  0
  4  5  4  0  0  0
  4 17  4  0  0  0
  5  6  4  0  0  0
  5 14  4  0  0  0
  6  7  4  0  0  0
  7  8  4  0  0  0
  8  9  4  0  0  0
  8 13  4  0  0  0
  9 10  4  0  0  0
 10 11  4  0  0  0
 11 12  4  0  0  0
 12 13  4  0  0  0
 13 14  4  0  0  0
 14 15  4  0  0  0
 15 16  4  0  0  0
 16 17  4  0  0  0
 17 18  4  0  0  0
 18 19  4  0  0  0
 19 20  4  0  0  0
 20 21  1  0  0  0
  1 22  1  0  0  0
  2 23  1  0  0  0
  7 24  1  0  0  0
  9 25  1  0  0  0
 10 26  1  0  0  0
 11 27  1  0  0  0
 12 28  1  0  0  0
 15 29  1  0  0  0
 16 30  1  0  0  0
 18 31  1  0  0  0
 19 32  1  0  0  0
 21 33  1  0  0  0
M  END
$$$$
