2q7y_ligand
  -I-interpret- 

104104  0  0  0  0  0  0  0  0999 V2000
   -7.5690    1.4740   -5.5570 C   0  0  0  0  0
   -8.7090    2.3070   -4.9650 C   0  0  0  0  0
   -8.1840    3.5990   -4.3180 C   0  0  0  0  0
   -8.7110    4.8520   -5.0310 C   0  0  0  0  0
   -8.7560    6.0810   -4.1200 C   0  0  0  0  0
  -10.1820    6.2870   -3.5660 C   0  0  0  0  0
  -10.2560    5.9690   -2.0820 C   0  0  0  0  0
  -10.7690    7.1730   -1.3000 C   0  0  0  0  0
  -10.7930    6.8650    0.1920 C   0  0  0  0  0
  -12.1870    7.0910    0.7820 C   0  0  0  0  0
  -12.3210    6.4290    2.1390 C   0  0  0  0  0
  -13.6550    5.7070    2.2500 C   0  0  0  0  0
  -14.0810    5.6750    3.7020 C   0  0  0  0  0
  -15.2390    4.9350    3.8540 C   0  0  0  0  0
  -15.4020    4.0160    4.8850 C   0  0  0  0  0
  -16.7530    3.3090    4.8660 C   0  0  0  0  0
  -16.6230    1.9280    4.4450 O   0  0  0  0  0
  -17.4660    3.4000    6.2130 C   0  0  0  0  0
  -18.8170    2.6910    6.0510 C   0  0  0  0  0
  -19.5370    2.3390    7.2250 O   0  0  0  0  0
  -20.7510    1.5420    6.9640 C   0  0  0  0  0
  -20.3800    0.1300    6.8150 O   0  0  0  0  0
  -21.5440   -0.7360    7.1260 C   0  0  0  0  0
  -21.0910   -2.1960    7.3700 C   0  0  0  0  0
  -19.9210   -2.2070    8.2080 O   0  0  0  0  0
  -22.6090   -0.5470    6.0210 C   0  0  0  0  0
  -23.7960   -1.3120    6.2840 O   0  0  0  0  0
  -22.9880    0.9470    5.8930 C   0  0  0  0  0
  -23.8520    1.1220    4.7580 O   0  0  0  0  0
  -21.7430    1.8770    5.8030 C   0  0  0  0  0
  -22.1440    3.2560    5.8410 O   0  0  0  0  0
  -17.6720    4.8220    6.5400 N   0  0  0  0  0
  -17.1740    5.4280    7.6180 C   0  0  0  0  0
  -16.4810    4.8630    8.4720 O   0  0  0  0  0
  -17.5450    6.9270    7.7250 C   0  0  0  0  0
  -16.4080    7.8220    8.2410 C   0  0  0  0  0
  -15.5340    8.2960    7.0830 C   0  0  0  0  0
  -14.3930    9.2080    7.5600 C   0  0  0  0  0
  -13.4310    9.5740    6.3970 C   0  0  0  0  0
  -12.4520   10.6670    6.8240 C   0  0  0  0  0
  -11.0810   10.5620    6.1240 C   0  0  0  0  0
   -7.0522    2.0574   -6.3190 H   0  0  0  0  0
   -6.8686    1.2052   -4.7663 H   0  0  0  0  0
   -7.9774    0.5685   -6.0057 H   0  0  0  0  0
   -9.2080    1.7145   -4.1982 H   0  0  0  0  0
   -9.3938    2.5766   -5.7690 H   0  0  0  0  0
   -7.0962    3.5984   -4.3878 H   0  0  0  0  0
   -8.5253    3.6259   -3.2832 H   0  0  0  0  0
   -9.7291    4.6443   -5.3604 H   0  0  0  0  0
   -8.0351    5.0742   -5.8568 H   0  0  0  0  0
   -8.4678    6.9607   -4.6955 H   0  0  0  0  0
   -8.0693    5.9311   -3.2869 H   0  0  0  0  0
  -10.8580    5.6163   -4.0963 H   0  0  0  0  0
  -10.4598    7.3313   -3.7090 H   0  0  0  0  0
   -9.2579    5.7153   -1.7250 H   0  0  0  0  0
  -10.9405    5.1338   -1.9335 H   0  0  0  0  0
  -11.7809    7.4068   -1.6309 H   0  0  0  0  0
  -10.1067    8.0204   -1.4773 H   0  0  0  0  0
  -10.0905    7.5291    0.6955 H   0  0  0  0  0
  -10.5199    5.8196    0.3357 H   0  0  0  0  0
  -12.9250    6.6561    0.1080 H   0  0  0  0  0
  -12.3454    8.1629    0.9004 H   0  0  0  0  0
  -12.2670    7.1943    2.9133 H   0  0  0  0  0
  -11.5153    5.7051    2.2610 H   0  0  0  0  0
  -13.5532    4.6886    1.8750 H   0  0  0  0  0
  -14.4060    6.2310    1.6588 H   0  0  0  0  0
  -14.2675    6.6951    4.0376 H   0  0  0  0  0
  -13.2884    5.2152    4.2923 H   0  0  0  0  0
  -15.2659    4.3174    2.9562 H   0  0  0  0  0
  -15.9973    5.6895    4.0635 H   0  0  0  0  0
  -15.3335    4.5640    5.8247 H   0  0  0  0  0
  -14.6326    3.2530    4.7669 H   0  0  0  0  0
  -17.3697    3.8297    4.1334 H   0  0  0  0  0
  -17.4883    1.5122    4.4436 H   0  0  0  0  0
  -16.8881    2.9370    7.0129 H   0  0  0  0  0
  -18.5878    1.7451    5.5603 H   0  0  0  0  0
  -19.4539    3.4032    5.5263 H   0  0  0  0  0
  -21.3328    1.8160    7.8441 H   0  0  0  0  0
  -22.0188   -0.4459    8.0633 H   0  0  0  0  0
  -20.8559   -2.6659    6.4150 H   0  0  0  0  0
  -21.8932   -2.7458    7.8622 H   0  0  0  0  0
  -19.6437   -3.1140    8.3566 H   0  0  0  0  0
  -22.1711   -0.9031    5.0885 H   0  0  0  0  0
  -24.4307   -1.1685    5.5782 H   0  0  0  0  0
  -23.5148    1.2400    6.8011 H   0  0  0  0  0
  -24.0883    2.0489    4.6770 H   0  0  0  0  0
  -21.2333    1.7071    4.8546 H   0  0  0  0  0
  -22.7511    3.4316    5.1184 H   0  0  0  0  0
  -18.2339    5.3807    5.8978 H   0  0  0  0  0
  -18.3650    7.0051    8.4389 H   0  0  0  0  0
  -17.7930    7.2694    6.7203 H   0  0  0  0  0
  -15.7945    7.2496    8.9367 H   0  0  0  0  0
  -16.8390    8.6909    8.7384 H   0  0  0  0  0
  -16.1592    8.8638    6.3939 H   0  0  0  0  0
  -15.0940    7.4198    6.6068 H   0  0  0  0  0
  -13.8243    8.6779    8.3240 H   0  0  0  0  0
  -14.8275   10.1282    7.9506 H   0  0  0  0  0
  -14.0203    9.9397    5.5561 H   0  0  0  0  0
  -12.8649    8.6856    6.1171 H   0  0  0  0  0
  -12.2847   10.5604    7.8958 H   0  0  0  0  0
  -12.8895   11.6274    6.5513 H   0  0  0  0  0
  -10.6260    9.6004    6.3614 H   0  0  0  0  0
  -11.2178   10.6444    5.0458 H   0  0  0  0  0
  -10.4341   11.3673    6.4721 H   0  0  0  0  0
  1  2  1  0  0  0
  2  3  1  0  0  0
  3  4  1  0  0  0
  4  5  1  0  0  0
  5  6  1  0  0  0
  6  7  1  0  0  0
  7  8  1  0  0  0
  8  9  1  0  0  0
  9 10  1  0  0  0
 10 11  1  0  0  0
 11 12  1  0  0  0
 12 13  1  0  0  0
 13 14  1  0  0  0
 14 15  1  0  0  0
 15 16  1  0  0  0
 16 17  1  0  0  0
 16 18  1  0  0  0
 18 19  1  0  0  0
 18 32  1  0  0  0
 19 20  1  0  0  0
 20 21  1  0  0  0
 21 22  1  0  0  0
 21 30  1  0  0  0
 22 23  1  0  0  0
 23 24  1  0  0  0
 23 26  1  0  0  0
 24 25  1  0  0  0
 26 27  1  0  0  0
 26 28  1  0  0  0
 28 29  1  0  0  0
 28 30  1  0  0  0
 30 31  1  0  0  0
 32 33  1  0  0  0
 33 34  2  0  0  0
 33 35  1  0  0  0
 35 36  1  0  0  0
 36 37  1  0  0  0
 37 38  1  0  0  0
 38 39  1  0  0  0
 39 40  1  0  0  0
 40 41  1  0  0  0
  1 42  1  0  0  0
  1 43  1  0  0  0
  1 44  1  0  0  0
  2 45  1  0  0  0
  2 46  1  0  0  0
  3 47  1  0  0  0
  3 48  1  0  0  0
  4 49  1  0  0  0
  4 50  1  0  0  0
  5 51  1  0  0  0
  5 52  1  0  0  0
  6 53  1  0  0  0
  6 54  1  0  0  0
  7 55  1  0  0  0
  7 56  1  0  0  0
  8 57  1  0  0  0
  8 58  1  0  0  0
  9 59  1  0  0  0
  9 60  1  0  0  0
 10 61  1  0  0  0
 10 62  1  0  0  0
 11 63  1  0  0  0
 11 64  1  0  0  0
 12 65  1  0  0  0
 12 66  1  0  0  0
 13 67  1  0  0  0
 13 68  1  0  0  0
 14 69  1  0  0  0
 14 70  1  0  0  0
 15 71  1  0  0  0
 15 72  1  0  0  0
 16 73  1  0  0  0
 17 74  1  0  0  0
 18 75  1  0  0  0
 19 76  1  0  0  0
 19 77  1  0  0  0
 21 78  1  0  0  0
 23 79  1  0  0  0
 24 80  1  0  0  0
 24 81  1  0  0  0
 25 82  1  0  0  0
 26 83  1  0  0  0
 27 84  1  0  0  0
 28 85  1  0  0  0
 29 86  1  0  0  0
 30 87  1  0  0  0
 31 88  1  0  0  0
 32 89  1  0  0  0
 35 90  1  0  0  0
 35 91  1  0  0  0
 36 92  1  0  0  0
 36 93  1  0  0  0
 37 94  1  0  0  0
 37 95  1  0  0  0
 38 96  1  0  0  0
 38 97  1  0  0  0
 39 98  1  0  0  0
 39 99  1  0  0  0
 40100  1  0  0  0
 40101  1  0  0  0
 41102  1  0  0  0
 41103  1  0  0  0
 41104  1  0  0  0
M  END
$$$$
