4j1f_ligand
  -I-interpret- 

 45 47  0  0  0  0  0  0  0  0999 V2000
  -15.7050  -42.0000   -9.4990 C   0  0  0  0  0
  -15.9970  -40.6260  -10.1230 C   0  0  0  0  0
  -14.8330  -41.9060   -8.3660 O   0  0  0  0  0
  -14.8050  -40.7560   -7.6450 C   0  0  0  0  0
  -15.5480  -39.6980   -7.8860 N   0  0  0  0  0
  -16.4430  -39.6130   -9.0300 C   0  0  0  0  0
  -17.9090  -39.9350   -8.6870 C   0  0  0  0  0
  -18.1890  -40.4810   -7.4450 C   0  0  0  0  0
  -19.5110  -40.8060   -7.1170 C   0  0  0  0  0
  -20.5760  -40.6310   -8.0260 C   0  0  0  0  0
  -20.2750  -40.1130   -9.2890 C   0  0  0  0  0
  -18.9500  -39.7500   -9.6220 C   0  0  0  0  0
  -18.6970  -39.2530  -10.8980 F   0  0  0  0  0
  -13.9410  -40.7700   -6.5520 N   0  0  0  0  0
  -16.2390  -38.1930   -9.5850 C   0  0  0  0  0
  -19.6800  -41.3850   -5.8800 N   0  0  0  0  0
  -20.8110  -41.9620   -5.3680 C   0  0  0  0  0
  -20.6730  -42.5710   -4.0420 C   0  0  0  0  0
  -21.8840  -41.9830   -5.9400 O   0  0  0  0  0
  -19.5620  -42.2940   -3.3320 N   0  0  0  0  0
  -19.3710  -42.8200   -2.1230 C   0  0  0  0  0
  -20.3130  -43.7210   -1.5640 C   0  0  0  0  0
  -21.4900  -44.0540   -2.3260 C   0  0  0  0  0
  -21.6770  -43.4640   -3.5860 C   0  0  0  0  0
  -20.0910  -44.2930   -0.2600 C   0  0  0  0  0
  -19.9390  -44.7650    0.7820 N   0  0  0  0  0
  -14.9510  -42.8650  -10.5180 C   0  0  0  0  0
  -14.6770  -44.1010   -9.9320 F   0  0  0  0  0
  -15.8510  -43.1370  -11.5240 F   0  0  0  0  0
  -13.7790  -42.2130  -11.0150 F   0  0  0  0  0
  -16.6671  -42.4186   -9.2038 H   0  0  0  0  0
  -16.7984  -40.7329  -10.8541 H   0  0  0  0  0
  -15.0902  -40.2546  -10.6003 H   0  0  0  0  0
  -15.4947  -38.9058   -7.2457 H   0  0  0  0  0
  -17.3864  -40.6563   -6.7286 H   0  0  0  0  0
  -21.5987  -40.8909   -7.7526 H   0  0  0  0  0
  -21.0698  -39.9878  -10.0243 H   0  0  0  0  0
  -13.8838  -39.9585   -5.9367 H   0  0  0  0  0
  -16.8217  -38.0741  -10.4985 H   0  0  0  0  0
  -16.5688  -37.4641   -8.8447 H   0  0  0  0  0
  -15.1825  -38.0381   -9.8037 H   0  0  0  0  0
  -18.8625  -41.3841   -5.2700 H   0  0  0  0  0
  -18.4789  -42.5544   -1.5558 H   0  0  0  0  0
  -22.2250  -44.7544   -1.9294 H   0  0  0  0  0
  -22.5578  -43.6830   -4.1896 H   0  0  0  0  0
  1  2  1  0  0  0
  1  3  1  0  0  0
  1 27  1  0  0  0
  2  6  1  0  0  0
  3  4  1  0  0  0
  4  5  1  0  0  0
  4 14  2  0  0  0
  5  6  1  0  0  0
  6  7  1  0  0  0
  6 15  1  0  0  0
  7  8  4  0  0  0
  7 12  4  0  0  0
  8  9  4  0  0  0
  9 10  4  0  0  0
  9 16  1  0  0  0
 10 11  4  0  0  0
 11 12  4  0  0  0
 12 13  1  0  0  0
 16 17  1  0  0  0
 17 18  1  0  0  0
 17 19  2  0  0  0
 18 20  4  0  0  0
 18 24  4  0  0  0
 20 21  4  0  0  0
 21 22  4  0  0  0
 22 23  4  0  0  0
 22 25  1  0  0  0
 23 24  4  0  0  0
 25 26  3  0  0  0
 27 28  1  0  0  0
 27 29  1  0  0  0
 27 30  1  0  0  0
  1 31  1  0  0  0
  2 32  1  0  0  0
  2 33  1  0  0  0
  5 34  1  0  0  0
  8 35  1  0  0  0
 10 36  1  0  0  0
 11 37  1  0  0  0
 14 38  1  0  0  0
 15 39  1  0  0  0
 15 40  1  0  0  0
 15 41  1  0  0  0
 16 42  1  0  0  0
 21 43  1  0  0  0
 23 44  1  0  0  0
 24 45  1  0  0  0
M  END
$$$$
