5iis_ligand
  -I-interpret- 

 50 53  0  0  0  0  0  0  0  0999 V2000
  -18.8000   36.0290   -4.9230 C   0  0  0  0  0
  -18.3800   35.3890   -3.7700 C   0  0  0  0  0
  -17.0560   35.4990   -3.3500 C   0  0  0  0  0
  -18.6760   36.6000    0.4310 C   0  0  0  0  0
  -19.6870   37.6830    0.1850 C   0  0  0  0  0
  -20.7460   38.9780   -1.4310 C   0  0  0  0  0
  -21.3790   39.7360   -0.4510 C   0  0  0  0  0
  -21.1560   39.4340    0.8790 C   0  0  0  0  0
  -20.2980   38.3970    1.2550 C   0  0  0  0  0
  -20.8300   39.3210   -2.8790 C   0  0  0  0  0
  -19.7220   39.1160   -3.7110 C   0  0  0  0  0
  -19.7530   39.4910   -5.0450 C   0  0  0  0  0
  -20.8850   40.0720   -5.5780 C   0  0  0  0  0
  -21.9990   40.2900   -4.7860 C   0  0  0  0  0
  -21.9560   39.8980   -3.4660 C   0  0  0  0  0
  -23.0710   40.0690   -2.7240 F   0  0  0  0  0
  -19.9240   37.9600   -1.1140 N   0  0  0  0  0
  -20.0510   38.1480    2.5960 N   0  0  0  0  0
  -18.2680   36.3470    1.5620 O   0  0  0  0  0
  -18.2540   35.9850   -0.6980 N   0  0  0  0  0
  -17.2480   34.9940   -0.8550 C   0  0  0  0  0
  -16.7880   34.2170    0.2080 C   0  0  0  0  0
  -15.7490   33.3830    0.1380 N   0  0  0  0  0
  -15.1170   33.3010   -1.0290 C   0  0  0  0  0
  -15.4910   33.9970   -2.1580 C   0  0  0  0  0
  -16.5910   34.8500   -2.0910 C   0  0  0  0  0
  -16.1770   36.2460   -4.1300 C   0  0  0  0  0
  -16.6610   36.8690   -5.2870 C   0  0  0  0  0
  -15.8740   37.6960   -6.0250 N   0  0  0  0  0
  -17.9520   36.7450   -5.6850 N   0  0  0  0  0
  -20.2370   36.0250   -5.3420 C   0  0  0  0  0
  -19.0871   34.7971   -3.1887 H   0  0  0  0  0
  -22.0412   40.5562   -0.7282 H   0  0  0  0  0
  -21.6596   40.0165    1.6505 H   0  0  0  0  0
  -18.8223   38.6549   -3.3035 H   0  0  0  0  0
  -18.8793   39.3262   -5.6756 H   0  0  0  0  0
  -20.9022   40.3610   -6.6288 H   0  0  0  0  0
  -22.8912   40.7617   -5.1979 H   0  0  0  0  0
  -19.3960   37.4143    2.8663 H   0  0  0  0  0
  -20.5242   38.6985    3.3125 H   0  0  0  0  0
  -18.7238   36.2731   -1.5563 H   0  0  0  0  0
  -17.3127   34.2965    1.1601 H   0  0  0  0  0
  -14.2504   32.6433   -1.0967 H   0  0  0  0  0
  -14.9353   33.8822   -3.0886 H   0  0  0  0  0
  -15.1296   36.3442   -3.8447 H   0  0  0  0  0
  -14.9110   37.8729   -5.7392 H   0  0  0  0  0
  -16.2465   38.1397   -6.8645 H   0  0  0  0  0
  -20.5670   34.9973   -5.4939 H   0  0  0  0  0
  -20.8422   36.4911   -4.5644 H   0  0  0  0  0
  -20.3446   36.5836   -6.2718 H   0  0  0  0  0
  2  1  4  0  0  0
  1 30  4  0  0  0
  1 31  1  0  0  0
  3  2  4  0  0  0
 26  3  1  0  0  0
  3 27  4  0  0  0
  4  5  1  0  0  0
  4 19  2  0  0  0
 20  4  1  0  0  0
  5  9  4  0  0  0
  5 17  4  0  0  0
  6  7  4  0  0  0
  6 10  1  0  0  0
 17  6  4  0  0  0
  8  7  4  0  0  0
  9  8  4  0  0  0
  9 18  1  0  0  0
 10 11  4  0  0  0
 10 15  4  0  0  0
 11 12  4  0  0  0
 12 13  4  0  0  0
 14 13  4  0  0  0
 15 14  4  0  0  0
 15 16  1  0  0  0
 21 20  1  0  0  0
 21 22  4  0  0  0
 21 26  4  0  0  0
 22 23  4  0  0  0
 23 24  4  0  0  0
 24 25  4  0  0  0
 25 26  4  0  0  0
 27 28  4  0  0  0
 28 29  1  0  0  0
 28 30  4  0  0  0
  2 32  1  0  0  0
  7 33  1  0  0  0
  8 34  1  0  0  0
 11 35  1  0  0  0
 12 36  1  0  0  0
 13 37  1  0  0  0
 14 38  1  0  0  0
 18 39  1  0  0  0
 18 40  1  0  0  0
 20 41  1  0  0  0
 22 42  1  0  0  0
 24 43  1  0  0  0
 25 44  1  0  0  0
 27 45  1  0  0  0
 29 46  1  0  0  0
 29 47  1  0  0  0
 31 48  1  0  0  0
 31 49  1  0  0  0
 31 50  1  0  0  0
M  END
$$$$
