3ao5_ligand
  -I-interpret- 

 27 29  0  0  0  0  0  0  0  0999 V2000
   14.9450  -10.0780   -5.7960 C   0  0  0  0  0
   14.3810   -9.2090   -6.7500 C   0  0  0  0  0
   13.0470   -8.7730   -6.6830 C   0  0  0  0  0
   12.1860   -9.1890   -5.6720 C   0  0  0  0  0
   12.7530  -10.0970   -4.6580 C   0  0  0  0  0
   14.1370  -10.5180   -4.7580 C   0  0  0  0  0
   14.3840  -11.3570   -3.7090 O   0  0  0  0  0
   13.1300  -11.6490   -3.0480 C   0  0  0  0  0
   12.1950  -10.6810   -3.5620 O   0  0  0  0  0
   15.2360   -8.7130   -7.8650 C   0  0  0  0  0
   15.1040   -7.5430   -8.5250 N   0  0  0  0  0
   16.0820   -7.3810   -9.5150 N   0  0  0  0  0
   16.7910   -8.5140   -9.3860 C   0  0  0  0  0
   16.3390   -9.3730   -8.4020 C   0  0  0  0  0
   10.3970   -8.6090   -5.5840 Br  0  0  0  0  0
   14.1460   -6.4130   -8.4300 C   0  0  0  0  0
   17.8660   -8.7930  -10.1640 N   0  0  0  0  0
   15.9851  -10.3952   -5.8711 H   0  0  0  0  0
   12.6755   -8.0885   -7.4456 H   0  0  0  0  0
   13.2225  -11.5812   -1.9641 H   0  0  0  0  0
   12.8005  -12.6691   -3.2452 H   0  0  0  0  0
   16.7496  -10.3406   -8.1136 H   0  0  0  0  0
   13.1370   -6.7763   -8.6251 H   0  0  0  0  0
   14.1915   -5.9829   -7.4295 H   0  0  0  0  0
   14.4085   -5.6530   -9.1659 H   0  0  0  0  0
   18.1633   -8.1300  -10.8799 H   0  0  0  0  0
   18.3774   -9.6658  -10.0333 H   0  0  0  0  0
  1  2  4  0  0  0
  1  6  4  0  0  0
  2  3  4  0  0  0
  2 10  1  0  0  0
  3  4  4  0  0  0
  4  5  4  0  0  0
  4 15  1  0  0  0
  5  6  4  0  0  0
  5  9  1  0  0  0
  6  7  1  0  0  0
  7  8  1  0  0  0
  8  9  1  0  0  0
 10 11  4  0  0  0
 10 14  4  0  0  0
 11 12  4  0  0  0
 11 16  1  0  0  0
 12 13  4  0  0  0
 13 14  4  0  0  0
 13 17  1  0  0  0
  1 18  1  0  0  0
  3 19  1  0  0  0
  8 20  1  0  0  0
  8 21  1  0  0  0
 14 22  1  0  0  0
 16 23  1  0  0  0
 16 24  1  0  0  0
 16 25  1  0  0  0
 17 26  1  0  0  0
 17 27  1  0  0  0
M  END
$$$$
