3pkc_ligand
  -I-interpret- 

 68 69  0  0  0  0  0  0  0  0999 V2000
  -25.0830   -3.8440  -11.3840 N   0  0  0  0  0
  -25.7780    1.8460  -15.3460 O   0  0  0  0  0
  -28.3820   -4.7900   -7.8240 N   0  0  0  0  0
  -26.5520   -1.7170  -13.5510 O   0  0  0  0  0
  -25.1310   -0.7100  -15.4290 O   0  0  0  0  0
  -23.9180   -2.1920  -10.4760 O   0  0  0  0  0
  -29.4440   -6.6510   -8.4060 O   0  0  0  0  0
  -22.9960   -1.3710  -12.9720 O   0  0  0  0  0
  -26.0730    2.9020  -10.6020 C   0  0  0  0  0
  -26.3270    2.1160  -11.8640 C   0  0  0  0  0
  -25.5180    2.0730  -12.9230 C   0  0  0  0  0
  -25.9440    1.1720  -14.0330 C   0  0  0  0  0
  -25.0070   -0.0460  -14.1040 C   0  0  0  0  0
  -25.3130   -1.0540  -13.0110 C   0  0  0  0  0
  -24.2340   -2.1010  -12.8330 C   0  0  0  0  0
  -26.1070    1.9040   -9.4510 C   0  0  0  0  0
  -24.7530    3.6400  -10.6570 C   0  0  0  0  0
  -27.1700    3.9890  -10.4350 C   0  0  0  0  0
  -24.3860   -2.7260  -11.4770 C   0  0  0  0  0
  -25.3740   -4.5240  -10.0790 C   0  0  0  0  0
  -26.7650   -4.1970   -9.5720 C   0  0  0  0  0
  -26.6100   -2.7520   -9.0200 C   0  0  0  0  0
  -27.8380   -2.3620   -8.1560 C   0  0  0  0  0
  -28.2710   -3.4800   -7.1400 C   0  0  0  0  0
  -27.1060   -5.2210   -8.4360 C   0  0  0  0  0
  -29.5220   -5.5490   -7.8380 C   0  0  0  0  0
  -30.7420   -5.1500   -6.9530 C   0  0  0  0  0
  -32.1430   -5.7080   -7.4480 C   0  0  0  0  0
  -31.9070   -4.2190   -7.1850 C   0  0  0  0  0
  -21.8450   -2.2930  -13.0610 C   0  0  0  0  0
  -25.4408   -4.2655  -12.2412 H   0  0  0  0  0
  -26.0566    1.2520  -16.0468 H   0  0  0  0  0
  -26.8486   -2.3897  -12.9336 H   0  0  0  0  0
  -24.5426   -1.4678  -15.4622 H   0  0  0  0  0
  -27.2480    1.5352  -11.9145 H   0  0  0  0  0
  -24.6013    2.6604  -12.9745 H   0  0  0  0  0
  -26.9814    0.8978  -13.8412 H   0  0  0  0  0
  -23.9890    0.3169  -13.9620 H   0  0  0  0  0
  -25.4057   -0.5786  -12.0345 H   0  0  0  0  0
  -24.2794   -2.9172  -13.5540 H   0  0  0  0  0
  -27.0841    1.4220   -9.4185 H   0  0  0  0  0
  -25.3337    1.1508   -9.6019 H   0  0  0  0  0
  -25.9275    2.4279   -8.5121 H   0  0  0  0  0
  -23.9421    2.9227  -10.7837 H   0  0  0  0  0
  -24.7608    4.3337  -11.4977 H   0  0  0  0  0
  -24.6086    4.1933   -9.7291 H   0  0  0  0  0
  -27.1465    4.6618  -11.2922 H   0  0  0  0  0
  -28.1475    3.5105  -10.3737 H   0  0  0  0  0
  -26.9831    4.5547   -9.5222 H   0  0  0  0  0
  -24.6500   -4.1759   -9.3422 H   0  0  0  0  0
  -25.3094   -5.6013  -10.2320 H   0  0  0  0  0
  -27.5609   -4.2571  -10.3143 H   0  0  0  0  0
  -26.5346   -2.0600   -9.8588 H   0  0  0  0  0
  -25.7139   -2.7048   -8.4012 H   0  0  0  0  0
  -28.6749   -2.1936   -8.8337 H   0  0  0  0  0
  -27.5636   -1.4809   -7.5759 H   0  0  0  0  0
  -27.5194   -3.5540   -6.3541 H   0  0  0  0  0
  -29.2413   -3.2180   -6.7182 H   0  0  0  0  0
  -27.1973   -6.2281   -8.8429 H   0  0  0  0  0
  -26.3118   -5.2438   -7.6898 H   0  0  0  0  0
  -30.0390   -5.1576   -6.1201 H   0  0  0  0  0
  -32.8595   -6.4944   -7.2106 H   0  0  0  0  0
  -32.5568   -6.3654   -8.2127 H   0  0  0  0  0
  -32.0803   -3.2829   -7.7158 H   0  0  0  0  0
  -32.4070   -3.4222   -6.6344 H   0  0  0  0  0
  -21.7950   -2.8981  -12.1558 H   0  0  0  0  0
  -21.9677   -2.9427  -13.9276 H   0  0  0  0  0
  -20.9261   -1.7160  -13.1651 H   0  0  0  0  0
  1 19  1  0  0  0
 20  1  1  0  0  0
 12  2  1  0  0  0
  3 24  1  0  0  0
 25  3  1  0  0  0
  3 26  1  0  0  0
 14  4  1  0  0  0
 13  5  1  0  0  0
 19  6  2  0  0  0
 26  7  2  0  0  0
 15  8  1  0  0  0
  8 30  1  0  0  0
 10  9  1  0  0  0
  9 16  1  0  0  0
  9 17  1  0  0  0
  9 18  1  0  0  0
 11 10  2  0  0  0
 12 11  1  0  0  0
 13 12  1  0  0  0
 14 13  1  0  0  0
 15 14  1  0  0  0
 19 15  1  0  0  0
 21 20  1  0  0  0
 21 22  1  0  0  0
 21 25  1  0  0  0
 22 23  1  0  0  0
 23 24  1  0  0  0
 26 27  1  0  0  0
 27 28  1  0  0  0
 27 29  1  0  0  0
 28 29  1  0  0  0
  1 31  1  0  0  0
  2 32  1  0  0  0
  4 33  1  0  0  0
  5 34  1  0  0  0
 10 35  1  0  0  0
 11 36  1  0  0  0
 12 37  1  0  0  0
 13 38  1  0  0  0
 14 39  1  0  0  0
 15 40  1  0  0  0
 16 41  1  0  0  0
 16 42  1  0  0  0
 16 43  1  0  0  0
 17 44  1  0  0  0
 17 45  1  0  0  0
 17 46  1  0  0  0
 18 47  1  0  0  0
 18 48  1  0  0  0
 18 49  1  0  0  0
 20 50  1  0  0  0
 20 51  1  0  0  0
 21 52  1  0  0  0
 22 53  1  0  0  0
 22 54  1  0  0  0
 23 55  1  0  0  0
 23 56  1  0  0  0
 24 57  1  0  0  0
 24 58  1  0  0  0
 25 59  1  0  0  0
 25 60  1  0  0  0
 27 61  1  0  0  0
 28 62  1  0  0  0
 28 63  1  0  0  0
 29 64  1  0  0  0
 29 65  1  0  0  0
 30 66  1  0  0  0
 30 67  1  0  0  0
 30 68  1  0  0  0
M  END
$$$$
