### 
### Created by X-TOOL on Mon Sep 10 21:13:33 2018
### 

@<TRIPOS>MOLECULE
5vt4_ligand
   52    53     1     0     0
SMALL
GAST_HUCK


@<TRIPOS>ATOM
      1 C20       140.1580  145.6420 -342.8050 C.3       1 9KJ         0.0895
      2 C22       136.8870  148.5390 -346.3170 C.3       1 9KJ         0.1341
      3 C24       135.8760  147.4100 -346.5890 C.3       1 9KJ         0.1141
      4 C26       136.5790  146.1560 -347.1330 C.3       1 9KJ         0.1119
      5 O27       135.6500  145.0510 -347.1980 O.3       1 9KJ        -0.3865
      6 O01       139.7970  145.0160 -347.1840 O.3       1 9KJ        -0.3924
      7 C02       138.4920  144.5600 -346.8380 C.3       1 9KJ         0.0730
      8 C03       137.7800  145.7830 -346.2460 C.3       1 9KJ         0.1130
      9 O04       138.7270  146.8540 -346.0980 O.3       1 9KJ        -0.3405
     10 C05       138.1640  148.0760 -345.6080 C.3       1 9KJ         0.1886
     11 O06       137.8580  147.9310 -344.2250 O.3       1 9KJ        -0.3370
     12 C07       139.0950  147.8050 -343.5250 C.3       1 9KJ         0.1373
     13 C08       139.3990  149.0280 -342.6270 C.3       1 9KJ         0.1312
     14 O09       140.2440  149.9720 -343.2720 O.3       1 9KJ        -0.3833
     15 C10       140.1620  148.2940 -341.5280 C.3       1 9KJ         0.0337
     16 C11       140.5140  149.2380 -340.3730 C.3       1 9KJ         0.0895
     17 O12       141.8140  148.8620 -339.9150 O.3       1 9KJ        -0.3894
     18 N13       139.1890  147.2500 -341.1970 N.4       1 9KJ         0.2584
     19 C14       137.8820  147.8400 -340.8550 C.3       1 9KJ         0.0383
     20 P15       137.6700  147.9960 -338.9850 P.3       1 9KJ         0.1070
     21 O16       137.4100  149.4400 -338.5610 O.co2     1 9KJ        -0.5587
     22 O17       138.9280  147.5060 -338.3650 O.co2     1 9KJ        -0.5587
     23 O18       136.5240  147.1270 -338.5670 O.co2     1 9KJ        -0.5587
     24 C19       139.0240  146.6340 -342.5200 C.3       1 9KJ         0.0340
     25 O21       140.2750  144.8210 -341.6560 O.3       1 9KJ        -0.3894
     26 O23       136.2720  149.4840 -345.4270 O.3       1 9KJ        -0.3841
     27 O25       134.9340  147.8580 -347.5680 O.3       1 9KJ        -0.3864
     28 H1        141.0994  146.1824 -342.9829 H         1 9KJ         0.0614
     29 H2        139.9145  145.0298 -343.6858 H         1 9KJ         0.0614
     30 H3        137.1514  149.0193 -347.2706 H         1 9KJ         0.0671
     31 H4        135.3524  147.1587 -345.6549 H         1 9KJ         0.0648
     32 H5        136.9443  146.3705 -348.1482 H         1 9KJ         0.0647
     33 H6        136.0961  144.2831 -347.5353 H         1 9KJ         0.2100
     34 H7        139.7275  145.7202 -347.8180 H         1 9KJ         0.2095
     35 H8        138.5508  143.7512 -346.0948 H         1 9KJ         0.0584
     36 H9        137.9604  144.1995 -347.7310 H         1 9KJ         0.0584
     37 H10       137.3987  145.5234 -345.2474 H         1 9KJ         0.0647
     38 H11       138.9226  148.8633 -345.7288 H         1 9KJ         0.0938
     39 H12       139.9060  147.6508 -344.2520 H         1 9KJ         0.0683
     40 H13       138.4869  149.5224 -342.2615 H         1 9KJ         0.0679
     41 H14       140.4041  150.7034 -342.6873 H         1 9KJ         0.2102
     42 H15       141.0922  147.8497 -341.9118 H         1 9KJ         0.0901
     43 H16       139.7806  149.1319 -339.5600 H         1 9KJ         0.0614
     44 H17       140.5231  150.2802 -340.7249 H         1 9KJ         0.0614
     45 H18       141.7957  147.9592 -339.6200 H         1 9KJ         0.2097
     46 H19       139.5142  146.6163 -340.4838 H         1 9KJ         0.2058
     47 H20       137.0831  147.1977 -341.2541 H         1 9KJ         0.1014
     48 H21       137.8100  148.8395 -341.3086 H         1 9KJ         0.1014
     49 H22       138.0546  146.1186 -342.5880 H         1 9KJ         0.0901
     50 H23       140.4783  145.3613 -340.9015 H         1 9KJ         0.2097
     51 H24       136.0749  149.0577 -344.6012 H         1 9KJ         0.2101
     52 H25       134.4899  148.6340 -347.2467 H         1 9KJ         0.2100
@<TRIPOS>BOND
     1   24    1 1  
     2    1   25 1  
     3    2    3 1  
     4   10    2 1  
     5    2   26 1  
     6    3    4 1  
     7    3   27 1  
     8    4    5 1  
     9    8    4 1  
    10    7    6 1  
    11    8    7 1  
    12    9    8 1  
    13   10    9 1  
    14   11   10 1  
    15   12   11 1  
    16   12   13 1  
    17   12   24 1  
    18   13   14 1  
    19   13   15 1  
    20   15   16 1  
    21   15   18 1  
    22   16   17 1  
    23   18   19 1  
    24   18   24 1  
    25   19   20 1  
    26   20   21 ar 
    27   20   22 ar 
    28   20   23 ar 
    29    1   28 1  
    30    1   29 1  
    31    2   30 1  
    32    3   31 1  
    33    4   32 1  
    34    5   33 1  
    35    6   34 1  
    36    7   35 1  
    37    7   36 1  
    38    8   37 1  
    39   10   38 1  
    40   12   39 1  
    41   13   40 1  
    42   14   41 1  
    43   15   42 1  
    44   16   43 1  
    45   16   44 1  
    46   17   45 1  
    47   18   46 1  
    48   19   47 1  
    49   19   48 1  
    50   24   49 1  
    51   25   50 1  
    52   26   51 1  
    53   27   52 1  
@<TRIPOS>SUBSTRUCTURE
     1 9KJ         1

