5vt4_ligand
  -I-interpret- 

 54 55  0  0  0  0  0  0  0  0999 V2000
  140.1580  145.6420 -342.8050 C   0  0  0  0  0
  136.8870  148.5390 -346.3170 C   0  0  0  0  0
  135.8760  147.4100 -346.5890 C   0  0  0  0  0
  136.5790  146.1560 -347.1330 C   0  0  0  0  0
  135.6500  145.0510 -347.1980 O   0  0  0  0  0
  139.7970  145.0160 -347.1840 O   0  0  0  0  0
  138.4920  144.5600 -346.8380 C   0  0  0  0  0
  137.7800  145.7830 -346.2460 C   0  0  0  0  0
  138.7270  146.8540 -346.0980 O   0  0  0  0  0
  138.1640  148.0760 -345.6080 C   0  0  0  0  0
  137.8580  147.9310 -344.2250 O   0  0  0  0  0
  139.0950  147.8050 -343.5250 C   0  0  0  0  0
  139.3990  149.0280 -342.6270 C   0  0  0  0  0
  140.2440  149.9720 -343.2720 O   0  0  0  0  0
  140.1620  148.2940 -341.5280 C   0  0  0  0  0
  140.5140  149.2380 -340.3730 C   0  0  0  0  0
  141.8140  148.8620 -339.9150 O   0  0  0  0  0
  139.1890  147.2500 -341.1970 N   0  3  0  0  0
  137.8820  147.8400 -340.8550 C   0  0  0  0  0
  137.6700  147.9960 -338.9850 P   0  0  0  0  0
  137.4100  149.4400 -338.5610 O   0  0  0  0  0
  138.9280  147.5060 -338.3650 O   0  0  0  0  0
  136.5240  147.1270 -338.5670 O   0  0  0  0  0
  139.0240  146.6340 -342.5200 C   0  0  0  0  0
  140.2750  144.8210 -341.6560 O   0  0  0  0  0
  136.2720  149.4840 -345.4270 O   0  0  0  0  0
  134.9340  147.8580 -347.5680 O   0  0  0  0  0
  141.0924  146.1658 -343.0063 H   0  0  0  0  0
  139.9397  145.0445 -343.6901 H   0  0  0  0  0
  137.1575  148.9453 -347.2916 H   0  0  0  0  0
  135.3803  147.1590 -345.6513 H   0  0  0  0  0
  136.9419  146.3730 -348.1376 H   0  0  0  0  0
  134.9050  145.2930 -347.7530 H   0  0  0  0  0
  140.2981  144.2905 -347.5636 H   0  0  0  0  0
  138.5307  143.7349 -346.1268 H   0  0  0  0  0
  137.9611  144.1673 -347.7052 H   0  0  0  0  0
  137.3846  145.5634 -345.2543 H   0  0  0  0  0
  138.9238  148.8334 -345.8010 H   0  0  0  0  0
  139.8479  147.6783 -344.3030 H   0  0  0  0  0
  138.5317  149.6146 -342.3239 H   0  0  0  0  0
  140.4058  150.7111 -342.6811 H   0  0  0  0  0
  141.1384  147.8925 -341.7990 H   0  0  0  0  0
  139.7816  149.1578 -339.5697 H   0  0  0  0  0
  140.5049  150.2764 -340.7043 H   0  0  0  0  0
  142.0731  149.4323 -339.1876 H   0  0  0  0  0
  139.4783  146.6508 -340.4239 H   0  0  0  0  0
  137.0960  147.1909 -341.2409 H   0  0  0  0  0
  137.8240  148.8353 -341.2956 H   0  0  0  0  0
  136.5961  149.7494 -338.9653 H   0  0  0  0  0
  135.7152  147.4496 -338.9712 H   0  0  0  0  0
  138.0874  146.0806 -342.5871 H   0  0  0  0  0
  140.9777  144.1812 -341.7915 H   0  0  0  0  0
  135.4602  149.8115 -345.8211 H   0  0  0  0  0
  134.4853  148.6421 -347.2434 H   0  0  0  0  0
 24  1  1  0  0  0
  1 25  1  0  0  0
  2  3  1  0  0  0
 10  2  1  0  0  0
  2 26  1  0  0  0
  3  4  1  0  0  0
  3 27  1  0  0  0
  4  5  1  0  0  0
  8  4  1  0  0  0
  7  6  1  0  0  0
  8  7  1  0  0  0
  9  8  1  0  0  0
 10  9  1  0  0  0
 11 10  1  0  0  0
 12 11  1  0  0  0
 12 13  1  0  0  0
 12 24  1  0  0  0
 13 14  1  0  0  0
 13 15  1  0  0  0
 15 16  1  0  0  0
 15 18  1  0  0  0
 16 17  1  0  0  0
 18 19  1  0  0  0
 18 24  1  0  0  0
 19 20  1  0  0  0
 20 21  1  0  0  0
 20 22  2  0  0  0
 20 23  1  0  0  0
  1 28  1  0  0  0
  1 29  1  0  0  0
  2 30  1  0  0  0
  3 31  1  0  0  0
  4 32  1  0  0  0
  5 33  1  0  0  0
  6 34  1  0  0  0
  7 35  1  0  0  0
  7 36  1  0  0  0
  8 37  1  0  0  0
 10 38  1  0  0  0
 12 39  1  0  0  0
 13 40  1  0  0  0
 14 41  1  0  0  0
 15 42  1  0  0  0
 16 43  1  0  0  0
 16 44  1  0  0  0
 17 45  1  0  0  0
 18 46  1  0  0  0
 19 47  1  0  0  0
 19 48  1  0  0  0
 21 49  1  0  0  0
 23 50  1  0  0  0
 24 51  1  0  0  0
 25 52  1  0  0  0
 26 53  1  0  0  0
 27 54  1  0  0  0
M  END
$$$$
