5kbg_ligand
  -I-interpret- 

 16 16  0  0  0  0  0  0  0  0999 V2000
   31.2840    2.8200  -13.0680 C   0  0  0  0  0
   31.2030    3.1950  -14.3990 C   0  0  0  0  0
   29.9750    3.1970  -15.0380 C   0  0  0  0  0
   28.8000    2.8310  -14.3770 C   0  0  0  0  0
   28.8410    2.4630  -13.0470 C   0  0  0  0  0
   30.1420    2.4720  -12.4010 C   0  0  0  0  0
   30.2140    2.0600  -10.9790 C   0  0  0  0  0
   27.7240    2.0980  -12.3540 O   0  0  0  0  0
   32.2472    2.8025  -12.5580 H   0  0  0  0  0
   32.1024    3.4873  -14.9409 H   0  0  0  0  0
   29.9235    3.4923  -16.0860 H   0  0  0  0  0
   27.8502    2.8360  -14.9117 H   0  0  0  0  0
   30.8525    1.1812  -10.8886 H   0  0  0  0  0
   30.6295    2.8751  -10.3865 H   0  0  0  0  0
   29.2128    1.8218  -10.6199 H   0  0  0  0  0
   27.9659    1.8807  -11.4508 H   0  0  0  0  0
  1  2  4  0  0  0
  1  6  4  0  0  0
  2  3  4  0  0  0
  3  4  4  0  0  0
  4  5  4  0  0  0
  5  6  4  0  0  0
  5  8  1  0  0  0
  6  7  1  0  0  0
  1  9  1  0  0  0
  2 10  1  0  0  0
  3 11  1  0  0  0
  4 12  1  0  0  0
  7 13  1  0  0  0
  7 14  1  0  0  0
  7 15  1  0  0  0
  8 16  1  0  0  0
M  END
$$$$
