### 
### Created by X-TOOL on Mon Sep 10 21:13:15 2018
### 

@<TRIPOS>MOLECULE
4k3r_ligand
   87    86     1     0     0
SMALL
GAST_HUCK


@<TRIPOS>ATOM
      1 C          -3.3730   -7.7300  -13.0670 C.3       1 ACE         0.0796
      2 O          -2.7160   -7.3990  -14.0580 O.3       1 ACE        -0.3533
      3 CH3        -4.3610   -8.8640  -13.2880 C.3       1 ACE         0.0048
      4 N          -2.6830   -7.8930  -11.9120 N.4       1 GLN         0.2677
      5 CA         -1.4580   -7.0870  -11.5690 C.3       1 GLN         0.0714
      6 C          -0.3240   -7.4470  -12.5150 C.2       1 GLN         0.2270
      7 O          -0.0070   -8.6230  -12.6740 O.2       1 GLN        -0.3907
      8 CB         -1.0180   -7.3660  -10.1260 C.3       1 GLN         0.0249
      9 CG          0.2280   -6.6080   -9.6730 C.3       1 GLN         0.0443
     10 CD          0.0400   -5.1030   -9.7170 C.2       1 GLN         0.1738
     11 OE1        -0.8720   -4.5660   -9.0780 O.2       1 GLN        -0.3973
     12 NE2         0.8980   -4.4110  -10.4650 N.am      1 GLN        -0.3009
     13 N           0.2790   -6.4450  -13.1450 N.am      1 LEU        -0.2610
     14 CA          1.4640   -6.6830  -13.9640 C.3       1 LEU         0.1313
     15 C           2.7050   -6.5530  -13.0990 C.2       1 LEU         0.2040
     16 O           2.7230   -5.7910  -12.1270 O.2       1 LEU        -0.3944
     17 CB          1.5310   -5.7150  -15.1460 C.3       1 LEU        -0.0101
     18 CG          0.4020   -5.8740  -16.1750 C.3       1 LEU        -0.0425
     19 CD1         0.3830   -4.7100  -17.1490 C.3       1 LEU        -0.0625
     20 CD2         0.5160   -7.1990  -16.9160 C.3       1 LEU        -0.0625
     21 N           3.7390   -7.3120  -13.4500 N.am      1 ASP        -0.2622
     22 CA          5.0310   -7.1760  -12.8020 C.3       1 ASP         0.1423
     23 C           5.6200   -5.8570  -13.2380 C.2       1 ASP         0.2056
     24 O           5.4820   -5.4580  -14.3950 O.2       1 ASP        -0.3943
     25 CB          5.9730   -8.3230  -13.1820 C.3       1 ASP         0.0406
     26 CG          5.5490   -9.6460  -12.5840 C.2       1 ASP         0.0393
     27 OD1         4.9270   -9.6450  -11.4990 O.co2     1 ASP        -0.5688
     28 OD2         5.8450  -10.6920  -13.1940 O.co2     1 ASP        -0.5688
     29 N           6.2690   -5.1830  -12.2980 N.am      1 LEU        -0.2636
     30 CA          6.9060   -3.9050  -12.5590 C.3       1 LEU         0.1312
     31 C           8.0790   -4.0990  -13.5200 C.2       1 LEU         0.2033
     32 O           9.0000   -4.8780  -13.2470 O.2       1 LEU        -0.3944
     33 CB          7.3770   -3.2930  -11.2390 C.3       1 LEU        -0.0101
     34 CG          7.9370   -1.8740  -11.2240 C.3       1 LEU        -0.0425
     35 CD1         7.0230   -0.8920  -11.9350 C.3       1 LEU        -0.0625
     36 CD2         8.1660   -1.4640   -9.7790 C.3       1 LEU        -0.0625
     37 N           8.0170   -3.4090  -14.6550 N.am      1 ALA        -0.2698
     38 CA          9.0390   -3.5280  -15.6930 C.3       1 ALA         0.0916
     39 C           8.9180   -2.3890  -16.6950 C.2       1 ALA         0.0598
     40 O           7.8520   -1.7910  -16.8550 O.co2     1 ALA        -0.5666
     41 CB          8.9160   -4.8660  -16.4040 C.3       1 ALA        -0.0300
     42 OXT         9.8850   -2.0430  -17.3700 O.co2     1 ALA        -0.5666
     43 H1         -4.0067   -6.8510  -12.8782 H         1 ACE         0.1181
     44 H2         -3.2950   -7.3136  -14.8063 H         1 ACE         0.2154
     45 H3         -4.8902   -9.0777  -12.3476 H         1 ACE         0.0310
     46 H4         -3.8195   -9.7633  -13.6165 H         1 ACE         0.0310
     47 H5         -5.0883   -8.5715  -14.0596 H         1 ACE         0.0310
     48 H6         -2.3942   -8.8586  -11.8947 H         1 GLN         0.2063
     49 H7         -3.3426   -7.7262  -11.1683 H         1 GLN         0.2063
     50 H8         -1.6922   -6.0174  -11.6737 H         1 GLN         0.1101
     51 H9         -0.8145   -8.4430  -10.0335 H         1 GLN         0.0370
     52 H10        -1.8468   -7.0906   -9.4573 H         1 GLN         0.0370
     53 H11         1.0651   -6.8784  -10.3334 H         1 GLN         0.0506
     54 H12         0.4651   -6.9039   -8.6404 H         1 GLN         0.0506
     55 H13         0.8173   -3.4162  -10.5277 H         1 GLN         0.1814
     56 H14         1.6228   -4.8863  -10.9638 H         1 GLN         0.1814
     57 H15        -0.0829   -5.5169  -13.0573 H         1 LEU         0.1884
     58 H16         1.4153   -7.7081  -14.3599 H         1 LEU         0.0800
     59 H17         2.4893   -5.8721  -15.6628 H         1 LEU         0.0315
     60 H18         1.4914   -4.6893  -14.7507 H         1 LEU         0.0315
     61 H19        -0.5532   -5.8736  -15.6295 H         1 LEU         0.0298
     62 H20        -0.4337   -4.8505  -17.8724 H         1 LEU         0.0232
     63 H21         1.3429   -4.6640  -17.6842 H         1 LEU         0.0232
     64 H22         0.2259   -3.7720  -16.5964 H         1 LEU         0.0232
     65 H23         0.5278   -8.0253  -16.1900 H         1 LEU         0.0232
     66 H24         1.4468   -7.2125  -17.5020 H         1 LEU         0.0232
     67 H25        -0.3442   -7.3166  -17.5914 H         1 LEU         0.0232
     68 H26         3.6242   -7.9906  -14.1755 H         1 ASP         0.1884
     69 H27         4.8931   -7.1765  -11.7107 H         1 ASP         0.0819
     70 H28         6.9844   -8.0820  -12.8228 H         1 ASP         0.0478
     71 H29         5.9863   -8.4197  -14.2776 H         1 ASP         0.0478
     72 H30         6.3214   -5.5689  -11.3769 H         1 LEU         0.1883
     73 H31         6.1752   -3.2272  -13.0243 H         1 LEU         0.0800
     74 H32         8.1649   -3.9516  -10.8446 H         1 LEU         0.0315
     75 H33         6.5146   -3.3033  -10.5563 H         1 LEU         0.0315
     76 H34         8.9047   -1.8755  -11.7469 H         1 LEU         0.0298
     77 H35         7.4665    0.1140  -11.8986 H         1 LEU         0.0232
     78 H36         6.0418   -0.8783  -11.4379 H         1 LEU         0.0232
     79 H37         6.8986   -1.2001  -12.9836 H         1 LEU         0.0232
     80 H38         8.8303   -2.1930   -9.2919 H         1 LEU         0.0232
     81 H39         7.2025   -1.4346   -9.2491 H         1 LEU         0.0232
     82 H40         8.6311   -0.4676   -9.7498 H         1 LEU         0.0232
     83 H41         7.2466   -2.7889  -14.8031 H         1 ALA         0.1875
     84 H42        10.0292   -3.4727  -15.2172 H         1 ALA         0.0723
     85 H43         9.6907   -4.9407  -17.1813 H         1 ALA         0.0270
     86 H44         7.9219   -4.9445  -16.8684 H         1 ALA         0.0270
     87 H45         9.0464   -5.6810  -15.6769 H         1 ALA         0.0270
@<TRIPOS>BOND
     1    1    2 1  
     2    1    3 1  
     3    1    4 1  
     4    4    5 1  
     5    5    6 1  
     6    5    8 1  
     7    6    7 2  
     8    6   13 am 
     9    8    9 1  
    10    9   10 1  
    11   10   11 2  
    12   10   12 am 
    13   13   14 1  
    14   14   15 1  
    15   14   17 1  
    16   15   16 2  
    17   15   21 am 
    18   17   18 1  
    19   18   19 1  
    20   18   20 1  
    21   21   22 1  
    22   22   23 1  
    23   22   25 1  
    24   23   24 2  
    25   23   29 am 
    26   25   26 1  
    27   26   27 ar 
    28   26   28 ar 
    29   29   30 1  
    30   30   31 1  
    31   30   33 1  
    32   31   32 2  
    33   31   37 am 
    34   33   34 1  
    35   34   35 1  
    36   34   36 1  
    37   37   38 1  
    38   38   39 1  
    39   38   41 1  
    40   39   40 ar 
    41   39   42 ar 
    42    1   43 1  
    43    2   44 1  
    44    3   45 1  
    45    3   46 1  
    46    3   47 1  
    47    4   48 1  
    48    4   49 1  
    49    5   50 1  
    50    8   51 1  
    51    8   52 1  
    52    9   53 1  
    53    9   54 1  
    54   12   55 1  
    55   12   56 1  
    56   13   57 1  
    57   14   58 1  
    58   17   59 1  
    59   17   60 1  
    60   18   61 1  
    61   19   62 1  
    62   19   63 1  
    63   19   64 1  
    64   20   65 1  
    65   20   66 1  
    66   20   67 1  
    67   21   68 1  
    68   22   69 1  
    69   25   70 1  
    70   25   71 1  
    71   29   72 1  
    72   30   73 1  
    73   33   74 1  
    74   33   75 1  
    75   34   76 1  
    76   35   77 1  
    77   35   78 1  
    78   35   79 1  
    79   36   80 1  
    80   36   81 1  
    81   36   82 1  
    82   37   83 1  
    83   38   84 1  
    84   41   85 1  
    85   41   86 1  
    86   41   87 1  
@<TRIPOS>SUBSTRUCTURE
     1 ACE         1

