4k3r_ligand
  -I-interpret- 

 89 88  0  0  0  0  0  0  0  0999 V2000
   -3.3730   -7.7300  -13.0670 C   0  0  0  0  0
   -2.7160   -7.3990  -14.0580 O   0  0  0  0  0
   -4.3610   -8.8640  -13.2880 C   0  0  0  0  0
   -2.6830   -7.8930  -11.9120 N   0  3  0  0  0
   -1.4580   -7.0870  -11.5690 C   0  0  0  0  0
   -0.3240   -7.4470  -12.5150 C   0  0  0  0  0
   -0.0070   -8.6230  -12.6740 O   0  0  0  0  0
   -1.0180   -7.3660  -10.1260 C   0  0  0  0  0
    0.2280   -6.6080   -9.6730 C   0  0  0  0  0
    0.0400   -5.1030   -9.7170 C   0  0  0  0  0
   -0.8720   -4.5660   -9.0780 O   0  0  0  0  0
    0.8980   -4.4110  -10.4650 N   0  0  0  0  0
    0.2790   -6.4450  -13.1450 N   0  0  0  0  0
    1.4640   -6.6830  -13.9640 C   0  0  0  0  0
    2.7050   -6.5530  -13.0990 C   0  0  0  0  0
    2.7230   -5.7910  -12.1270 O   0  0  0  0  0
    1.5310   -5.7150  -15.1460 C   0  0  0  0  0
    0.4020   -5.8740  -16.1750 C   0  0  0  0  0
    0.3830   -4.7100  -17.1490 C   0  0  0  0  0
    0.5160   -7.1990  -16.9160 C   0  0  0  0  0
    3.7390   -7.3120  -13.4500 N   0  0  0  0  0
    5.0310   -7.1760  -12.8020 C   0  0  0  0  0
    5.6200   -5.8570  -13.2380 C   0  0  0  0  0
    5.4820   -5.4580  -14.3950 O   0  0  0  0  0
    5.9730   -8.3230  -13.1820 C   0  0  0  0  0
    5.5490   -9.6460  -12.5840 C   0  0  0  0  0
    4.9270   -9.6450  -11.4990 O   0  0  0  0  0
    5.8450  -10.6920  -13.1940 O   0  0  0  0  0
    6.2690   -5.1830  -12.2980 N   0  0  0  0  0
    6.9060   -3.9050  -12.5590 C   0  0  0  0  0
    8.0790   -4.0990  -13.5200 C   0  0  0  0  0
    9.0000   -4.8780  -13.2470 O   0  0  0  0  0
    7.3770   -3.2930  -11.2390 C   0  0  0  0  0
    7.9370   -1.8740  -11.2240 C   0  0  0  0  0
    7.0230   -0.8920  -11.9350 C   0  0  0  0  0
    8.1660   -1.4640   -9.7790 C   0  0  0  0  0
    8.0170   -3.4090  -14.6550 N   0  0  0  0  0
    9.0390   -3.5280  -15.6930 C   0  0  0  0  0
    8.9180   -2.3890  -16.6950 C   0  0  0  0  0
    7.8520   -1.7910  -16.8550 O   0  0  0  0  0
    8.9160   -4.8660  -16.4040 C   0  0  0  0  0
    9.8850   -2.0430  -17.3700 O   0  0  0  0  0
   -3.9647   -6.8262  -12.9218 H   0  0  0  0  0
   -3.3011   -7.3127  -14.8142 H   0  0  0  0  0
   -3.8215   -9.8098  -13.3373 H   0  0  0  0  0
   -5.0709   -8.8919  -12.4614 H   0  0  0  0  0
   -4.8965   -8.7005  -14.2232 H   0  0  0  0  0
   -2.3218   -8.8438  -11.9890 H   0  0  0  0  0
   -3.3546   -7.6108  -11.1980 H   0  0  0  0  0
   -1.7013   -6.0292  -11.6693 H   0  0  0  0  0
   -0.7781   -8.4278  -10.0700 H   0  0  0  0  0
   -1.8346   -7.0434   -9.4801 H   0  0  0  0  0
    1.0429   -6.8652  -10.3497 H   0  0  0  0  0
    0.4375   -6.8909   -8.6414 H   0  0  0  0  0
    0.8172   -3.3961  -10.5270 H   0  0  0  0  0
    1.6358   -4.8960  -10.9757 H   0  0  0  0  0
   -0.0901   -5.4983  -13.0555 H   0  0  0  0  0
    1.4073   -7.6916  -14.3733 H   0  0  0  0  0
    2.4658   -5.9184  -15.6685 H   0  0  0  0  0
    1.4453   -4.7088  -14.7357 H   0  0  0  0  0
   -0.5430   -5.8741  -15.6318 H   0  0  0  0  0
    0.2273   -3.7812  -16.6002 H   0  0  0  0  0
    1.3347   -4.6655  -17.6786 H   0  0  0  0  0
   -0.4266   -4.8504  -17.8652 H   0  0  0  0  0
    1.4719   -7.2408  -17.4381 H   0  0  0  0  0
    0.4546   -8.0199  -16.2015 H   0  0  0  0  0
   -0.2972   -7.2817  -17.6371 H   0  0  0  0  0
    3.6219   -8.0042  -14.1900 H   0  0  0  0  0
    4.9042   -7.2110  -11.7200 H   0  0  0  0  0
    6.9647   -8.0838  -12.7982 H   0  0  0  0  0
    5.9570   -8.4248  -14.2671 H   0  0  0  0  0
    4.8037   -8.7401  -11.2029 H   0  0  0  0  0
    6.3224   -5.5766  -11.3585 H   0  0  0  0  0
    6.1925   -3.2244  -13.0235 H   0  0  0  0  0
    8.2102   -3.9218  -10.9251 H   0  0  0  0  0
    6.4794   -3.2419  -10.6228 H   0  0  0  0  0
    8.8806   -1.8584  -11.7693 H   0  0  0  0  0
    6.9005   -1.1984  -12.9738 H   0  0  0  0  0
    6.0512   -0.8794  -11.4415 H   0  0  0  0  0
    7.4635    0.1044  -11.8983 H   0  0  0  0  0
    7.2199   -1.4979   -9.2388 H   0  0  0  0  0
    8.8750   -2.1503   -9.3160 H   0  0  0  0  0
    8.5667   -0.4508   -9.7493 H   0  0  0  0  0
    7.2312   -2.7765  -14.8060 H   0  0  0  0  0
   10.0188   -3.4707  -15.2189 H   0  0  0  0  0
    7.1877   -2.1611  -16.2691 H   0  0  0  0  0
    9.0453   -5.6727  -15.6824 H   0  0  0  0  0
    7.9306   -4.9425  -16.8637 H   0  0  0  0  0
    9.6841   -4.9388  -17.1739 H   0  0  0  0  0
  1  2  1  0  0  0
  1  3  1  0  0  0
  1  4  1  0  0  0
  4  5  1  0  0  0
  5  6  1  0  0  0
  5  8  1  0  0  0
  6  7  2  0  0  0
  6 13  1  0  0  0
  8  9  1  0  0  0
  9 10  1  0  0  0
 10 11  2  0  0  0
 10 12  1  0  0  0
 13 14  1  0  0  0
 14 15  1  0  0  0
 14 17  1  0  0  0
 15 16  2  0  0  0
 15 21  1  0  0  0
 17 18  1  0  0  0
 18 19  1  0  0  0
 18 20  1  0  0  0
 21 22  1  0  0  0
 22 23  1  0  0  0
 22 25  1  0  0  0
 23 24  2  0  0  0
 23 29  1  0  0  0
 25 26  1  0  0  0
 26 27  1  0  0  0
 26 28  2  0  0  0
 29 30  1  0  0  0
 30 31  1  0  0  0
 30 33  1  0  0  0
 31 32  2  0  0  0
 31 37  1  0  0  0
 33 34  1  0  0  0
 34 35  1  0  0  0
 34 36  1  0  0  0
 37 38  1  0  0  0
 38 39  1  0  0  0
 38 41  1  0  0  0
 39 40  1  0  0  0
 39 42  2  0  0  0
  1 43  1  0  0  0
  2 44  1  0  0  0
  3 45  1  0  0  0
  3 46  1  0  0  0
  3 47  1  0  0  0
  4 48  1  0  0  0
  4 49  1  0  0  0
  5 50  1  0  0  0
  8 51  1  0  0  0
  8 52  1  0  0  0
  9 53  1  0  0  0
  9 54  1  0  0  0
 12 55  1  0  0  0
 12 56  1  0  0  0
 13 57  1  0  0  0
 14 58  1  0  0  0
 17 59  1  0  0  0
 17 60  1  0  0  0
 18 61  1  0  0  0
 19 62  1  0  0  0
 19 63  1  0  0  0
 19 64  1  0  0  0
 20 65  1  0  0  0
 20 66  1  0  0  0
 20 67  1  0  0  0
 21 68  1  0  0  0
 22 69  1  0  0  0
 25 70  1  0  0  0
 25 71  1  0  0  0
 27 72  1  0  0  0
 29 73  1  0  0  0
 30 74  1  0  0  0
 33 75  1  0  0  0
 33 76  1  0  0  0
 34 77  1  0  0  0
 35 78  1  0  0  0
 35 79  1  0  0  0
 35 80  1  0  0  0
 36 81  1  0  0  0
 36 82  1  0  0  0
 36 83  1  0  0  0
 37 84  1  0  0  0
 38 85  1  0  0  0
 40 86  1  0  0  0
 41 87  1  0  0  0
 41 88  1  0  0  0
 41 89  1  0  0  0
M  END
$$$$
