4yti_ligand
  -I-interpret- 

 46 48  0  0  0  0  0  0  0  0999 V2000
   13.9890   14.2990    5.1700 C   0  0  0  0  0
   15.3830   14.8910    5.4370 C   0  0  0  0  0
   15.4120   15.6390    6.7570 C   0  0  0  0  0
   15.7810   15.8880    4.3290 C   0  0  0  0  0
   16.8130   14.9170    2.2730 C   0  0  0  0  0
   15.7960   14.9090    1.1740 C   0  0  0  0  0
   16.5740   12.5180    4.9190 C   0  0  0  0  0
   17.8310   11.9080    5.1510 C   0  0  0  0  0
   18.0020   10.5950    4.7410 C   0  0  0  0  0
   15.7680   10.6110    3.9770 C   0  0  0  0  0
   14.6580    9.9230    3.3070 C   0  0  0  0  0
   14.7380    8.6070    2.9250 C   0  0  0  0  0
   12.7680    9.3290    2.1200 C   0  0  0  0  0
   16.2710   14.4300    0.1120 F   0  0  0  0  0
   15.3600   16.0570    0.8780 F   0  0  0  0  0
   14.7790   14.2390    1.4520 F   0  0  0  0  0
   16.8350   15.4880    3.6210 N   0  0  0  0  0
   15.1250   16.9110    4.1010 O   0  0  0  0  0
   13.0960   15.0560    4.1890 C   0  0  0  0  0
   16.3590   13.7910    5.4750 N   0  0  0  0  0
   15.5510   11.8890    4.3170 N   0  0  0  0  0
   17.0500    9.8600    4.1680 N   0  0  0  0  0
   13.3350   10.3990    2.8280 C   0  0  0  0  0
   12.6670   11.6200    2.7450 C   0  0  0  0  0
   11.5190   11.7300    1.9600 C   0  0  0  0  0
   11.0600   10.6240    1.2850 C   0  0  0  0  0
   11.6470    9.4060    1.3500 N   0  0  0  0  0
   13.6000    8.2440    2.2170 N   0  0  0  0  0
   13.4670   14.3190    6.1267 H   0  0  0  0  0
   14.1602   13.3192    4.7242 H   0  0  0  0  0
   15.1578   14.9548    7.5665 H   0  0  0  0  0
   16.4105   16.0439    6.9218 H   0  0  0  0  0
   14.6884   16.4537    6.7275 H   0  0  0  0  0
   17.5632   15.5550    1.8058 H   0  0  0  0  0
   16.7868   13.8597    2.5366 H   0  0  0  0  0
   18.6392   12.4544    5.6371 H   0  0  0  0  0
   18.9775   10.1345    4.8974 H   0  0  0  0  0
   15.5739    7.9431    3.1455 H   0  0  0  0  0
   17.7493   15.5895    4.0617 H   0  0  0  0  0
   12.9221   16.0652    4.5623 H   0  0  0  0  0
   13.5870   15.1063    3.2172 H   0  0  0  0  0
   12.1438   14.5348    4.0899 H   0  0  0  0  0
   17.1242   14.0276    6.1066 H   0  0  0  0  0
   13.0405   12.4858    3.2917 H   0  0  0  0  0
   10.9925   12.6813    1.8829 H   0  0  0  0  0
   10.1726   10.7341    0.6617 H   0  0  0  0  0
  2  1  1  0  0  0
  1 19  1  0  0  0
  2  3  1  0  0  0
  2  4  1  0  0  0
 20  2  1  0  0  0
  4 17  1  0  0  0
  4 18  2  0  0  0
  5  6  1  0  0  0
 17  5  1  0  0  0
  6 14  1  0  0  0
  6 15  1  0  0  0
  6 16  1  0  0  0
  7  8  4  0  0  0
  7 20  1  0  0  0
 21  7  4  0  0  0
  8  9  4  0  0  0
  9 22  4  0  0  0
 10 11  1  0  0  0
 10 21  4  0  0  0
 10 22  4  0  0  0
 11 12  4  0  0  0
 11 23  4  0  0  0
 12 28  4  0  0  0
 23 13  4  0  0  0
 13 27  4  0  0  0
 13 28  4  0  0  0
 23 24  4  0  0  0
 24 25  4  0  0  0
 25 26  4  0  0  0
 26 27  4  0  0  0
  1 29  1  0  0  0
  1 30  1  0  0  0
  3 31  1  0  0  0
  3 32  1  0  0  0
  3 33  1  0  0  0
  5 34  1  0  0  0
  5 35  1  0  0  0
  8 36  1  0  0  0
  9 37  1  0  0  0
 12 38  1  0  0  0
 17 39  1  0  0  0
 19 40  1  0  0  0
 19 41  1  0  0  0
 19 42  1  0  0  0
 20 43  1  0  0  0
 24 44  1  0  0  0
 25 45  1  0  0  0
 26 46  1  0  0  0
M  END
$$$$
