5qaw_ligand
  -I-interpret- 

 31 33  0  0  0  0  0  0  0  0999 V2000
   95.8410  255.0940    5.1120 C   0  0  0  0  0
   97.0650  255.2870    5.3070 O   0  0  0  0  0
   95.3150  253.6890    5.2770 C   0  0  0  0  0
  101.3610  248.7850    5.5210 C   0  0  0  0  0
  100.9930  247.5650    4.9810 C   0  0  0  0  0
   99.6780  247.2710    4.7630 C   0  0  0  0  0
   98.6640  248.2100    5.0710 C   0  0  0  0  0
   97.2920  247.9700    4.8270 C   0  0  0  0  0
   96.3600  248.9340    5.0640 C   0  0  0  0  0
   96.1980  252.6350    5.4890 C   0  0  0  0  0
   93.9570  253.4260    5.1620 C   0  0  0  0  0
   93.4890  252.1280    5.2540 C   0  0  0  0  0
   94.3740  251.0810    5.4450 C   0  0  0  0  0
   95.7450  251.3160    5.5410 C   0  0  0  0  0
   96.7170  250.1960    5.5410 C   0  0  0  0  0
   98.0430  250.4320    5.8460 C   0  0  0  0  0
   99.0430  249.4620    5.6080 C   0  0  0  0  0
  100.4160  249.7180    5.8350 C   0  0  0  0  0
   95.0260  255.9850    4.7750 O   0  0  0  0  0
   97.4828  254.4591    5.5552 H   0  0  0  0  0
  102.4145  249.0024    5.6970 H   0  0  0  0  0
  101.7597  246.8328    4.7277 H   0  0  0  0  0
   99.4051  246.3013    4.3466 H   0  0  0  0  0
   96.9760  246.9997    4.4438 H   0  0  0  0  0
   95.3089  248.7145    4.8765 H   0  0  0  0  0
   97.2604  252.8427    5.6165 H   0  0  0  0  0
   93.2570  254.2454    4.9986 H   0  0  0  0  0
   92.4202  251.9288    5.1759 H   0  0  0  0  0
   93.9951  250.0618    5.5212 H   0  0  0  0  0
   98.3255  251.3905    6.2813 H   0  0  0  0  0
  100.7223  250.6713    6.2656 H   0  0  0  0  0
  1  2  1  0  0  0
  3  1  1  0  0  0
  1 19  2  0  0  0
 10  3  4  0  0  0
  3 11  4  0  0  0
  5  4  4  0  0  0
  4 18  4  0  0  0
  6  5  4  0  0  0
  7  6  4  0  0  0
  8  7  4  0  0  0
  7 17  4  0  0  0
  9  8  4  0  0  0
 15  9  4  0  0  0
 14 10  4  0  0  0
 12 11  4  0  0  0
 13 12  4  0  0  0
 14 13  4  0  0  0
 14 15  1  0  0  0
 15 16  4  0  0  0
 16 17  4  0  0  0
 17 18  4  0  0  0
  2 20  1  0  0  0
  4 21  1  0  0  0
  5 22  1  0  0  0
  6 23  1  0  0  0
  8 24  1  0  0  0
  9 25  1  0  0  0
 10 26  1  0  0  0
 11 27  1  0  0  0
 12 28  1  0  0  0
 13 29  1  0  0  0
 16 30  1  0  0  0
 18 31  1  0  0  0
M  END
$$$$
