3iae_ligand
  -I-interpret- 

 83 85  0  0  0  0  0  0  0  0999 V2000
   -2.9350  -50.0030  -29.7900 P   0  0  0  0  0
   -3.4690  -50.3920  -31.2990 O   0  0  0  0  0
   -2.1510  -51.1960  -29.3770 O   0  0  0  0  0
   -6.5320  -49.3790  -28.0370 O   0  0  0  0  0
   -5.2280  -48.6220  -28.7190 P   0  0  0  0  0
   -5.3710  -48.1810  -30.3110 O   0  0  0  0  0
   -4.7880  -47.4280  -27.9440 O   0  0  0  0  0
   -4.0870  -49.8160  -28.6440 O   0  0  0  0  0
   -2.1400  -48.5730  -29.8520 O   0  0  0  0  0
   -1.3480  -48.1590  -28.7760 C   0  0  0  0  0
   -1.0560  -46.6940  -29.0850 C   0  0  0  0  0
    0.0210  -46.0960  -28.1720 C   0  0  0  0  0
    1.5350  -45.9340  -28.5530 C   0  0  0  0  0
    2.1690  -46.3630  -29.8810 C   0  0  0  0  0
   -0.2430  -45.5120  -26.6440 S   0  0  0  0  0
    1.4000  -45.0210  -26.2400 C   0  0  0  0  0
    2.3460  -45.2760  -27.4010 N   0  3  0  0  0
    3.7810  -45.0010  -27.4720 C   0  0  0  0  0
    4.6090  -46.2880  -27.4480 C   0  0  0  0  0
    5.5100  -46.6180  -28.5840 C   0  0  0  0  0
    4.5560  -47.1930  -26.2470 C   0  0  0  0  0
    3.7200  -46.9170  -25.1240 N   0  3  0  0  0
    5.3490  -48.3900  -26.1750 N   0  3  0  0  0
    6.2510  -48.7460  -27.2810 C   0  0  0  0  0
    6.3070  -47.8450  -28.4850 N   0  0  0  0  0
    7.0560  -50.0310  -27.1810 C   0  0  0  0  0
    2.8270  -42.2120  -26.5240 O   0  0  0  0  0
    1.6620  -42.3300  -25.3850 P   0  0  0  0  0
    0.3650  -41.8580  -25.9190 O   0  0  0  0  0
    2.0310  -41.4840  -23.9720 O   0  0  0  0  0
    1.0330  -40.8810  -23.1800 C   0  0  0  0  0
    1.6530  -44.1680  -24.9640 C   0  0  0  0  0
    2.9620  -44.4340  -24.4670 O   0  0  0  0  0
    0.5300  -44.5120  -23.9190 C   0  0  0  0  0
    0.7560  -45.6130  -22.8370 C   0  0  0  0  0
   -0.3190  -45.9570  -21.8040 C   0  0  0  0  0
   -1.6820  -45.2160  -21.8230 C   0  0  0  0  0
   -1.9280  -44.1240  -22.8780 C   0  0  0  0  0
   -0.8340  -43.7810  -23.9220 C   0  0  0  0  0
   -3.9927  -49.6673  -31.6486 H   0  0  0  0  0
   -6.7754  -50.1383  -28.5715 H   0  0  0  0  0
   -5.6543  -48.9389  -30.8276 H   0  0  0  0  0
   -0.4390  -48.7522  -28.6761 H   0  0  0  0  0
   -1.8484  -48.2900  -27.8166 H   0  0  0  0  0
   -1.9759  -46.1306  -28.9287 H   0  0  0  0  0
   -0.6930  -46.6357  -30.1111 H   0  0  0  0  0
   -0.7358  -46.5791  -28.7900 H   0  0  0  0  0
    1.7867  -46.2771  -29.5565 H   0  0  0  0  0
    2.0334  -47.4360  -30.0170 H   0  0  0  0  0
    1.6893  -45.8281  -30.7007 H   0  0  0  0  0
    3.2335  -46.1290  -29.8663 H   0  0  0  0  0
    2.0442  -45.4664  -25.4819 H   0  0  0  0  0
    3.2796  -44.8911  -27.2571 H   0  0  0  0  0
    4.0576  -44.3998  -26.6059 H   0  0  0  0  0
    3.9840  -44.4808  -28.4081 H   0  0  0  0  0
    5.5757  -45.9711  -29.4588 H   0  0  0  0  0
    4.5368  -46.4342  -27.0293 H   0  0  0  0  0
    3.8360  -47.6521  -24.4265 H   0  0  0  0  0
    3.9821  -46.0182  -24.7193 H   0  0  0  0  0
    2.7464  -46.8841  -25.4264 H   0  0  0  0  0
    4.6653  -49.1465  -26.1514 H   0  0  0  0  0
    5.9699  -48.2359  -25.3806 H   0  0  0  0  0
    7.2647  -48.6399  -27.6674 H   0  0  0  0  0
    6.9210  -48.0966  -29.2596 H   0  0  0  0  0
    7.6990  -49.9880  -26.3019 H   0  0  0  0  0
    6.3760  -50.8784  -27.0942 H   0  0  0  0  0
    7.6685  -50.1451  -28.0754 H   0  0  0  0  0
    3.6601  -42.5218  -26.1613 H   0  0  0  0  0
    0.4969  -40.1411  -23.7744 H   0  0  0  0  0
    0.3363  -41.6439  -22.8327 H   0  0  0  0  0
    1.4968  -40.3933  -22.3226 H   0  0  0  0  0
    3.1173  -43.9072  -23.6796 H   0  0  0  0  0
    1.1709  -44.0927  -24.6946 H   0  0  0  0  0
    1.5764  -45.2207  -22.2360 H   0  0  0  0  0
    0.8594  -46.5295  -23.4180 H   0  0  0  0  0
    0.1259  -45.6829  -20.8474 H   0  0  0  0  0
   -0.5721  -46.9967  -22.0113 H   0  0  0  0  0
   -1.7302  -44.6957  -20.8664 H   0  0  0  0  0
   -2.4171  -45.9895  -22.0454 H   0  0  0  0  0
   -2.0419  -43.2089  -22.2968 H   0  0  0  0  0
   -2.7574  -44.5064  -23.4729 H   0  0  0  0  0
   -1.2817  -44.0620  -24.8752 H   0  0  0  0  0
   -0.5780  -42.7440  -23.7047 H   0  0  0  0  0
  1  2  1  0  0  0
  1  3  2  0  0  0
  1  8  1  0  0  0
  9  1  1  0  0  0
  5  4  1  0  0  0
  5  6  1  0  0  0
  5  7  2  0  0  0
  8  5  1  0  0  0
 10  9  1  0  0  0
 11 10  1  0  0  0
 12 11  1  0  0  0
 13 12  1  0  0  0
 15 12  1  0  0  0
 13 14  1  0  0  0
 17 13  1  0  0  0
 16 15  1  0  0  0
 16 17  1  0  0  0
 32 16  1  0  0  0
 17 18  1  0  0  0
 18 19  1  0  0  0
 19 20  2  0  0  0
 19 21  1  0  0  0
 20 25  1  0  0  0
 21 22  1  0  0  0
 21 23  1  0  0  0
 23 24  1  0  0  0
 25 24  1  0  0  0
 24 26  1  0  0  0
 28 27  1  0  0  0
 28 29  2  0  0  0
 28 30  1  0  0  0
 28 32  1  0  0  0
 30 31  1  0  0  0
 32 33  1  0  0  0
 32 34  1  0  0  0
 34 35  1  0  0  0
 34 39  1  0  0  0
 35 36  1  0  0  0
 36 37  1  0  0  0
 37 38  1  0  0  0
 38 39  1  0  0  0
  2 40  1  0  0  0
  4 41  1  0  0  0
  6 42  1  0  0  0
 10 43  1  0  0  0
 10 44  1  0  0  0
 11 45  1  0  0  0
 11 46  1  0  0  0
 12 47  1  0  0  0
 13 48  1  0  0  0
 14 49  1  0  0  0
 14 50  1  0  0  0
 14 51  1  0  0  0
 16 52  1  0  0  0
 17 53  1  0  0  0
 18 54  1  0  0  0
 18 55  1  0  0  0
 20 56  1  0  0  0
 21 57  1  0  0  0
 22 58  1  0  0  0
 22 59  1  0  0  0
 22 60  1  0  0  0
 23 61  1  0  0  0
 23 62  1  0  0  0
 24 63  1  0  0  0
 25 64  1  0  0  0
 26 65  1  0  0  0
 26 66  1  0  0  0
 26 67  1  0  0  0
 27 68  1  0  0  0
 31 69  1  0  0  0
 31 70  1  0  0  0
 31 71  1  0  0  0
 33 72  1  0  0  0
 34 73  1  0  0  0
 35 74  1  0  0  0
 35 75  1  0  0  0
 36 76  1  0  0  0
 36 77  1  0  0  0
 37 78  1  0  0  0
 37 79  1  0  0  0
 38 80  1  0  0  0
 38 81  1  0  0  0
 39 82  1  0  0  0
 39 83  1  0  0  0
M  END
$$$$
