6cef_ligand
  -I-interpret- 

 23 24  0  0  0  0  0  0  0  0999 V2000
    3.3510    2.1770    8.2960 C   0  0  0  0  0
    2.3600    1.5830    7.3790 C   0  0  0  0  0
    0.9850    2.1560    7.5070 C   0  0  0  0  0
   -2.9320    4.4750    6.7450 C   0  0  0  0  0
   -0.7990    3.3830    7.0270 C   0  0  0  0  0
    3.0930    4.3320    9.2180 O   0  0  0  0  0
    3.5320    3.6680    8.2730 C   0  0  0  0  0
    4.2430    4.1570    7.2750 O   0  0  0  0  0
   -0.2140    1.3340    8.4810 S   0  0  0  0  0
   -1.4050    2.4780    7.9060 C   0  0  0  0  0
    0.5770    3.1830    6.8260 N   0  0  0  0  0
   -2.7570    2.5770    8.2230 C   0  0  0  0  0
   -3.5120    3.5780    7.6320 C   0  0  0  0  0
   -1.5750    4.3830    6.4300 C   0  0  0  0  0
    4.3120    1.7652    7.9878 H   0  0  0  0  0
    2.9909    1.9458    9.2985 H   0  0  0  0  0
    2.2905    0.5231    7.6237 H   0  0  0  0  0
    2.6996    1.7862    6.3634 H   0  0  0  0  0
   -3.5408    5.2570    6.2911 H   0  0  0  0  0
    4.4674    3.4492    6.6665 H   0  0  0  0  0
   -3.2142    1.8790    8.9243 H   0  0  0  0  0
   -4.5732    3.6619    7.8663 H   0  0  0  0  0
   -1.1245    5.0829    5.7262 H   0  0  0  0  0
  2  1  1  0  0  0
  1  7  1  0  0  0
  3  2  1  0  0  0
  3  9  4  0  0  0
 11  3  4  0  0  0
  4 13  4  0  0  0
 14  4  4  0  0  0
  5 10  4  0  0  0
  5 11  4  0  0  0
  5 14  4  0  0  0
  7  6  2  0  0  0
  7  8  1  0  0  0
  9 10  4  0  0  0
 10 12  4  0  0  0
 12 13  4  0  0  0
  1 15  1  0  0  0
  1 16  1  0  0  0
  2 17  1  0  0  0
  2 18  1  0  0  0
  4 19  1  0  0  0
  8 20  1  0  0  0
 12 21  1  0  0  0
 13 22  1  0  0  0
 14 23  1  0  0  0
M  END
$$$$
