2h2e_ligand
  -I-interpret- 

 52 54  0  0  0  0  0  0  0  0999 V2000
   70.9100  136.2930   50.9190 N   0  3  0  0  0
   70.4820  134.9160   51.0490 C   0  0  0  0  0
   69.7970  134.4490   49.7500 C   0  0  0  0  0
   68.6980  134.9550   49.4230 O   0  0  0  0  0
   70.3700  133.5830   49.0760 O   0  0  0  0  0
   69.5080  134.7700   52.2250 C   0  0  0  0  0
   70.0210  135.1870   53.6130 C   0  0  0  0  0
   69.6300  134.2240   54.7820 N   0  3  0  0  0
   70.1220  134.7460   56.0670 C   0  0  0  0  0
   70.2120  132.7730   54.6240 C   0  0  0  0  0
   71.2950  132.4970   53.6080 C   0  0  0  0  0
   72.4840  133.3220   53.7410 O   0  0  0  0  0
   71.7310  131.0400   53.6240 C   0  0  0  0  0
   71.2460  130.3890   52.4380 O   0  0  0  0  0
   73.2450  131.0960   53.7260 C   0  0  0  0  0
   73.8520  130.0990   52.8650 O   0  0  0  0  0
   73.6020  132.5270   53.3230 C   0  0  0  0  0
   74.8750  133.0300   53.9640 N   0  0  0  0  0
   75.0470  133.9780   54.9400 C   0  0  0  0  0
   76.2650  134.2290   55.3160 N   0  0  0  0  0
   77.0280  133.3600   54.5110 C   0  0  0  0  0
   78.4380  133.0900   54.3860 C   0  0  0  0  0
   79.3640  133.7220   55.1200 N   0  0  0  0  0
   78.8540  132.1410   53.4700 N   0  0  0  0  0
   77.9300  131.4920   52.7180 C   0  0  0  0  0
   76.5850  131.6480   52.7350 N   0  0  0  0  0
   76.1920  132.6130   53.6740 C   0  0  0  0  0
   71.5563  136.3742   50.1341 H   0  0  0  0  0
   70.0969  136.8864   50.7543 H   0  0  0  0  0
   71.3773  136.5850   51.7774 H   0  0  0  0  0
   71.3597  134.2970   51.2350 H   0  0  0  0  0
   68.4358  135.6015   50.0824 H   0  0  0  0  0
   69.2868  133.7051   52.2974 H   0  0  0  0  0
   68.6734  135.4355   52.0042 H   0  0  0  0  0
   69.5686  136.1529   53.8375 H   0  0  0  0  0
   71.1096  135.1878   53.5579 H   0  0  0  0  0
   68.6116  134.1739   54.7550 H   0  0  0  0  0
   71.2077  134.8356   56.0296 H   0  0  0  0  0
   69.6815  135.7256   56.2523 H   0  0  0  0  0
   69.8400  134.0620   56.8675 H   0  0  0  0  0
   69.3648  132.1760   54.2866 H   0  0  0  0  0
   70.6814  132.5627   55.5850 H   0  0  0  0  0
   70.8205  132.7510   52.6601 H   0  0  0  0  0
   71.3292  130.4561   54.4521 H   0  0  0  0  0
   71.5195  129.4688   52.4448 H   0  0  0  0  0
   73.6177  130.8673   54.7244 H   0  0  0  0  0
   74.8075  130.1496   52.9429 H   0  0  0  0  0
   73.7891  132.5805   52.2505 H   0  0  0  0  0
   74.1975  134.4990   55.3817 H   0  0  0  0  0
   79.0812  134.4267   55.8011 H   0  0  0  0  0
   80.3516  133.4984   54.9976 H   0  0  0  0  0
   78.3175  130.7552   52.0144 H   0  0  0  0  0
  1  2  1  0  0  0
  2  3  1  0  0  0
  2  6  1  0  0  0
  3  4  1  0  0  0
  3  5  2  0  0  0
  6  7  1  0  0  0
  7  8  1  0  0  0
  8  9  1  0  0  0
  8 10  1  0  0  0
 10 11  1  0  0  0
 11 12  1  0  0  0
 11 13  1  0  0  0
 12 17  1  0  0  0
 13 14  1  0  0  0
 13 15  1  0  0  0
 15 16  1  0  0  0
 15 17  1  0  0  0
 17 18  1  0  0  0
 18 19  4  0  0  0
 18 27  4  0  0  0
 19 20  4  0  0  0
 20 21  4  0  0  0
 21 22  4  0  0  0
 21 27  4  0  0  0
 22 23  1  0  0  0
 22 24  4  0  0  0
 24 25  4  0  0  0
 25 26  4  0  0  0
 26 27  4  0  0  0
  1 28  1  0  0  0
  1 29  1  0  0  0
  1 30  1  0  0  0
  2 31  1  0  0  0
  4 32  1  0  0  0
  6 33  1  0  0  0
  6 34  1  0  0  0
  7 35  1  0  0  0
  7 36  1  0  0  0
  8 37  1  0  0  0
  9 38  1  0  0  0
  9 39  1  0  0  0
  9 40  1  0  0  0
 10 41  1  0  0  0
 10 42  1  0  0  0
 11 43  1  0  0  0
 13 44  1  0  0  0
 14 45  1  0  0  0
 15 46  1  0  0  0
 16 47  1  0  0  0
 17 48  1  0  0  0
 19 49  1  0  0  0
 23 50  1  0  0  0
 23 51  1  0  0  0
 25 52  1  0  0  0
M  END
$$$$
