2avi_ligand
  -I-interpret- 

 32 33  0  0  0  0  0  0  0  0999 V2000
   -4.6980   31.2410   28.7030 C   0  0  0  0  0
   -3.5320   31.3720   29.1320 O   0  0  0  0  0
   -5.5990   32.0690   28.9260 O   0  0  0  0  0
   -4.9930   30.0780   27.7910 C   0  0  0  0  0
   -3.7060   29.3480   27.3630 C   0  0  0  0  0
   -3.5810   29.2170   25.8660 C   0  0  0  0  0
   -2.1950   28.8230   25.5090 C   0  0  0  0  0
   -1.6430   29.5840   24.3010 C   0  0  0  0  0
   -2.7540   29.8010   22.8610 S   0  0  0  0  0
   -1.3920   29.8320   21.6660 C   0  0  0  0  0
   -0.0570   29.3690   22.3540 C   0  0  0  0  0
    0.4530   28.1070   21.8110 N   0  0  0  0  0
    0.1210   27.0650   22.5340 C   0  0  0  0  0
    0.1560   25.8660   22.2020 O   0  0  0  0  0
   -0.3290   27.5180   23.7250 N   0  0  0  0  0
   -0.3240   28.9530   23.8050 C   0  0  0  0  0
   -3.0012   30.6250   28.8460 H   0  0  0  0  0
   -5.4848   30.4597   26.8962 H   0  0  0  0  0
   -5.6254   29.3718   28.3290 H   0  0  0  0  0
   -3.7350   28.3436   27.7854 H   0  0  0  0  0
   -2.8566   29.9305   27.7199 H   0  0  0  0  0
   -3.8146   30.1742   25.4000 H   0  0  0  0  0
   -4.2747   28.4544   25.5121 H   0  0  0  0  0
   -2.2086   27.7635   25.2535 H   0  0  0  0  0
   -1.5568   29.0513   26.3626 H   0  0  0  0  0
   -1.4994   30.5858   24.7059 H   0  0  0  0  0
   -1.2675   30.8485   21.2927 H   0  0  0  0  0
   -1.6232   29.1553   20.8434 H   0  0  0  0  0
    0.6216   30.2106   22.2151 H   0  0  0  0  0
    1.0091   28.0456   20.9582 H   0  0  0  0  0
   -0.6379   26.9092   24.4829 H   0  0  0  0  0
    0.4093   29.2945   24.5355 H   0  0  0  0  0
  1  2  1  0  0  0
  1  3  2  0  0  0
  1  4  1  0  0  0
  4  5  1  0  0  0
  5  6  1  0  0  0
  6  7  1  0  0  0
  7  8  1  0  0  0
  8  9  1  0  0  0
  8 16  1  0  0  0
  9 10  1  0  0  0
 10 11  1  0  0  0
 11 12  1  0  0  0
 11 16  1  0  0  0
 12 13  1  0  0  0
 13 14  2  0  0  0
 13 15  1  0  0  0
 15 16  1  0  0  0
  2 17  1  0  0  0
  4 18  1  0  0  0
  4 19  1  0  0  0
  5 20  1  0  0  0
  5 21  1  0  0  0
  6 22  1  0  0  0
  6 23  1  0  0  0
  7 24  1  0  0  0
  7 25  1  0  0  0
  8 26  1  0  0  0
 10 27  1  0  0  0
 10 28  1  0  0  0
 11 29  1  0  0  0
 12 30  1  0  0  0
 15 31  1  0  0  0
 16 32  1  0  0  0
M  END
$$$$
