1kug_ligand
  -I-interpret- 

 53 55  0  0  0  0  0  0  0  0999 V2000
   14.7340    9.7220    3.5610 N   0  0  0  0  0
   14.5310    9.7960    5.0170 C   0  0  0  0  0
   13.0330    9.8100    5.2580 C   0  0  0  0  0
   12.2950   10.5840    4.6390 O   0  0  0  0  0
   15.1570   11.0830    5.5440 C   0  0  0  0  0
   15.5720   11.8090    4.3110 C   0  0  0  0  0
   15.2400   10.8890    3.1720 C   0  0  0  0  0
   15.4200   11.1820    1.9940 O   0  0  0  0  0
   12.5690    8.9570    6.1580 N   0  0  0  0  0
   11.1470    8.8960    6.4520 C   0  0  0  0  0
   10.8900    9.6840    7.7290 C   0  0  0  0  0
   11.6330    9.5580    8.6920 O   0  0  0  0  0
   10.6990    7.4480    6.7070 C   0  0  0  0  0
   10.3820    6.6900    5.4250 C   0  0  0  0  0
    9.5140    7.0940    4.6430 O   0  0  0  0  0
   11.0820    5.5780    5.2100 N   0  0  0  0  0
    9.8480   10.5060    7.7090 N   0  0  0  0  0
    9.4280   11.2720    8.8820 C   0  0  0  0  0
    7.9450   11.5410    8.7920 C   0  0  0  0  0
    7.3180   11.9290    9.7860 O   0  0  0  0  0
   10.1990   12.5860    9.0170 C   0  0  0  0  0
    9.8990   13.7170    8.0130 C   0  0  0  0  0
    9.2560   13.6470    6.8000 C   0  0  0  0  0
   10.2400   15.0840    8.2040 C   0  0  0  0  0
    9.1800   14.9050    6.2250 N   0  0  0  0  0
    9.7730   15.8100    7.0650 C   0  0  0  0  0
   10.8860   15.7750    9.2180 C   0  0  0  0  0
    9.9360   17.1980    6.9360 C   0  0  0  0  0
   11.0630   17.1550    9.0990 C   0  0  0  0  0
   10.5910   17.8570    7.9710 C   0  0  0  0  0
    7.3740   11.3840    7.6910 O   0  0  0  0  0
   14.5253    8.9237    2.9614 H   0  0  0  0  0
   14.9930    8.9509    5.5273 H   0  0  0  0  0
   15.9950   10.8920    6.2143 H   0  0  0  0  0
   14.4628   11.6627    6.1524 H   0  0  0  0  0
   16.6341   12.0534    4.3301 H   0  0  0  0  0
   15.0546   12.7637    4.2167 H   0  0  0  0  0
   13.2144    8.3380    6.6487 H   0  0  0  0  0
   10.5981    9.3012    5.6019 H   0  0  0  0  0
    9.7894    7.4821    7.3066 H   0  0  0  0  0
   11.5178    6.9296    7.2059 H   0  0  0  0  0
   10.9111    5.0218    4.3723 H   0  0  0  0  0
   11.7891    5.2823    5.8830 H   0  0  0  0  0
    9.3199   10.6073    6.8423 H   0  0  0  0  0
    9.6476   10.6814    9.7714 H   0  0  0  0  0
   11.2435   12.3236    8.8490 H   0  0  0  0  0
    9.9160   12.9852    9.9910 H   0  0  0  0  0
    8.8626   12.7332    6.3547 H   0  0  0  0  0
   11.2517   15.2466   10.0985 H   0  0  0  0  0
    9.5656   17.7358    6.0632 H   0  0  0  0  0
   11.5753   17.6993    9.8924 H   0  0  0  0  0
   10.7420   18.9347    7.9090 H   0  0  0  0  0
    8.0123   11.0811    7.0411 H   0  0  0  0  0
  3  2  1  0  0  0
  2  5  1  0  0  0
  2  1  1  0  0  0
  5  6  1  0  0  0
  6  7  1  0  0  0
  7  8  2  0  0  0
  3  4  2  0  0  0
 11 10  1  0  0  0
 10 13  1  0  0  0
 10  9  1  0  0  0
 13 14  1  0  0  0
 14 15  2  0  0  0
 14 16  1  0  0  0
 11 12  2  0  0  0
 18 19  1  0  0  0
 18 21  1  0  0  0
 17 18  1  0  0  0
 21 22  1  0  0  0
 22 24  4  0  0  0
 22 23  4  0  0  0
 23 25  4  0  0  0
 25 26  4  0  0  0
 26 28  4  0  0  0
 24 26  4  0  0  0
 24 27  4  0  0  0
 27 29  4  0  0  0
 29 30  4  0  0  0
 28 30  4  0  0  0
 19 31  1  0  0  0
 19 20  2  0  0  0
  9  3  1  0  0  0
 11 17  1  0  0  0
  7  1  1  0  0  0
  1 32  1  0  0  0
  2 33  1  0  0  0
  5 34  1  0  0  0
  5 35  1  0  0  0
  6 36  1  0  0  0
  6 37  1  0  0  0
  9 38  1  0  0  0
 10 39  1  0  0  0
 13 40  1  0  0  0
 13 41  1  0  0  0
 16 42  1  0  0  0
 16 43  1  0  0  0
 17 44  1  0  0  0
 18 45  1  0  0  0
 21 46  1  0  0  0
 21 47  1  0  0  0
 23 48  1  0  0  0
 27 49  1  0  0  0
 28 50  1  0  0  0
 29 51  1  0  0  0
 30 52  1  0  0  0
 31 53  1  0  0  0
M  END
$$$$
