### 
### Created by X-TOOL on Mon Sep 10 21:13:30 2018
### 

@<TRIPOS>MOLECULE
6bhd_ligand
  180   180     1     0     0
SMALL
GAST_HUCK


@<TRIPOS>ATOM
      1 N          47.3000    3.8350   69.0940 N.4       1 ALA         0.2377
      2 CA         46.1540    3.4530   68.2060 C.3       1 ALA         0.0621
      3 C          46.7030    2.8240   66.9340 C.2       1 ALA         0.2264
      4 O          46.6040    3.4360   65.8790 O.2       1 ALA        -0.3907
      5 CB         45.3250    4.6810   67.8500 C.3       1 ALA        -0.0040
      6 N          47.2720    1.6290   67.0570 N.am      1 ARG        -0.2610
      7 CA         48.1020    1.0410   66.0040 C.3       1 ARG         0.1312
      8 C          47.3450    0.2380   64.9700 C.2       1 ARG         0.2039
      9 O          46.5970   -0.6920   65.2830 O.2       1 ARG        -0.3944
     10 CB         49.1590    0.1950   66.6440 C.3       1 ARG        -0.0092
     11 CG         50.2630   -0.2880   65.7250 C.3       1 ARG        -0.0156
     12 CD         51.2250   -1.2440   66.4030 C.3       1 ARG         0.0627
     13 NE         52.1440   -0.5930   67.3280 N.pl3     1 ARG        -0.2723
     14 CZ         52.7900   -1.2390   68.2930 C.cat     1 ARG         0.2882
     15 NH1        52.6210   -2.5200   68.4330 N.pl3     1 ARG        -0.2849
     16 NH2        53.6080   -0.6020   69.0910 N.pl3     1 ARG        -0.2849
     17 N          47.6290    0.4490   63.7180 N.am      1 MLY        -0.2637
     18 CA         47.1130   -0.4410   62.6460 C.3       1 MLY         0.1310
     19 CB         46.9190    0.2270   61.3160 C.3       1 MLY        -0.0122
     20 CG         45.7330   -0.3920   60.5400 C.3       1 MLY        -0.0440
     21 CD         45.3490    0.4870   59.3760 C.3       1 MLY        -0.0123
     22 CE         44.1110   -0.0770   58.5770 C.3       1 MLY        -0.0324
     23 NZ         43.3190    0.8600   57.8010 N.4       1 MLY         0.2309
     24 CH1        44.1140    1.3230   56.6650 C.3       1 MLY        -0.0433
     25 CH2        42.1330    0.1250   57.2360 C.3       1 MLY        -0.0433
     26 C          48.0130   -1.6470   62.5020 C.2       1 MLY         0.2040
     27 O          49.2160   -1.5190   62.6490 O.2       1 MLY        -0.3944
     28 N          47.4630   -2.8280   62.1910 N.am      1 SER        -0.2616
     29 CA         48.2890   -4.0130   61.9780 C.3       1 SER         0.1539
     30 C          49.1960   -3.7620   60.7960 C.2       1 SER         0.2063
     31 O          48.8580   -3.0110   59.8740 O.2       1 SER        -0.3943
     32 CB         47.4040   -5.2470   61.7810 C.3       1 SER         0.0843
     33 OG         46.5660   -5.1300   60.6230 O.3       1 SER        -0.3903
     34 N          50.3680   -4.3980   60.7960 N.am      1 THR        -0.2613
     35 CA         51.3600   -4.0250   59.8080 C.3       1 THR         0.1565
     36 C          50.9420   -4.3020   58.3990 C.2       1 THR         0.2063
     37 O          50.3890   -5.3930   58.0730 O.2       1 THR        -0.3943
     38 CB         52.7040   -4.7240   60.0890 C.3       1 THR         0.0924
     39 OG1        53.6830   -4.2070   59.2300 O.3       1 THR        -0.3874
     40 CG2        52.6850   -6.2390   59.8710 C.3       1 THR        -0.0346
     41 N          51.2470   -3.3730   57.5070 N.am      1 GLY        -0.2663
     42 CA         51.1380   -3.6100   56.1200 C.3       1 GLY         0.1201
     43 C          52.4200   -4.0200   55.4080 C.2       1 GLY         0.2005
     44 O          52.4740   -4.1090   54.1800 O.2       1 GLY        -0.3947
     45 N          53.4750   -4.2440   56.2080 N.am      1 GLY        -0.2666
     46 CA         54.7340   -4.6830   55.6080 C.3       1 GLY         0.1201
     47 C          55.5000   -3.5800   54.9410 C.2       1 GLY         0.2007
     48 O          55.2240   -2.4160   55.0860 O.2       1 GLY        -0.3947
     49 OH         57.8210    0.2840   56.6580 O.2       1 ALY        -0.3974
     50 CH         57.4500   -0.8120   57.1670 C.2       1 ALY         0.1729
     51 CH3        56.1580   -0.9670   57.8950 C.3       1 ALY         0.0256
     52 NZ         58.2600   -1.8730   57.1150 N.am      1 ALY        -0.2872
     53 CE         59.5780   -1.8170   56.3290 C.3       1 ALY         0.0309
     54 CD         60.1780   -3.0780   55.9630 C.3       1 ALY        -0.0325
     55 CG         59.3470   -3.9530   55.1480 C.3       1 ALY        -0.0470
     56 CB         58.8910   -3.6410   53.7060 C.3       1 ALY        -0.0123
     57 CA         57.4740   -3.0530   53.6280 C.3       1 ALY         0.1310
     58 N          56.5060   -3.9990   54.1940 N.am      1 ALY        -0.2640
     59 C          57.2100   -2.6370   52.2390 C.2       1 ALY         0.2039
     60 O          57.7690   -1.6340   51.7570 O.2       1 ALY        -0.3944
     61 N          56.3550   -3.3780   51.5330 N.am      1 ALA        -0.2640
     62 CA         56.0410   -3.1040   50.1280 C.3       1 ALA         0.1284
     63 C          54.5630   -3.3580   49.8940 C.2       1 ALA         0.2061
     64 O          53.9500   -4.0990   50.6360 O.2       1 ALA        -0.3942
     65 CB         56.8380   -3.9780   49.1970 C.3       1 ALA        -0.0244
     66 N          54.0000   -2.7670   48.8110 N.am      1 PRO        -0.2498
     67 CA         52.5780   -3.0470   48.5630 C.3       1 PRO         0.1338
     68 C          52.2850   -4.4940   48.4030 C.2       1 PRO         0.2041
     69 O          53.0930   -5.2320   47.8780 O.2       1 PRO        -0.3944
     70 CB         52.2990   -2.2760   47.2870 C.3       1 PRO        -0.0104
     71 CG         53.2830   -1.1520   47.3130 C.3       1 PRO        -0.0281
     72 CD         54.5660   -1.7750   47.8890 C.3       1 PRO         0.0369
     73 N          51.0720   -4.8810   48.8160 N.am      1 ARG        -0.2637
     74 CA         50.5900   -6.2640   48.5550 C.3       1 ARG         0.1309
     75 C          50.6070   -6.5440   47.0450 C.2       1 ARG         0.2033
     76 O          50.2190   -5.6780   46.2170 O.2       1 ARG        -0.3944
     77 CB         49.1410   -6.3400   49.0220 C.3       1 ARG        -0.0126
     78 CG         48.5140   -7.7500   49.0450 C.3       1 ARG        -0.0517
     79 CD         47.0100   -7.7170   49.3630 C.3       1 ARG        -0.0651
     80 N          51.1030   -7.7320   46.7000 N.am      1 LYS        -0.2698
     81 CA         51.2340   -8.1270   45.2870 C.3       1 LYS         0.0916
     82 C          49.8730   -8.3100   44.6050 C.2       1 LYS         0.0598
     83 O          48.9550   -8.7260   45.2720 O.co2     1 LYS        -0.5666
     84 CB         52.0240   -9.4320   45.2020 C.3       1 LYS        -0.0300
     85 OXT        49.7830   -8.0300   43.4330 O.co2     1 LYS        -0.5666
     86 H1         46.9449    4.2529   69.9398 H         1 ALA         0.2015
     87 H2         47.8905    4.4965   68.6147 H         1 ALA         0.2015
     88 H3         47.8351    3.0125   69.3246 H         1 ALA         0.2015
     89 H4         45.5158    2.7255   68.7289 H         1 ALA         0.1095
     90 H5         44.4897    4.3834   67.1991 H         1 ALA         0.0310
     91 H6         45.9579    5.4107   67.3237 H         1 ALA         0.0310
     92 H7         44.9289    5.1354   68.7701 H         1 ALA         0.0310
     93 H8         47.1277    1.1120   67.9008 H         1 ARG         0.1884
     94 H9         48.5953    1.8686   65.4732 H         1 ARG         0.0800
     95 H10        48.6679   -0.6896   67.0755 H         1 ARG         0.0313
     96 H11        49.6231    0.7854   67.4478 H         1 ARG         0.0313
     97 H12        50.8296    0.5852   65.3693 H         1 ARG         0.0301
     98 H13        49.8048   -0.8021   64.8673 H         1 ARG         0.0301
     99 H14        51.8158   -1.7512   65.6260 H         1 ARG         0.0689
    100 H15        50.6388   -1.9881   66.9622 H         1 ARG         0.0689
    101 H16        52.3009    0.4201   67.2286 H         1 ARG         0.2642
    102 H17        53.1188   -3.0266   69.1790 H         1 ARG         0.2615
    103 H18        51.9893   -3.0286   67.7980 H         1 ARG         0.2615
    104 H19        53.7454    0.4132   68.9841 H         1 ARG         0.2615
    105 H20        54.1146   -1.1157   69.8261 H         1 ARG         0.2615
    106 H21        48.2071    1.2270   63.4719 H         1 MLY         0.1883
    107 H22        46.1242   -0.7960   62.9720 H         1 MLY         0.0800
    108 H23        47.8362    0.1104   60.7200 H         1 MLY         0.0312
    109 H24        46.7207    1.2967   61.4785 H         1 MLY         0.0312
    110 H25        44.8715   -0.4944   61.2163 H         1 MLY         0.0269
    111 H26        46.0241   -1.3840   60.1642 H         1 MLY         0.0269
    112 H27        46.2068    0.5609   58.6915 H         1 MLY         0.0317
    113 H28        45.0968    1.4875   59.7573 H         1 MLY         0.0317
    114 H29        43.4373   -0.5490   59.3073 H         1 MLY         0.0814
    115 H30        44.4902   -0.8400   57.8813 H         1 MLY         0.0814
    116 H31        43.0243    1.6353   58.3737 H         1 MLY         0.2028
    117 H32        43.5229    2.0343   56.0695 H         1 MLY         0.0777
    118 H33        44.3933    0.4633   56.0382 H         1 MLY         0.0777
    119 H34        45.0240    1.8199   57.0325 H         1 MLY         0.0777
    120 H35        41.5035   -0.2431   58.0595 H         1 MLY         0.0777
    121 H36        42.4823   -0.7260   56.6329 H         1 MLY         0.0777
    122 H37        41.5465    0.8070   56.6028 H         1 MLY         0.0777
    123 H38        46.4694   -2.8994   62.1032 H         1 SER         0.1884
    124 H39        48.9135   -4.1773   62.8685 H         1 SER         0.0823
    125 H40        46.7668   -5.3720   62.6689 H         1 SER         0.0606
    126 H41        48.0484   -6.1309   61.6647 H         1 SER         0.0606
    127 H42        47.1086   -5.0276   59.8499 H         1 SER         0.2097
    128 H43        50.5583   -5.1174   61.4640 H         1 THR         0.1884
    129 H44        51.5155   -2.9398   59.8983 H         1 THR         0.0826
    130 H45        52.9834   -4.5223   61.1336 H         1 THR         0.0639
    131 H46        53.7722   -3.2730   59.3791 H         1 THR         0.2101
    132 H47        53.6792   -6.6539   60.0932 H         1 THR         0.0257
    133 H48        52.4228   -6.4557   58.8249 H         1 THR         0.0257
    134 H49        51.9395   -6.6962   60.5382 H         1 THR         0.0257
    135 H50        51.5632   -2.4790   57.8244 H         1 GLY         0.1881
    136 H51        50.7727   -2.6857   55.6487 H         1 GLY         0.0763
    137 H52        50.4005   -4.4128   55.9731 H         1 GLY         0.0763
    138 H53        53.4009   -4.1129   57.1966 H         1 GLY         0.1881
    139 H54        54.5103   -5.4544   54.8564 H         1 GLY         0.0763
    140 H55        55.3644   -5.1142   56.3996 H         1 GLY         0.0763
    141 H56        56.0565   -2.0049   58.2448 H         1 ALY         0.0467
    142 H57        55.3248   -0.7248   57.2189 H         1 ALY         0.0467
    143 H58        56.1396   -0.2857   58.7584 H         1 ALY         0.0467
    144 H59        58.0051   -2.7133   57.5934 H         1 ALY         0.1850
    145 H60        60.3074   -1.2686   56.9432 H         1 ALY         0.0520
    146 H61        59.3870   -1.2588   55.4006 H         1 ALY         0.0520
    147 H62        60.4297   -3.6154   56.8892 H         1 ALY         0.0285
    148 H63        61.0991   -2.8649   55.4008 H         1 ALY         0.0285
    149 H64        58.4216   -4.1009   55.7240 H         1 ALY         0.0268
    150 H65        59.8953   -4.9045   55.0841 H         1 ALY         0.0268
    151 H66        58.9139   -4.5738   53.1235 H         1 ALY         0.0312
    152 H67        59.5934   -2.9172   53.2670 H         1 ALY         0.0312
    153 H68        57.4409   -2.1474   54.2515 H         1 ALY         0.0800
    154 H69        56.6093   -4.9768   54.0115 H         1 ALY         0.1883
    155 H70        55.9095   -4.1531   51.9811 H         1 ALA         0.1883
    156 H71        56.2705   -2.0503   49.9111 H         1 ALA         0.0797
    157 H72        56.5735   -3.7415   48.1558 H         1 ALA         0.0277
    158 H73        56.6112   -5.0347   49.4020 H         1 ALA         0.0277
    159 H74        57.9117   -3.7965   49.3528 H         1 ALA         0.0277
    160 H75        51.9656   -2.6574   49.3896 H         1 PRO         0.0802
    161 H76        51.2684   -1.8917   47.2812 H         1 PRO         0.0313
    162 H77        52.4579   -2.9127   46.4042 H         1 PRO         0.0313
    163 H78        52.9240   -0.3361   47.9575 H         1 PRO         0.0287
    164 H79        53.4599   -0.7668   46.2980 H         1 PRO         0.0287
    165 H80        55.1723   -2.2512   47.1044 H         1 PRO         0.0524
    166 H81        55.1748   -1.0290   48.4208 H         1 PRO         0.0524
    167 H82        50.4849   -4.2351   49.3040 H         1 ARG         0.1883
    168 H83        51.2136   -6.9962   49.0889 H         1 ARG         0.0800
    169 H84        48.5367   -5.7133   48.3496 H         1 ARG         0.0312
    170 H85        49.0940   -5.9335   50.0430 H         1 ARG         0.0312
    171 H86        49.0242   -8.3511   49.8120 H         1 ARG         0.0265
    172 H87        48.6565   -8.2162   48.0589 H         1 ARG         0.0265
    173 H88        46.6135   -8.7431   49.3672 H         1 ARG         0.0230
    174 H89        46.4864   -7.1248   48.5981 H         1 ARG         0.0230
    175 H90        46.8541   -7.2597   50.3512 H         1 ARG         0.0230
    176 H91        51.3922   -8.3683   47.4152 H         1 LYS         0.1875
    177 H92        51.7859   -7.3383   44.7547 H         1 LYS         0.0723
    178 H93        52.1248   -9.7316   44.1484 H         1 LYS         0.0270
    179 H94        51.4931  -10.2189   45.7578 H         1 LYS         0.0270
    180 H95        53.0229   -9.2850   45.6385 H         1 LYS         0.0270
@<TRIPOS>BOND
     1    2    1 1  
     2    3    2 1  
     3    2    5 1  
     4    3    4 2  
     5    6    3 am 
     6    7    6 1  
     7    8    7 1  
     8    7   10 1  
     9    8    9 2  
    10   17    8 am 
    11   10   11 1  
    12   11   12 1  
    13   12   13 1  
    14   13   14 ar 
    15   14   15 ar 
    16   14   16 ar 
    17   18   17 1  
    18   18   19 1  
    19   26   18 1  
    20   19   20 1  
    21   20   21 1  
    22   21   22 1  
    23   22   23 1  
    24   23   24 1  
    25   23   25 1  
    26   26   27 2  
    27   28   26 am 
    28   29   28 1  
    29   30   29 1  
    30   29   32 1  
    31   30   31 2  
    32   34   30 am 
    33   32   33 1  
    34   35   34 1  
    35   36   35 1  
    36   35   38 1  
    37   36   37 2  
    38   41   36 am 
    39   38   39 1  
    40   38   40 1  
    41   42   41 1  
    42   43   42 1  
    43   43   44 2  
    44   45   43 am 
    45   46   45 1  
    46   47   46 1  
    47   47   48 2  
    48   58   47 am 
    49   50   49 2  
    50   50   51 1  
    51   52   50 am 
    52   53   52 1  
    53   54   53 1  
    54   55   54 1  
    55   56   55 1  
    56   57   56 1  
    57   57   58 1  
    58   57   59 1  
    59   59   60 2  
    60   59   61 am 
    61   61   62 1  
    62   62   63 1  
    63   62   65 1  
    64   63   64 2  
    65   63   66 am 
    66   66   67 1  
    67   66   72 1  
    68   67   68 1  
    69   67   70 1  
    70   68   69 2  
    71   68   73 am 
    72   70   71 1  
    73   71   72 1  
    74   73   74 1  
    75   74   75 1  
    76   74   77 1  
    77   75   76 2  
    78   75   80 am 
    79   77   78 1  
    80   78   79 1  
    81   80   81 1  
    82   81   82 1  
    83   81   84 1  
    84   82   83 ar 
    85   82   85 ar 
    86    1   86 1  
    87    1   87 1  
    88    1   88 1  
    89    2   89 1  
    90    5   90 1  
    91    5   91 1  
    92    5   92 1  
    93    6   93 1  
    94    7   94 1  
    95   10   95 1  
    96   10   96 1  
    97   11   97 1  
    98   11   98 1  
    99   12   99 1  
   100   12  100 1  
   101   13  101 1  
   102   15  102 1  
   103   15  103 1  
   104   16  104 1  
   105   16  105 1  
   106   17  106 1  
   107   18  107 1  
   108   19  108 1  
   109   19  109 1  
   110   20  110 1  
   111   20  111 1  
   112   21  112 1  
   113   21  113 1  
   114   22  114 1  
   115   22  115 1  
   116   23  116 1  
   117   24  117 1  
   118   24  118 1  
   119   24  119 1  
   120   25  120 1  
   121   25  121 1  
   122   25  122 1  
   123   28  123 1  
   124   29  124 1  
   125   32  125 1  
   126   32  126 1  
   127   33  127 1  
   128   34  128 1  
   129   35  129 1  
   130   38  130 1  
   131   39  131 1  
   132   40  132 1  
   133   40  133 1  
   134   40  134 1  
   135   41  135 1  
   136   42  136 1  
   137   42  137 1  
   138   45  138 1  
   139   46  139 1  
   140   46  140 1  
   141   51  141 1  
   142   51  142 1  
   143   51  143 1  
   144   52  144 1  
   145   53  145 1  
   146   53  146 1  
   147   54  147 1  
   148   54  148 1  
   149   55  149 1  
   150   55  150 1  
   151   56  151 1  
   152   56  152 1  
   153   57  153 1  
   154   58  154 1  
   155   61  155 1  
   156   62  156 1  
   157   65  157 1  
   158   65  158 1  
   159   65  159 1  
   160   67  160 1  
   161   70  161 1  
   162   70  162 1  
   163   71  163 1  
   164   71  164 1  
   165   72  165 1  
   166   72  166 1  
   167   73  167 1  
   168   74  168 1  
   169   77  169 1  
   170   77  170 1  
   171   78  171 1  
   172   78  172 1  
   173   79  173 1  
   174   79  174 1  
   175   79  175 1  
   176   80  176 1  
   177   81  177 1  
   178   84  178 1  
   179   84  179 1  
   180   84  180 1  
@<TRIPOS>SUBSTRUCTURE
     1 ALA         1

