6bhd_ligand
  -I-interpret- 

180180  0  0  0  0  0  0  0  0999 V2000
   47.3000    3.8350   69.0940 N   0  3  0  0  0
   46.1540    3.4530   68.2060 C   0  0  0  0  0
   46.7030    2.8240   66.9340 C   0  0  0  0  0
   46.6040    3.4360   65.8790 O   0  0  0  0  0
   45.3250    4.6810   67.8500 C   0  0  0  0  0
   47.2720    1.6290   67.0570 N   0  0  0  0  0
   48.1020    1.0410   66.0040 C   0  0  0  0  0
   47.3450    0.2380   64.9700 C   0  0  0  0  0
   46.5970   -0.6920   65.2830 O   0  0  0  0  0
   49.1590    0.1950   66.6440 C   0  0  0  0  0
   50.2630   -0.2880   65.7250 C   0  0  0  0  0
   51.2250   -1.2440   66.4030 C   0  0  0  0  0
   52.1440   -0.5930   67.3280 N   0  0  0  0  0
   52.7900   -1.2390   68.2930 C   0  0  0  0  0
   52.6210   -2.5200   68.4330 N   0  0  0  0  0
   53.6080   -0.6020   69.0910 N   0  0  0  0  0
   47.6290    0.4490   63.7180 N   0  0  0  0  0
   47.1130   -0.4410   62.6460 C   0  0  0  0  0
   46.9190    0.2270   61.3160 C   0  0  0  0  0
   45.7330   -0.3920   60.5400 C   0  0  0  0  0
   45.3490    0.4870   59.3760 C   0  0  0  0  0
   44.1110   -0.0770   58.5770 C   0  0  0  0  0
   43.3190    0.8600   57.8010 N   0  3  0  0  0
   44.1140    1.3230   56.6650 C   0  0  0  0  0
   42.1330    0.1250   57.2360 C   0  0  0  0  0
   48.0130   -1.6470   62.5020 C   0  0  0  0  0
   49.2160   -1.5190   62.6490 O   0  0  0  0  0
   47.4630   -2.8280   62.1910 N   0  0  0  0  0
   48.2890   -4.0130   61.9780 C   0  0  0  0  0
   49.1960   -3.7620   60.7960 C   0  0  0  0  0
   48.8580   -3.0110   59.8740 O   0  0  0  0  0
   47.4040   -5.2470   61.7810 C   0  0  0  0  0
   46.5660   -5.1300   60.6230 O   0  0  0  0  0
   50.3680   -4.3980   60.7960 N   0  0  0  0  0
   51.3600   -4.0250   59.8080 C   0  0  0  0  0
   50.9420   -4.3020   58.3990 C   0  0  0  0  0
   50.3890   -5.3930   58.0730 O   0  0  0  0  0
   52.7040   -4.7240   60.0890 C   0  0  0  0  0
   53.6830   -4.2070   59.2300 O   0  0  0  0  0
   52.6850   -6.2390   59.8710 C   0  0  0  0  0
   51.2470   -3.3730   57.5070 N   0  0  0  0  0
   51.1380   -3.6100   56.1200 C   0  0  0  0  0
   52.4200   -4.0200   55.4080 C   0  0  0  0  0
   52.4740   -4.1090   54.1800 O   0  0  0  0  0
   53.4750   -4.2440   56.2080 N   0  0  0  0  0
   54.7340   -4.6830   55.6080 C   0  0  0  0  0
   55.5000   -3.5800   54.9410 C   0  0  0  0  0
   55.2240   -2.4160   55.0860 O   0  0  0  0  0
   57.8210    0.2840   56.6580 O   0  0  0  0  0
   57.4500   -0.8120   57.1670 C   0  0  0  0  0
   56.1580   -0.9670   57.8950 C   0  0  0  0  0
   58.2600   -1.8730   57.1150 N   0  0  0  0  0
   59.5780   -1.8170   56.3290 C   0  0  0  0  0
   60.1780   -3.0780   55.9630 C   0  0  0  0  0
   59.3470   -3.9530   55.1480 C   0  0  0  0  0
   58.8910   -3.6410   53.7060 C   0  0  0  0  0
   57.4740   -3.0530   53.6280 C   0  0  0  0  0
   56.5060   -3.9990   54.1940 N   0  0  0  0  0
   57.2100   -2.6370   52.2390 C   0  0  0  0  0
   57.7690   -1.6340   51.7570 O   0  0  0  0  0
   56.3550   -3.3780   51.5330 N   0  0  0  0  0
   56.0410   -3.1040   50.1280 C   0  0  0  0  0
   54.5630   -3.3580   49.8940 C   0  0  0  0  0
   53.9500   -4.0990   50.6360 O   0  0  0  0  0
   56.8380   -3.9780   49.1970 C   0  0  0  0  0
   54.0000   -2.7670   48.8110 N   0  0  0  0  0
   52.5780   -3.0470   48.5630 C   0  0  0  0  0
   52.2850   -4.4940   48.4030 C   0  0  0  0  0
   53.0930   -5.2320   47.8780 O   0  0  0  0  0
   52.2990   -2.2760   47.2870 C   0  0  0  0  0
   53.2830   -1.1520   47.3130 C   0  0  0  0  0
   54.5660   -1.7750   47.8890 C   0  0  0  0  0
   51.0720   -4.8810   48.8160 N   0  0  0  0  0
   50.5900   -6.2640   48.5550 C   0  0  0  0  0
   50.6070   -6.5440   47.0450 C   0  0  0  0  0
   50.2190   -5.6780   46.2170 O   0  0  0  0  0
   49.1410   -6.3400   49.0220 C   0  0  0  0  0
   48.5140   -7.7500   49.0450 C   0  0  0  0  0
   47.0100   -7.7170   49.3630 C   0  0  0  0  0
   51.1030   -7.7320   46.7000 N   0  0  0  0  0
   51.2340   -8.1270   45.2870 C   0  0  0  0  0
   49.8730   -8.3100   44.6050 C   0  0  0  0  0
   48.9550   -8.7260   45.2720 O   0  0  0  0  0
   52.0240   -9.4320   45.2020 C   0  0  0  0  0
   49.7830   -8.0300   43.4330 O   0  0  0  0  0
   47.8437    3.0028   69.3224 H   0  0  0  0  0
   47.8939    4.5083   68.6099 H   0  0  0  0  0
   46.9393    4.2529   69.9517 H   0  0  0  0  0
   45.5156    2.7420   68.7304 H   0  0  0  0  0
   45.9534    5.4035   67.3291 H   0  0  0  0  0
   44.4980    4.3849   67.2046 H   0  0  0  0  0
   44.9327    5.1300   68.7625 H   0  0  0  0  0
   47.1248    1.1017   67.9176 H   0  0  0  0  0
   48.5355    1.8731   65.4492 H   0  0  0  0  0
   48.6557   -0.6974   67.0161 H   0  0  0  0  0
   49.6376    0.8190   67.3987 H   0  0  0  0  0
   50.8330    0.5842   65.4049 H   0  0  0  0  0
   49.7955   -0.8203   64.8967 H   0  0  0  0  0
   51.8252   -1.7107   65.6219 H   0  0  0  0  0
   50.6291   -1.9514   66.9797 H   0  0  0  0  0
   52.2994    0.4103   67.2296 H   0  0  0  0  0
   51.9954   -3.0236   67.8042 H   0  0  0  0  0
   54.1097   -1.1107   69.8190 H   0  0  0  0  0
   53.7441    0.4033   68.9852 H   0  0  0  0  0
   48.2186    1.2425   63.4670 H   0  0  0  0  0
   46.1154   -0.7431   62.9647 H   0  0  0  0  0
   47.8258    0.0929   60.7262 H   0  0  0  0  0
   46.7072    1.2825   61.4868 H   0  0  0  0  0
   44.8794   -0.4844   61.2115 H   0  0  0  0  0
   46.0283   -1.3711   60.1628 H   0  0  0  0  0
   46.1979    0.5320   58.6937 H   0  0  0  0  0
   45.0779    1.4668   59.7691 H   0  0  0  0  0
   43.4333   -0.4723   59.3337 H   0  0  0  0  0
   44.5281   -0.7749   57.8510 H   0  0  0  0  0
   43.0309    1.6404   58.3912 H   0  0  0  0  0
   45.0153    1.8151   57.0304 H   0  0  0  0  0
   44.3901    0.4703   56.0448 H   0  0  0  0  0
   43.5273    2.0277   56.0757 H   0  0  0  0  0
   42.4809   -0.6878   56.5985 H   0  0  0  0  0
   41.5365   -0.2818   58.0526 H   0  0  0  0  0
   41.5258    0.8143   56.6492 H   0  0  0  0  0
   46.4496   -2.9008   62.1014 H   0  0  0  0  0
   48.9098   -4.2094   62.8522 H   0  0  0  0  0
   46.7624   -5.3487   62.6563 H   0  0  0  0  0
   48.0525   -6.1126   61.6456 H   0  0  0  0  0
   46.0295   -5.9214   60.5363 H   0  0  0  0  0
   50.5621   -5.1318   61.4774 H   0  0  0  0  0
   51.4707   -2.9447   59.9018 H   0  0  0  0  0
   52.9130   -4.5363   61.1422 H   0  0  0  0  0
   54.5213   -4.6415   59.4037 H   0  0  0  0  0
   51.9459   -6.6907   60.5326 H   0  0  0  0  0
   52.4250   -6.4524   58.8342 H   0  0  0  0  0
   53.6706   -6.6489   60.0915 H   0  0  0  0  0
   51.5696   -2.4611   57.8307 H   0  0  0  0  0
   50.8287   -2.6656   55.6722 H   0  0  0  0  0
   50.4454   -4.4440   56.0062 H   0  0  0  0  0
   53.3994   -4.1103   57.2164 H   0  0  0  0  0
   54.4910   -5.4203   54.8429 H   0  0  0  0  0
   55.3587   -5.0748   56.4107 H   0  0  0  0  0
   56.1410   -0.2914   58.7502 H   0  0  0  0  0
   55.3333   -0.7267   57.2240 H   0  0  0  0  0
   56.0586   -1.9958   58.2411 H   0  0  0  0  0
   58.0000   -2.7301   57.6030 H   0  0  0  0  0
   60.2955   -1.3262   56.9865 H   0  0  0  0  0
   59.3430   -1.3160   55.3899 H   0  0  0  0  0
   60.3721   -3.6116   56.8934 H   0  0  0  0  0
   61.0590   -2.8415   55.3663 H   0  0  0  0  0
   58.4047   -3.9586   55.6959 H   0  0  0  0  0
   59.9891   -4.8226   55.0079 H   0  0  0  0  0
   58.8882   -4.5797   53.1519 H   0  0  0  0  0
   59.5774   -2.8993   53.2976 H   0  0  0  0  0
   57.3734   -2.1550   54.2375 H   0  0  0  0  0
   56.6113   -4.9963   54.0078 H   0  0  0  0  0
   55.9006   -4.1686   51.9901 H   0  0  0  0  0
   56.2967   -2.0648   49.9212 H   0  0  0  0  0
   57.9016   -3.7972   49.3524 H   0  0  0  0  0
   56.6124   -5.0247   49.4011 H   0  0  0  0  0
   56.5750   -3.7428   48.1657 H   0  0  0  0  0
   51.9482   -2.7507   49.4019 H   0  0  0  0  0
   51.2700   -1.9198   47.2392 H   0  0  0  0  0
   52.4097   -2.8981   46.3988 H   0  0  0  0  0
   52.9302   -0.3145   47.9149 H   0  0  0  0  0
   53.4445   -0.7280   46.3219 H   0  0  0  0  0
   55.2296   -2.1988   47.1353 H   0  0  0  0  0
   55.2319   -1.0560   48.3662 H   0  0  0  0  0
   50.4732   -4.2222   49.3138 H   0  0  0  0  0
   51.2249   -6.9834   49.0721 H   0  0  0  0  0
   48.5577   -5.7560   48.3101 H   0  0  0  0  0
   49.1309   -5.9825   50.0517 H   0  0  0  0  0
   49.0111   -8.3276   49.8243 H   0  0  0  0  0
   48.6403   -8.1916   48.0565 H   0  0  0  0  0
   46.8569   -7.2636   50.3423 H   0  0  0  0  0
   46.4923   -7.1299   48.6044 H   0  0  0  0  0
   46.6184   -8.7342   49.3669 H   0  0  0  0  0
   51.3980   -8.3810   47.4295 H   0  0  0  0  0
   51.7564   -7.3251   44.7653 H   0  0  0  0  0
   49.2571   -8.8789   46.1703 H   0  0  0  0  0
   53.0135   -9.2851   45.6349 H   0  0  0  0  0
   51.4969  -10.2108   45.7531 H   0  0  0  0  0
   52.1232   -9.7278   44.1576 H   0  0  0  0  0
  2  1  1  0  0  0
  3  2  1  0  0  0
  2  5  1  0  0  0
  3  4  2  0  0  0
  6  3  1  0  0  0
  7  6  1  0  0  0
  8  7  1  0  0  0
  7 10  1  0  0  0
  8  9  2  0  0  0
 17  8  1  0  0  0
 10 11  1  0  0  0
 11 12  1  0  0  0
 12 13  1  0  0  0
 13 14  1  0  0  0
 14 15  2  0  0  0
 14 16  1  0  0  0
 18 17  1  0  0  0
 18 19  1  0  0  0
 26 18  1  0  0  0
 19 20  1  0  0  0
 20 21  1  0  0  0
 21 22  1  0  0  0
 22 23  1  0  0  0
 23 24  1  0  0  0
 23 25  1  0  0  0
 26 27  2  0  0  0
 28 26  1  0  0  0
 29 28  1  0  0  0
 30 29  1  0  0  0
 29 32  1  0  0  0
 30 31  2  0  0  0
 34 30  1  0  0  0
 32 33  1  0  0  0
 35 34  1  0  0  0
 36 35  1  0  0  0
 35 38  1  0  0  0
 36 37  2  0  0  0
 41 36  1  0  0  0
 38 39  1  0  0  0
 38 40  1  0  0  0
 42 41  1  0  0  0
 43 42  1  0  0  0
 43 44  2  0  0  0
 45 43  1  0  0  0
 46 45  1  0  0  0
 47 46  1  0  0  0
 47 48  2  0  0  0
 58 47  1  0  0  0
 50 49  2  0  0  0
 50 51  1  0  0  0
 52 50  1  0  0  0
 53 52  1  0  0  0
 54 53  1  0  0  0
 55 54  1  0  0  0
 56 55  1  0  0  0
 57 56  1  0  0  0
 57 58  1  0  0  0
 57 59  1  0  0  0
 59 60  2  0  0  0
 59 61  1  0  0  0
 61 62  1  0  0  0
 62 63  1  0  0  0
 62 65  1  0  0  0
 63 64  2  0  0  0
 63 66  1  0  0  0
 66 67  1  0  0  0
 66 72  1  0  0  0
 67 68  1  0  0  0
 67 70  1  0  0  0
 68 69  2  0  0  0
 68 73  1  0  0  0
 70 71  1  0  0  0
 71 72  1  0  0  0
 73 74  1  0  0  0
 74 75  1  0  0  0
 74 77  1  0  0  0
 75 76  2  0  0  0
 75 80  1  0  0  0
 77 78  1  0  0  0
 78 79  1  0  0  0
 80 81  1  0  0  0
 81 82  1  0  0  0
 81 84  1  0  0  0
 82 83  1  0  0  0
 82 85  2  0  0  0
  1 86  1  0  0  0
  1 87  1  0  0  0
  1 88  1  0  0  0
  2 89  1  0  0  0
  5 90  1  0  0  0
  5 91  1  0  0  0
  5 92  1  0  0  0
  6 93  1  0  0  0
  7 94  1  0  0  0
 10 95  1  0  0  0
 10 96  1  0  0  0
 11 97  1  0  0  0
 11 98  1  0  0  0
 12 99  1  0  0  0
 12100  1  0  0  0
 13101  1  0  0  0
 15102  1  0  0  0
 16103  1  0  0  0
 16104  1  0  0  0
 17105  1  0  0  0
 18106  1  0  0  0
 19107  1  0  0  0
 19108  1  0  0  0
 20109  1  0  0  0
 20110  1  0  0  0
 21111  1  0  0  0
 21112  1  0  0  0
 22113  1  0  0  0
 22114  1  0  0  0
 23115  1  0  0  0
 24116  1  0  0  0
 24117  1  0  0  0
 24118  1  0  0  0
 25119  1  0  0  0
 25120  1  0  0  0
 25121  1  0  0  0
 28122  1  0  0  0
 29123  1  0  0  0
 32124  1  0  0  0
 32125  1  0  0  0
 33126  1  0  0  0
 34127  1  0  0  0
 35128  1  0  0  0
 38129  1  0  0  0
 39130  1  0  0  0
 40131  1  0  0  0
 40132  1  0  0  0
 40133  1  0  0  0
 41134  1  0  0  0
 42135  1  0  0  0
 42136  1  0  0  0
 45137  1  0  0  0
 46138  1  0  0  0
 46139  1  0  0  0
 51140  1  0  0  0
 51141  1  0  0  0
 51142  1  0  0  0
 52143  1  0  0  0
 53144  1  0  0  0
 53145  1  0  0  0
 54146  1  0  0  0
 54147  1  0  0  0
 55148  1  0  0  0
 55149  1  0  0  0
 56150  1  0  0  0
 56151  1  0  0  0
 57152  1  0  0  0
 58153  1  0  0  0
 61154  1  0  0  0
 62155  1  0  0  0
 65156  1  0  0  0
 65157  1  0  0  0
 65158  1  0  0  0
 67159  1  0  0  0
 70160  1  0  0  0
 70161  1  0  0  0
 71162  1  0  0  0
 71163  1  0  0  0
 72164  1  0  0  0
 72165  1  0  0  0
 73166  1  0  0  0
 74167  1  0  0  0
 77168  1  0  0  0
 77169  1  0  0  0
 78170  1  0  0  0
 78171  1  0  0  0
 79172  1  0  0  0
 79173  1  0  0  0
 79174  1  0  0  0
 80175  1  0  0  0
 81176  1  0  0  0
 83177  1  0  0  0
 84178  1  0  0  0
 84179  1  0  0  0
 84180  1  0  0  0
M  END
$$$$
