4des_ligand
  -I-interpret- 

 29 31  0  0  0  0  0  0  0  0999 V2000
   21.8840    0.1560   -7.2380 C   0  0  0  0  0
   22.9660   -0.7120   -7.1510 C   0  0  0  0  0
   23.3460   -1.2150   -5.9190 C   0  0  0  0  0
   22.6290   -0.8350   -4.7970 C   0  0  0  0  0
   22.9890   -1.3260   -3.5470 C   0  0  0  0  0
   22.2730   -0.9470   -2.4180 C   0  0  0  0  0
   21.1960   -0.0780   -2.5430 C   0  0  0  0  0
   20.8390    0.4110   -3.7940 C   0  0  0  0  0
   21.5520    0.0360   -4.9270 C   0  0  0  0  0
   21.1680    0.5390   -6.1380 O   0  0  0  0  0
   24.3010   -1.9840   -5.8230 O   0  0  0  0  0
   24.0440   -2.1760   -3.4290 O   0  0  0  0  0
   20.4920    0.2950   -1.4400 O   0  0  0  0  0
   21.2970    2.0130   -8.6530 C   0  0  0  0  0
   20.9300    2.5080   -9.8990 C   0  0  0  0  0
   20.7820    1.6410  -10.9760 C   0  0  0  0  0
   21.0020    0.2790  -10.8060 C   0  0  0  0  0
   21.3690   -0.2160   -9.5600 C   0  0  0  0  0
   21.5170    0.6510   -8.4840 C   0  0  0  0  0
   23.5133   -0.9956   -8.0500 H   0  0  0  0  0
   22.5553   -1.3302   -1.4374 H   0  0  0  0  0
   19.9941    1.0933   -3.8875 H   0  0  0  0  0
   24.1569   -2.4180   -2.5069 H   0  0  0  0  0
   19.7870    0.8930   -1.6988 H   0  0  0  0  0
   21.4122    2.6927   -7.8087 H   0  0  0  0  0
   20.7582    3.5761  -10.0318 H   0  0  0  0  0
   20.4937    2.0291  -11.9529 H   0  0  0  0  0
   20.8867   -0.4010  -11.6500 H   0  0  0  0  0
   21.5407   -1.2841   -9.4269 H   0  0  0  0  0
  1  2  2  0  0  0
  1 10  1  0  0  0
 19  1  1  0  0  0
  2  3  1  0  0  0
  3  4  1  0  0  0
  3 11  2  0  0  0
  4  5  4  0  0  0
  9  4  4  0  0  0
  5  6  4  0  0  0
  5 12  1  0  0  0
  7  6  4  0  0  0
  8  7  4  0  0  0
  7 13  1  0  0  0
  9  8  4  0  0  0
 10  9  1  0  0  0
 14 15  4  0  0  0
 14 19  4  0  0  0
 15 16  4  0  0  0
 16 17  4  0  0  0
 17 18  4  0  0  0
 18 19  4  0  0  0
  2 20  1  0  0  0
  6 21  1  0  0  0
  8 22  1  0  0  0
 12 23  1  0  0  0
 13 24  1  0  0  0
 14 25  1  0  0  0
 15 26  1  0  0  0
 16 27  1  0  0  0
 17 28  1  0  0  0
 18 29  1  0  0  0
M  END
$$$$
