2xml_ligand
  -I-interpret- 

 15 14  0  0  0  0  0  0  0  0999 V2000
   49.5660   24.4520   52.1000 C   0  0  0  0  0
   51.0280   24.3650   51.7440 C   0  0  0  0  0
   52.9230   25.1880   50.5010 C   0  0  0  0  0
   53.3010   26.4540   49.7230 C   0  0  0  0  0
   49.0320   23.6760   52.9270 O   0  0  0  0  0
   48.9020   25.3920   51.4910 O   0  0  0  0  0
   51.8030   23.4540   52.3600 O   0  0  0  0  0
   54.3050   27.0880   50.1310 O   0  0  0  0  0
   51.5340   25.2170   50.8840 N   0  0  0  0  0
   52.5650   26.7690   48.7500 O   0  0  0  0  0
   53.5345   25.1338   51.4017 H   0  0  0  0  0
   53.0934   24.3203   49.8637 H   0  0  0  0  0
   49.4920   25.8698   50.9035 H   0  0  0  0  0
   50.9239   25.9235   50.4728 H   0  0  0  0  0
   51.8688   26.1153   48.6521 H   0  0  0  0  0
  2  1  1  0  0  0
  1  5  2  0  0  0
  1  6  1  0  0  0
  2  7  2  0  0  0
  9  2  1  0  0  0
  3  4  1  0  0  0
  3  9  1  0  0  0
  4  8  2  0  0  0
  4 10  1  0  0  0
  3 11  1  0  0  0
  3 12  1  0  0  0
  6 13  1  0  0  0
  9 14  1  0  0  0
 10 15  1  0  0  0
M  END
$$$$
