4hdf_ligand
  -I-interpret- 

 82 86  0  0  0  0  0  0  0  0999 V2000
   17.3440  -25.0320  -20.1770 C   0  0  0  0  0
   16.6590  -24.1100  -20.9620 C   0  0  0  0  0
   15.6160  -23.3980  -20.3980 C   0  0  0  0  0
   15.2450  -23.5790  -19.0990 C   0  0  0  0  0
   15.8580  -24.5610  -18.3570 C   0  0  0  0  0
   16.9190  -25.2920  -18.8800 C   0  0  0  0  0
   13.8870  -22.6750  -18.4650 S   0  0  0  0  0
   12.9560  -22.3180  -19.5670 O   0  0  0  0  0
   13.3130  -23.3510  -17.2930 O   0  0  0  0  0
   14.5110  -21.2620  -17.9140 N   0  0  0  0  0
   15.5500  -21.3750  -16.9410 C   0  0  0  0  0
   15.4080  -20.3770  -15.7880 C   0  0  0  0  0
   14.0890  -20.5660  -15.0820 C   0  0  0  0  0
   16.5130  -20.6050  -14.7530 C   0  0  0  0  0
   14.6220  -20.1840  -18.8720 C   0  0  0  0  0
   13.7540  -18.9970  -18.4620 C   0  0  0  0  0
   14.2700  -17.8560  -19.1290 O   0  0  0  0  0
   12.2720  -19.2140  -18.7380 C   0  0  0  0  0
   11.4380  -18.2080  -18.1220 N   0  0  0  0  0
   10.6470  -18.3210  -17.0610 C   0  0  0  0  0
   10.5140  -19.3380  -16.3550 O   0  0  0  0  0
   10.0350  -17.1440  -16.7790 O   0  0  0  0  0
    9.0490  -17.1880  -15.7550 C   0  0  0  0  0
    9.2800  -15.9470  -14.8790 C   0  0  0  0  0
    8.6620  -14.8400  -15.5620 O   0  0  0  0  0
    7.6750  -15.3490  -16.4810 C   0  0  0  0  0
    8.0220  -15.0660  -17.8460 O   0  0  0  0  0
    7.9000  -16.2290  -18.6620 C   0  0  0  0  0
    7.4370  -17.3620  -17.7450 C   0  0  0  0  0
    7.6500  -16.8580  -16.3280 C   0  0  0  0  0
   11.8890  -19.2540  -20.2150 C   0  0  0  0  0
    9.5660  -18.6340  -20.9620 C   0  0  0  0  0
    8.2300  -18.9640  -21.0810 C   0  0  0  0  0
    7.7040  -20.1660  -20.6090 C   0  0  0  0  0
    8.5960  -21.1050  -20.1150 C   0  0  0  0  0
    9.9260  -20.8060  -20.0060 C   0  0  0  0  0
   10.4160  -19.5780  -20.4160 C   0  0  0  0  0
   18.3880  -25.6440  -20.7780 O   0  0  0  0  0
   19.0720  -26.5220  -19.8860 C   0  0  0  0  0
    6.8610  -16.0750  -19.6390 O   0  0  0  0  0
    5.6540  -16.3010  -18.8960 C   0  0  0  0  0
    5.9820  -17.5690  -18.1300 C   0  0  0  0  0
   16.9394  -23.9515  -22.0033 H   0  0  0  0  0
   15.0767  -22.6734  -21.0081 H   0  0  0  0  0
   15.5078  -24.7691  -17.3460 H   0  0  0  0  0
   17.4105  -26.0584  -18.2807 H   0  0  0  0  0
   16.4957  -21.1684  -17.4421 H   0  0  0  0  0
   15.4985  -22.3782  -16.5178 H   0  0  0  0  0
   15.4732  -19.3748  -16.2116 H   0  0  0  0  0
   13.2742  -20.4084  -15.7887 H   0  0  0  0  0
   14.0341  -21.5786  -14.6822 H   0  0  0  0  0
   14.0086  -19.8472  -14.2666 H   0  0  0  0  0
   16.4372  -21.6188  -14.3598 H   0  0  0  0  0
   17.4856  -20.4691  -15.2259 H   0  0  0  0  0
   16.4000  -19.8889  -13.9391 H   0  0  0  0  0
   14.2858  -20.5440  -19.8443 H   0  0  0  0  0
   15.6616  -19.8592  -18.9143 H   0  0  0  0  0
   13.8019  -18.8610  -17.3816 H   0  0  0  0  0
   13.7470  -17.0859  -18.8945 H   0  0  0  0  0
   12.0967  -20.1976  -18.3022 H   0  0  0  0  0
   11.4595  -17.2874  -18.5607 H   0  0  0  0  0
    9.1051  -18.1638  -15.2725 H   0  0  0  0  0
   10.3450  -15.7676  -14.7314 H   0  0  0  0  0
    8.8467  -16.0839  -13.8882 H   0  0  0  0  0
    6.7164  -14.8805  -16.2579 H   0  0  0  0  0
    8.8526  -16.4133  -19.1586 H   0  0  0  0  0
    7.9606  -18.3145  -17.8262 H   0  0  0  0  0
    6.8896  -17.2962  -15.6815 H   0  0  0  0  0
   12.4776  -20.0341  -20.6978 H   0  0  0  0  0
   12.0821  -18.2703  -20.6430 H   0  0  0  0  0
    9.9376  -17.6624  -21.2875 H   0  0  0  0  0
    7.5583  -18.2546  -21.5644 H   0  0  0  0  0
    6.6316  -20.3600  -20.6278 H   0  0  0  0  0
    8.2351  -22.0877  -19.8116 H   0  0  0  0  0
   10.6103  -21.5455  -19.5902 H   0  0  0  0  0
   19.4506  -25.9527  -19.0370 H   0  0  0  0  0
   18.3823  -27.2885  -19.5326 H   0  0  0  0  0
   19.9040  -26.9934  -20.4091 H   0  0  0  0  0
    4.7714  -16.3969  -19.5284 H   0  0  0  0  0
    5.3843  -15.4658  -18.2496 H   0  0  0  0  0
    5.3328  -17.7243  -17.2683 H   0  0  0  0  0
    5.8229  -18.4731  -18.7177 H   0  0  0  0  0
  2  1  4  0  0  0
  6  1  4  0  0  0
  1 38  1  0  0  0
  3  2  4  0  0  0
  4  3  4  0  0  0
  4  5  4  0  0  0
  7  4  1  0  0  0
  5  6  4  0  0  0
  7  8  2  0  0  0
  7  9  2  0  0  0
 10  7  1  0  0  0
 10 11  1  0  0  0
 15 10  1  0  0  0
 11 12  1  0  0  0
 12 13  1  0  0  0
 12 14  1  0  0  0
 16 15  1  0  0  0
 16 17  1  0  0  0
 18 16  1  0  0  0
 18 19  1  0  0  0
 31 18  1  0  0  0
 19 20  1  0  0  0
 20 21  2  0  0  0
 20 22  1  0  0  0
 22 23  1  0  0  0
 23 24  1  0  0  0
 23 30  1  0  0  0
 24 25  1  0  0  0
 26 25  1  0  0  0
 26 27  1  0  0  0
 30 26  1  0  0  0
 28 27  1  0  0  0
 29 28  1  0  0  0
 28 40  1  0  0  0
 30 29  1  0  0  0
 29 42  1  0  0  0
 37 31  1  0  0  0
 32 33  4  0  0  0
 32 37  4  0  0  0
 33 34  4  0  0  0
 34 35  4  0  0  0
 35 36  4  0  0  0
 36 37  4  0  0  0
 38 39  1  0  0  0
 40 41  1  0  0  0
 41 42  1  0  0  0
  2 43  1  0  0  0
  3 44  1  0  0  0
  5 45  1  0  0  0
  6 46  1  0  0  0
 11 47  1  0  0  0
 11 48  1  0  0  0
 12 49  1  0  0  0
 13 50  1  0  0  0
 13 51  1  0  0  0
 13 52  1  0  0  0
 14 53  1  0  0  0
 14 54  1  0  0  0
 14 55  1  0  0  0
 15 56  1  0  0  0
 15 57  1  0  0  0
 16 58  1  0  0  0
 17 59  1  0  0  0
 18 60  1  0  0  0
 19 61  1  0  0  0
 23 62  1  0  0  0
 24 63  1  0  0  0
 24 64  1  0  0  0
 26 65  1  0  0  0
 28 66  1  0  0  0
 29 67  1  0  0  0
 30 68  1  0  0  0
 31 69  1  0  0  0
 31 70  1  0  0  0
 32 71  1  0  0  0
 33 72  1  0  0  0
 34 73  1  0  0  0
 35 74  1  0  0  0
 36 75  1  0  0  0
 39 76  1  0  0  0
 39 77  1  0  0  0
 39 78  1  0  0  0
 41 79  1  0  0  0
 41 80  1  0  0  0
 42 81  1  0  0  0
 42 82  1  0  0  0
M  END
$$$$
