3zmg_ligand
  -I-interpret- 

 42 44  0  0  0  0  0  0  0  0999 V2000
  -21.5890   43.6970    2.4360 C   0  0  0  0  0
  -21.7590   43.0680    3.6480 C   0  0  0  0  0
  -20.8190   42.1320    4.0770 C   0  0  0  0  0
  -19.7380   41.8690    3.3570 N   0  0  0  0  0
  -19.5260   42.4900    2.2200 C   0  0  0  0  0
  -19.8300   40.8870    5.8690 N   0  0  0  0  0
  -19.0540   39.1320    9.5560 C   0  0  0  0  0
  -20.4280   43.4170    1.7080 C   0  0  0  0  0
  -20.9470   41.4840    5.3860 C   0  0  0  0  0
  -22.0160   41.5370    5.9750 O   0  0  0  0  0
  -20.2130   44.0230    0.4280 C   0  0  0  0  0
  -20.0060   44.4920   -0.5990 N   0  0  0  0  0
  -19.6310   40.2560    7.1000 C   0  0  0  0  0
  -20.6660   39.8530    7.9530 C   0  0  0  0  0
  -20.3610   39.2870    9.1700 C   0  0  0  0  0
  -18.0100   39.5260    8.7150 C   0  0  0  0  0
  -18.3180   40.0960    7.5270 C   0  0  0  0  0
  -18.7580   38.5860   10.7390 F   0  0  0  0  0
  -16.3260   37.9570    9.7040 C   0  0  0  0  0
  -15.0900   41.6650    8.2420 O   0  0  0  0  0
  -15.0710   40.5010    7.6170 C   0  0  0  0  0
  -15.7170   39.4190    7.9390 N   0  0  0  0  0
  -16.1120   40.4920   10.0690 C   0  0  0  0  0
  -16.0340   41.8090    9.3270 C   0  0  0  0  0
  -14.8480   40.2290   10.6070 F   0  0  0  0  0
  -17.0180   40.6140   11.1340 F   0  0  0  0  0
  -16.5790   39.3550    9.1250 C   0  0  0  0  0
  -14.2580   40.5230    6.5210 N   0  0  0  0  0
  -22.3366   44.3925    2.0547 H   0  0  0  0  0
  -22.6239   43.3003    4.2693 H   0  0  0  0  0
  -18.6161   42.2728    1.6605 H   0  0  0  0  0
  -19.0217   40.9001    5.2470 H   0  0  0  0  0
  -21.7060   39.9866    7.6552 H   0  0  0  0  0
  -21.1633   38.9598    9.8313 H   0  0  0  0  0
  -17.5091   40.4413    6.8832 H   0  0  0  0  0
  -16.9576   37.8081   10.5798 H   0  0  0  0  0
  -16.5631   37.2051    8.9514 H   0  0  0  0  0
  -15.2782   37.8681    9.9908 H   0  0  0  0  0
  -15.6218   38.5914    7.3504 H   0  0  0  0  0
  -17.0156   42.0754    8.9350 H   0  0  0  0  0
  -15.7082   42.5996   10.0029 H   0  0  0  0  0
  -13.7556   41.3761    6.2758 H   0  0  0  0  0
  2  1  4  0  0  0
  1  8  4  0  0  0
  3  2  4  0  0  0
  3  4  4  0  0  0
  9  3  1  0  0  0
  4  5  4  0  0  0
  5  8  4  0  0  0
  6  9  1  0  0  0
 13  6  1  0  0  0
  7 15  4  0  0  0
 16  7  4  0  0  0
  7 18  1  0  0  0
  8 11  1  0  0  0
  9 10  2  0  0  0
 11 12  3  0  0  0
 13 14  4  0  0  0
 17 13  4  0  0  0
 15 14  4  0  0  0
 16 17  4  0  0  0
 27 16  1  0  0  0
 27 19  1  0  0  0
 21 20  1  0  0  0
 20 24  1  0  0  0
 22 21  1  0  0  0
 21 28  2  0  0  0
 22 27  1  0  0  0
 24 23  1  0  0  0
 23 25  1  0  0  0
 23 26  1  0  0  0
 23 27  1  0  0  0
  1 29  1  0  0  0
  2 30  1  0  0  0
  5 31  1  0  0  0
  6 32  1  0  0  0
 14 33  1  0  0  0
 15 34  1  0  0  0
 17 35  1  0  0  0
 19 36  1  0  0  0
 19 37  1  0  0  0
 19 38  1  0  0  0
 22 39  1  0  0  0
 24 40  1  0  0  0
 24 41  1  0  0  0
 28 42  1  0  0  0
M  END
$$$$
