3c45_ligand
  -I-interpret- 

 54 57  0  0  0  0  0  0  0  0999 V2000
   39.6540   51.2680   36.0040 C   0  0  0  0  0
   38.4420   50.8230   35.0800 C   0  0  0  0  0
   37.0940   50.7420   35.7860 C   0  0  0  0  0
   36.2720   49.6640   35.7610 C   0  0  0  0  0
   36.6950   51.8180   36.4720 F   0  0  0  0  0
   38.3140   51.7750   33.9880 N   0  3  0  0  0
   40.8580   51.6900   35.1270 C   0  0  0  0  0
   34.9170   49.6040   36.4530 C   0  0  0  0  0
   34.1830   48.3590   35.9340 C   0  0  0  0  0
   35.1090   47.6800   34.9220 C   0  0  0  0  0
   36.4850   48.3290   35.0790 C   0  0  0  0  0
   41.6690   52.8460   35.7480 C   0  0  0  0  0
   43.0320   53.0740   35.2570 C   0  0  0  0  0
   42.8150   52.4820   36.5780 C   0  0  0  0  0
   40.1700   50.1180   36.8330 C   0  0  0  0  0
   40.1850   50.1460   38.1510 N   0  0  0  0  0
   40.6960   48.9650   38.5090 C   0  0  0  0  0
   40.9950   48.2090   37.4210 N   0  0  0  0  0
   40.6380   48.9900   36.2970 O   0  0  0  0  0
   40.8940   48.4060   39.8810 C   0  0  0  0  0
   40.0860   49.0480   40.8710 C   0  0  0  0  0
   40.1010   48.6070   42.2140 C   0  0  0  0  0
   40.9260   47.5210   42.5900 C   0  0  0  0  0
   41.7510   46.8750   41.6370 C   0  0  0  0  0
   41.7410   47.3070   40.2950 C   0  0  0  0  0
   40.8990   46.9380   44.2620 S   0  0  0  0  0
   39.6080   47.2290   44.8130 O   0  0  0  0  0
   42.0260   47.5780   44.9560 O   0  0  0  0  0
   41.1860   45.1970   44.0670 C   0  0  0  0  0
   42.7690   46.3980   39.2290 Cl  0  0  0  0  0
   39.2800   52.0761   36.6326 H   0  0  0  0  0
   38.6814   49.8144   34.7432 H   0  0  0  0  0
   39.2049   51.8489   33.4968 H   0  0  0  0  0
   37.5934   51.4540   33.3414 H   0  0  0  0  0
   38.0542   52.6874   34.3627 H   0  0  0  0  0
   40.4702   52.0306   34.1669 H   0  0  0  0  0
   41.5204   50.8297   35.0308 H   0  0  0  0  0
   34.3399   50.5028   36.2359 H   0  0  0  0  0
   35.0451   49.5459   37.5339 H   0  0  0  0  0
   33.2386   48.6364   35.4657 H   0  0  0  0  0
   33.9470   47.6815   36.7546 H   0  0  0  0  0
   34.7337   47.8071   33.9066 H   0  0  0  0  0
   35.1631   46.6068   35.1048 H   0  0  0  0  0
   37.1443   47.6949   35.6717 H   0  0  0  0  0
   36.9597   48.4647   34.1072 H   0  0  0  0  0
   40.7860   53.4726   35.8738 H   0  0  0  0  0
   43.7095   53.4260   34.4791 H   0  0  0  0  0
   43.2157   52.0703   37.5043 H   0  0  0  0  0
   39.4511   49.8872   40.5867 H   0  0  0  0  0
   39.4781   49.1028   42.9585 H   0  0  0  0  0
   42.3914   46.0467   41.9401 H   0  0  0  0  0
   41.1198   44.7081   45.0389 H   0  0  0  0  0
   40.4349   44.7791   43.3967 H   0  0  0  0  0
   42.1789   45.0386   43.6461 H   0  0  0  0  0
  1  2  1  0  0  0
  1  7  1  0  0  0
  1 15  1  0  0  0
  2  3  1  0  0  0
  2  6  1  0  0  0
  3  4  2  0  0  0
  3  5  1  0  0  0
  4  8  1  0  0  0
  4 11  1  0  0  0
  7 12  1  0  0  0
  8  9  1  0  0  0
  9 10  1  0  0  0
 10 11  1  0  0  0
 12 13  1  0  0  0
 12 14  1  0  0  0
 13 14  2  0  0  0
 15 16  4  0  0  0
 15 19  4  0  0  0
 16 17  4  0  0  0
 17 18  4  0  0  0
 17 20  1  0  0  0
 18 19  4  0  0  0
 20 21  4  0  0  0
 20 25  4  0  0  0
 21 22  4  0  0  0
 22 23  4  0  0  0
 23 24  4  0  0  0
 23 26  1  0  0  0
 24 25  4  0  0  0
 25 30  1  0  0  0
 26 27  2  0  0  0
 26 28  2  0  0  0
 26 29  1  0  0  0
  1 31  1  0  0  0
  2 32  1  0  0  0
  6 33  1  0  0  0
  6 34  1  0  0  0
  6 35  1  0  0  0
  7 36  1  0  0  0
  7 37  1  0  0  0
  8 38  1  0  0  0
  8 39  1  0  0  0
  9 40  1  0  0  0
  9 41  1  0  0  0
 10 42  1  0  0  0
 10 43  1  0  0  0
 11 44  1  0  0  0
 11 45  1  0  0  0
 12 46  1  0  0  0
 13 47  1  0  0  0
 14 48  1  0  0  0
 21 49  1  0  0  0
 22 50  1  0  0  0
 24 51  1  0  0  0
 29 52  1  0  0  0
 29 53  1  0  0  0
 29 54  1  0  0  0
M  END
$$$$
