#	Name:			6ibv_ligand
#	Creating user name:	wangrx
#	Creation time:		Thu Aug  5 18:22:48 2021

#	Modifying user name:	wangrx
#	Modification time:	Thu Aug  5 18:23:08 2021

@<TRIPOS>MOLECULE
6ibv_ligand
   27    28     1     0     0
SMALL
GAST_HUCK


@<TRIPOS>ATOM
      1 C01        -7.5170    0.1710  -17.7980 C.ar      1 H9E        -0.1042 
      2 C02        -7.1930    0.7840  -16.4460 C.ar      1 H9E        -0.1354 
      3 C03        -8.0910    1.8980  -15.8590 C.ar      1 H9E        -0.1232 
      4 C04        -8.0190    2.7310  -14.4850 C.2       1 H9E        -0.1672 
      5 O08       -11.1190    4.8550  -13.0020 O.3       1 H9E        -0.4105 
      6 O09        -8.7680    4.2080  -11.7960 O.3       1 H9E        -0.4105 
      7 C11        -9.2590    2.3700  -16.6020 C.ar      1 H9E        -0.0422 
      8 C12        -9.5960    1.7500  -17.9810 C.ar      1 H9E        -0.1186 
      9 C13        -8.7220    0.6560  -18.5680 C.ar      1 H9E        -0.1327 
     10 C14        -6.6280   -0.9290  -18.3750 C.3       1 H9E         0.0217 
     11 C05        -9.1330    3.6720  -14.4380 C.2       1 H9E        -0.1117 
     12 B06        -9.4690    4.7450  -13.2080 B         1 H9E         4.0000 
     13 O07        -8.8560    6.2450  -13.5970 O.3       1 H9E        -0.4105 
     14 S10        -9.9500    3.4860  -15.7520 S.3       1 H9E        -0.1399 
     15 BR         -6.2150   -1.8270  -17.3110 Br        1 H9E        -0.0779 
     16 H1         -6.3285    0.4390  -15.8904 H         1 H9E         0.0025 
     17 H2         -7.2601    2.6117  -13.7132 H         1 H9E        -0.0014 
     18 H3        -11.4671    3.9993  -12.7804 H         1 H9E         0.2052 
     19 H4        -11.4671    3.9993  -12.7804 H         1 H9E         0.2052 
     20 H5         -9.1179    3.3528  -11.5753 H         1 H9E         0.2052 
     21 H6         -9.1179    3.3528  -11.5753 H         1 H9E         0.2052 
     22 H7        -10.4622    2.0998  -18.5309 H         1 H9E         0.0210 
     23 H8         -8.9615    0.2258  -19.5337 H         1 H9E         0.0052 
     24 H9         -5.7389   -0.4764  -18.8382 H         1 H9E         0.0520 
     25 H10        -7.1895   -1.4937  -19.1338 H         1 H9E         0.0520 
     26 H12        -9.0479    6.8560  -12.8953 H         1 H9E         0.2052 
     27 H13        -9.0479    6.8559  -12.8953 H         1 H9E         0.2052 
@<TRIPOS>BOND
     1    2    1 ar   
     2    9    1 ar   
     3    1   10 1    
     4    3    2 ar   
     5    4    3 1    
     6    7    3 ar   
     7   11    4 2    
     8   12    5 1    
     9   12    6 1    
    10    7    8 ar   
    11   14    7 1    
    12    8    9 ar   
    13   10   15 1    
    14   11   14 1    
    15   12   13 1    
    16   11   12 1    
    17    2   16 1    
    18    4   17 1    
    19    5   18 1    
    20    5   19 1    
    21    6   20 1    
    22    6   21 1    
    23    8   22 1    
    24    9   23 1    
    25   10   24 1    
    26   10   25 1    
    27   13   26 1    
    28   13   27 1    
@<TRIPOS>SUBSTRUCTURE
     1 H9E         1 PERM              0 ****  ****    0 ROOT 
