6ibv_ligand

Created by X-TOOL on Mon Aug  2 16:17:18 2021
 28 29  0  0  0  0  0  0  0  0999 V2000
   -7.5170    0.1710  -17.7980  C 0  0  0  1  0  3
   -7.1930    0.7840  -16.4460  C 0  0  0  2  0  3
   -8.0910    1.8980  -15.8590  C 0  0  0  1  0  3
   -8.0190    2.7310  -14.4850  C 0  0  0  2  0  3
  -11.1190    4.8550  -13.0020  O 0  0  0  3  0  3
   -8.7680    4.2080  -11.7960  O 0  0  0  3  0  3
   -9.2590    2.3700  -16.6020  C 0  0  0  1  0  3
   -9.5960    1.7500  -17.9810  C 0  0  0  2  0  3
   -8.7220    0.6560  -18.5680  C 0  0  0  2  0  3
   -6.6280   -0.9290  -18.3750  C 0  0  0  3  0  4
   -9.1330    3.6720  -14.4380  C 0  0  0  2  0  4
   -9.4690    4.7450  -13.2080  B 0  0  0  1  0  4
   -8.8560    6.2450  -13.5970  O 0  0  0  3  0  3
   -9.9500    3.4860  -15.7520  S 0  0  0  1  0  2
   -6.2150   -1.8270  -17.3110 Br 0  0  0  1  0  1
   -6.3285    0.4390  -15.8904  H 0  0  0  1  0  1
   -7.2601    2.6117  -13.7132  H 0  0  0  1  0  1
  -11.4671    3.9993  -12.7804  H 0  0  0  1  0  1
  -11.4671    3.9993  -12.7804  H 0  0  0  1  0  1
   -9.1179    3.3528  -11.5753  H 0  0  0  1  0  1
   -9.1179    3.3528  -11.5753  H 0  0  0  1  0  1
  -10.4622    2.0998  -18.5309  H 0  0  0  1  0  1
   -8.9615    0.2258  -19.5337  H 0  0  0  1  0  1
   -5.7389   -0.4764  -18.8382  H 0  0  0  1  0  1
   -7.1895   -1.4937  -19.1338  H 0  0  0  1  0  1
   -9.3526    4.3735  -13.6345  H 0  0  0  1  0  1
   -9.0479    6.8560  -12.8953  H 0  0  0  1  0  1
   -9.0479    6.8559  -12.8953  H 0  0  0  1  0  1
  1  2  4  0  0  1
  1  9  4  0  0  1
  1 10  1  0  0  2
  2  3  4  0  0  1
  3  4  1  0  0  1
  3  7  4  0  0  1
  4 11  2  0  0  1
  5 12  1  0  0  2
 12  6  1  0  0  2
  7  8  4  0  0  1
  7 14  1  0  0  1
  8  9  4  0  0  1
 10 15  1  0  0  2
 11 14  1  0  0  1
 12 13  1  0  0  2
 11 12  1  0  0  2
  2 16  1  0  0  2
  4 17  1  0  0  2
  5 18  1  0  0  2
  5 19  1  0  0  2
  6 20  1  0  0  2
  6 21  1  0  0  2
  8 22  1  0  0  2
  9 23  1  0  0  2
 10 24  1  0  0  2
 10 25  1  0  0  2
 11 26  1  0  0  2
 13 27  1  0  0  2
 13 28  1  0  0  2
M  END
> <MOLECULAR_FORMULA>
C9H13O3SBrB

> <MOLECULAR_WEIGHT>
291.9

> <NUM_HB_ATOMS>
3  

> <NUM_ROTOR>
2  

> <XLOGP2>
1.82 

$$$$
