3sw9_ligand
  -I-interpret- 

 89 88  0  0  0  0  0  0  0  0999 V2000
   41.8530  -26.9320   10.8260 N   0  3  0  0  0
   40.4330  -27.1350   11.1510 C   0  0  0  0  0
   39.6070  -27.5400    9.9220 C   0  0  0  0  0
   39.9680  -27.2010    8.7900 O   0  0  0  0  0
   39.7880  -25.8850   11.8070 C   0  0  0  0  0
   39.6160  -24.8540   10.8240 O   0  0  0  0  0
   40.6490  -25.3730   12.9700 C   0  0  0  0  0
   38.4990  -28.2510   10.1540 N   0  0  0  0  0
   37.7590  -28.9190    9.0740 C   0  0  0  0  0
   36.8700  -27.9850    8.2570 C   0  0  0  0  0
   35.8640  -27.4990    8.7630 O   0  0  0  0  0
   36.9350  -30.0830    9.6270 C   0  0  0  0  0
   37.2310  -27.7670    6.9920 N   0  0  0  0  0
   36.5040  -26.8460    6.1200 C   0  0  0  0  0
   35.8550  -27.5570    4.9390 C   0  0  0  0  0
   36.5250  -28.3160    4.2240 O   0  0  0  0  0
   37.4440  -25.7700    5.5610 C   0  0  0  0  0
   38.4480  -25.1970    6.5530 C   0  0  0  0  0
   37.8940  -24.0250    7.3630 C   0  0  0  0  0
   38.8920  -23.5220    8.3070 N   0  0  0  0  0
   39.8320  -22.6310    7.9980 C   0  0  0  0  0
   40.7100  -22.2360    8.9170 N   0  0  0  0  0
   39.8950  -22.1320    6.7670 N   0  0  0  0  0
   34.5590  -27.2930    4.7310 N   0  0  0  0  0
   33.8580  -27.6920    3.5030 C   0  0  0  0  0
   34.2640  -26.7680    2.3440 C   0  0  0  0  0
   34.4870  -25.5820    2.5570 O   0  0  0  0  0
   32.3360  -27.6260    3.6920 C   0  0  0  0  0
   31.8120  -28.0940    5.0520 C   0  0  0  0  0
   30.2850  -28.0370    5.0790 C   0  0  0  0  0
   29.7060  -28.1510    6.4850 C   0  0  0  0  0
   28.2090  -28.0300    6.4530 N   0  3  0  0  0
   34.3880  -27.3130    1.1310 N   0  0  0  0  0
   34.5850  -26.4950   -0.0800 C   0  0  0  0  0
   33.8860  -27.1120   -1.2920 C   0  0  0  0  0
   33.5590  -28.3020   -1.2970 O   0  0  0  0  0
   36.0800  -26.2480   -0.4450 C   0  0  0  0  0
   36.2000  -25.0360   -1.3900 C   0  0  0  0  0
   36.9330  -26.0400    0.7960 C   0  0  0  0  0
   33.6406  -26.3958   -2.2992 O   0  0  0  0  0
   42.2274  -27.7794   10.3991 H   0  0  0  0  0
   41.9433  -26.1529   10.1739 H   0  0  0  0  0
   42.3697  -26.7235   11.6804 H   0  0  0  0  0
   40.4188  -27.9527   11.8716 H   0  0  0  0  0
   38.8130  -26.1658   12.2054 H   0  0  0  0  0
   39.0764  -25.1873   10.1034 H   0  0  0  0  0
   41.6267  -25.0736   12.5923 H   0  0  0  0  0
   40.1593  -24.5165   13.4334 H   0  0  0  0  0
   40.7704  -26.1665   13.7073 H   0  0  0  0  0
   38.1561  -28.3325   11.1112 H   0  0  0  0  0
   38.5166  -29.2936    8.3857 H   0  0  0  0  0
   37.6005  -30.8054   10.0996 H   0  0  0  0  0
   36.2244  -29.7062   10.3627 H   0  0  0  0  0
   36.3950  -30.5639    8.8114 H   0  0  0  0  0
   38.0427  -28.2600    6.6198 H   0  0  0  0  0
   35.7262  -26.3965    6.7374 H   0  0  0  0  0
   36.8123  -24.9401    5.2442 H   0  0  0  0  0
   38.0251  -26.2455    4.7708 H   0  0  0  0  0
   39.3019  -24.8301    5.9835 H   0  0  0  0  0
   38.7076  -25.9896    7.2548 H   0  0  0  0  0
   37.0240  -24.3674    7.9233 H   0  0  0  0  0
   37.6254  -23.2217    6.6770 H   0  0  0  0  0
   38.8661  -23.8765    9.2631 H   0  0  0  0  0
   41.4280  -21.5528    8.6760 H   0  0  0  0  0
   40.6649  -22.6165    9.8623 H   0  0  0  0  0
   39.2235  -22.4318    6.0602 H   0  0  0  0  0
   34.0381  -26.7955    5.4532 H   0  0  0  0  0
   34.1388  -28.7198    3.2731 H   0  0  0  0  0
   31.9044  -28.2964    2.9488 H   0  0  0  0  0
   32.0600  -26.5755    3.6010 H   0  0  0  0  0
   32.2067  -27.4405    5.8300 H   0  0  0  0  0
   32.1332  -29.1214    5.2232 H   0  0  0  0  0
   29.9121  -28.8806    4.4982 H   0  0  0  0  0
   29.9827  -27.0712    4.6740 H   0  0  0  0  0
   30.1118  -27.3476    7.0998 H   0  0  0  0  0
   29.9725  -29.1237    6.8985 H   0  0  0  0  0
   27.8424  -28.1088    7.4016 H   0  0  0  0  0
   27.9506  -27.1243    6.0615 H   0  0  0  0  0
   27.8212  -28.7751    5.8743 H   0  0  0  0  0
   34.3450  -28.3280    1.0393 H   0  0  0  0  0
   34.1408  -25.5309    0.1678 H   0  0  0  0  0
   36.4524  -27.1371   -0.9538 H   0  0  0  0  0
   35.6355  -25.2306   -2.3019 H   0  0  0  0  0
   35.8003  -24.1505   -0.8957 H   0  0  0  0  0
   37.2487  -24.8729   -1.6382 H   0  0  0  0  0
   36.5655  -25.1743    1.3470 H   0  0  0  0  0
   36.8747  -26.9261    1.4281 H   0  0  0  0  0
   37.9682  -25.8710    0.4996 H   0  0  0  0  0
   33.9543  -25.5027   -2.1395 H   0  0  0  0  0
  1  2  1  0  0  0
  2  3  1  0  0  0
  2  5  1  0  0  0
  3  4  2  0  0  0
  3  8  1  0  0  0
  5  6  1  0  0  0
  5  7  1  0  0  0
  8  9  1  0  0  0
  9 10  1  0  0  0
  9 12  1  0  0  0
 10 11  2  0  0  0
 10 13  1  0  0  0
 13 14  1  0  0  0
 14 15  1  0  0  0
 14 17  1  0  0  0
 15 16  2  0  0  0
 15 24  1  0  0  0
 17 18  1  0  0  0
 18 19  1  0  0  0
 19 20  1  0  0  0
 20 21  1  0  0  0
 21 22  1  0  0  0
 21 23  2  0  0  0
 24 25  1  0  0  0
 25 26  1  0  0  0
 25 28  1  0  0  0
 26 27  2  0  0  0
 26 33  1  0  0  0
 28 29  1  0  0  0
 29 30  1  0  0  0
 30 31  1  0  0  0
 31 32  1  0  0  0
 33 34  1  0  0  0
 34 35  1  0  0  0
 34 37  1  0  0  0
 35 36  2  0  0  0
 37 38  1  0  0  0
 37 39  1  0  0  0
 35 40  1  0  0  0
  1 41  1  0  0  0
  1 42  1  0  0  0
  1 43  1  0  0  0
  2 44  1  0  0  0
  5 45  1  0  0  0
  6 46  1  0  0  0
  7 47  1  0  0  0
  7 48  1  0  0  0
  7 49  1  0  0  0
  8 50  1  0  0  0
  9 51  1  0  0  0
 12 52  1  0  0  0
 12 53  1  0  0  0
 12 54  1  0  0  0
 13 55  1  0  0  0
 14 56  1  0  0  0
 17 57  1  0  0  0
 17 58  1  0  0  0
 18 59  1  0  0  0
 18 60  1  0  0  0
 19 61  1  0  0  0
 19 62  1  0  0  0
 20 63  1  0  0  0
 22 64  1  0  0  0
 22 65  1  0  0  0
 23 66  1  0  0  0
 24 67  1  0  0  0
 25 68  1  0  0  0
 28 69  1  0  0  0
 28 70  1  0  0  0
 29 71  1  0  0  0
 29 72  1  0  0  0
 30 73  1  0  0  0
 30 74  1  0  0  0
 31 75  1  0  0  0
 31 76  1  0  0  0
 32 77  1  0  0  0
 32 78  1  0  0  0
 32 79  1  0  0  0
 33 80  1  0  0  0
 34 81  1  0  0  0
 37 82  1  0  0  0
 38 83  1  0  0  0
 38 84  1  0  0  0
 38 85  1  0  0  0
 39 86  1  0  0  0
 39 87  1  0  0  0
 39 88  1  0  0  0
 40 89  1  0  0  0
M  END
$$$$
