1wvj_ligand
  -I-interpret- 

 32 33  0  0  0  0  0  0  0  0999 V2000
   14.5280    6.1050   25.6950 O   0  0  0  0  0
   13.3860    6.5150   25.3340 C   0  0  0  0  0
   12.3640    6.6420   26.1070 O   0  0  0  0  0
   13.1520    6.8720   23.8240 C   0  0  0  0  0
   11.6850    7.1740   23.5420 N   0  3  0  0  0
   14.0900    8.0690   23.4630 C   0  0  0  0  0
   13.8860    8.6340   22.0520 C   0  0  0  0  0
   14.1520    7.7710   20.8880 C   0  0  0  0  0
   13.3980    9.9060   21.9650 C   0  0  0  0  0
   13.0580   10.7310   20.7270 C   0  0  0  0  0
   12.1430   10.0280   19.7130 C   0  0  0  0  0
   12.7920    8.8900   18.8830 C   0  0  0  0  0
   13.6830    7.9160   19.5900 C   0  0  0  0  0
   14.1260    6.9320   18.7880 O   0  0  0  0  0
   14.9690    6.0530   19.5750 N   0  0  0  0  0
   14.9910    6.5390   20.8350 C   0  0  0  0  0
   15.6350    6.0080   21.7880 O   0  0  0  0  0
   11.6184    6.9694   25.5986 H   0  0  0  0  0
   13.3990    6.0193   23.1915 H   0  0  0  0  0
   11.1180    6.3644   23.7937 H   0  0  0  0  0
   11.3928    7.9802   24.0943 H   0  0  0  0  0
   11.5659    7.3788   22.5499 H   0  0  0  0  0
   15.1138    7.6983   23.5132 H   0  0  0  0  0
   13.8653    8.8729   24.1640 H   0  0  0  0  0
   13.2262   10.4050   22.9187 H   0  0  0  0  0
   13.9986   10.9346   20.2153 H   0  0  0  0  0
   12.5238   11.6155   21.0740 H   0  0  0  0  0
   11.8369   10.7913   18.9976 H   0  0  0  0  0
   11.3437    9.5657   20.2923 H   0  0  0  0  0
   13.4336    9.3927   18.1593 H   0  0  0  0  0
   11.9580    8.2964   18.5087 H   0  0  0  0  0
   15.4553    5.2216   19.2392 H   0  0  0  0  0
  1  2  2  0  0  0
  2  3  1  0  0  0
  2  4  1  0  0  0
  4  5  1  0  0  0
  4  6  1  0  0  0
  6  7  1  0  0  0
  7  8  1  0  0  0
  7  9  2  0  0  0
  8 13  2  0  0  0
  8 16  1  0  0  0
  9 10  1  0  0  0
 10 11  1  0  0  0
 11 12  1  0  0  0
 12 13  1  0  0  0
 13 14  1  0  0  0
 14 15  1  0  0  0
 15 16  1  0  0  0
 16 17  2  0  0  0
  3 18  1  0  0  0
  4 19  1  0  0  0
  5 20  1  0  0  0
  5 21  1  0  0  0
  5 22  1  0  0  0
  6 23  1  0  0  0
  6 24  1  0  0  0
  9 25  1  0  0  0
 10 26  1  0  0  0
 10 27  1  0  0  0
 11 28  1  0  0  0
 11 29  1  0  0  0
 12 30  1  0  0  0
 12 31  1  0  0  0
 15 32  1  0  0  0
M  END
$$$$
