3kvx_ligand
  -I-interpret- 

 64 69  0  0  0  0  0  0  0  0999 V2000
  -27.3880   34.8420   11.7600 C   0  0  0  0  0
  -26.1580   35.9270    9.9440 C   0  0  0  0  0
  -26.1110   34.4450   12.2410 C   0  0  0  0  0
  -24.9400   35.4500   10.3980 C   0  0  0  0  0
  -23.6690   33.4280   13.0930 C   0  0  0  0  0
  -32.1740   32.8600   13.5160 C   0  0  0  0  0
  -30.4980   31.7390   14.9190 C   0  0  0  0  0
  -29.7790   33.1180   13.0800 C   0  0  0  0  0
  -26.1090   33.4950   14.3140 C   0  0  0  0  0
  -26.1280   31.0100   14.1410 C   0  0  0  0  0
  -18.5470   31.7580   12.3810 C   0  0  0  0  0
  -18.3370   33.3240   10.5480 C   0  0  0  0  0
  -27.5590   33.3960   14.7600 C   0  0  0  0  0
  -27.4240   31.3000   13.4290 C   0  0  0  0  0
  -19.5590   32.7330   13.0310 C   0  0  0  0  0
  -19.5860   34.1630   10.9160 C   0  0  0  0  0
  -22.3550   33.0950   13.2160 N   0  0  0  0  0
  -22.5060   34.3900   11.3720 N   0  0  0  0  0
  -28.4790   36.0950   10.1070 N   0  0  0  0  0
  -25.4950   32.2460   14.6130 O   0  0  0  0  0
  -18.4300   31.9420   10.9570 O   0  0  0  0  0
  -31.8170   32.0750   14.6360 C   0  0  0  0  0
  -27.3600   35.6020   10.6130 C   0  0  0  0  0
  -31.1010   33.3510   12.7210 C   0  0  0  0  0
  -29.4830   32.2330   14.0990 C   0  0  0  0  0
  -24.8750   34.6750   11.5760 C   0  0  0  0  0
  -21.6740   33.7300   12.2210 C   0  0  0  0  0
  -28.1470   32.0510   14.4610 N   0  0  0  0  0
  -20.3080   33.5270   12.0260 N   0  0  0  0  0
  -23.7390   34.1540   11.9990 N   0  0  0  0  0
  -29.6710   35.5070   10.2230 C   0  0  0  0  0
  -30.6510   35.7850    9.2990 N   0  0  0  0  0
  -29.8660   34.7510   11.3240 N   0  0  0  0  0
  -31.0950   34.2710   11.5850 C   0  0  0  0  0
  -32.1210   34.5350   10.7560 C   0  0  0  0  0
  -31.8690   35.3370    9.6320 C   0  0  0  0  0
  -32.6910   31.5420   15.4700 F   0  0  0  0  0
  -28.3164   34.5663   12.2601 H   0  0  0  0  0
  -26.1904   36.5618    9.0585 H   0  0  0  0  0
  -26.0760   33.9220   13.1967 H   0  0  0  0  0
  -24.0284   35.6737    9.8439 H   0  0  0  0  0
  -24.4872   33.1522   13.7583 H   0  0  0  0  0
  -33.2145   33.0773   13.2746 H   0  0  0  0  0
  -30.2603   31.0992   15.7688 H   0  0  0  0  0
  -28.9741   33.6343   12.5568 H   0  0  0  0  0
  -25.6009   34.3082   14.8323 H   0  0  0  0  0
  -26.0476   33.7091   13.2470 H   0  0  0  0  0
  -25.4508   30.5161   13.4442 H   0  0  0  0  0
  -26.3381   30.3756   15.0021 H   0  0  0  0  0
  -18.9009   30.7424   12.5583 H   0  0  0  0  0
  -17.5691   31.9480   12.8235 H   0  0  0  0  0
  -17.4839   33.7621   11.0660 H   0  0  0  0  0
  -18.2410   33.3385    9.4623 H   0  0  0  0  0
  -28.1342   34.1475   14.2192 H   0  0  0  0  0
  -27.5956   33.5521   15.8381 H   0  0  0  0  0
  -27.9472   30.4082   13.0839 H   0  0  0  0  0
  -27.3010   31.8435   12.4922 H   0  0  0  0  0
  -19.0014   33.4267   13.6602 H   0  0  0  0  0
  -20.2788   32.1424   13.5977 H   0  0  0  0  0
  -20.2440   34.2264   10.0493 H   0  0  0  0  0
  -19.2712   35.1619   11.2180 H   0  0  0  0  0
  -28.4271   36.9773    9.5978 H   0  0  0  0  0
  -33.1173   34.1383   10.9511 H   0  0  0  0  0
  -32.7103   35.6103    8.9951 H   0  0  0  0  0
  1  3  4  0  0  0
 23  1  4  0  0  0
  2  4  4  0  0  0
 23  2  4  0  0  0
  3 26  4  0  0  0
  4 26  4  0  0  0
  5 17  4  0  0  0
 30  5  4  0  0  0
  6 22  4  0  0  0
 24  6  4  0  0  0
 22  7  4  0  0  0
 25  7  4  0  0  0
 24  8  4  0  0  0
  8 25  4  0  0  0
 13  9  1  0  0  0
  9 20  1  0  0  0
 14 10  1  0  0  0
 10 20  1  0  0  0
 15 11  1  0  0  0
 11 21  1  0  0  0
 16 12  1  0  0  0
 12 21  1  0  0  0
 28 13  1  0  0  0
 28 14  1  0  0  0
 29 15  1  0  0  0
 29 16  1  0  0  0
 27 17  4  0  0  0
 18 27  4  0  0  0
 30 18  4  0  0  0
 19 23  1  0  0  0
 31 19  1  0  0  0
 22 37  1  0  0  0
 34 24  1  0  0  0
 25 28  1  0  0  0
 26 30  1  0  0  0
 27 29  1  0  0  0
 31 32  4  0  0  0
 33 31  4  0  0  0
 32 36  4  0  0  0
 33 34  4  0  0  0
 34 35  4  0  0  0
 35 36  4  0  0  0
  1 38  1  0  0  0
  2 39  1  0  0  0
  3 40  1  0  0  0
  4 41  1  0  0  0
  5 42  1  0  0  0
  6 43  1  0  0  0
  7 44  1  0  0  0
  8 45  1  0  0  0
  9 46  1  0  0  0
  9 47  1  0  0  0
 10 48  1  0  0  0
 10 49  1  0  0  0
 11 50  1  0  0  0
 11 51  1  0  0  0
 12 52  1  0  0  0
 12 53  1  0  0  0
 13 54  1  0  0  0
 13 55  1  0  0  0
 14 56  1  0  0  0
 14 57  1  0  0  0
 15 58  1  0  0  0
 15 59  1  0  0  0
 16 60  1  0  0  0
 16 61  1  0  0  0
 19 62  1  0  0  0
 35 63  1  0  0  0
 36 64  1  0  0  0
M  END
$$$$
