3ekw_ligand
  -I-interpret- 

104106  0  0  0  0  0  0  0  0999 V2000
   19.3190   -7.8330   12.8360 C   0  0  0  0  0
   18.9930   -7.1120   14.0200 O   0  0  0  0  0
   18.4750   -5.7640   13.9370 C   0  0  0  0  0
   18.2640   -5.2580   12.8500 O   0  0  0  0  0
   18.3000   -5.1930   15.1260 N   0  0  0  0  0
   17.8120   -3.8430   15.3150 C   0  0  0  0  0
   16.3850   -3.9150   15.8650 C   0  0  0  0  0
   15.8930   -2.4910   16.1470 C   0  0  0  0  0
   16.2240   -4.7700   17.1100 C   0  0  0  0  0
   15.5180   -4.5440   14.7740 C   0  0  0  0  0
   18.7900   -3.0730   16.1490 C   0  0  0  0  0
   18.7930   -3.2150   17.3560 O   0  0  0  0  0
   19.6300   -2.2900   15.4630 N   0  0  0  0  0
   20.6820   -1.4960   16.1010 C   0  0  0  0  0
   22.0030   -1.9820   15.5050 C   0  0  0  0  0
   22.1500   -3.4810   15.6440 C   0  0  0  0  0
   22.0360   -4.3080   14.5320 C   0  0  0  0  0
   22.1670   -5.6920   14.6890 C   0  0  0  0  0
   22.4000   -6.2290   15.9540 C   0  0  0  0  0
   22.5300   -5.3930   17.0510 C   0  0  0  0  0
   22.4000   -4.0170   16.8930 C   0  0  0  0  0
   20.4870    0.0090   15.8510 C   0  0  0  0  0
   20.2750    0.2930   14.4800 O   0  0  0  0  0
   19.3260    0.6010   16.6560 C   0  0  0  0  0
   19.6860    0.5800   18.0650 N   0  3  0  0  0
   20.6860    1.4000   18.3750 N   0  0  0  0  0
   21.5100    1.1170   19.3700 C   0  0  0  0  0
   21.4140    0.1240   20.0760 O   0  0  0  0  0
   22.5720    2.1520   19.6150 C   0  0  0  0  0
   23.9900    1.5960   19.8000 C   0  0  0  0  0
   24.9350    2.7980   19.8040 C   0  0  0  0  0
   24.2910    0.7100   18.5990 C   0  0  0  0  0
   24.1930    0.8520   21.1160 C   0  0  0  0  0
   22.1420    2.9100   20.7580 N   0  0  0  0  0
   22.0020    4.2300   20.7810 C   0  0  0  0  0
   22.2160    5.0000   19.8530 O   0  0  0  0  0
   21.5540    4.7060   22.0670 O   0  0  0  0  0
   21.2360    6.0960   22.1590 C   0  0  0  0  0
   18.5180    0.6790   18.9270 C   0  0  0  0  0
   18.2600    2.0190   19.5800 C   0  0  0  0  0
   18.2730    1.9910   20.9090 C   0  0  0  0  0
   18.0480    3.1120   21.5590 C   0  0  0  0  0
   18.0210    3.1160   18.9970 C   0  0  0  0  0
   17.8060    4.1380   19.5900 C   0  0  0  0  0
   17.8200    4.2250   20.8540 C   0  0  0  0  0
   17.5210    5.4710   21.6480 C   0  0  0  0  0
   18.0060    5.6400   22.9470 C   0  0  0  0  0
   17.6850    6.7810   23.6650 C   0  0  0  0  0
   16.8570    7.7300   23.0840 C   0  0  0  0  0
   16.3730    7.5190   21.8000 C   0  0  0  0  0
   16.6990    6.4090   21.1180 N   0  0  0  0  0
   18.4276   -7.9345   12.2169 H   0  0  0  0  0
   20.0874   -7.2927   12.2830 H   0  0  0  0  0
   19.6907   -8.8217   13.1050 H   0  0  0  0  0
   18.5237   -5.7409   15.9568 H   0  0  0  0  0
   17.7432   -3.2883   14.3792 H   0  0  0  0  0
   14.8411   -2.5210   16.4312 H   0  0  0  0  0
   16.4781   -2.0600   16.9595 H   0  0  0  0  0
   16.0112   -1.8829   15.2502 H   0  0  0  0  0
   16.8092   -4.3398   17.9228 H   0  0  0  0  0
   15.1722   -4.8008   17.3945 H   0  0  0  0  0
   16.5754   -5.7808   16.9030 H   0  0  0  0  0
   14.4812   -4.5757   15.1088 H   0  0  0  0  0
   15.5896   -3.9464   13.8652 H   0  0  0  0  0
   15.8673   -5.5567   14.5729 H   0  0  0  0  0
   19.5333   -2.2439   14.4486 H   0  0  0  0  0
   20.6612   -1.6256   17.1831 H   0  0  0  0  0
   22.8225   -1.5019   16.0398 H   0  0  0  0  0
   22.0196   -1.7285   14.4450 H   0  0  0  0  0
   21.8463   -3.8818   13.5469 H   0  0  0  0  0
   22.0870   -6.3495   13.8233 H   0  0  0  0  0
   22.4801   -7.3087   16.0803 H   0  0  0  0  0
   22.7338   -5.8126   18.0361 H   0  0  0  0  0
   22.4956   -3.3595   17.7571 H   0  0  0  0  0
   21.4149    0.4742   16.1838 H   0  0  0  0  0
   20.1580    1.2388   14.3647 H   0  0  0  0  0
   18.4221    0.0140   16.4934 H   0  0  0  0  0
   19.1340    1.6250   16.3355 H   0  0  0  0  0
   20.0794   -0.3419   18.2539 H   0  0  0  0  0
   20.8191    2.2575   17.8389 H   0  0  0  0  0
   22.6685    2.7720   18.7237 H   0  0  0  0  0
   24.8469    3.3310   18.8573 H   0  0  0  0  0
   24.6690    3.4650   20.6240 H   0  0  0  0  0
   25.9605    2.4519   19.9335 H   0  0  0  0  0
   23.5644   -0.1014   18.5565 H   0  0  0  0  0
   24.2287    1.3033   17.6867 H   0  0  0  0  0
   25.2946    0.2961   18.6969 H   0  0  0  0  0
   23.9991    1.5288   21.9482 H   0  0  0  0  0
   23.5050    0.0079   21.1646 H   0  0  0  0  0
   25.2194    0.4895   21.1724 H   0  0  0  0  0
   21.9290    2.3966   21.6133 H   0  0  0  0  0
   22.1189    6.6864   21.9141 H   0  0  0  0  0
   20.4344    6.3311   21.4588 H   0  0  0  0  0
   20.9129    6.3271   23.1740 H   0  0  0  0  0
   18.6897   -0.0224   19.7435 H   0  0  0  0  0
   17.6572    0.4891   18.2858 H   0  0  0  0  0
   18.4653    1.0624   21.4465 H   0  0  0  0  0
   18.0474    3.1333   22.6488 H   0  0  0  0  0
   18.0097    3.1345   17.9072 H   0  0  0  0  0
   17.5879    5.0359   19.0118 H   0  0  0  0  0
   18.6376    4.8737   23.3964 H   0  0  0  0  0
   18.0772    6.9304   24.6710 H   0  0  0  0  0
   16.5886    8.6338   23.6309 H   0  0  0  0  0
   15.7214    8.2622   21.3405 H   0  0  0  0  0
  1  2  1  0  0  0
  2  3  1  0  0  0
  3  4  2  0  0  0
  3  5  1  0  0  0
  5  6  1  0  0  0
  6  7  1  0  0  0
  6 11  1  0  0  0
  7  8  1  0  0  0
  7  9  1  0  0  0
  7 10  1  0  0  0
 11 12  2  0  0  0
 11 13  1  0  0  0
 13 14  1  0  0  0
 14 15  1  0  0  0
 14 22  1  0  0  0
 15 16  1  0  0  0
 16 17  4  0  0  0
 16 21  4  0  0  0
 17 18  4  0  0  0
 18 19  4  0  0  0
 19 20  4  0  0  0
 20 21  4  0  0  0
 22 23  1  0  0  0
 22 24  1  0  0  0
 24 25  1  0  0  0
 25 26  1  0  0  0
 25 39  1  0  0  0
 26 27  1  0  0  0
 27 28  2  0  0  0
 27 29  1  0  0  0
 29 30  1  0  0  0
 29 34  1  0  0  0
 30 31  1  0  0  0
 30 32  1  0  0  0
 30 33  1  0  0  0
 34 35  1  0  0  0
 35 36  2  0  0  0
 35 37  1  0  0  0
 37 38  1  0  0  0
 39 40  1  0  0  0
 40 41  4  0  0  0
 40 43  4  0  0  0
 41 42  4  0  0  0
 42 45  4  0  0  0
 43 44  4  0  0  0
 44 45  4  0  0  0
 45 46  1  0  0  0
 46 47  4  0  0  0
 46 51  4  0  0  0
 47 48  4  0  0  0
 48 49  4  0  0  0
 49 50  4  0  0  0
 50 51  4  0  0  0
  1 52  1  0  0  0
  1 53  1  0  0  0
  1 54  1  0  0  0
  5 55  1  0  0  0
  6 56  1  0  0  0
  8 57  1  0  0  0
  8 58  1  0  0  0
  8 59  1  0  0  0
  9 60  1  0  0  0
  9 61  1  0  0  0
  9 62  1  0  0  0
 10 63  1  0  0  0
 10 64  1  0  0  0
 10 65  1  0  0  0
 13 66  1  0  0  0
 14 67  1  0  0  0
 15 68  1  0  0  0
 15 69  1  0  0  0
 17 70  1  0  0  0
 18 71  1  0  0  0
 19 72  1  0  0  0
 20 73  1  0  0  0
 21 74  1  0  0  0
 22 75  1  0  0  0
 23 76  1  0  0  0
 24 77  1  0  0  0
 24 78  1  0  0  0
 25 79  1  0  0  0
 26 80  1  0  0  0
 29 81  1  0  0  0
 31 82  1  0  0  0
 31 83  1  0  0  0
 31 84  1  0  0  0
 32 85  1  0  0  0
 32 86  1  0  0  0
 32 87  1  0  0  0
 33 88  1  0  0  0
 33 89  1  0  0  0
 33 90  1  0  0  0
 34 91  1  0  0  0
 38 92  1  0  0  0
 38 93  1  0  0  0
 38 94  1  0  0  0
 39 95  1  0  0  0
 39 96  1  0  0  0
 41 97  1  0  0  0
 42 98  1  0  0  0
 43 99  1  0  0  0
 44100  1  0  0  0
 47101  1  0  0  0
 48102  1  0  0  0
 49103  1  0  0  0
 50104  1  0  0  0
M  END
$$$$
