4gj6_ligand
  -I-interpret- 

 53 56  0  0  0  0  0  0  0  0999 V2000
    3.8900   23.2440   48.7920 N   0  3  0  0  0
    5.3020   23.3120   48.3960 C   0  0  0  0  0
    5.4910   22.2620   47.2690 C   0  0  0  0  0
    4.1210   21.5860   47.1110 C   0  0  0  0  0
    3.4380   21.8970   48.4540 C   0  0  0  0  0
    3.3420   21.9990   45.8370 C   0  0  0  0  0
    1.9410   21.3730   45.8110 C   0  0  0  0  0
    6.6050   21.2170   47.5340 C   0  0  0  0  0
    7.9430   21.7950   47.7510 N   0  0  0  0  0
    8.5850   22.5190   46.7880 C   0  0  0  0  0
    8.5820   21.4790   48.9120 C   0  0  0  0  0
    8.2110   22.3530   45.4330 C   0  0  0  0  0
    8.9260   22.9800   44.4130 C   0  0  0  0  0
   10.0250   23.7850   44.7510 C   0  0  0  0  0
   10.4280   23.9500   46.0800 C   0  0  0  0  0
    9.7290   23.2940   47.0850 C   0  0  0  0  0
    9.4390   20.3550   49.0010 C   0  0  0  0  0
   10.0580   20.0050   50.2150 C   0  0  0  0  0
    9.7930   20.7610   51.3660 C   0  0  0  0  0
    8.9190   21.8550   51.3010 C   0  0  0  0  0
    8.3310   22.2140   50.0780 C   0  0  0  0  0
    0.8140   22.1230   46.2500 C   0  0  0  0  0
   -0.4820   21.5610   46.2380 C   0  0  0  0  0
   -0.6460   20.2410   45.7820 C   0  0  0  0  0
    0.4740   19.4850   45.3480 C   0  0  0  0  0
    1.7700   20.0470   45.3540 C   0  0  0  0  0
   10.9830   24.5390   43.5050 Cl  0  0  0  0  0
    3.3370   23.9506   48.3068 H   0  0  0  0  0
    3.7776   23.4310   49.7884 H   0  0  0  0  0
    5.9564   23.1007   49.2417 H   0  0  0  0  0
    5.5633   24.3113   48.0478 H   0  0  0  0  0
    5.8284   22.7622   46.3612 H   0  0  0  0  0
    4.1856   20.5131   46.9297 H   0  0  0  0  0
    2.3520   21.8366   48.3832 H   0  0  0  0  0
    3.7028   21.1724   49.2240 H   0  0  0  0  0
    3.8941   21.6492   44.9646 H   0  0  0  0  0
    3.2369   23.0839   45.8315 H   0  0  0  0  0
    6.6691   20.5861   46.6474 H   0  0  0  0  0
    6.3344   20.6855   48.4464 H   0  0  0  0  0
    7.3538   21.7275   45.1838 H   0  0  0  0  0
    8.6362   22.8471   43.3707 H   0  0  0  0  0
   11.2796   24.5852   46.3239 H   0  0  0  0  0
   10.0676   23.3781   48.1177 H   0  0  0  0  0
    9.6223   19.7502   48.1129 H   0  0  0  0  0
   10.7374   19.1539   50.2605 H   0  0  0  0  0
   10.2669   20.4978   52.3117 H   0  0  0  0  0
    8.6957   22.4276   52.2012 H   0  0  0  0  0
    7.6685   23.0785   50.0348 H   0  0  0  0  0
    0.9528   23.1457   46.6005 H   0  0  0  0  0
   -1.3406   22.1409   46.5766 H   0  0  0  0  0
   -1.6405   19.7952   45.7617 H   0  0  0  0  0
    0.3326   18.4596   45.0064 H   0  0  0  0  0
    2.6260   19.4659   45.0109 H   0  0  0  0  0
  1  2  1  0  0  0
  1  5  1  0  0  0
  2  3  1  0  0  0
  3  4  1  0  0  0
  3  8  1  0  0  0
  4  5  1  0  0  0
  4  6  1  0  0  0
  6  7  1  0  0  0
  7 22  4  0  0  0
  7 26  4  0  0  0
  8  9  1  0  0  0
  9 10  1  0  0  0
  9 11  1  0  0  0
 10 12  4  0  0  0
 10 16  4  0  0  0
 11 17  4  0  0  0
 11 21  4  0  0  0
 12 13  4  0  0  0
 13 14  4  0  0  0
 14 15  4  0  0  0
 14 27  1  0  0  0
 15 16  4  0  0  0
 17 18  4  0  0  0
 18 19  4  0  0  0
 19 20  4  0  0  0
 20 21  4  0  0  0
 22 23  4  0  0  0
 23 24  4  0  0  0
 24 25  4  0  0  0
 25 26  4  0  0  0
  1 28  1  0  0  0
  1 29  1  0  0  0
  2 30  1  0  0  0
  2 31  1  0  0  0
  3 32  1  0  0  0
  4 33  1  0  0  0
  5 34  1  0  0  0
  5 35  1  0  0  0
  6 36  1  0  0  0
  6 37  1  0  0  0
  8 38  1  0  0  0
  8 39  1  0  0  0
 12 40  1  0  0  0
 13 41  1  0  0  0
 15 42  1  0  0  0
 16 43  1  0  0  0
 17 44  1  0  0  0
 18 45  1  0  0  0
 19 46  1  0  0  0
 20 47  1  0  0  0
 21 48  1  0  0  0
 22 49  1  0  0  0
 23 50  1  0  0  0
 24 51  1  0  0  0
 25 52  1  0  0  0
 26 53  1  0  0  0
M  END
$$$$
