5lj2_ligand
  -I-interpret- 

 69 73  0  0  0  0  0  0  0  0999 V2000
   26.2770   52.2840   -2.8180 C   0  0  0  0  0
   25.0860   52.4500   -3.4040 N   0  0  0  0  0
   24.0190   51.7370   -2.9900 C   0  0  0  0  0
   20.5380   52.0550   -5.6810 C   0  0  0  0  0
   22.4790   50.9380   -6.5560 C   0  0  0  0  0
   24.6220   48.0200    1.3090 C   0  0  0  0  0
   24.4900   49.0100    0.1820 C   0  0  0  0  0
   25.5630   49.7080   -0.2260 C   0  0  0  0  0
   25.4410   50.6530   -1.3090 C   0  0  0  0  0
   26.5300   51.4170   -1.7670 C   0  0  0  0  0
   22.8510   51.9550   -3.6340 N   0  0  0  0  0
   22.7740   52.7620   -4.8500 C   0  0  0  0  0
   21.3420   53.2250   -5.1520 C   0  0  0  0  0
   21.1720   51.4970   -6.8820 N   0  3  0  0  0
   23.3750   52.0590   -6.0610 C   0  0  0  0  0
   23.4400   53.0000   -7.1360 O   0  0  0  0  0
   24.6740   53.7010   -7.2870 C   0  0  0  0  0
   24.7700   54.1790   -8.7170 C   0  0  0  0  0
   25.3550   55.5850   -8.7830 C   0  0  0  0  0
   25.3420   56.1640  -10.1950 C   0  0  0  0  0
   26.3350   55.1910  -11.2810 S   0  0  0  0  0
   27.6920   55.1950  -10.8060 O   0  0  0  0  0
   26.0940   55.6030  -12.6360 O   0  0  0  0  0
   25.6420   53.5890  -11.0310 C   0  0  0  0  0
   25.6300   53.2290   -9.5490 C   0  0  0  0  0
   24.1810   50.8180   -1.9180 C   0  0  0  0  0
   23.1050   50.0740   -1.4660 N   0  0  0  0  0
   23.1880   49.1810   -0.4500 C   0  0  0  0  0
   22.1760   48.5700   -0.1170 O   0  0  0  0  0
   27.9090   51.3110   -1.2060 C   0  0  0  0  0
   29.0010   51.1050   -2.0400 C   0  0  0  0  0
   30.2640   51.0150   -1.6110 N   0  0  0  0  0
   30.4820   51.1330   -0.2970 C   0  0  0  0  0
   29.4690   51.3460    0.6420 C   0  0  0  0  0
   29.7310   51.4600    1.9900 N   0  0  0  0  0
   28.1700   51.4390    0.1550 C   0  0  0  0  0
   27.1113   52.8752   -3.1956 H   0  0  0  0  0
   19.5364   52.4004   -5.9371 H   0  0  0  0  0
   20.4905   51.2821   -4.9139 H   0  0  0  0  0
   22.9166   50.4763   -7.4411 H   0  0  0  0  0
   22.3749   50.1770   -5.7826 H   0  0  0  0  0
   25.3477   47.2542    1.0351 H   0  0  0  0  0
   24.9590   48.5370    2.2075 H   0  0  0  0  0
   23.6545   47.5547    1.4974 H   0  0  0  0  0
   26.5265   49.5601    0.2617 H   0  0  0  0  0
   21.9962   51.5433   -3.2595 H   0  0  0  0  0
   23.3781   53.6473   -4.6517 H   0  0  0  0  0
   20.8804   53.6017   -4.2393 H   0  0  0  0  0
   21.3652   54.0188   -5.8986 H   0  0  0  0  0
   21.2916   52.2407   -7.5698 H   0  0  0  0  0
   20.5788   50.7566   -7.2566 H   0  0  0  0  0
   24.3479   51.6645   -5.7678 H   0  0  0  0  0
   25.5110   53.0429   -7.0538 H   0  0  0  0  0
   24.7102   54.5496   -6.6039 H   0  0  0  0  0
   23.7602   54.1970   -9.1271 H   0  0  0  0  0
   26.3926   55.5311   -8.4534 H   0  0  0  0  0
   24.7450   56.2308   -8.1513 H   0  0  0  0  0
   25.7447   57.1764  -10.1632 H   0  0  0  0  0
   24.3164   56.1663  -10.5642 H   0  0  0  0  0
   26.2474   52.8570  -11.5655 H   0  0  0  0  0
   24.6168   53.5880  -11.4011 H   0  0  0  0  0
   25.2113   52.2273   -9.4518 H   0  0  0  0  0
   26.6537   53.2956   -9.1806 H   0  0  0  0  0
   22.2018   50.2047   -1.9217 H   0  0  0  0  0
   28.8165   51.0110   -3.1102 H   0  0  0  0  0
   31.5084   51.0588    0.0623 H   0  0  0  0  0
   30.6897   51.3891    2.3310 H   0  0  0  0  0
   28.9662   51.6153    2.6468 H   0  0  0  0  0
   27.3465   51.6142    0.8472 H   0  0  0  0  0
  2  1  4  0  0  0
  1 10  4  0  0  0
  3  2  4  0  0  0
 11  3  1  0  0  0
  3 26  4  0  0  0
 13  4  1  0  0  0
  4 14  1  0  0  0
 14  5  1  0  0  0
  5 15  1  0  0  0
  7  6  1  0  0  0
  8  7  2  0  0  0
  7 28  1  0  0  0
  9  8  1  0  0  0
  9 10  4  0  0  0
 26  9  4  0  0  0
 10 30  1  0  0  0
 12 11  1  0  0  0
 12 13  1  0  0  0
 12 15  1  0  0  0
 15 16  1  0  0  0
 16 17  1  0  0  0
 17 18  1  0  0  0
 18 19  1  0  0  0
 18 25  1  0  0  0
 19 20  1  0  0  0
 20 21  1  0  0  0
 21 22  2  0  0  0
 21 23  2  0  0  0
 21 24  1  0  0  0
 24 25  1  0  0  0
 26 27  1  0  0  0
 27 28  1  0  0  0
 28 29  2  0  0  0
 30 31  4  0  0  0
 30 36  4  0  0  0
 31 32  4  0  0  0
 32 33  4  0  0  0
 33 34  4  0  0  0
 34 35  1  0  0  0
 34 36  4  0  0  0
  1 37  1  0  0  0
  4 38  1  0  0  0
  4 39  1  0  0  0
  5 40  1  0  0  0
  5 41  1  0  0  0
  6 42  1  0  0  0
  6 43  1  0  0  0
  6 44  1  0  0  0
  8 45  1  0  0  0
 11 46  1  0  0  0
 12 47  1  0  0  0
 13 48  1  0  0  0
 13 49  1  0  0  0
 14 50  1  0  0  0
 14 51  1  0  0  0
 15 52  1  0  0  0
 17 53  1  0  0  0
 17 54  1  0  0  0
 18 55  1  0  0  0
 19 56  1  0  0  0
 19 57  1  0  0  0
 20 58  1  0  0  0
 20 59  1  0  0  0
 24 60  1  0  0  0
 24 61  1  0  0  0
 25 62  1  0  0  0
 25 63  1  0  0  0
 27 64  1  0  0  0
 31 65  1  0  0  0
 33 66  1  0  0  0
 35 67  1  0  0  0
 35 68  1  0  0  0
 36 69  1  0  0  0
M  END
$$$$
