2vxa_ligand
  -I-interpret- 

 47 49  0  0  0  0  0  0  0  0999 V2000
  -25.9440  -39.1100    2.4940 N   0  0  0  0  0
  -27.0700  -38.9010    3.2140 C   0  0  0  0  0
  -28.1500  -39.1510    2.6690 O   0  0  0  0  0
  -27.0550  -38.4210    4.4730 N   0  0  0  0  0
  -25.8950  -38.1270    5.0960 C   0  0  0  0  0
  -25.8560  -37.6890    6.2610 O   0  0  0  0  0
  -24.6280  -38.3190    4.3650 C   0  0  0  0  0
  -23.4510  -38.0310    4.9140 N   0  0  0  0  0
  -22.2970  -38.2030    4.2360 C   0  0  0  0  0
  -21.0920  -37.8990    4.8420 C   0  0  0  0  0
  -19.9040  -38.0670    4.1700 C   0  0  0  0  0
  -18.6110  -37.7240    4.8540 C   0  0  0  0  0
  -19.9200  -38.5650    2.7770 C   0  0  0  0  0
  -18.6310  -38.7740    2.0220 C   0  0  0  0  0
  -21.1210  -38.8830    2.1710 C   0  0  0  0  0
  -22.3150  -38.7170    2.8580 C   0  0  0  0  0
  -23.5570  -39.0090    2.2710 N   0  0  0  0  0
  -24.7230  -38.8280    3.0060 C   0  0  0  0  0
  -23.6590  -39.5590    0.9340 C   0  0  0  0  0
  -23.6110  -38.4940   -0.1220 C   0  0  0  0  0
  -24.9460  -38.0290   -0.3910 O   0  0  0  0  0
  -22.8960  -39.2060   -1.2770 C   0  0  0  0  0
  -21.8440  -38.4110   -1.8410 O   0  0  0  0  0
  -23.7940  -39.6010   -2.4120 C   0  0  0  0  0
  -24.9780  -40.1090   -1.8300 O   0  0  0  0  0
  -23.0700  -40.6730   -3.2280 C   0  0  0  0  0
  -21.8480  -40.1040   -3.7420 O   0  0  0  0  0
  -27.9373  -38.2772    4.9643 H   0  0  0  0  0
  -21.0836  -37.5217    5.8646 H   0  0  0  0  0
  -18.6164  -36.6697    5.1308 H   0  0  0  0  0
  -18.5019  -38.3355    5.7497 H   0  0  0  0  0
  -17.7800  -37.9187    4.1761 H   0  0  0  0  0
  -18.0949  -37.8275    1.9519 H   0  0  0  0  0
  -18.0163  -39.5030    2.5500 H   0  0  0  0  0
  -18.8536  -39.1420    1.0204 H   0  0  0  0  0
  -21.1301  -39.2653    1.1503 H   0  0  0  0  0
  -24.6154  -40.0754    0.8517 H   0  0  0  0  0
  -22.8142  -40.2298    0.7778 H   0  0  0  0  0
  -23.0792  -37.5772    0.1326 H   0  0  0  0  0
  -24.9162  -37.3476   -1.0665 H   0  0  0  0  0
  -22.5015  -40.1055   -0.8045 H   0  0  0  0  0
  -21.4271  -38.8956   -2.5572 H   0  0  0  0  0
  -24.0384  -38.7701   -3.0738 H   0  0  0  0  0
  -25.5854  -40.3757   -2.5239 H   0  0  0  0  0
  -23.7021  -41.0062   -4.0511 H   0  0  0  0  0
  -22.8453  -41.5337   -2.5980 H   0  0  0  0  0
  -21.3805  -40.7652   -4.2576 H   0  0  0  0  0
  1  2  1  0  0  0
  1 18  2  0  0  0
  2  3  2  0  0  0
  2  4  1  0  0  0
  4  5  1  0  0  0
  5  6  2  0  0  0
  5  7  1  0  0  0
  7  8  2  0  0  0
  7 18  1  0  0  0
  8  9  1  0  0  0
  9 10  4  0  0  0
  9 16  4  0  0  0
 10 11  4  0  0  0
 11 12  1  0  0  0
 11 13  4  0  0  0
 13 14  1  0  0  0
 13 15  4  0  0  0
 15 16  4  0  0  0
 16 17  1  0  0  0
 17 18  1  0  0  0
 17 19  1  0  0  0
 19 20  1  0  0  0
 20 21  1  0  0  0
 20 22  1  0  0  0
 22 23  1  0  0  0
 22 24  1  0  0  0
 24 25  1  0  0  0
 24 26  1  0  0  0
 26 27  1  0  0  0
  4 28  1  0  0  0
 10 29  1  0  0  0
 12 30  1  0  0  0
 12 31  1  0  0  0
 12 32  1  0  0  0
 14 33  1  0  0  0
 14 34  1  0  0  0
 14 35  1  0  0  0
 15 36  1  0  0  0
 19 37  1  0  0  0
 19 38  1  0  0  0
 20 39  1  0  0  0
 21 40  1  0  0  0
 22 41  1  0  0  0
 23 42  1  0  0  0
 24 43  1  0  0  0
 25 44  1  0  0  0
 26 45  1  0  0  0
 26 46  1  0  0  0
 27 47  1  0  0  0
M  END
$$$$
