5k5s_ligand
  -I-interpret- 

 27 28  0  0  0  0  0  0  0  0999 V2000
  178.8130   45.0410  167.4480 N   0  3  0  0  0
  178.0850   45.5470  168.6530 C   0  0  0  0  0
  176.9640   44.6140  169.1630 C   0  0  0  0  0
  176.5270   44.7300  170.3230 O   0  0  0  0  0
  177.5350   46.9750  168.4350 C   0  0  0  0  0
  178.3930   47.8240  167.5270 C   0  0  0  0  0
  179.3210   47.3880  166.6260 C   0  0  0  0  0
  178.3760   49.2510  167.4230 C   0  0  0  0  0
  179.8820   48.4540  165.9700 N   0  0  0  0  0
  179.3120   49.6140  166.4310 C   0  0  0  0  0
  177.6710   50.2690  168.0830 C   0  0  0  0  0
  179.5510   50.9470  166.0700 C   0  0  0  0  0
  177.9070   51.5910  167.7230 C   0  0  0  0  0
  178.8490   51.9190  166.7420 C   0  0  0  0  0
  176.5080   43.7650  168.3990 O   0  0  0  0  0
  179.1590   44.0993  167.6319 H   0  0  0  0  0
  178.1765   45.0211  166.6512 H   0  0  0  0  0
  179.5981   45.6588  167.2422 H   0  0  0  0  0
  178.8416   45.5702  169.4373 H   0  0  0  0  0
  176.9962   45.4375  170.7712 H   0  0  0  0  0
  177.5060   47.4652  169.4081 H   0  0  0  0  0
  176.5570   46.8791  167.9634 H   0  0  0  0  0
  179.5791   46.3433  166.4528 H   0  0  0  0  0
  176.9506   50.0275  168.8646 H   0  0  0  0  0
  180.2653   51.2027  165.2874 H   0  0  0  0  0
  177.3475   52.3870  168.2144 H   0  0  0  0  0
  179.0300   52.9675  166.5056 H   0  0  0  0  0
  1  2  1  0  0  0
  2  3  1  0  0  0
  2  5  1  0  0  0
  3  4  1  0  0  0
  3 15  2  0  0  0
  5  6  1  0  0  0
  6  7  4  0  0  0
  6  8  4  0  0  0
  7  9  4  0  0  0
  8 10  4  0  0  0
  8 11  4  0  0  0
  9 10  4  0  0  0
 10 12  4  0  0  0
 11 13  4  0  0  0
 12 14  4  0  0  0
 13 14  4  0  0  0
  1 16  1  0  0  0
  1 17  1  0  0  0
  1 18  1  0  0  0
  2 19  1  0  0  0
  4 20  1  0  0  0
  5 21  1  0  0  0
  5 22  1  0  0  0
  7 23  1  0  0  0
 11 24  1  0  0  0
 12 25  1  0  0  0
 13 26  1  0  0  0
 14 27  1  0  0  0
M  END
$$$$
