### 
### Created by X-TOOL on Mon Sep 10 21:13:18 2018
### 

@<TRIPOS>MOLECULE
4jof_ligand
  123   123     1     0     0
SMALL
GAST_HUCK


@<TRIPOS>ATOM
      1 N          22.6960   27.3320   16.2490 N.4       1 ARG         0.2379
      2 CA         22.0110   28.5070   15.7280 C.3       1 ARG         0.0651
      3 C          20.4940   28.3340   15.8380 C.2       1 ARG         0.2267
      4 O          19.7630   29.2940   16.1100 O.2       1 ARG        -0.3907
      5 CB         22.4230   28.7630   14.2780 C.3       1 ARG         0.0110
      6 CG         22.3020   30.2120   13.8510 C.3       1 ARG        -0.0125
      7 CD         23.5140   30.6540   13.0390 C.3       1 ARG         0.0629
      8 NE         24.7370   30.6700   13.8400 N.pl3     1 ARG        -0.2723
      9 CZ         25.4890   31.7460   14.0580 C.cat     1 ARG         0.2882
     10 NH1        26.5850   31.6540   14.8050 N.pl3     1 ARG        -0.2849
     11 NH2        25.1520   32.9120   13.5250 N.pl3     1 ARG        -0.2849
     12 N          20.0250   27.1030   15.6450 N.am      1 LEU        -0.2610
     13 CA         18.5920   26.8290   15.6810 C.3       1 LEU         0.1315
     14 C          18.1860   26.0700   16.9380 C.2       1 LEU         0.2064
     15 O          18.8250   25.0880   17.3060 O.2       1 LEU        -0.3942
     16 CB         18.1760   26.0290   14.4520 C.3       1 LEU        -0.0101
     17 CG         18.2610   26.7380   13.1020 C.3       1 LEU        -0.0425
     18 CD1        18.1210   25.7360   11.9680 C.3       1 LEU        -0.0625
     19 CD2        17.2000   27.8130   13.0020 C.3       1 LEU        -0.0625
     20 N          17.1130   26.5300   17.5940 N.am      1 PRO        -0.2498
     21 CA         16.5680   25.8530   18.7720 C.3       1 PRO         0.1338
     22 C          15.8470   24.5630   18.3890 C.2       1 PRO         0.2042
     23 O          15.3270   24.4560   17.2790 O.2       1 PRO        -0.3944
     24 CB         15.5550   26.8660   19.3080 C.3       1 PRO        -0.0104
     25 CG         15.0990   27.5990   18.0970 C.3       1 PRO        -0.0281
     26 CD         16.3320   27.7290   17.2400 C.3       1 PRO         0.0369
     27 N          15.8240   23.6090   19.3120 N.am      1 THR        -0.2613
     28 CA         15.0240   22.4080   19.1510 C.3       1 THR         0.1565
     29 C          14.2000   22.2510   20.4070 C.2       1 THR         0.2065
     30 O          14.7080   22.4370   21.5170 O.2       1 THR        -0.3943
     31 CB         15.8990   21.1630   18.9720 C.3       1 THR         0.0924
     32 OG1        16.6530   21.2790   17.7620 O.3       1 THR        -0.3874
     33 CG2        15.0500   19.9020   18.8940 C.3       1 THR        -0.0346
     34 N          12.9260   21.9180   20.2400 N.am      1 SER        -0.2615
     35 CA         12.0730   21.6030   21.3720 C.3       1 SER         0.1539
     36 C          11.4600   20.2350   21.1790 C.2       1 SER         0.2062
     37 O          10.9990   19.9000   20.0780 O.2       1 SER        -0.3943
     38 CB         10.9520   22.6300   21.5310 C.3       1 SER         0.0843
     39 OG         11.4570   23.9150   21.8460 O.3       1 SER        -0.3903
     40 N          11.4450   19.4550   22.2510 N.am      1 ILE        -0.2634
     41 CA         10.7650   18.1680   22.2510 C.3       1 ILE         0.1335
     42 C           9.3530   18.4140   22.7480 C.2       1 ILE         0.2036
     43 O           9.1710   19.0120   23.8190 O.2       1 ILE        -0.3944
     44 CB         11.4710   17.1820   23.2090 C.3       1 ILE        -0.0037
     45 CG1        12.9360   16.9820   22.8080 C.3       1 ILE        -0.0491
     46 CG2        10.7380   15.8690   23.2630 C.3       1 ILE        -0.0582
     47 CD1        13.8020   16.4300   23.9280 C.3       1 ILE        -0.0648
     48 N           8.3600   17.9480   22.0000 N.am      1 ILE        -0.2692
     49 CA          6.9560   18.2320   22.3020 C.3       1 ILE         0.0969
     50 C           6.0500   17.0340   22.0520 C.2       1 ILE         0.0604
     51 O           6.4750   15.9900   21.5200 O.co2     1 ILE        -0.5666
     52 CB          6.4160   19.4230   21.4770 C.3       1 ILE        -0.0092
     53 CG1         6.4740   19.1330   19.9750 C.3       1 ILE        -0.0497
     54 CG2         7.1780   20.7020   21.8000 C.3       1 ILE        -0.0588
     55 CD1         5.8450   20.2350   19.1170 C.3       1 ILE        -0.0649
     56 OXT         4.8650   17.1240   22.3940 O.co2     1 ILE        -0.5666
     57 H          23.6925   27.4613   16.1696 H         1 ARG         0.2015
     58 H          22.4194   26.5197   15.7201 H         1 ARG         0.2015
     59 H          22.4502   27.2018   17.2179 H         1 ARG         0.2015
     60 H          22.3055   29.3782   16.3316 H         1 ARG         0.1098
     61 H          21.7818   28.1545   13.6233 H         1 ARG         0.0347
     62 H          23.4712   28.4526   14.1560 H         1 ARG         0.0347
     63 H          22.2218   30.8441   14.7476 H         1 ARG         0.0302
     64 H          21.3971   30.3301   13.2369 H         1 ARG         0.0302
     65 H          23.3308   31.6670   12.6512 H         1 ARG         0.0689
     66 H          23.6502   29.9584   12.1978 H         1 ARG         0.0689
     67 H          25.0389   29.7827   14.2672 H         1 ARG         0.2642
     68 H          27.1656   32.4881   14.9725 H         1 ARG         0.2615
     69 H          26.8535   30.7486   15.2162 H         1 ARG         0.2615
     70 H          24.3037   32.9875   12.9457 H         1 ARG         0.2615
     71 H          25.7384   33.7425   13.6902 H         1 ARG         0.2615
     72 H          20.6649   26.3541   15.4726 H         1 LEU         0.1884
     73 H          18.0593   27.7914   15.6713 H         1 LEU         0.0800
     74 H          17.1314   25.7164   14.5974 H         1 LEU         0.0315
     75 H          18.8212   25.1396   14.4009 H         1 LEU         0.0315
     76 H          19.2481   27.2168   13.0219 H         1 LEU         0.0298
     77 H          18.1843   26.2621   11.0040 H         1 LEU         0.0232
     78 H          17.1483   25.2282   12.0454 H         1 LEU         0.0232
     79 H          18.9290   24.9926   12.0337 H         1 LEU         0.0232
     80 H          17.3207   28.5255   13.8313 H         1 LEU         0.0232
     81 H          16.2034   27.3509   13.0578 H         1 LEU         0.0232
     82 H          17.3050   28.3439   12.0443 H         1 LEU         0.0232
     83 H          17.3559   25.6380   19.5089 H         1 PRO         0.0802
     84 H          16.0307   27.5525   20.0238 H         1 PRO         0.0313
     85 H          14.7118   26.3545   19.7953 H         1 PRO         0.0313
     86 H          14.7091   28.5911   18.3682 H         1 PRO         0.0287
     87 H          14.3189   27.0299   17.5701 H         1 PRO         0.0287
     88 H          16.0718   27.7295   16.1712 H         1 PRO         0.0524
     89 H          16.8866   28.6474   17.4828 H         1 PRO         0.0524
     90 H          16.3726   23.7206   20.1406 H         1 THR         0.1884
     91 H          14.3658   22.5174   18.2765 H         1 THR         0.0826
     92 H          16.5866   21.0831   19.8269 H         1 THR         0.0639
     93 H          17.2053   22.0507   17.8071 H         1 THR         0.2101
     94 H          15.7041   19.0270   18.7659 H         1 THR         0.0257
     95 H          14.3631   19.9748   18.0379 H         1 THR         0.0257
     96 H          14.4693   19.7929   19.8218 H         1 THR         0.0257
     97 H          12.5459   21.8834   19.3157 H         1 SER         0.1884
     98 H          12.6852   21.6004   22.2858 H         1 SER         0.0823
     99 H          10.2815   22.3030   22.3393 H         1 SER         0.0606
    100 H          10.3880   22.6903   20.5885 H         1 SER         0.0606
    101 H          10.7341   24.5246   21.9369 H         1 SER         0.2097
    102 H          11.9129   19.7587   23.0810 H         1 ILE         0.1883
    103 H          10.7470   17.7491   21.2341 H         1 ILE         0.0803
    104 H          11.4542   17.6198   24.2180 H         1 ILE         0.0345
    105 H          13.3474   17.9535   22.4967 H         1 ILE         0.0267
    106 H          12.9725   16.2802   21.9618 H         1 ILE         0.0267
    107 H           9.6916   16.0449   23.5529 H         1 ILE         0.0235
    108 H          11.2177   15.2114   24.0028 H         1 ILE         0.0235
    109 H          10.7687   15.3909   22.2728 H         1 ILE         0.0235
    110 H          14.8352   16.3133   23.5690 H         1 ILE         0.0230
    111 H          13.4115   15.4519   24.2454 H         1 ILE         0.0230
    112 H          13.7863   17.1252   24.7803 H         1 ILE         0.0230
    113 H           8.5785   17.3841   21.2036 H         1 ILE         0.1875
    114 H           6.8941   18.4934   23.3687 H         1 ILE         0.0729
    115 H           5.3622   19.5748   21.7534 H         1 ILE         0.0338
    116 H           5.9386   18.1919   19.7808 H         1 ILE         0.0267
    117 H           7.5284   19.0223   19.6819 H         1 ILE         0.0267
    118 H           7.1268   20.8960   22.8815 H         1 ILE         0.0234
    119 H           6.7280   21.5446   21.2546 H         1 ILE         0.0234
    120 H           8.2294   20.5888   21.4972 H         1 ILE         0.0234
    121 H           5.9219   19.9612   18.0544 H         1 ILE         0.0230
    122 H           6.3756   21.1828   19.2907 H         1 ILE         0.0230
    123 H           4.7858   20.3524   19.3896 H         1 ILE         0.0230
@<TRIPOS>BOND
     1    1    2 1  
     2    2    3 1  
     3    2    5 1  
     4    3    4 2  
     5    3   12 am 
     6    5    6 1  
     7    6    7 1  
     8    7    8 1  
     9    8    9 ar 
    10    9   10 ar 
    11    9   11 ar 
    12   12   13 1  
    13   13   14 1  
    14   13   16 1  
    15   14   15 2  
    16   14   20 am 
    17   16   17 1  
    18   17   18 1  
    19   17   19 1  
    20   20   21 1  
    21   20   26 1  
    22   21   22 1  
    23   21   24 1  
    24   22   23 2  
    25   22   27 am 
    26   24   25 1  
    27   25   26 1  
    28   27   28 1  
    29   28   29 1  
    30   28   31 1  
    31   29   30 2  
    32   29   34 am 
    33   31   32 1  
    34   31   33 1  
    35   34   35 1  
    36   35   36 1  
    37   35   38 1  
    38   36   37 2  
    39   36   40 am 
    40   38   39 1  
    41   40   41 1  
    42   41   42 1  
    43   41   44 1  
    44   42   43 2  
    45   42   48 am 
    46   44   45 1  
    47   44   46 1  
    48   45   47 1  
    49   48   49 1  
    50   49   50 1  
    51   49   52 1  
    52   50   51 ar 
    53   50   56 ar 
    54   52   53 1  
    55   52   54 1  
    56   53   55 1  
    57    1   57 1  
    58    1   58 1  
    59    1   59 1  
    60    2   60 1  
    61    5   61 1  
    62    5   62 1  
    63    6   63 1  
    64    6   64 1  
    65    7   65 1  
    66    7   66 1  
    67    8   67 1  
    68   10   68 1  
    69   10   69 1  
    70   11   70 1  
    71   11   71 1  
    72   12   72 1  
    73   13   73 1  
    74   16   74 1  
    75   16   75 1  
    76   17   76 1  
    77   18   77 1  
    78   18   78 1  
    79   18   79 1  
    80   19   80 1  
    81   19   81 1  
    82   19   82 1  
    83   21   83 1  
    84   24   84 1  
    85   24   85 1  
    86   25   86 1  
    87   25   87 1  
    88   26   88 1  
    89   26   89 1  
    90   27   90 1  
    91   28   91 1  
    92   31   92 1  
    93   32   93 1  
    94   33   94 1  
    95   33   95 1  
    96   33   96 1  
    97   34   97 1  
    98   35   98 1  
    99   38   99 1  
   100   38  100 1  
   101   39  101 1  
   102   40  102 1  
   103   41  103 1  
   104   44  104 1  
   105   45  105 1  
   106   45  106 1  
   107   46  107 1  
   108   46  108 1  
   109   46  109 1  
   110   47  110 1  
   111   47  111 1  
   112   47  112 1  
   113   48  113 1  
   114   49  114 1  
   115   52  115 1  
   116   53  116 1  
   117   53  117 1  
   118   54  118 1  
   119   54  119 1  
   120   54  120 1  
   121   55  121 1  
   122   55  122 1  
   123   55  123 1  
@<TRIPOS>SUBSTRUCTURE
     1 ARG         1

