4jof_ligand
  -I-interpret- 

123123  0  0  0  0  0  0  0  0999 V2000
   22.6960   27.3320   16.2490 N   0  3  0  0  0
   22.0110   28.5070   15.7280 C   0  0  0  0  0
   20.4940   28.3340   15.8380 C   0  0  0  0  0
   19.7630   29.2940   16.1100 O   0  0  0  0  0
   22.4230   28.7630   14.2780 C   0  0  0  0  0
   22.3020   30.2120   13.8510 C   0  0  0  0  0
   23.5140   30.6540   13.0390 C   0  0  0  0  0
   24.7370   30.6700   13.8400 N   0  0  0  0  0
   25.4890   31.7460   14.0580 C   0  0  0  0  0
   26.5850   31.6540   14.8050 N   0  0  0  0  0
   25.1520   32.9120   13.5250 N   0  0  0  0  0
   20.0250   27.1030   15.6450 N   0  0  0  0  0
   18.5920   26.8290   15.6810 C   0  0  0  0  0
   18.1860   26.0700   16.9380 C   0  0  0  0  0
   18.8250   25.0880   17.3060 O   0  0  0  0  0
   18.1760   26.0290   14.4520 C   0  0  0  0  0
   18.2610   26.7380   13.1020 C   0  0  0  0  0
   18.1210   25.7360   11.9680 C   0  0  0  0  0
   17.2000   27.8130   13.0020 C   0  0  0  0  0
   17.1130   26.5300   17.5940 N   0  0  0  0  0
   16.5680   25.8530   18.7720 C   0  0  0  0  0
   15.8470   24.5630   18.3890 C   0  0  0  0  0
   15.3270   24.4560   17.2790 O   0  0  0  0  0
   15.5550   26.8660   19.3080 C   0  0  0  0  0
   15.0990   27.5990   18.0970 C   0  0  0  0  0
   16.3320   27.7290   17.2400 C   0  0  0  0  0
   15.8240   23.6090   19.3120 N   0  0  0  0  0
   15.0240   22.4080   19.1510 C   0  0  0  0  0
   14.2000   22.2510   20.4070 C   0  0  0  0  0
   14.7080   22.4370   21.5170 O   0  0  0  0  0
   15.8990   21.1630   18.9720 C   0  0  0  0  0
   16.6530   21.2790   17.7620 O   0  0  0  0  0
   15.0500   19.9020   18.8940 C   0  0  0  0  0
   12.9260   21.9180   20.2400 N   0  0  0  0  0
   12.0730   21.6030   21.3720 C   0  0  0  0  0
   11.4600   20.2350   21.1790 C   0  0  0  0  0
   10.9990   19.9000   20.0780 O   0  0  0  0  0
   10.9520   22.6300   21.5310 C   0  0  0  0  0
   11.4570   23.9150   21.8460 O   0  0  0  0  0
   11.4450   19.4550   22.2510 N   0  0  0  0  0
   10.7650   18.1680   22.2510 C   0  0  0  0  0
    9.3530   18.4140   22.7480 C   0  0  0  0  0
    9.1710   19.0120   23.8190 O   0  0  0  0  0
   11.4710   17.1820   23.2090 C   0  0  0  0  0
   12.9360   16.9820   22.8080 C   0  0  0  0  0
   10.7380   15.8690   23.2630 C   0  0  0  0  0
   13.8020   16.4300   23.9280 C   0  0  0  0  0
    8.3600   17.9480   22.0000 N   0  0  0  0  0
    6.9560   18.2320   22.3020 C   0  0  0  0  0
    6.0500   17.0340   22.0520 C   0  0  0  0  0
    6.4750   15.9900   21.5200 O   0  0  0  0  0
    6.4160   19.4230   21.4770 C   0  0  0  0  0
    6.4740   19.1330   19.9750 C   0  0  0  0  0
    7.1780   20.7020   21.8000 C   0  0  0  0  0
    5.8450   20.2350   19.1170 C   0  0  0  0  0
    4.8650   17.1240   22.3940 O   0  0  0  0  0
   22.4111   27.1746   17.2157 H   0  0  0  0  0
   22.4508   26.5187   15.6843 H   0  0  0  0  0
   23.7041   27.4827   16.2106 H   0  0  0  0  0
   22.2999   29.3722   16.3246 H   0  0  0  0  0
   21.7539   28.1815   13.6437 H   0  0  0  0  0
   23.4728   28.4848   14.1857 H   0  0  0  0  0
   22.2384   30.8327   14.7448 H   0  0  0  0  0
   21.4119   30.3175   13.2307 H   0  0  0  0  0
   23.3307   31.6661   12.6783 H   0  0  0  0  0
   23.6522   29.9460   12.2219 H   0  0  0  0  0
   25.0360   29.7913   14.2630 H   0  0  0  0  0
   27.1631   32.4788   14.9662 H   0  0  0  0  0
   26.8478   30.7586   15.2169 H   0  0  0  0  0
   24.3150   32.9855   12.9467 H   0  0  0  0  0
   20.6777   26.3392   15.4692 H   0  0  0  0  0
   18.0818   27.7922   15.6877 H   0  0  0  0  0
   17.1227   25.7884   14.5960 H   0  0  0  0  0
   18.8712   25.1915   14.3927 H   0  0  0  0  0
   19.2381   27.2140   13.0194 H   0  0  0  0  0
   18.9222   24.9999   12.0343 H   0  0  0  0  0
   17.1569   25.2335   12.0458 H   0  0  0  0  0
   18.1839   26.2584   11.0134 H   0  0  0  0  0
   16.2142   27.3593   13.1036 H   0  0  0  0  0
   17.3488   28.5436   13.7971 H   0  0  0  0  0
   17.2757   28.3075   12.0336 H   0  0  0  0  0
   17.3406   25.5695   19.4867 H   0  0  0  0  0
   15.9924   27.5317   20.0521 H   0  0  0  0  0
   14.7300   26.3850   19.8334 H   0  0  0  0  0
   14.6735   28.5710   18.3467 H   0  0  0  0  0
   14.2985   27.0702   17.5795 H   0  0  0  0  0
   16.1019   27.7831   16.1759 H   0  0  0  0  0
   16.8763   28.6556   17.4225 H   0  0  0  0  0
   16.3835   23.7228   20.1572 H   0  0  0  0  0
   14.4025   22.5044   18.2608 H   0  0  0  0  0
   16.5631   21.0910   19.8333 H   0  0  0  0  0
   17.2006   20.4983   17.6514 H   0  0  0  0  0
   14.4751   19.7951   19.8139 H   0  0  0  0  0
   14.3698   19.9754   18.0454 H   0  0  0  0  0
   15.6992   19.0357   18.7670 H   0  0  0  0  0
   12.5383   21.8827   19.2972 H   0  0  0  0  0
   12.6898   21.6212   22.2705 H   0  0  0  0  0
   10.3045   22.3070   22.3462 H   0  0  0  0  0
   10.4115   22.6962   20.5868 H   0  0  0  0  0
   10.7265   24.5310   21.9378 H   0  0  0  0  0
   11.9223   19.7648   23.0976 H   0  0  0  0  0
   10.7722   17.7366   21.2500 H   0  0  0  0  0
   11.4564   17.6140   24.2096 H   0  0  0  0  0
   13.3368   17.9582   22.5352 H   0  0  0  0  0
   12.9563   16.2595   21.9921 H   0  0  0  0  0
    9.7211   16.0364   23.6180 H   0  0  0  0  0
   10.7084   15.4296   22.2659 H   0  0  0  0  0
   11.2554   15.1933   23.9440 H   0  0  0  0  0
   13.7856   17.1197   24.7719 H   0  0  0  0  0
   13.4140   15.4609   24.2416 H   0  0  0  0  0
   14.8255   16.3148   23.5711 H   0  0  0  0  0
    8.5828   17.3728   21.1877 H   0  0  0  0  0
    6.9386   18.4791   23.3635 H   0  0  0  0  0
    7.4085   16.0911   21.3202 H   0  0  0  0  0
    5.3714   19.5645   21.7543 H   0  0  0  0  0
    5.9120   18.2164   19.7957 H   0  0  0  0  0
    7.5249   19.0589   19.6954 H   0  0  0  0  0
    7.0672   20.9316   22.8598 H   0  0  0  0  0
    8.2334   20.5637   21.5653 H   0  0  0  0  0
    6.7767   21.5225   21.2052 H   0  0  0  0  0
    4.7956   20.3504   19.3881 H   0  0  0  0  0
    6.3716   21.1735   19.2901 H   0  0  0  0  0
    5.9218   19.9625   18.0644 H   0  0  0  0  0
  1  2  1  0  0  0
  2  3  1  0  0  0
  2  5  1  0  0  0
  3  4  2  0  0  0
  3 12  1  0  0  0
  5  6  1  0  0  0
  6  7  1  0  0  0
  7  8  1  0  0  0
  8  9  1  0  0  0
  9 10  1  0  0  0
  9 11  2  0  0  0
 12 13  1  0  0  0
 13 14  1  0  0  0
 13 16  1  0  0  0
 14 15  2  0  0  0
 14 20  1  0  0  0
 16 17  1  0  0  0
 17 18  1  0  0  0
 17 19  1  0  0  0
 20 21  1  0  0  0
 20 26  1  0  0  0
 21 22  1  0  0  0
 21 24  1  0  0  0
 22 23  2  0  0  0
 22 27  1  0  0  0
 24 25  1  0  0  0
 25 26  1  0  0  0
 27 28  1  0  0  0
 28 29  1  0  0  0
 28 31  1  0  0  0
 29 30  2  0  0  0
 29 34  1  0  0  0
 31 32  1  0  0  0
 31 33  1  0  0  0
 34 35  1  0  0  0
 35 36  1  0  0  0
 35 38  1  0  0  0
 36 37  2  0  0  0
 36 40  1  0  0  0
 38 39  1  0  0  0
 40 41  1  0  0  0
 41 42  1  0  0  0
 41 44  1  0  0  0
 42 43  2  0  0  0
 42 48  1  0  0  0
 44 45  1  0  0  0
 44 46  1  0  0  0
 45 47  1  0  0  0
 48 49  1  0  0  0
 49 50  1  0  0  0
 49 52  1  0  0  0
 50 51  1  0  0  0
 50 56  2  0  0  0
 52 53  1  0  0  0
 52 54  1  0  0  0
 53 55  1  0  0  0
  1 57  1  0  0  0
  1 58  1  0  0  0
  1 59  1  0  0  0
  2 60  1  0  0  0
  5 61  1  0  0  0
  5 62  1  0  0  0
  6 63  1  0  0  0
  6 64  1  0  0  0
  7 65  1  0  0  0
  7 66  1  0  0  0
  8 67  1  0  0  0
 10 68  1  0  0  0
 10 69  1  0  0  0
 11 70  1  0  0  0
 12 71  1  0  0  0
 13 72  1  0  0  0
 16 73  1  0  0  0
 16 74  1  0  0  0
 17 75  1  0  0  0
 18 76  1  0  0  0
 18 77  1  0  0  0
 18 78  1  0  0  0
 19 79  1  0  0  0
 19 80  1  0  0  0
 19 81  1  0  0  0
 21 82  1  0  0  0
 24 83  1  0  0  0
 24 84  1  0  0  0
 25 85  1  0  0  0
 25 86  1  0  0  0
 26 87  1  0  0  0
 26 88  1  0  0  0
 27 89  1  0  0  0
 28 90  1  0  0  0
 31 91  1  0  0  0
 32 92  1  0  0  0
 33 93  1  0  0  0
 33 94  1  0  0  0
 33 95  1  0  0  0
 34 96  1  0  0  0
 35 97  1  0  0  0
 38 98  1  0  0  0
 38 99  1  0  0  0
 39100  1  0  0  0
 40101  1  0  0  0
 41102  1  0  0  0
 44103  1  0  0  0
 45104  1  0  0  0
 45105  1  0  0  0
 46106  1  0  0  0
 46107  1  0  0  0
 46108  1  0  0  0
 47109  1  0  0  0
 47110  1  0  0  0
 47111  1  0  0  0
 48112  1  0  0  0
 49113  1  0  0  0
 51114  1  0  0  0
 52115  1  0  0  0
 53116  1  0  0  0
 53117  1  0  0  0
 54118  1  0  0  0
 54119  1  0  0  0
 54120  1  0  0  0
 55121  1  0  0  0
 55122  1  0  0  0
 55123  1  0  0  0
M  END
$$$$
