1uy9_ligand
  -I-interpret- 

 43 46  0  0  0  0  0  0  0  0999 V2000
    4.9830    7.5760   23.7480 C   0  0  0  0  0
    3.5060    7.4260   24.1100 C   0  0  0  0  0
    3.1540    7.8810   25.5340 C   0  0  0  0  0
    3.2590    9.4030   25.7530 C   0  0  0  0  0
    2.0760   10.0190   25.1410 N   0  0  0  0  0
    0.8200   10.0430   25.6620 C   0  0  0  0  0
    0.3600    9.5230   26.8260 N   0  0  0  0  0
   -0.9510    9.6980   27.1070 C   0  0  0  0  0
   -1.7740   10.3570   26.2580 N   0  0  0  0  0
   -0.0120   10.7330   24.7930 C   0  0  0  0  0
   -1.3440   10.8860   25.0860 C   0  0  0  0  0
   -2.2200   11.5340   24.2540 N   0  0  0  0  0
    0.7760   11.1190   23.7730 N   0  0  0  0  0
    2.0420   10.6920   23.9610 C   0  0  0  0  0
    3.2450   10.9050   23.0700 C   0  0  0  0  0
    4.1030   12.0040   23.6760 C   0  0  0  0  0
    3.5210   13.1730   24.2180 C   0  0  0  0  0
    4.3850   14.1340   24.7300 C   0  0  0  0  0
    5.4980   11.8400   23.6620 C   0  0  0  0  0
    4.0980   15.3560   25.3160 O   0  0  0  0  0
    6.3360   12.8310   24.1870 C   0  0  0  0  0
    5.7420   13.9700   24.7070 C   0  0  0  0  0
    6.3480   15.0850   25.2850 O   0  0  0  0  0
    5.3240   16.0030   25.6900 C   0  0  0  0  0
    5.2708    8.6242   23.8285 H   0  0  0  0  0
    5.5859    6.9788   24.4321 H   0  0  0  0  0
    5.1421    7.2316   22.7262 H   0  0  0  0  0
    3.2662    6.3647   24.0442 H   0  0  0  0  0
    2.9421    8.0573   23.4233 H   0  0  0  0  0
    3.8675    7.4083   26.2090 H   0  0  0  0  0
    2.1164    7.6002   25.7148 H   0  0  0  0  0
    4.1699    9.7918   25.2978 H   0  0  0  0  0
    3.3010    9.6330   26.8176 H   0  0  0  0  0
   -1.3542    9.2995   28.0380 H   0  0  0  0  0
   -3.2022   11.6206   24.5152 H   0  0  0  0  0
   -1.8896   11.9296   23.3738 H   0  0  0  0  0
    2.9217   11.1932   22.0697 H   0  0  0  0  0
    3.8203    9.9823   22.9935 H   0  0  0  0  0
    2.4404   13.3147   24.2337 H   0  0  0  0  0
    5.9316   10.9338   23.2390 H   0  0  0  0  0
    7.4193   12.7108   24.1868 H   0  0  0  0  0
    5.3650   16.2179   26.7578 H   0  0  0  0  0
    5.4352   16.9773   25.2140 H   0  0  0  0  0
  1  2  1  0  0  0
  2  3  1  0  0  0
  3  4  1  0  0  0
  4  5  1  0  0  0
  5  6  4  0  0  0
  5 14  4  0  0  0
  6  7  4  0  0  0
  6 10  4  0  0  0
  7  8  4  0  0  0
  8  9  4  0  0  0
  9 11  4  0  0  0
 10 11  4  0  0  0
 10 13  4  0  0  0
 11 12  1  0  0  0
 13 14  4  0  0  0
 14 15  1  0  0  0
 15 16  1  0  0  0
 16 17  4  0  0  0
 16 19  4  0  0  0
 17 18  4  0  0  0
 18 20  1  0  0  0
 18 22  4  0  0  0
 19 21  4  0  0  0
 20 24  1  0  0  0
 21 22  4  0  0  0
 22 23  1  0  0  0
 23 24  1  0  0  0
  1 25  1  0  0  0
  1 26  1  0  0  0
  1 27  1  0  0  0
  2 28  1  0  0  0
  2 29  1  0  0  0
  3 30  1  0  0  0
  3 31  1  0  0  0
  4 32  1  0  0  0
  4 33  1  0  0  0
  8 34  1  0  0  0
 12 35  1  0  0  0
 12 36  1  0  0  0
 15 37  1  0  0  0
 15 38  1  0  0  0
 17 39  1  0  0  0
 19 40  1  0  0  0
 21 41  1  0  0  0
 24 42  1  0  0  0
 24 43  1  0  0  0
M  END
$$$$
