3ddf_ligand
  -I-interpret- 

 38 39  0  0  0  0  0  0  0  0999 V2000
   27.2850   67.6370   11.5310 C   0  0  0  0  0
   27.0370   68.9770   11.7610 C   0  0  0  0  0
   27.9310   69.7900   12.4580 C   0  0  0  0  0
   29.1240   69.2700   12.9820 C   0  0  0  0  0
   29.4270   67.9340   12.8050 C   0  0  0  0  0
   28.5580   67.0940   12.0920 C   0  0  0  0  0
   28.8520   65.5910   11.8840 C   0  0  0  0  0
   29.1040   65.0270   13.3270 C   0  0  0  0  0
   29.1240   63.6170   13.1430 O   0  0  0  0  0
   30.0900   65.3760   11.0280 N   0  3  0  0  0
   29.9950   66.0980    9.7330 C   0  0  0  0  0
   31.0830   65.6930    8.7260 C   0  0  0  0  0
   30.7800   66.3990    7.4570 N   0  0  0  0  0
   31.7870   67.0310    6.8950 C   0  0  0  0  0
   31.7860   67.6410    5.8060 O   0  0  0  0  0
   33.0180   66.8840    7.7760 C   0  0  0  0  0
   33.9280   65.9840    7.0730 O   0  0  0  0  0
   32.4900   66.2520    9.0390 C   0  0  0  0  0
   33.3470   65.2080    9.5370 O   0  0  0  0  0
   26.5900   67.0112   10.9712 H   0  0  0  0  0
   26.1116   69.4133   11.3851 H   0  0  0  0  0
   27.6990   70.8458   12.5977 H   0  0  0  0  0
   29.8099   69.9184   13.5272 H   0  0  0  0  0
   30.3487   67.5289   13.2226 H   0  0  0  0  0
   28.0287   65.0960   11.3689 H   0  0  0  0  0
   28.3371   65.3418   14.0348 H   0  0  0  0  0
   30.0305   65.4013   13.7623 H   0  0  0  0  0
   29.2751   63.1873   13.9880 H   0  0  0  0  0
   30.1773   64.3784   10.8341 H   0  0  0  0  0
   30.8985   65.7337   11.5367 H   0  0  0  0  0
   30.1187   67.1610    9.9400 H   0  0  0  0  0
   29.0299   65.8520    9.2901 H   0  0  0  0  0
   31.0851   64.6030    8.7238 H   0  0  0  0  0
   29.8468   66.3945    7.0452 H   0  0  0  0  0
   33.5476   67.8109    7.9962 H   0  0  0  0  0
   34.7235   65.8622    7.5964 H   0  0  0  0  0
   32.4500   67.0071    9.8241 H   0  0  0  0  0
   34.2153   65.5712    9.7261 H   0  0  0  0  0
  1  2  4  0  0  0
  1  6  4  0  0  0
  2  3  4  0  0  0
  3  4  4  0  0  0
  4  5  4  0  0  0
  5  6  4  0  0  0
  6  7  1  0  0  0
  7  8  1  0  0  0
  7 10  1  0  0  0
  8  9  1  0  0  0
 10 11  1  0  0  0
 11 12  1  0  0  0
 12 13  1  0  0  0
 12 18  1  0  0  0
 13 14  1  0  0  0
 14 15  2  0  0  0
 14 16  1  0  0  0
 16 17  1  0  0  0
 16 18  1  0  0  0
 18 19  1  0  0  0
  1 20  1  0  0  0
  2 21  1  0  0  0
  3 22  1  0  0  0
  4 23  1  0  0  0
  5 24  1  0  0  0
  7 25  1  0  0  0
  8 26  1  0  0  0
  8 27  1  0  0  0
  9 28  1  0  0  0
 10 29  1  0  0  0
 10 30  1  0  0  0
 11 31  1  0  0  0
 11 32  1  0  0  0
 12 33  1  0  0  0
 13 34  1  0  0  0
 16 35  1  0  0  0
 17 36  1  0  0  0
 18 37  1  0  0  0
 19 38  1  0  0  0
M  END
$$$$
