### 
### Created by X-TOOL on Mon Sep 10 21:13:10 2018
### 

@<TRIPOS>MOLECULE
4egi_ligand
   15    15     1     0     0
SMALL
GAST_HUCK


@<TRIPOS>ATOM
      1 S3         10.1580   -8.2030   13.7490 S.2       1 B2J        -0.2717
      2 C4          9.9820   -6.5920   13.2920 C.2       1 B2J         0.2220
      3 N5          8.7850   -6.0230   13.2880 N.am      1 B2J        -0.1911
      4 N6         11.0460   -5.8960   12.9070 N.am      1 B2J        -0.1773
      5 C7         10.9370   -4.5930   12.5470 C.2       1 B2J         0.1611
      6 C8         12.1600   -3.8220   12.0650 C.3       1 B2J         0.0340
      7 N9          9.7290   -4.0600   12.5350 N.2       1 B2J        -0.2502
      8 C10         8.6420   -4.7480   12.9260 C.2       1 B2J         0.1549
      9 N11         7.4290   -4.2190   12.9290 N.2       1 B2J        -0.4091
     10 H1          7.9824   -6.5545   13.5588 H         1 B2J         0.2546
     11 H2         11.9417   -6.3400   12.8822 H         1 B2J         0.2667
     12 H3         11.8700   -2.7891   11.8222 H         1 B2J         0.0553
     13 H4         12.5698   -4.3084   11.1675 H         1 B2J         0.0553
     14 H5         12.9229   -3.8119   12.8574 H         1 B2J         0.0553
     15 H6          7.2981   -3.2567   12.6588 H         1 B2J         0.0403
@<TRIPOS>BOND
     1    1    2 2  
     2    2    3 am 
     3    2    4 am 
     4    3    8 1  
     5    4    5 1  
     6    5    6 1  
     7    5    7 2  
     8    7    8 1  
     9    8    9 2  
    10    3   10 1  
    11    4   11 1  
    12    6   12 1  
    13    6   13 1  
    14    6   14 1  
    15    9   15 1  
@<TRIPOS>SUBSTRUCTURE
     1 B2J         1

