4gto_ligand
  -I-interpret- 

 74 78  0  0  0  0  0  0  0  0999 V2000
  -22.5130   66.9580    3.0170 C   0  0  0  0  0
  -21.2820   66.5610    3.6500 O   0  0  0  0  0
  -20.6650   67.6250    4.2380 C   0  0  0  0  0
  -21.3180   68.8530    4.3200 C   0  0  0  0  0
  -20.6870   69.9300    4.9230 C   0  0  0  0  0
  -19.3780   67.4880    4.7640 C   0  0  0  0  0
  -18.7430   68.5740    5.3720 C   0  0  0  0  0
  -19.3970   69.8070    5.4360 C   0  0  0  0  0
  -18.6730   71.2380    6.1800 S   0  0  0  0  0
  -17.8220   70.8400    7.3510 O   0  0  0  0  0
  -19.8010   72.0940    6.6750 O   0  0  0  0  0
  -17.7060   72.2360    5.1890 N   0  0  0  0  0
  -18.3830   72.8560    4.0240 C   0  0  0  0  0
  -18.8780   71.8650    2.9830 C   0  0  0  0  0
  -20.1350   72.2100    2.4880 C   0  0  0  0  0
  -20.7030   71.4190    1.5120 C   0  0  0  0  0
  -21.9840   71.7160    0.9700 C   0  0  0  0  0
  -23.0010   71.9300    0.5150 N   0  0  0  0  0
  -20.0460   70.2900    1.0450 C   0  0  0  0  0
  -18.8040   69.9360    1.5440 C   0  0  0  0  0
  -18.2070   70.7340    2.5220 C   0  0  0  0  0
  -16.9910   70.3310    2.9170 N   0  0  0  0  0
  -16.5540   68.9260    2.7160 C   0  0  0  0  0
  -15.7930   68.7940    1.3870 C   0  0  0  0  0
  -15.7880   69.6570    0.3640 C   0  0  0  0  0
  -15.0140   69.1590   -0.5990 N   0  0  0  0  0
  -14.5290   67.9830   -0.1800 C   0  0  0  0  0
  -15.0120   67.7750    1.0360 N   0  0  0  0  0
  -14.7220   66.5680    1.8860 C   0  0  0  0  0
  -16.0040   71.2650    3.4960 C   0  0  0  0  0
  -16.3420   71.6850    4.9500 C   0  0  0  0  0
  -15.2640   72.6280    5.5570 C   0  0  0  0  0
  -15.2590   74.1440    5.2280 C   0  0  0  0  0
  -15.9680   75.0860    5.9850 C   0  0  0  0  0
  -15.9020   76.4590    5.6690 C   0  0  0  0  0
  -14.4610   74.6130    4.1840 C   0  0  0  0  0
  -14.3990   75.9810    3.8720 C   0  0  0  0  0
  -15.1040   76.9360    4.6130 C   0  0  0  0  0
  -15.0440   78.2950    4.2860 O   0  0  0  0  0
  -13.8100   79.1240    4.5530 S   0  0  0  0  0
  -13.7970   80.3270    3.6630 O   0  0  0  0  0
  -12.5160   78.4010    4.3390 O   0  0  0  0  0
  -13.8560   79.7780    6.2590 C   0  0  0  0  0
  -14.0780   78.7760    7.1200 F   0  0  0  0  0
  -12.6980   80.3950    6.5050 F   0  0  0  0  0
  -14.8410   80.6680    6.3580 F   0  0  0  0  0
  -23.1844   67.3809    3.7643 H   0  0  0  0  0
  -22.3021   67.7051    2.2518 H   0  0  0  0  0
  -22.9810   66.0874    2.5574 H   0  0  0  0  0
  -22.3220   68.9666    3.9112 H   0  0  0  0  0
  -21.2065   70.8854    4.9969 H   0  0  0  0  0
  -18.8660   66.5279    4.6997 H   0  0  0  0  0
  -17.7443   68.4601    5.7935 H   0  0  0  0  0
  -17.6505   73.4963    3.5325 H   0  0  0  0  0
  -19.2581   73.3819    4.4058 H   0  0  0  0  0
  -20.6586   73.0883    2.8655 H   0  0  0  0  0
  -20.5130   69.6744    0.2762 H   0  0  0  0  0
  -18.2973   69.0434    1.1771 H   0  0  0  0  0
  -17.4308   68.2788    2.6918 H   0  0  0  0  0
  -15.8961   68.6355    3.5351 H   0  0  0  0  0
  -16.3251   70.6047    0.3255 H   0  0  0  0  0
  -13.8629   67.3221   -0.7346 H   0  0  0  0  0
  -14.2487   66.8849    2.8153 H   0  0  0  0  0
  -15.6547   66.0503    2.1099 H   0  0  0  0  0
  -14.0532   65.8974    1.3464 H   0  0  0  0  0
  -16.0026   72.1664    2.8832 H   0  0  0  0  0
  -15.0395   70.7576    3.5141 H   0  0  0  0  0
  -16.3362   70.7295    5.4745 H   0  0  0  0  0
  -14.3256   72.2623    5.1403 H   0  0  0  0  0
  -15.4506   72.5893    6.6302 H   0  0  0  0  0
  -16.5765   74.7545    6.8264 H   0  0  0  0  0
  -16.4838   77.1683    6.2577 H   0  0  0  0  0
  -13.8745   73.9042    3.5994 H   0  0  0  0  0
  -13.7863   76.3070    3.0315 H   0  0  0  0  0
  1  2  1  0  0  0
  2  3  1  0  0  0
  3  4  4  0  0  0
  3  6  4  0  0  0
  4  5  4  0  0  0
  5  8  4  0  0  0
  6  7  4  0  0  0
  7  8  4  0  0  0
  8  9  1  0  0  0
  9 10  2  0  0  0
  9 11  2  0  0  0
  9 12  1  0  0  0
 12 13  1  0  0  0
 12 31  1  0  0  0
 13 14  1  0  0  0
 14 15  4  0  0  0
 14 21  4  0  0  0
 15 16  4  0  0  0
 16 17  1  0  0  0
 16 19  4  0  0  0
 17 18  3  0  0  0
 19 20  4  0  0  0
 20 21  4  0  0  0
 21 22  1  0  0  0
 22 23  1  0  0  0
 22 30  1  0  0  0
 23 24  1  0  0  0
 24 25  4  0  0  0
 24 28  4  0  0  0
 25 26  4  0  0  0
 26 27  4  0  0  0
 27 28  4  0  0  0
 28 29  1  0  0  0
 30 31  1  0  0  0
 31 32  1  0  0  0
 32 33  1  0  0  0
 33 34  4  0  0  0
 33 36  4  0  0  0
 34 35  4  0  0  0
 35 38  4  0  0  0
 36 37  4  0  0  0
 37 38  4  0  0  0
 38 39  1  0  0  0
 39 40  1  0  0  0
 40 41  2  0  0  0
 40 42  2  0  0  0
 40 43  1  0  0  0
 43 44  1  0  0  0
 43 45  1  0  0  0
 43 46  1  0  0  0
  1 47  1  0  0  0
  1 48  1  0  0  0
  1 49  1  0  0  0
  4 50  1  0  0  0
  5 51  1  0  0  0
  6 52  1  0  0  0
  7 53  1  0  0  0
 13 54  1  0  0  0
 13 55  1  0  0  0
 15 56  1  0  0  0
 19 57  1  0  0  0
 20 58  1  0  0  0
 23 59  1  0  0  0
 23 60  1  0  0  0
 25 61  1  0  0  0
 27 62  1  0  0  0
 29 63  1  0  0  0
 29 64  1  0  0  0
 29 65  1  0  0  0
 30 66  1  0  0  0
 30 67  1  0  0  0
 31 68  1  0  0  0
 32 69  1  0  0  0
 32 70  1  0  0  0
 34 71  1  0  0  0
 35 72  1  0  0  0
 36 73  1  0  0  0
 37 74  1  0  0  0
M  END
$$$$
