### 
### Created by X-TOOL on Mon Sep 10 21:13:23 2018
### 

@<TRIPOS>MOLECULE
4rxh_ligand
  109   108     1     0     0
SMALL
GAST_HUCK


@<TRIPOS>ATOM
      1 N         -32.1000   93.5230  200.0380 N.4       1 LYS         0.2379
      2 CA        -30.9010   92.8930  199.5040 C.3       1 LYS         0.0650
      3 C         -30.6490   91.5440  200.1790 C.2       1 LYS         0.2267
      4 O         -29.6830   90.8550  199.8580 O.2       1 LYS        -0.3907
      5 CB        -29.6860   93.8120  199.6840 C.3       1 LYS         0.0080
      6 CG        -28.5280   93.5130  198.7420 C.3       1 LYS        -0.0410
      7 CD        -27.2860   94.2970  199.1280 C.3       1 LYS        -0.0123
      8 CE        -26.1050   93.8950  198.2590 C.3       1 LYS        -0.0354
      9 NZ        -24.7830   94.2500  198.8600 N.4       1 LYS         0.2185
     10 N         -31.5330   91.1700  201.1040 N.am      1 LYS        -0.2610
     11 CA        -31.3750   89.9310  201.8660 C.3       1 LYS         0.1311
     12 C         -32.0420   88.7410  201.1810 C.2       1 LYS         0.2039
     13 O         -33.1090   88.8790  200.5920 O.2       1 LYS        -0.3944
     14 CB        -31.9470   90.0950  203.2720 C.3       1 LYS        -0.0122
     15 CG        -31.4160   91.2960  204.0400 C.3       1 LYS        -0.0440
     16 CD        -29.8970   91.2540  204.1940 C.3       1 LYS        -0.0124
     17 CE        -29.4410   92.3350  205.1660 C.3       1 LYS        -0.0354
     18 NZ        -29.3780   91.8640  206.5860 N.4       1 LYS         0.2185
     19 N         -31.4140   87.5710  201.2710 N.am      1 ARG        -0.2637
     20 CA        -31.9740   86.3430  200.7040 C.3       1 ARG         0.1311
     21 C         -32.5640   85.4640  201.7910 C.2       1 ARG         0.2039
     22 O         -31.8310   84.8360  202.5500 O.2       1 ARG        -0.3944
     23 CB        -30.9160   85.5450  199.9400 C.3       1 ARG        -0.0092
     24 CG        -30.5180   86.1110  198.5920 C.3       1 ARG        -0.0156
     25 CD        -29.4480   85.2330  197.9460 C.3       1 ARG         0.0627
     26 NE        -28.3030   85.0270  198.8340 N.pl3     1 ARG        -0.2723
     27 CZ        -27.7190   83.8520  199.0490 C.cat     1 ARG         0.2882
     28 NH1       -28.1560   82.7620  198.4310 N.pl3     1 ARG        -0.2849
     29 NH2       -26.6880   83.7660  199.8770 N.pl3     1 ARG        -0.2849
     30 N         -33.8900   85.3980  201.8580 N.am      1 LYS        -0.2637
     31 CA        -34.5390   84.5440  202.8410 C.3       1 LYS         0.1309
     32 C         -34.5560   83.1000  202.3500 C.2       1 LYS         0.2033
     33 O         -34.2850   82.8340  201.1780 O.2       1 LYS        -0.3944
     34 CB        -35.9580   85.0570  203.1370 C.3       1 LYS        -0.0122
     35 CG        -35.9290   86.3200  203.9870 C.3       1 LYS        -0.0440
     36 CD        -37.2790   86.9090  204.2500 C.3       1 LYS        -0.0124
     37 CE        -37.1470   88.2130  205.0260 C.3       1 LYS        -0.0354
     38 NZ        -36.8460   87.9610  206.4640 N.4       1 LYS         0.2185
     39 N         -34.8360   82.1660  203.2540 N.am      1 VAL        -0.2692
     40 CA        -34.9170   80.7540  202.8890 C.3       1 VAL         0.0967
     41 C         -35.8900   80.5200  201.7310 C.2       1 VAL         0.0603
     42 O         -35.5120   79.9330  200.7110 O.co2     1 VAL        -0.5666
     43 CB        -35.3510   79.8820  204.0900 C.3       1 VAL        -0.0118
     44 CG1       -35.6180   78.4500  203.6380 C.3       1 VAL        -0.0590
     45 CG2       -34.2950   79.9020  205.1680 C.3       1 VAL        -0.0590
     46 OXT       -37.0580   80.9170  201.8110 O.co2     1 VAL        -0.5666
     47 H1        -32.2465   94.4088  199.5799 H         1 LYS         0.2015
     48 H2        -31.9887   93.6715  201.0288 H         1 LYS         0.2015
     49 H3        -32.8949   92.9249  199.8750 H         1 LYS         0.2015
     50 H4        -31.0506   92.7202  198.4280 H         1 LYS         0.1098
     51 H5        -29.3249   93.7068  200.7177 H         1 LYS         0.0346
     52 H6        -30.0103   94.8490  199.5126 H         1 LYS         0.0346
     53 H7        -28.8200   93.7862  197.7173 H         1 LYS         0.0270
     54 H8        -28.3003   92.4377  198.7841 H         1 LYS         0.0270
     55 H9        -27.0442   94.0946  200.1818 H         1 LYS         0.0317
     56 H10       -27.4818   95.3714  198.9965 H         1 LYS         0.0317
     57 H11       -26.1958   94.4046  197.2884 H         1 LYS         0.0813
     58 H12       -26.1382   92.8062  198.1060 H         1 LYS         0.0813
     59 H13       -24.0432   93.9595  198.2400 H         1 LYS         0.1994
     60 H14       -24.6808   93.7826  199.7472 H         1 LYS         0.1994
     61 H15       -24.7335   95.2473  198.9980 H         1 LYS         0.1994
     62 H16       -32.3262   91.7524  201.2820 H         1 LYS         0.1884
     63 H17       -30.2989   89.7190  201.9493 H         1 LYS         0.0800
     64 H18       -31.7078   89.1882  203.8468 H         1 LYS         0.0312
     65 H19       -33.0389   90.1983  203.1875 H         1 LYS         0.0312
     66 H20       -31.8736   91.3080  205.0402 H         1 LYS         0.0269
     67 H21       -31.6924   92.2132  203.4993 H         1 LYS         0.0269
     68 H22       -29.4268   91.4236  203.2141 H         1 LYS         0.0317
     69 H23       -29.5971   90.2682  204.5790 H         1 LYS         0.0317
     70 H24       -30.1463   93.1771  205.1082 H         1 LYS         0.0813
     71 H25       -28.4388   92.6748  204.8658 H         1 LYS         0.0813
     72 H26       -29.0715   92.6204  207.1776 H         1 LYS         0.1994
     73 H27       -28.7277   91.0971  206.6571 H         1 LYS         0.1994
     74 H28       -30.2924   91.5575  206.8792 H         1 LYS         0.1994
     75 H29       -30.5321   87.5295  201.7406 H         1 ARG         0.1883
     76 H30       -32.7749   86.6226  200.0037 H         1 ARG         0.0800
     77 H31       -31.3083   84.5301  199.7787 H         1 ARG         0.0313
     78 H32       -30.0129   85.4939  200.5659 H         1 ARG         0.0313
     79 H33       -30.1204   87.1276  198.7279 H         1 ARG         0.0301
     80 H34       -31.4017   86.1473  197.9379 H         1 ARG         0.0301
     81 H35       -29.0992   85.7185  197.0226 H         1 ARG         0.0689
     82 H36       -29.8895   84.2554  197.7022 H         1 ARG         0.0689
     83 H37       -27.9236   85.8485  199.3261 H         1 ARG         0.2642
     84 H38       -27.6991   81.8549  198.6020 H         1 ARG         0.2615
     85 H39       -28.9521   82.8231  197.7803 H         1 ARG         0.2615
     86 H40       -26.3437   84.6081  200.3599 H         1 ARG         0.2615
     87 H41       -26.2309   82.8571  200.0376 H         1 ARG         0.2615
     88 H42       -34.4460   85.9398  201.2276 H         1 LYS         0.1883
     89 H43       -33.9583   84.5830  203.7744 H         1 LYS         0.0800
     90 H44       -36.5151   84.2764  203.6757 H         1 LYS         0.0312
     91 H45       -36.4638   85.2781  202.1856 H         1 LYS         0.0312
     92 H46       -35.3188   87.0729  203.4667 H         1 LYS         0.0269
     93 H47       -35.4643   86.0756  204.9536 H         1 LYS         0.0269
     94 H48       -37.8771   86.1967  204.8372 H         1 LYS         0.0317
     95 H49       -37.7812   87.1068  203.2915 H         1 LYS         0.0317
     96 H50       -38.0915   88.7718  204.9505 H         1 LYS         0.0813
     97 H51       -36.3324   88.8090  204.5888 H         1 LYS         0.0813
     98 H52       -36.7648   88.8407  206.9494 H         1 LYS         0.1994
     99 H53       -35.9788   87.4530  206.5418 H         1 LYS         0.1994
    100 H54       -37.5908   87.4190  206.8732 H         1 LYS         0.1994
    101 H55       -34.9945   82.4359  204.2038 H         1 VAL         0.1875
    102 H56       -33.9151   80.4311  202.5697 H         1 VAL         0.0729
    103 H57       -36.2814   80.2973  204.5047 H         1 VAL         0.0336
    104 H58       -35.9252   77.8438  204.5029 H         1 VAL         0.0234
    105 H59       -34.7018   78.0267  203.2005 H         1 VAL         0.0234
    106 H60       -36.4195   78.4467  202.8847 H         1 VAL         0.0234
    107 H61       -34.1131   80.9399  205.4838 H         1 VAL         0.0234
    108 H62       -33.3627   79.4692  204.7761 H         1 VAL         0.0234
    109 H63       -34.6395   79.3116  206.0298 H         1 VAL         0.0234
@<TRIPOS>BOND
     1    1    2 1  
     2    2    3 1  
     3    2    5 1  
     4    3    4 2  
     5    3   10 am 
     6    5    6 1  
     7    6    7 1  
     8    7    8 1  
     9    8    9 1  
    10   10   11 1  
    11   11   12 1  
    12   11   14 1  
    13   12   13 2  
    14   12   19 am 
    15   14   15 1  
    16   15   16 1  
    17   16   17 1  
    18   17   18 1  
    19   19   20 1  
    20   20   21 1  
    21   20   23 1  
    22   21   22 2  
    23   21   30 am 
    24   23   24 1  
    25   24   25 1  
    26   25   26 1  
    27   26   27 ar 
    28   27   28 ar 
    29   27   29 ar 
    30   30   31 1  
    31   31   32 1  
    32   31   34 1  
    33   32   33 2  
    34   32   39 am 
    35   34   35 1  
    36   35   36 1  
    37   36   37 1  
    38   37   38 1  
    39   39   40 1  
    40   40   41 1  
    41   40   43 1  
    42   41   42 ar 
    43   41   46 ar 
    44   43   44 1  
    45   43   45 1  
    46    1   47 1  
    47    1   48 1  
    48    1   49 1  
    49    2   50 1  
    50    5   51 1  
    51    5   52 1  
    52    6   53 1  
    53    6   54 1  
    54    7   55 1  
    55    7   56 1  
    56    8   57 1  
    57    8   58 1  
    58    9   59 1  
    59    9   60 1  
    60    9   61 1  
    61   10   62 1  
    62   11   63 1  
    63   14   64 1  
    64   14   65 1  
    65   15   66 1  
    66   15   67 1  
    67   16   68 1  
    68   16   69 1  
    69   17   70 1  
    70   17   71 1  
    71   18   72 1  
    72   18   73 1  
    73   18   74 1  
    74   19   75 1  
    75   20   76 1  
    76   23   77 1  
    77   23   78 1  
    78   24   79 1  
    79   24   80 1  
    80   25   81 1  
    81   25   82 1  
    82   26   83 1  
    83   28   84 1  
    84   28   85 1  
    85   29   86 1  
    86   29   87 1  
    87   30   88 1  
    88   31   89 1  
    89   34   90 1  
    90   34   91 1  
    91   35   92 1  
    92   35   93 1  
    93   36   94 1  
    94   36   95 1  
    95   37   96 1  
    96   37   97 1  
    97   38   98 1  
    98   38   99 1  
    99   38  100 1  
   100   39  101 1  
   101   40  102 1  
   102   43  103 1  
   103   44  104 1  
   104   44  105 1  
   105   44  106 1  
   106   45  107 1  
   107   45  108 1  
   108   45  109 1  
@<TRIPOS>SUBSTRUCTURE
     1 LYS         1

