4rxh_ligand
  -I-interpret- 

109108  0  0  0  0  0  0  0  0999 V2000
  -32.1000   93.5230  200.0380 N   0  3  0  0  0
  -30.9010   92.8930  199.5040 C   0  0  0  0  0
  -30.6490   91.5440  200.1790 C   0  0  0  0  0
  -29.6830   90.8550  199.8580 O   0  0  0  0  0
  -29.6860   93.8120  199.6840 C   0  0  0  0  0
  -28.5280   93.5130  198.7420 C   0  0  0  0  0
  -27.2860   94.2970  199.1280 C   0  0  0  0  0
  -26.1050   93.8950  198.2590 C   0  0  0  0  0
  -24.7830   94.2500  198.8600 N   0  3  0  0  0
  -31.5330   91.1700  201.1040 N   0  0  0  0  0
  -31.3750   89.9310  201.8660 C   0  0  0  0  0
  -32.0420   88.7410  201.1810 C   0  0  0  0  0
  -33.1090   88.8790  200.5920 O   0  0  0  0  0
  -31.9470   90.0950  203.2720 C   0  0  0  0  0
  -31.4160   91.2960  204.0400 C   0  0  0  0  0
  -29.8970   91.2540  204.1940 C   0  0  0  0  0
  -29.4410   92.3350  205.1660 C   0  0  0  0  0
  -29.3780   91.8640  206.5860 N   0  3  0  0  0
  -31.4140   87.5710  201.2710 N   0  0  0  0  0
  -31.9740   86.3430  200.7040 C   0  0  0  0  0
  -32.5640   85.4640  201.7910 C   0  0  0  0  0
  -31.8310   84.8360  202.5500 O   0  0  0  0  0
  -30.9160   85.5450  199.9400 C   0  0  0  0  0
  -30.5180   86.1110  198.5920 C   0  0  0  0  0
  -29.4480   85.2330  197.9460 C   0  0  0  0  0
  -28.3030   85.0270  198.8340 N   0  0  0  0  0
  -27.7190   83.8520  199.0490 C   0  0  0  0  0
  -28.1560   82.7620  198.4310 N   0  0  0  0  0
  -26.6880   83.7660  199.8770 N   0  0  0  0  0
  -33.8900   85.3980  201.8580 N   0  0  0  0  0
  -34.5390   84.5440  202.8410 C   0  0  0  0  0
  -34.5560   83.1000  202.3500 C   0  0  0  0  0
  -34.2850   82.8340  201.1780 O   0  0  0  0  0
  -35.9580   85.0570  203.1370 C   0  0  0  0  0
  -35.9290   86.3200  203.9870 C   0  0  0  0  0
  -37.2790   86.9090  204.2500 C   0  0  0  0  0
  -37.1470   88.2130  205.0260 C   0  0  0  0  0
  -36.8460   87.9610  206.4640 N   0  3  0  0  0
  -34.8360   82.1660  203.2540 N   0  0  0  0  0
  -34.9170   80.7540  202.8890 C   0  0  0  0  0
  -35.8900   80.5200  201.7310 C   0  0  0  0  0
  -35.5120   79.9330  200.7110 O   0  0  0  0  0
  -35.3510   79.8820  204.0900 C   0  0  0  0  0
  -35.6180   78.4500  203.6380 C   0  0  0  0  0
  -34.2950   79.9020  205.1680 C   0  0  0  0  0
  -37.0580   80.9170  201.8110 O   0  0  0  0  0
  -32.8964   92.8988  199.9099 H   0  0  0  0  0
  -31.9700   93.7107  201.0321 H   0  0  0  0  0
  -32.2706   94.3994  199.5448 H   0  0  0  0  0
  -31.0544   92.7206  198.4387 H   0  0  0  0  0
  -29.3194   93.6631  200.6997 H   0  0  0  0  0
  -30.0184   94.8279  199.4707 H   0  0  0  0  0
  -28.8195   93.8002  197.7317 H   0  0  0  0  0
  -28.2988   92.4490  198.8008 H   0  0  0  0  0
  -27.0452   94.0851  200.1697 H   0  0  0  0  0
  -27.4821   95.3598  198.9863 H   0  0  0  0  0
  -26.1927   94.4313  197.3141 H   0  0  0  0  0
  -26.1345   92.8116  198.1426 H   0  0  0  0  0
  -24.0352   93.9556  198.2318 H   0  0  0  0  0
  -24.7342   95.2593  198.9992 H   0  0  0  0  0
  -24.6808   93.7765  199.7576 H   0  0  0  0  0
  -32.3420   91.7641  201.2856 H   0  0  0  0  0
  -30.3056   89.7279  201.9225 H   0  0  0  0  0
  -31.6611   89.2070  203.8357 H   0  0  0  0  0
  -33.0217   90.2396  203.1618 H   0  0  0  0  0
  -31.8590   91.2856  205.0359 H   0  0  0  0  0
  -31.6765   92.1969  203.4845 H   0  0  0  0  0
  -29.4334   91.4267  203.2227 H   0  0  0  0  0
  -29.6028   90.2779  204.5798 H   0  0  0  0  0
  -30.1660   93.1476  205.1197 H   0  0  0  0  0
  -28.4357   92.6386  204.8741 H   0  0  0  0  0
  -29.0678   92.6302  207.1836 H   0  0  0  0  0
  -30.3037   91.5541  206.8815 H   0  0  0  0  0
  -28.7197   91.0881  206.6567 H   0  0  0  0  0
  -30.5145   87.5286  201.7500 H   0  0  0  0  0
  -32.7599   86.6436  200.0111 H   0  0  0  0  0
  -31.3471   84.5624  199.7486 H   0  0  0  0  0
  -30.0173   85.5518  200.5567 H   0  0  0  0  0
  -30.1189   87.1158  198.7308 H   0  0  0  0  0
  -31.3943   86.1399  197.9445 H   0  0  0  0  0
  -29.0954   85.7318  197.0433 H   0  0  0  0  0
  -29.8898   84.2611  197.7264 H   0  0  0  0  0
  -27.9273   85.8405  199.3213 H   0  0  0  0  0
  -27.6988   81.8650  198.5946 H   0  0  0  0  0
  -28.9491   82.8212  197.7924 H   0  0  0  0  0
  -26.3423   84.6012  200.3495 H   0  0  0  0  0
  -34.4571   85.9506  201.2150 H   0  0  0  0  0
  -33.9743   84.5742  203.7728 H   0  0  0  0  0
  -36.4971   84.2843  203.6851 H   0  0  0  0  0
  -36.4456   85.2892  202.1902 H   0  0  0  0  0
  -35.3528   87.0652  203.4385 H   0  0  0  0  0
  -35.5009   86.0498  204.9523 H   0  0  0  0  0
  -37.8658   86.2035  204.8383 H   0  0  0  0  0
  -37.7702   87.1104  203.2980 H   0  0  0  0  0
  -38.0914   88.7531  204.9592 H   0  0  0  0  0
  -36.3282   88.7903  204.5966 H   0  0  0  0  0
  -36.7640   88.8518  206.9541 H   0  0  0  0  0
  -37.6003   87.4125  206.8770 H   0  0  0  0  0
  -35.9684   87.4470  206.5414 H   0  0  0  0  0
  -34.9976   82.4413  204.2227 H   0  0  0  0  0
  -33.9147   80.4631  202.5747 H   0  0  0  0  0
  -36.2722   80.2958  204.5003 H   0  0  0  0  0
  -36.4123   78.4481  202.8916 H   0  0  0  0  0
  -34.7095   78.0318  203.2047 H   0  0  0  0  0
  -35.9223   77.8504  204.4958 H   0  0  0  0  0
  -33.3600   79.5116  204.7662 H   0  0  0  0  0
  -34.1456   80.9263  205.5095 H   0  0  0  0  0
  -34.6194   79.2826  206.0041 H   0  0  0  0  0
  -37.1908   81.3487  202.6581 H   0  0  0  0  0
  1  2  1  0  0  0
  2  3  1  0  0  0
  2  5  1  0  0  0
  3  4  2  0  0  0
  3 10  1  0  0  0
  5  6  1  0  0  0
  6  7  1  0  0  0
  7  8  1  0  0  0
  8  9  1  0  0  0
 10 11  1  0  0  0
 11 12  1  0  0  0
 11 14  1  0  0  0
 12 13  2  0  0  0
 12 19  1  0  0  0
 14 15  1  0  0  0
 15 16  1  0  0  0
 16 17  1  0  0  0
 17 18  1  0  0  0
 19 20  1  0  0  0
 20 21  1  0  0  0
 20 23  1  0  0  0
 21 22  2  0  0  0
 21 30  1  0  0  0
 23 24  1  0  0  0
 24 25  1  0  0  0
 25 26  1  0  0  0
 26 27  1  0  0  0
 27 28  1  0  0  0
 27 29  2  0  0  0
 30 31  1  0  0  0
 31 32  1  0  0  0
 31 34  1  0  0  0
 32 33  2  0  0  0
 32 39  1  0  0  0
 34 35  1  0  0  0
 35 36  1  0  0  0
 36 37  1  0  0  0
 37 38  1  0  0  0
 39 40  1  0  0  0
 40 41  1  0  0  0
 40 43  1  0  0  0
 41 42  2  0  0  0
 41 46  1  0  0  0
 43 44  1  0  0  0
 43 45  1  0  0  0
  1 47  1  0  0  0
  1 48  1  0  0  0
  1 49  1  0  0  0
  2 50  1  0  0  0
  5 51  1  0  0  0
  5 52  1  0  0  0
  6 53  1  0  0  0
  6 54  1  0  0  0
  7 55  1  0  0  0
  7 56  1  0  0  0
  8 57  1  0  0  0
  8 58  1  0  0  0
  9 59  1  0  0  0
  9 60  1  0  0  0
  9 61  1  0  0  0
 10 62  1  0  0  0
 11 63  1  0  0  0
 14 64  1  0  0  0
 14 65  1  0  0  0
 15 66  1  0  0  0
 15 67  1  0  0  0
 16 68  1  0  0  0
 16 69  1  0  0  0
 17 70  1  0  0  0
 17 71  1  0  0  0
 18 72  1  0  0  0
 18 73  1  0  0  0
 18 74  1  0  0  0
 19 75  1  0  0  0
 20 76  1  0  0  0
 23 77  1  0  0  0
 23 78  1  0  0  0
 24 79  1  0  0  0
 24 80  1  0  0  0
 25 81  1  0  0  0
 25 82  1  0  0  0
 26 83  1  0  0  0
 28 84  1  0  0  0
 28 85  1  0  0  0
 29 86  1  0  0  0
 30 87  1  0  0  0
 31 88  1  0  0  0
 34 89  1  0  0  0
 34 90  1  0  0  0
 35 91  1  0  0  0
 35 92  1  0  0  0
 36 93  1  0  0  0
 36 94  1  0  0  0
 37 95  1  0  0  0
 37 96  1  0  0  0
 38 97  1  0  0  0
 38 98  1  0  0  0
 38 99  1  0  0  0
 39100  1  0  0  0
 40101  1  0  0  0
 43102  1  0  0  0
 44103  1  0  0  0
 44104  1  0  0  0
 44105  1  0  0  0
 45106  1  0  0  0
 45107  1  0  0  0
 45108  1  0  0  0
 46109  1  0  0  0
M  END
$$$$
