2zmm_ligand
  -I-interpret- 

 54 56  0  0  0  0  0  0  0  0999 V2000
   50.0570   10.7540   -2.5090 C   0  0  0  0  0
   49.6410    9.2770   -0.5530 C   0  0  0  0  0
   47.3210    9.4030    0.3500 C   0  0  0  0  0
   46.2340    8.6670   -0.1410 C   0  0  0  0  0
   44.9570    9.2310   -0.1530 C   0  0  0  0  0
   44.7460   10.5240    0.3240 C   0  0  0  0  0
   49.1950   10.2140   -1.4830 N   0  0  0  0  0
   45.8180   11.2740    0.8150 C   0  0  0  0  0
   50.8010    8.8580   -0.5660 O   0  0  0  0  0
   47.0970   10.7070    0.8260 C   0  0  0  0  0
   45.6110   12.6340    1.3100 C   0  0  0  0  0
   46.1750   13.3160    2.3680 C   0  0  0  0  0
   45.6830   14.6450    2.5200 C   0  0  0  0  0
   44.7930   14.9560    1.5080 C   0  0  0  0  0
   44.0370   16.3110    1.2730 C   0  0  0  0  0
   47.3220   16.1890    3.2570 C   0  0  0  0  0
   47.6360   17.0070    4.5180 C   0  0  0  0  0
   48.9960    7.8730    1.4450 C   0  0  0  0  0
   48.8670    6.4000    1.0090 C   0  0  0  0  0
   48.0750    5.5730    2.0210 C   0  0  0  0  0
   48.6020    5.7170    3.4480 C   0  0  0  0  0
   48.7840    7.1760    3.8620 C   0  0  0  0  0
   48.2940    8.1430    2.7840 C   0  0  0  0  0
   48.6560    8.8640    0.3800 N   0  0  0  0  0
   44.5220   13.6420    0.4520 S   0  0  0  0  0
   43.8980   17.1050    2.2490 O   0  0  0  0  0
   43.6330   16.4930    0.0830 O   0  0  0  0  0
   46.0740   15.5200    3.4910 O   0  0  0  0  0
   46.7510   17.0080    5.4220 O   0  0  0  0  0
   48.7580   17.5880    4.5160 O   0  0  0  0  0
   47.4230   12.5860    3.5860 Br  0  0  0  0  0
   50.9018   11.2607   -2.0424 H   0  0  0  0  0
   50.4213    9.9430   -3.1396 H   0  0  0  0  0
   49.4960   11.4643   -3.1163 H   0  0  0  0  0
   46.3857    7.6540   -0.5136 H   0  0  0  0  0
   44.1163    8.6546   -0.5392 H   0  0  0  0  0
   43.7430   10.9506    0.3139 H   0  0  0  0  0
   48.2261   10.5296   -1.4378 H   0  0  0  0  0
   47.9357   11.2871    1.2109 H   0  0  0  0  0
   48.1147   15.4679    3.0576 H   0  0  0  0  0
   47.2542   16.8375    2.3835 H   0  0  0  0  0
   50.0603    8.0342    1.6165 H   0  0  0  0  0
   49.8688    5.9775    0.9319 H   0  0  0  0  0
   48.3389    6.3708    0.0559 H   0  0  0  0  0
   48.1643    4.5244    1.7371 H   0  0  0  0  0
   47.0448    5.9290    2.0088 H   0  0  0  0  0
   49.5761    5.2303    3.4967 H   0  0  0  0  0
   47.8740    5.2653    4.1218 H   0  0  0  0  0
   49.8473    7.3546    4.0221 H   0  0  0  0  0
   48.2000    7.3491    4.7659 H   0  0  0  0  0
   47.2210    8.0051    2.6511 H   0  0  0  0  0
   48.5195    9.1620    3.0986 H   0  0  0  0  0
   43.8704   15.7335   -0.4540 H   0  0  0  0  0
   46.0042   16.4759    5.1377 H   0  0  0  0  0
  7  1  1  0  0  0
  2  7  1  0  0  0
  2  9  2  0  0  0
 24  2  1  0  0  0
  3  4  4  0  0  0
  3 10  4  0  0  0
 24  3  1  0  0  0
  4  5  4  0  0  0
  5  6  4  0  0  0
  8  6  4  0  0  0
 10  8  4  0  0  0
  8 11  1  0  0  0
 11 12  4  0  0  0
 11 25  4  0  0  0
 12 13  4  0  0  0
 12 31  1  0  0  0
 14 13  4  0  0  0
 13 28  1  0  0  0
 14 15  1  0  0  0
 25 14  4  0  0  0
 15 26  2  0  0  0
 15 27  1  0  0  0
 16 17  1  0  0  0
 28 16  1  0  0  0
 17 29  1  0  0  0
 17 30  2  0  0  0
 18 19  1  0  0  0
 18 23  1  0  0  0
 18 24  1  0  0  0
 19 20  1  0  0  0
 20 21  1  0  0  0
 21 22  1  0  0  0
 22 23  1  0  0  0
  1 32  1  0  0  0
  1 33  1  0  0  0
  1 34  1  0  0  0
  4 35  1  0  0  0
  5 36  1  0  0  0
  6 37  1  0  0  0
  7 38  1  0  0  0
 10 39  1  0  0  0
 16 40  1  0  0  0
 16 41  1  0  0  0
 18 42  1  0  0  0
 19 43  1  0  0  0
 19 44  1  0  0  0
 20 45  1  0  0  0
 20 46  1  0  0  0
 21 47  1  0  0  0
 21 48  1  0  0  0
 22 49  1  0  0  0
 22 50  1  0  0  0
 23 51  1  0  0  0
 23 52  1  0  0  0
 27 53  1  0  0  0
 29 54  1  0  0  0
M  END
$$$$
