5v5e_ligand
  -I-interpret- 

 63 66  0  0  0  0  0  0  0  0999 V2000
  -27.5640  -16.3920  -45.6560 C   0  0  0  0  0
  -26.0110  -16.8220  -43.2570 C   0  0  0  0  0
  -32.0530  -20.4820  -40.6550 C   0  0  0  0  0
  -33.0280  -23.0240  -40.0920 C   0  0  0  0  0
  -33.4840  -22.3370  -41.2030 C   0  0  0  0  0
  -32.9930  -21.0650  -41.4870 C   0  0  0  0  0
  -28.3860  -20.0800  -37.9220 C   0  0  0  0  0
  -32.0990  -15.5180  -41.7610 C   0  0  0  0  0
  -31.2890  -14.4300  -41.9990 C   0  0  0  0  0
  -29.9190  -14.5770  -42.0190 C   0  0  0  0  0
  -29.3510  -15.8290  -41.8010 C   0  0  0  0  0
  -30.1600  -16.9000  -41.5680 N   0  0  0  0  0
  -31.5230  -16.7620  -41.5460 C   0  0  0  0  0
  -27.8360  -16.0430  -41.8130 C   0  0  0  0  0
  -27.2480  -15.9610  -43.2110 C   0  0  0  0  0
  -28.2180  -16.4340  -44.2860 C   0  0  0  0  0
  -26.2460  -17.1440  -45.6670 C   0  0  0  0  0
  -25.3400  -16.6230  -44.5860 C   0  0  0  0  0
  -32.3380  -18.0240  -41.2670 C   0  0  0  0  0
  -33.5550  -18.0420  -41.3030 O   0  0  0  0  0
  -31.5360  -19.1750  -40.9530 N   0  0  0  0  0
  -31.5760  -21.1810  -39.5500 C   0  0  0  0  0
  -32.0830  -22.4460  -39.2640 C   0  0  0  0  0
  -33.5610  -24.4130  -39.7760 C   0  0  0  0  0
  -32.9090  -25.4350  -40.1260 O   0  0  0  0  0
  -34.6500  -24.5440  -39.1640 O   0  0  0  0  0
  -30.6180  -20.6160  -38.6560 N   0  0  0  0  0
  -29.2590  -20.3250  -38.9760 C   0  0  0  0  0
  -27.0560  -19.7830  -38.1630 C   0  0  0  0  0
  -26.5830  -19.7260  -39.4710 C   0  0  0  0  0
  -27.4480  -19.9700  -40.5290 C   0  0  0  0  0
  -28.7790  -20.2700  -40.2840 C   0  0  0  0  0
  -26.9580  -19.9030  -41.8550 O   0  0  0  0  0
  -26.3620  -21.0890  -42.3270 C   0  0  0  0  0
  -27.0070  -22.1550  -41.8280 F   0  0  0  0  0
  -26.4250  -21.1090  -43.6600 F   0  0  0  0  0
  -25.0790  -21.1060  -41.9320 F   0  0  0  0  0
  -27.3694  -15.3509  -45.9137 H   0  0  0  0  0
  -28.2359  -16.8628  -46.3737 H   0  0  0  0  0
  -26.2826  -17.8701  -43.1309 H   0  0  0  0  0
  -25.3321  -16.5408  -42.4519 H   0  0  0  0  0
  -34.2283  -22.7917  -41.8567 H   0  0  0  0  0
  -33.3495  -20.5278  -42.3658 H   0  0  0  0  0
  -28.7525  -20.1222  -36.8963 H   0  0  0  0  0
  -33.1827  -15.4030  -41.7417 H   0  0  0  0  0
  -31.7329  -13.4496  -42.1721 H   0  0  0  0  0
  -29.2805  -13.7135  -42.2054 H   0  0  0  0  0
  -27.6341  -17.0399  -41.4212 H   0  0  0  0  0
  -27.3806  -15.2574  -41.2101 H   0  0  0  0  0
  -27.0204  -14.9151  -43.4169 H   0  0  0  0  0
  -28.5125  -17.4605  -44.0676 H   0  0  0  0  0
  -29.0871  -15.7761  -44.2903 H   0  0  0  0  0
  -25.7638  -17.0034  -46.6344 H   0  0  0  0  0
  -26.4383  -18.2024  -45.4912 H   0  0  0  0  0
  -24.3923  -17.1611  -44.6063 H   0  0  0  0  0
  -25.1440  -15.5628  -44.7465 H   0  0  0  0  0
  -30.5232  -19.0547  -40.9408 H   0  0  0  0  0
  -31.7331  -22.9836  -38.3827 H   0  0  0  0  0
  -32.1077  -25.1624  -40.5790 H   0  0  0  0  0
  -30.9313  -20.4024  -37.7091 H   0  0  0  0  0
  -26.3795  -19.5939  -37.3295 H   0  0  0  0  0
  -25.5364  -19.4904  -39.6639 H   0  0  0  0  0
  -29.4536  -20.4638  -41.1179 H   0  0  0  0  0
 16  1  1  0  0  0
  1 17  1  0  0  0
 15  2  1  0  0  0
  2 18  1  0  0  0
  3  6  4  0  0  0
  3 21  1  0  0  0
 22  3  4  0  0  0
  4  5  4  0  0  0
 23  4  4  0  0  0
  4 24  1  0  0  0
  6  5  4  0  0  0
 28  7  4  0  0  0
  7 29  4  0  0  0
  8  9  4  0  0  0
 13  8  4  0  0  0
  9 10  4  0  0  0
 11 10  4  0  0  0
 12 11  4  0  0  0
 11 14  1  0  0  0
 13 12  4  0  0  0
 19 13  1  0  0  0
 14 15  1  0  0  0
 15 16  1  0  0  0
 18 17  1  0  0  0
 19 20  2  0  0  0
 21 19  1  0  0  0
 22 23  4  0  0  0
 27 22  1  0  0  0
 24 25  1  0  0  0
 24 26  2  0  0  0
 27 28  1  0  0  0
 28 32  4  0  0  0
 29 30  4  0  0  0
 30 31  4  0  0  0
 31 32  4  0  0  0
 31 33  1  0  0  0
 33 34  1  0  0  0
 34 35  1  0  0  0
 34 36  1  0  0  0
 34 37  1  0  0  0
  1 38  1  0  0  0
  1 39  1  0  0  0
  2 40  1  0  0  0
  2 41  1  0  0  0
  5 42  1  0  0  0
  6 43  1  0  0  0
  7 44  1  0  0  0
  8 45  1  0  0  0
  9 46  1  0  0  0
 10 47  1  0  0  0
 14 48  1  0  0  0
 14 49  1  0  0  0
 15 50  1  0  0  0
 16 51  1  0  0  0
 16 52  1  0  0  0
 17 53  1  0  0  0
 17 54  1  0  0  0
 18 55  1  0  0  0
 18 56  1  0  0  0
 21 57  1  0  0  0
 23 58  1  0  0  0
 25 59  1  0  0  0
 27 60  1  0  0  0
 29 61  1  0  0  0
 30 62  1  0  0  0
 32 63  1  0  0  0
M  END
$$$$
