4muw_ligand
  -I-interpret- 

 50 54  0  0  0  0  0  0  0  0999 V2000
   10.0320   91.2260   41.4840 C   0  0  0  0  0
    9.3260   91.7440   40.3480 N   0  0  0  0  0
    9.7480   91.4000   39.0330 C   0  0  0  0  0
   10.4840   90.2460   38.8410 C   0  0  0  0  0
   10.9090   89.8900   37.5890 C   0  0  0  0  0
   10.5810   90.7130   36.5440 C   0  0  0  0  0
    9.8440   91.8600   36.7710 C   0  0  0  0  0
    9.4450   92.1850   37.9960 N   0  0  0  0  0
   11.6470   88.7370   37.4130 C   0  0  0  0  0
   11.2310   87.7730   36.5280 C   0  0  0  0  0
   12.0050   86.6400   36.4010 C   0  0  0  0  0
   13.1550   86.4960   37.1550 C   0  0  0  0  0
   13.5270   87.4470   38.0120 N   0  0  0  0  0
   12.8030   88.5470   38.1510 C   0  0  0  0  0
   13.1890   89.5420   39.0260 O   0  0  0  0  0
   13.7740   89.0720   40.1990 C   0  0  0  0  0
   15.1420   89.1620   40.4220 C   0  0  0  0  0
   15.6900   88.6960   41.6200 C   0  0  0  0  0
   14.8600   88.1540   42.5800 C   0  0  0  0  0
   15.3520   87.6530   43.8460 N   0  0  0  0  0
   16.6820   87.8710   44.3340 C   0  0  0  0  0
   17.7850   87.9950   43.6040 N   0  0  0  0  0
   18.8420   88.1890   44.4660 C   0  0  0  0  0
   20.2200   88.3870   44.2460 C   0  0  0  0  0
   21.0800   88.5550   45.3170 C   0  0  0  0  0
   20.5780   88.5300   46.6040 C   0  0  0  0  0
   21.3850   88.6850   47.6250 F   0  0  0  0  0
   19.2350   88.3410   46.8250 C   0  0  0  0  0
   18.7720   88.3190   48.0510 F   0  0  0  0  0
   18.3570   88.1680   45.7300 C   0  0  0  0  0
   17.0040   87.9670   45.6310 N   0  0  0  0  0
   13.5010   88.0780   42.3530 C   0  0  0  0  0
   12.9550   88.5440   41.1670 C   0  0  0  0  0
    9.9922   90.1368   41.4692 H   0  0  0  0  0
   11.0709   91.5535   41.4448 H   0  0  0  0  0
    9.5675   91.5954   42.3983 H   0  0  0  0  0
    8.5227   92.3580   40.4824 H   0  0  0  0  0
   10.7284   89.6133   39.6943 H   0  0  0  0  0
   10.9016   90.4630   35.5326 H   0  0  0  0  0
    9.5863   92.5074   35.9328 H   0  0  0  0  0
   10.3187   87.8998   35.9452 H   0  0  0  0  0
   11.7099   85.8553   35.7044 H   0  0  0  0  0
   13.7625   85.5974   37.0478 H   0  0  0  0  0
   15.7896   89.5971   39.6608 H   0  0  0  0  0
   16.7640   88.7601   41.7947 H   0  0  0  0  0
   14.7123   87.1111   44.4270 H   0  0  0  0  0
   20.6098   88.4079   43.2283 H   0  0  0  0  0
   22.1459   88.7060   45.1465 H   0  0  0  0  0
   12.8502   87.6472   43.1139 H   0  0  0  0  0
   11.8787   88.4915   41.0031 H   0  0  0  0  0
  1  2  1  0  0  0
  2  3  1  0  0  0
  3  4  4  0  0  0
  3  8  4  0  0  0
  4  5  4  0  0  0
  5  6  4  0  0  0
  5  9  1  0  0  0
  6  7  4  0  0  0
  7  8  4  0  0  0
  9 10  4  0  0  0
  9 14  4  0  0  0
 10 11  4  0  0  0
 11 12  4  0  0  0
 12 13  4  0  0  0
 13 14  4  0  0  0
 14 15  1  0  0  0
 15 16  1  0  0  0
 16 17  4  0  0  0
 16 33  4  0  0  0
 17 18  4  0  0  0
 18 19  4  0  0  0
 19 20  1  0  0  0
 19 32  4  0  0  0
 20 21  1  0  0  0
 21 22  4  0  0  0
 21 31  4  0  0  0
 22 23  4  0  0  0
 23 24  4  0  0  0
 23 30  4  0  0  0
 24 25  4  0  0  0
 25 26  4  0  0  0
 26 27  1  0  0  0
 26 28  4  0  0  0
 28 29  1  0  0  0
 28 30  4  0  0  0
 30 31  4  0  0  0
 32 33  4  0  0  0
  1 34  1  0  0  0
  1 35  1  0  0  0
  1 36  1  0  0  0
  2 37  1  0  0  0
  4 38  1  0  0  0
  6 39  1  0  0  0
  7 40  1  0  0  0
 10 41  1  0  0  0
 11 42  1  0  0  0
 12 43  1  0  0  0
 17 44  1  0  0  0
 18 45  1  0  0  0
 20 46  1  0  0  0
 24 47  1  0  0  0
 25 48  1  0  0  0
 32 49  1  0  0  0
 33 50  1  0  0  0
M  END
$$$$
