5vfj_ligand
  -I-interpret- 

 21 21  0  0  0  0  0  0  0  0999 V2000
   -5.5180    4.9440   56.1150 C   0  0  0  0  0
   -6.2330    4.1210   55.5340 O   0  0  0  0  0
   -4.0800    5.0850   55.7740 C   0  0  0  0  0
   -3.5630    6.2940   55.9440 C   0  0  0  0  0
   -2.1070    6.4860   55.6550 C   0  0  0  0  0
   -1.2680    5.4420   56.0400 C   0  0  0  0  0
    0.0600    5.5980   55.7820 C   0  0  0  0  0
    0.4700    6.7530   55.2080 C   0  0  0  0  0
   -0.3370    7.8020   54.8210 C   0  0  0  0  0
   -1.6910    7.6800   55.0630 C   0  0  0  0  0
    1.8160    6.8630   54.9660 O   0  0  0  0  0
    0.9550    4.6010   56.1370 O   0  0  0  0  0
   -5.9620    5.6580   57.0090 O   0  0  0  0  0
   -5.7141    3.6595   54.8712 H   0  0  0  0  0
   -3.4867    4.2475   55.4070 H   0  0  0  0  0
   -4.1809    7.1248   56.2847 H   0  0  0  0  0
   -1.6554    4.5452   56.5235 H   0  0  0  0  0
    0.0767    8.6905   54.3439 H   0  0  0  0  0
   -2.3953    8.4713   54.8063 H   0  0  0  0  0
    1.9986    7.7137   54.5603 H   0  0  0  0  0
    1.8432    4.8661   55.8873 H   0  0  0  0  0
  1  2  1  0  0  0
  1  3  1  0  0  0
  1 13  2  0  0  0
  3  4  2  0  0  0
  4  5  1  0  0  0
  5  6  4  0  0  0
  5 10  4  0  0  0
  6  7  4  0  0  0
  7  8  4  0  0  0
  7 12  1  0  0  0
  8  9  4  0  0  0
  8 11  1  0  0  0
  9 10  4  0  0  0
  2 14  1  0  0  0
  3 15  1  0  0  0
  4 16  1  0  0  0
  6 17  1  0  0  0
  9 18  1  0  0  0
 10 19  1  0  0  0
 11 20  1  0  0  0
 12 21  1  0  0  0
M  END
$$$$
