3r1v_ligand
  -I-interpret- 

 34 35  0  0  0  0  0  0  0  0999 V2000
    0.9940   -5.4080   13.8280 C   0  0  0  0  0
    6.5190   -4.8930   17.2430 N   0  0  0  0  0
   11.8140   -4.7130   20.9100 O   0  0  0  0  0
    6.7490   -4.2830   18.3640 N   0  0  0  0  0
    2.3440   -3.6600   12.5510 C   0  0  0  0  0
    8.9690   -5.4980   18.7280 C   0  0  0  0  0
   10.2540   -5.5820   19.4070 C   0  0  0  0  0
   10.6400   -4.6420   20.3010 C   0  0  0  0  0
    9.7500   -3.6380   20.5270 C   0  0  0  0  0
    8.4340   -3.5640   19.8270 C   0  0  0  0  0
    8.0430   -4.4920   18.9390 C   0  0  0  0  0
    3.2380   -3.6980   15.9130 C   0  0  0  0  0
    4.3510   -3.8290   16.7840 C   0  0  0  0  0
    5.4400   -4.7520   16.4410 C   0  0  0  0  0
    5.3690   -5.5310   15.2300 C   0  0  0  0  0
    4.1980   -5.3760   14.3300 C   0  0  0  0  0
    3.1530   -4.4530   14.7080 C   0  0  0  0  0
    1.9400   -4.2390   13.8600 C   0  0  0  0  0
    1.5113   -6.2817   13.4315 H   0  0  0  0  0
    0.6445   -5.6187   14.8387 H   0  0  0  0  0
    0.1430   -5.1678   13.1906 H   0  0  0  0  0
   11.9111   -3.9647   21.5035 H   0  0  0  0  0
    2.8448   -2.7060   12.7162 H   0  0  0  0  0
    3.0239   -4.3461   12.0460 H   0  0  0  0  0
    1.4583   -3.5050   11.9349 H   0  0  0  0  0
    8.7206   -6.2773   18.0075 H   0  0  0  0  0
   10.9185   -6.4186   19.1911 H   0  0  0  0  0
   10.0074   -2.8596   21.2453 H   0  0  0  0  0
    7.7681   -2.7287   20.0439 H   0  0  0  0  0
    2.4346   -3.0079   16.1705 H   0  0  0  0  0
    4.3971   -3.2465   17.7041 H   0  0  0  0  0
    6.1681   -6.2279   14.9771 H   0  0  0  0  0
    4.1285   -5.9465   13.4039 H   0  0  0  0  0
    1.3012   -3.4916   14.3306 H   0  0  0  0  0
 18  1  1  0  0  0
  2  4  2  0  0  0
 14  2  1  0  0  0
  8  3  1  0  0  0
  4 11  1  0  0  0
 18  5  1  0  0  0
  6  7  4  0  0  0
 11  6  4  0  0  0
  7  8  4  0  0  0
  9  8  4  0  0  0
 10  9  4  0  0  0
 11 10  4  0  0  0
 12 13  4  0  0  0
 17 12  4  0  0  0
 13 14  4  0  0  0
 15 14  4  0  0  0
 16 15  4  0  0  0
 17 16  4  0  0  0
 17 18  1  0  0  0
  1 19  1  0  0  0
  1 20  1  0  0  0
  1 21  1  0  0  0
  3 22  1  0  0  0
  5 23  1  0  0  0
  5 24  1  0  0  0
  5 25  1  0  0  0
  6 26  1  0  0  0
  7 27  1  0  0  0
  9 28  1  0  0  0
 10 29  1  0  0  0
 12 30  1  0  0  0
 13 31  1  0  0  0
 15 32  1  0  0  0
 16 33  1  0  0  0
 18 34  1  0  0  0
M  END
$$$$
