### 
### Created by X-TOOL on Mon Sep 10 21:13:12 2018
### 

@<TRIPOS>MOLECULE
4jk6_ligand
  258   261     1     0     0
SMALL
GAST_HUCK


@<TRIPOS>ATOM
      1 N         -44.9210  114.2550  -25.0800 N.4       1 ALA         0.2377
      2 CA        -45.7900  114.5240  -23.8920 C.3       1 ALA         0.0621
      3 C         -45.0070  114.4130  -22.5690 C.2       1 ALA         0.2264
      4 O         -43.9360  113.8040  -22.5210 O.2       1 ALA        -0.3907
      5 CB        -47.0030  113.5890  -23.8990 C.3       1 ALA        -0.0040
      6 N         -45.5500  115.0130  -21.5060 N.am      1 CYS        -0.2602
      7 CA        -44.8930  115.0450  -20.1830 C.3       1 CYS         0.1401
      8 C         -45.9500  114.9660  -19.0390 C.2       1 CYS         0.2048
      9 O         -46.9150  115.7510  -19.0200 O.2       1 CYS        -0.3944
     10 CB        -43.9150  116.2590  -20.1270 C.3       1 CYS         0.0361
     11 SG        -44.2210  117.8600  -19.2750 S.3       1 CYS        -0.1425
     12 N         -45.7760  114.0050  -18.1130 N.am      1 SER        -0.2615
     13 CA        -46.8490  113.6060  -17.1590 C.3       1 SER         0.1539
     14 C         -46.6320  113.9800  -15.6660 C.2       1 SER         0.2062
     15 O         -45.8350  114.8540  -15.3360 O.2       1 SER        -0.3943
     16 CB        -47.1740  112.0970  -17.3310 C.3       1 SER         0.0843
     17 OG        -46.1260  111.2510  -16.9060 O.3       1 SER        -0.3903
     18 N         -47.4170  113.3630  -14.7880 N.am      1 ARG        -0.2637
     19 CA        -47.2990  113.5120  -13.3260 C.3       1 ARG         0.1311
     20 C         -46.2660  112.5430  -12.7360 C.2       1 ARG         0.2040
     21 O         -45.9980  112.5820  -11.5490 O.2       1 ARG        -0.3944
     22 CB        -48.6610  113.2220  -12.6640 C.3       1 ARG        -0.0092
     23 CG        -49.1650  111.7750  -12.8370 C.3       1 ARG        -0.0156
     24 CD        -50.5960  111.6670  -13.3990 C.3       1 ARG         0.0627
     25 NE        -50.8120  110.4570  -14.2180 N.pl3     1 ARG        -0.2723
     26 CZ        -50.6950  110.3750  -15.5550 C.cat     1 ARG         0.2882
     27 NH1       -50.3620  111.4240  -16.3140 N.pl3     1 ARG        -0.2849
     28 NH2       -50.9250  109.2130  -16.1520 N.pl3     1 ARG        -0.2849
     29 N         -45.7290  111.6560  -13.5740 N.am      1 TYR        -0.2621
     30 CA        -44.6910  110.7090  -13.1870 C.3       1 TYR         0.1390
     31 C         -43.3200  111.2660  -13.5110 C.2       1 TYR         0.2057
     32 O         -42.3300  110.5700  -13.3430 O.2       1 TYR        -0.3942
     33 CB        -44.8800  109.3710  -13.9380 C.3       1 TYR         0.0163
     34 CG        -46.1610  108.6820  -13.5340 C.ar      1 TYR        -0.0493
     35 CD1       -46.2480  108.0500  -12.3110 C.ar      1 TYR        -0.0685
     36 CD2       -47.2800  108.6820  -14.3530 C.ar      1 TYR        -0.0685
     37 CE1       -47.3940  107.4410  -11.8950 C.ar      1 TYR        -0.0398
     38 CE2       -48.4450  108.0570  -13.9340 C.ar      1 TYR        -0.0398
     39 CZ        -48.4760  107.4460  -12.6910 C.ar      1 TYR         0.0805
     40 OH        -49.5690  106.8030  -12.1970 O.3       1 TYR        -0.3376
     41 N         -43.2740  112.5100  -13.9720 N.am      1 GLU        -0.2635
     42 CA        -42.0500  113.0490  -14.4860 C.3       1 GLU         0.1325
     43 C         -41.1960  113.5910  -13.3330 C.2       1 GLU         0.2040
     44 O         -41.6730  114.2790  -12.4590 O.2       1 GLU        -0.3944
     45 CB        -42.2980  114.1580  -15.4880 C.3       1 GLU        -0.0008
     46 CG        -41.0060  114.8970  -15.7950 C.3       1 GLU         0.0044
     47 CD        -40.8950  115.3540  -17.2200 C.2       1 GLU         0.0350
     48 OE1       -41.5880  116.3250  -17.5700 O.co2     1 GLU        -0.5690
     49 OE2       -40.0900  114.7550  -17.9710 O.co2     1 GLU        -0.5690
     50 N         -39.9210  113.2700  -13.3880 N.am      1 VAL        -0.2635
     51 CA        -38.9380  113.7700  -12.4440 C.3       1 VAL         0.1333
     52 C         -38.6680  115.2690  -12.6490 C.2       1 VAL         0.2042
     53 O         -38.3580  115.6920  -13.7620 O.2       1 VAL        -0.3944
     54 CB        -37.6140  112.9650  -12.6320 C.3       1 VAL        -0.0063
     55 CG1       -36.5590  113.4380  -11.6630 C.3       1 VAL        -0.0584
     56 CG2       -37.8730  111.4630  -12.4610 C.3       1 VAL        -0.0584
     57 N         -38.7250  116.0540  -11.5610 N.am      1 ASP        -0.2622
     58 CA        -38.2710  117.4790  -11.5740 C.3       1 ASP         0.1423
     59 C         -38.7330  118.1600  -12.8980 C.2       1 ASP         0.2056
     60 O         -37.9150  118.5860  -13.7230 O.2       1 ASP        -0.3943
     61 CB        -36.7380  117.5170  -11.4180 C.3       1 ASP         0.0406
     62 CG        -36.1530  118.9090  -11.4100 C.2       1 ASP         0.0393
     63 OD1       -36.8840  119.8510  -11.1540 O.co2     1 ASP        -0.5688
     64 OD2       -34.9210  119.0800  -11.6260 O.co2     1 ASP        -0.5688
     65 N         -40.0530  118.2270  -13.0660 N.am      1 CYS        -0.2628
     66 CA        -40.6730  118.6060  -14.3460 C.3       1 CYS         0.1400
     67 C         -40.4160  120.0710  -14.7100 C.2       1 CYS         0.2047
     68 O         -40.5280  120.4450  -15.8600 O.2       1 CYS        -0.3944
     69 CB        -42.1620  118.2900  -14.3190 C.3       1 CYS         0.0361
     70 SG        -43.0970  119.4210  -13.2800 S.3       1 CYS        -0.1425
     71 N         -40.0140  120.9010  -13.7550 N.am      1 ARG        -0.2637
     72 CA        -39.6180  122.2680  -14.0590 C.3       1 ARG         0.1311
     73 C         -38.1500  122.5170  -13.8690 C.2       1 ARG         0.2037
     74 O         -37.7080  123.6610  -13.6690 O.2       1 ARG        -0.3944
     75 CB        -40.4270  123.2250  -13.2220 C.3       1 ARG        -0.0092
     76 CG        -41.9110  123.1510  -13.5060 C.3       1 ARG        -0.0156
     77 CD        -42.6500  124.1430  -12.6010 C.3       1 ARG         0.0627
     78 NE        -44.0980  124.1970  -12.8740 N.pl3     1 ARG        -0.2723
     79 CZ        -44.6600  124.7930  -13.9260 C.cat     1 ARG         0.2882
     80 NH1       -45.9670  124.7170  -14.0820 N.pl3     1 ARG        -0.2849
     81 NH2       -43.9310  125.4100  -14.8430 N.pl3     1 ARG        -0.2849
     82 N         -37.3560  121.4510  -13.9810 N.am      1 GLY        -0.2664
     83 CA        -35.9180  121.5760  -13.8480 C.3       1 GLY         0.1201
     84 C         -35.2800  122.0360  -15.1260 C.2       1 GLY         0.2007
     85 O         -35.8580  121.9740  -16.2000 O.2       1 GLY        -0.3947
     86 N         -34.0760  122.5570  -14.9790 N.am      1 ARG        -0.2640
     87 CA        -33.2270  122.8570  -16.1200 C.3       1 ARG         0.1311
     88 C         -33.1440  121.6030  -16.9360 C.2       1 ARG         0.2039
     89 O         -33.0010  120.5130  -16.3980 O.2       1 ARG        -0.3944
     90 CB        -31.8410  123.3910  -15.6950 C.3       1 ARG        -0.0092
     91 CG        -30.9490  122.3630  -15.1080 C.3       1 ARG        -0.0156
     92 CD        -29.6930  123.0270  -14.6130 C.3       1 ARG         0.0627
     93 NE        -28.8760  123.5310  -15.7050 N.pl3     1 ARG        -0.2723
     94 CZ        -27.6380  123.9900  -15.5510 C.cat     1 ARG         0.2882
     95 NH1       -27.0880  123.9910  -14.3490 N.pl3     1 ARG        -0.2849
     96 NH2       -26.9340  124.4390  -16.6090 N.pl3     1 ARG        -0.2849
     97 N         -33.3060  121.7710  -18.2360 N.am      1 DBB        -0.2637
     98 CA        -33.2700  120.6850  -19.1440 C.3       1 DBB         0.1307
     99 C         -34.6570  120.2390  -19.4430 C.2       1 DBB         0.2039
    100 O         -34.8620  119.5040  -20.3850 O.2       1 DBB        -0.3944
    101 CB        -32.5000  121.0960  -20.4310 C.3       1 DBB        -0.0152
    102 CG        -33.4320  121.9070  -21.3290 C.3       1 DBB        -0.0610
    103 N         -35.6520  120.6280  -18.6470 N.am      1 SER        -0.2616
    104 CA        -36.9800  120.0770  -18.8760 C.3       1 SER         0.1539
    105 C         -37.6230  120.7560  -20.0640 C.2       1 SER         0.2062
    106 O         -37.2930  121.9010  -20.3820 O.2       1 SER        -0.3943
    107 CB        -37.8820  120.1720  -17.6560 C.3       1 SER         0.0843
    108 OG        -38.5080  121.4240  -17.5430 O.3       1 SER        -0.3903
    109 N         -38.5160  120.0070  -20.7110 N.am      1 ALA        -0.2639
    110 CA        -39.3810  120.5160  -21.7690 C.3       1 ALA         0.1282
    111 C         -40.6600  120.9140  -21.0880 C.2       1 ALA         0.2036
    112 O         -41.6190  120.1370  -21.0220 O.2       1 ALA        -0.3944
    113 CB        -39.6530  119.4430  -22.8240 C.3       1 ALA        -0.0244
    114 N         -40.6500  122.1110  -20.5240 N.am      1 CYS        -0.2629
    115 CA        -41.8540  122.6880  -19.9450 C.3       1 CYS         0.1400
    116 C         -41.8140  124.1880  -20.2440 C.2       1 CYS         0.2045
    117 O         -40.7580  124.8220  -20.1790 O.2       1 CYS        -0.3944
    118 CB        -41.9590  122.3450  -18.4510 C.3       1 CYS         0.0361
    119 SG        -43.0700  123.3600  -17.4430 S.3       1 CYS        -0.1425
    120 N         -42.9640  124.7330  -20.6260 N.am      1 GLY        -0.2664
    121 CA        -43.0480  126.0900  -21.1480 C.3       1 GLY         0.1198
    122 C         -43.2960  126.1050  -22.6520 C.2       1 GLY         0.1960
    123 O         -43.6220  127.1500  -23.2230 O.2       1 GLY        -0.3951
    124 N         -43.1490  124.9490  -23.2980 N.am      1 NH2        -0.2992
    125 C1        -45.0550  119.6790  -15.2010 C.ar      1 ZBR        -0.0466
    126 C2        -45.3890  118.7080  -16.1590 C.ar      1 ZBR        -0.0645
    127 C3        -45.5530  119.0920  -17.5030 C.ar      1 ZBR        -0.0466
    128 C4        -45.3210  120.4170  -17.8960 C.ar      1 ZBR        -0.0645
    129 C5        -44.9680  121.3860  -16.9620 C.ar      1 ZBR        -0.0466
    130 C6        -44.8360  121.0220  -15.6110 C.ar      1 ZBR        -0.0645
    131 C7        -44.8790  119.2700  -13.8480 C.3       1 ZBR         0.0245
    132 C8        -45.8550  118.1590  -18.4880 C.3       1 ZBR         0.0245
    133 C9        -44.7760  122.6760  -17.4330 C.3       1 ZBR         0.0245
    134 H1        -45.4686  114.3372  -25.9223 H         1 ALA         0.2015
    135 H2        -44.5422  113.3232  -25.0151 H         1 ALA         0.2015
    136 H3        -44.1669  114.9235  -25.1030 H         1 ALA         0.2015
    137 H4        -46.1592  115.5570  -23.9735 H         1 ALA         0.1095
    138 H5        -47.6320  113.7979  -23.0211 H         1 ALA         0.0310
    139 H6        -46.6608  112.5442  -23.8646 H         1 ALA         0.0310
    140 H7        -47.5875  113.7534  -24.8162 H         1 ALA         0.0310
    141 H8        -46.4388  115.4594  -21.6102 H         1 CYS         0.1885
    142 H9        -44.2750  114.1392  -20.0954 H         1 CYS         0.0808
    143 H10       -43.7250  116.5240  -21.1775 H         1 CYS         0.0426
    144 H11       -42.9926  115.8647  -19.6756 H         1 CYS         0.0426
    145 H12       -44.8919  113.5404  -18.0632 H         1 SER         0.1884
    146 H13       -47.7463  114.1605  -17.4710 H         1 SER         0.0823
    147 H14       -47.3720  111.9009  -18.3951 H         1 SER         0.0606
    148 H15       -48.0729  111.8634  -16.7416 H         1 SER         0.0606
    149 H16       -46.3803  110.3447  -17.0344 H         1 SER         0.2097
    150 H17       -48.1323  112.7601  -15.1414 H         1 ARG         0.1883
    151 H18       -46.9934  114.5441  -13.0994 H         1 ARG         0.0800
    152 H19       -49.4073  113.8999  -13.1039 H         1 ARG         0.0313
    153 H20       -48.5693  113.4267  -11.5871 H         1 ARG         0.0313
    154 H21       -49.1425  111.2821  -11.8539 H         1 ARG         0.0301
    155 H22       -48.4840  111.2525  -13.5249 H         1 ARG         0.0301
    156 H23       -50.7937  112.5509  -14.0232 H         1 ARG         0.0689
    157 H24       -51.3019  111.6483  -12.5556 H         1 ARG         0.0689
    158 H25       -51.0769  109.5960  -13.7186 H         1 ARG         0.2642
    159 H26       -50.2835  111.3164  -17.3354 H         1 ARG         0.2615
    160 H27       -50.1839  112.3397  -15.8774 H         1 ARG         0.2615
    161 H28       -51.1833  108.3883  -15.5916 H         1 ARG         0.2615
    162 H29       -50.8453  109.1354  -17.1760 H         1 ARG         0.2615
    163 H30       -46.0560  111.6396  -14.5189 H         1 TYR         0.1885
    164 H31       -44.7600  110.5281  -12.1042 H         1 TYR         0.0821
    165 H32       -44.0315  108.7098  -13.7081 H         1 TYR         0.0453
    166 H33       -44.9076  109.5697  -15.0195 H         1 TYR         0.0453
    167 H34       -45.3798  108.0374  -11.6621 H         1 TYR         0.0530
    168 H35       -47.2442  109.1702  -15.3202 H         1 TYR         0.0530
    169 H36       -47.4322  106.9551  -10.9268 H         1 TYR         0.0525
    170 H37       -49.3214  108.0467  -14.5719 H         1 TYR         0.0525
    171 H38       -49.3700  106.4602  -11.3336 H         1 TYR         0.2458
    172 H39       -44.0992  113.0747  -13.9605 H         1 GLU         0.1883
    173 H40       -41.4988  112.2408  -14.9890 H         1 GLU         0.0801
    174 H41       -43.0294  114.8658  -15.0709 H         1 GLU         0.0330
    175 H42       -42.6962  113.7241  -16.4170 H         1 GLU         0.0330
    176 H43       -40.1622  114.2251  -15.5794 H         1 GLU         0.0433
    177 H44       -40.9477  115.7802  -15.1418 H         1 GLU         0.0433
    178 H45       -39.6152  112.6533  -14.1134 H         1 VAL         0.1883
    179 H46       -39.3146  113.6163  -11.4220 H         1 VAL         0.0802
    180 H47       -37.2460  113.1384  -13.6540 H         1 VAL         0.0343
    181 H48       -35.6366  112.8579  -11.8133 H         1 VAL         0.0234
    182 H49       -36.9174  113.2963  -10.6327 H         1 VAL         0.0234
    183 H50       -36.3536  114.5046  -11.8364 H         1 VAL         0.0234
    184 H51       -38.6441  111.1402  -13.1760 H         1 VAL         0.0234
    185 H52       -38.2179  111.2648  -11.4355 H         1 VAL         0.0234
    186 H53       -36.9428  110.9068  -12.6490 H         1 VAL         0.0234
    187 H54       -39.0846  115.6714  -10.7099 H         1 ASP         0.1884
    188 H55       -38.7264  118.0120  -10.7264 H         1 ASP         0.0819
    189 H56       -36.2918  116.9597  -12.2548 H         1 ASP         0.0478
    190 H57       -36.4751  117.0265  -10.4692 H         1 ASP         0.0478
    191 H58       -40.6467  118.0110  -12.2909 H         1 CYS         0.1884
    192 H59       -40.2138  117.9890  -15.1324 H         1 CYS         0.0808
    193 H60       -42.2973  117.2678  -13.9358 H         1 CYS         0.0426
    194 H61       -42.5528  118.3515  -15.3454 H         1 CYS         0.0426
    195 H62       -39.9827  120.5806  -12.8082 H         1 ARG         0.1883
    196 H63       -39.8507  122.4553  -15.1176 H         1 ARG         0.0800
    197 H64       -40.0816  124.2488  -13.4279 H         1 ARG         0.0313
    198 H65       -40.2612  122.9885  -12.1606 H         1 ARG         0.0313
    199 H66       -42.2730  122.1316  -13.3064 H         1 ARG         0.0301
    200 H67       -42.0967  123.4063  -14.5597 H         1 ARG         0.0301
    201 H68       -42.2253  125.1455  -12.7580 H         1 ARG         0.0689
    202 H69       -42.5010  123.8415  -11.5537 H         1 ARG         0.0689
    203 H70       -44.7252  123.7378  -12.1983 H         1 ARG         0.2642
    204 H71       -46.4166  125.1719  -14.8893 H         1 ARG         0.2615
    205 H72       -46.5384  124.2027  -13.3965 H         1 ARG         0.2615
    206 H73       -42.9092  125.4749  -14.7306 H         1 ARG         0.2615
    207 H74       -44.3857  125.8251  -15.6688 H         1 ARG         0.2615
    208 H75       -37.7584  120.5531  -14.1592 H         1 GLY         0.1881
    209 H76       -35.4990  120.5969  -13.5728 H         1 GLY         0.0763
    210 H77       -35.6954  122.3059  -13.0557 H         1 GLY         0.0763
    211 H78       -33.7389  122.7505  -14.0576 H         1 ARG         0.1883
    212 H79       -33.7111  123.6378  -16.7249 H         1 ARG         0.0800
    213 H80       -31.9910  124.1848  -14.9485 H         1 ARG         0.0313
    214 H81       -31.3459  123.8113  -16.5828 H         1 ARG         0.0313
    215 H82       -30.6936  121.6159  -15.8739 H         1 ARG         0.0301
    216 H83       -31.4594  121.8680  -14.2687 H         1 ARG         0.0301
    217 H84       -29.1063  122.2942  -14.0396 H         1 ARG         0.0689
    218 H85       -29.9696  123.8674  -13.9594 H         1 ARG         0.0689
    219 H86       -29.2798  123.5325  -16.6526 H         1 ARG         0.2642
    220 H87       -26.1292  124.3450  -14.2217 H         1 ARG         0.2615
    221 H88       -27.6183  123.6377  -13.5397 H         1 ARG         0.2615
    222 H89       -27.3588  124.4399  -17.5473 H         1 ARG         0.2615
    223 H90       -25.9712  124.7812  -16.4792 H         1 ARG         0.2615
    224 H91       -33.4588  122.6937  -18.5900 H         1 DBB         0.1883
    225 H92       -32.7321  119.8489  -18.6733 H         1 DBB         0.0800
    226 H93       -32.1657  120.1942  -20.9649 H         1 DBB         0.0310
    227 H94       -31.6262  121.7063  -20.1592 H         1 DBB         0.0310
    228 H95       -32.8954  122.2024  -22.2427 H         1 DBB         0.0232
    229 H96       -33.7661  122.8074  -20.7927 H         1 DBB         0.0232
    230 H97       -34.3056  121.2953  -21.5984 H         1 DBB         0.0232
    231 H98       -35.4904  121.2834  -17.9092 H         1 SER         0.1884
    232 H99       -36.8603  119.0102  -19.1160 H         1 SER         0.0823
    233 H100      -37.2752  119.9990  -16.7550 H         1 SER         0.0606
    234 H101      -38.6578  119.3958  -17.7302 H         1 SER         0.0606
    235 H102      -39.0582  121.4330  -16.7686 H         1 SER         0.2097
    236 H103      -38.5972  119.0432  -20.4569 H         1 ALA         0.1883
    237 H104      -38.9169  121.3889  -22.2513 H         1 ALA         0.0797
    238 H105      -40.3065  119.8557  -23.6067 H         1 ALA         0.0277
    239 H106      -40.1464  118.5809  -22.3515 H         1 ALA         0.0277
    240 H107      -38.7019  119.1206  -23.2728 H         1 ALA         0.0277
    241 H108      -39.7961  122.6307  -20.4950 H         1 CYS         0.1884
    242 H109      -42.7341  122.2589  -20.4464 H         1 CYS         0.0808
    243 H110      -40.9505  122.4312  -18.0203 H         1 CYS         0.0426
    244 H111      -42.3026  121.3029  -18.3744 H         1 CYS         0.0426
    245 H112      -43.8018  124.1920  -20.5524 H         1 GLY         0.1881
    246 H113      -42.1023  126.6112  -20.9381 H         1 GLY         0.0763
    247 H114      -43.8747  126.6139  -20.6459 H         1 GLY         0.0763
    248 H115      -43.3002  124.9053  -24.2855 H         1 NH2         0.1815
    249 H116      -42.8875  124.1250  -22.7953 H         1 NH2         0.1815
    250 H117      -45.5193  117.6725  -15.8660 H         1 CYS         0.0439
    251 H118      -45.4178  120.6903  -18.9405 H         1 CYS         0.0439
    252 H119      -44.5651  121.7714  -14.8761 H         1 CYS         0.0439
    253 H120      -45.5096  119.9003  -13.2038 H         1 CYS         0.0536
    254 H121      -45.1921  118.2198  -13.7531 H         1 CYS         0.0536
    255 H122      -46.2588  117.2349  -18.0487 H         1 CYS         0.0536
    256 H123      -46.5757  118.5661  -19.2124 H         1 CYS         0.0536
    257 H124      -45.1422  122.7011  -18.4699 H         1 CYS         0.0536
    258 H125      -45.3901  123.3437  -16.8109 H         1 CYS         0.0536
@<TRIPOS>BOND
     1    2    1 1  
     2    3    2 1  
     3    2    5 1  
     4    3    4 2  
     5    6    3 am 
     6    7    6 1  
     7    8    7 1  
     8    7   10 1  
     9    8    9 2  
    10   12    8 am 
    11   10   11 1  
    12   11  132 1  
    13   13   12 1  
    14   14   13 1  
    15   13   16 1  
    16   14   15 2  
    17   18   14 am 
    18   16   17 1  
    19   19   18 1  
    20   20   19 1  
    21   19   22 1  
    22   20   21 2  
    23   29   20 am 
    24   22   23 1  
    25   23   24 1  
    26   24   25 1  
    27   25   26 ar 
    28   26   27 ar 
    29   26   28 ar 
    30   30   29 1  
    31   31   30 1  
    32   30   33 1  
    33   31   32 2  
    34   41   31 am 
    35   33   34 1  
    36   34   35 ar 
    37   34   36 ar 
    38   35   37 ar 
    39   36   38 ar 
    40   37   39 ar 
    41   38   39 ar 
    42   39   40 1  
    43   42   41 1  
    44   43   42 1  
    45   42   45 1  
    46   43   44 2  
    47   50   43 am 
    48   45   46 1  
    49   46   47 1  
    50   47   48 ar 
    51   47   49 ar 
    52   51   50 1  
    53   52   51 1  
    54   51   54 1  
    55   52   53 2  
    56   57   52 am 
    57   54   55 1  
    58   54   56 1  
    59   58   57 1  
    60   59   58 1  
    61   58   61 1  
    62   59   60 2  
    63   65   59 am 
    64   61   62 1  
    65   62   63 ar 
    66   62   64 ar 
    67   66   65 1  
    68   66   67 1  
    69   69   66 1  
    70   67   68 2  
    71   67   71 am 
    72   70   69 1  
    73  131   70 1  
    74   71   72 1  
    75   72   73 1  
    76   72   75 1  
    77   73   74 2  
    78   73   82 am 
    79   75   76 1  
    80   76   77 1  
    81   77   78 1  
    82   78   79 ar 
    83   79   80 ar 
    84   79   81 ar 
    85   82   83 1  
    86   83   84 1  
    87   84   85 2  
    88   84   86 am 
    89   86   87 1  
    90   87   88 1  
    91   87   90 1  
    92   88   89 2  
    93   88   97 am 
    94   90   91 1  
    95   91   92 1  
    96   92   93 1  
    97   93   94 ar 
    98   94   95 ar 
    99   94   96 ar 
   100   97   98 1  
   101   98   99 1  
   102   98  101 1  
   103   99  100 2  
   104   99  103 am 
   105  101  102 1  
   106  103  104 1  
   107  104  105 1  
   108  104  107 1  
   109  105  106 2  
   110  105  109 am 
   111  107  108 1  
   112  109  110 1  
   113  110  111 1  
   114  110  113 1  
   115  111  112 2  
   116  111  114 am 
   117  114  115 1  
   118  115  116 1  
   119  115  118 1  
   120  116  117 2  
   121  116  120 am 
   122  118  119 1  
   123  119  133 1  
   124  120  121 1  
   125  121  122 1  
   126  122  123 2  
   127  122  124 am 
   128  125  126 ar 
   129  125  130 ar 
   130  125  131 1  
   131  126  127 ar 
   132  127  128 ar 
   133  127  132 1  
   134  128  129 ar 
   135  129  130 ar 
   136  129  133 1  
   137    1  134 1  
   138    1  135 1  
   139    1  136 1  
   140    2  137 1  
   141    5  138 1  
   142    5  139 1  
   143    5  140 1  
   144    6  141 1  
   145    7  142 1  
   146   10  143 1  
   147   10  144 1  
   148   12  145 1  
   149   13  146 1  
   150   16  147 1  
   151   16  148 1  
   152   17  149 1  
   153   18  150 1  
   154   19  151 1  
   155   22  152 1  
   156   22  153 1  
   157   23  154 1  
   158   23  155 1  
   159   24  156 1  
   160   24  157 1  
   161   25  158 1  
   162   27  159 1  
   163   27  160 1  
   164   28  161 1  
   165   28  162 1  
   166   29  163 1  
   167   30  164 1  
   168   33  165 1  
   169   33  166 1  
   170   35  167 1  
   171   36  168 1  
   172   37  169 1  
   173   38  170 1  
   174   40  171 1  
   175   41  172 1  
   176   42  173 1  
   177   45  174 1  
   178   45  175 1  
   179   46  176 1  
   180   46  177 1  
   181   50  178 1  
   182   51  179 1  
   183   54  180 1  
   184   55  181 1  
   185   55  182 1  
   186   55  183 1  
   187   56  184 1  
   188   56  185 1  
   189   56  186 1  
   190   57  187 1  
   191   58  188 1  
   192   61  189 1  
   193   61  190 1  
   194   65  191 1  
   195   66  192 1  
   196   69  193 1  
   197   69  194 1  
   198   71  195 1  
   199   72  196 1  
   200   75  197 1  
   201   75  198 1  
   202   76  199 1  
   203   76  200 1  
   204   77  201 1  
   205   77  202 1  
   206   78  203 1  
   207   80  204 1  
   208   80  205 1  
   209   81  206 1  
   210   81  207 1  
   211   82  208 1  
   212   83  209 1  
   213   83  210 1  
   214   86  211 1  
   215   87  212 1  
   216   90  213 1  
   217   90  214 1  
   218   91  215 1  
   219   91  216 1  
   220   92  217 1  
   221   92  218 1  
   222   93  219 1  
   223   95  220 1  
   224   95  221 1  
   225   96  222 1  
   226   96  223 1  
   227   97  224 1  
   228   98  225 1  
   229  101  226 1  
   230  101  227 1  
   231  102  228 1  
   232  102  229 1  
   233  102  230 1  
   234  103  231 1  
   235  104  232 1  
   236  107  233 1  
   237  107  234 1  
   238  108  235 1  
   239  109  236 1  
   240  110  237 1  
   241  113  238 1  
   242  113  239 1  
   243  113  240 1  
   244  114  241 1  
   245  115  242 1  
   246  118  243 1  
   247  118  244 1  
   248  120  245 1  
   249  121  246 1  
   250  121  247 1  
   251  124  248 1  
   252  124  249 1  
   253  126  250 1  
   254  128  251 1  
   255  130  252 1  
   256  131  253 1  
   257  131  254 1  
   258  132  255 1  
   259  132  256 1  
   260  133  257 1  
   261  133  258 1  
@<TRIPOS>SUBSTRUCTURE
     1 ALA         1

