4jk6_ligand
  -I-interpret- 

257260  0  0  0  0  0  0  0  0999 V2000
  -44.9210  114.2550  -25.0800 N   0  3  0  0  0
  -45.7900  114.5240  -23.8920 C   0  0  0  0  0
  -45.0070  114.4130  -22.5690 C   0  0  0  0  0
  -43.9360  113.8040  -22.5210 O   0  0  0  0  0
  -47.0030  113.5890  -23.8990 C   0  0  0  0  0
  -45.5500  115.0130  -21.5060 N   0  0  0  0  0
  -44.8930  115.0450  -20.1830 C   0  0  0  0  0
  -45.9500  114.9660  -19.0390 C   0  0  0  0  0
  -46.9150  115.7510  -19.0200 O   0  0  0  0  0
  -43.9150  116.2590  -20.1270 C   0  0  0  0  0
  -44.2210  117.8600  -19.2750 S   0  0  0  0  0
  -45.7760  114.0050  -18.1130 N   0  0  0  0  0
  -46.8490  113.6060  -17.1590 C   0  0  0  0  0
  -46.6320  113.9800  -15.6660 C   0  0  0  0  0
  -45.8350  114.8540  -15.3360 O   0  0  0  0  0
  -47.1740  112.0970  -17.3310 C   0  0  0  0  0
  -46.1260  111.2510  -16.9060 O   0  0  0  0  0
  -47.4170  113.3630  -14.7880 N   0  0  0  0  0
  -47.2990  113.5120  -13.3260 C   0  0  0  0  0
  -46.2660  112.5430  -12.7360 C   0  0  0  0  0
  -45.9980  112.5820  -11.5490 O   0  0  0  0  0
  -48.6610  113.2220  -12.6640 C   0  0  0  0  0
  -49.1650  111.7750  -12.8370 C   0  0  0  0  0
  -50.5960  111.6670  -13.3990 C   0  0  0  0  0
  -50.8120  110.4570  -14.2180 N   0  0  0  0  0
  -50.6950  110.3750  -15.5550 C   0  0  0  0  0
  -50.3620  111.4240  -16.3140 N   0  0  0  0  0
  -50.9250  109.2130  -16.1520 N   0  0  0  0  0
  -45.7290  111.6560  -13.5740 N   0  0  0  0  0
  -44.6910  110.7090  -13.1870 C   0  0  0  0  0
  -43.3200  111.2660  -13.5110 C   0  0  0  0  0
  -42.3300  110.5700  -13.3430 O   0  0  0  0  0
  -44.8800  109.3710  -13.9380 C   0  0  0  0  0
  -46.1610  108.6820  -13.5340 C   0  0  0  0  0
  -46.2480  108.0500  -12.3110 C   0  0  0  0  0
  -47.2800  108.6820  -14.3530 C   0  0  0  0  0
  -47.3940  107.4410  -11.8950 C   0  0  0  0  0
  -48.4450  108.0570  -13.9340 C   0  0  0  0  0
  -48.4760  107.4460  -12.6910 C   0  0  0  0  0
  -49.5690  106.8030  -12.1970 O   0  0  0  0  0
  -43.2740  112.5100  -13.9720 N   0  0  0  0  0
  -42.0500  113.0490  -14.4860 C   0  0  0  0  0
  -41.1960  113.5910  -13.3330 C   0  0  0  0  0
  -41.6730  114.2790  -12.4590 O   0  0  0  0  0
  -42.2980  114.1580  -15.4880 C   0  0  0  0  0
  -41.0060  114.8970  -15.7950 C   0  0  0  0  0
  -40.8950  115.3540  -17.2200 C   0  0  0  0  0
  -41.5880  116.3250  -17.5700 O   0  0  0  0  0
  -40.0900  114.7550  -17.9710 O   0  0  0  0  0
  -39.9210  113.2700  -13.3880 N   0  0  0  0  0
  -38.9380  113.7700  -12.4440 C   0  0  0  0  0
  -38.6680  115.2690  -12.6490 C   0  0  0  0  0
  -38.3580  115.6920  -13.7620 O   0  0  0  0  0
  -37.6140  112.9650  -12.6320 C   0  0  0  0  0
  -36.5590  113.4380  -11.6630 C   0  0  0  0  0
  -37.8730  111.4630  -12.4610 C   0  0  0  0  0
  -38.7250  116.0540  -11.5610 N   0  0  0  0  0
  -38.2710  117.4790  -11.5740 C   0  0  0  0  0
  -38.7330  118.1600  -12.8980 C   0  0  0  0  0
  -37.9150  118.5860  -13.7230 O   0  0  0  0  0
  -36.7380  117.5170  -11.4180 C   0  0  0  0  0
  -36.1530  118.9090  -11.4100 C   0  0  0  0  0
  -36.8840  119.8510  -11.1540 O   0  0  0  0  0
  -34.9210  119.0800  -11.6260 O   0  0  0  0  0
  -40.0530  118.2270  -13.0660 N   0  0  0  0  0
  -40.6730  118.6060  -14.3460 C   0  0  0  0  0
  -40.4160  120.0710  -14.7100 C   0  0  0  0  0
  -40.5280  120.4450  -15.8600 O   0  0  0  0  0
  -42.1620  118.2900  -14.3190 C   0  0  0  0  0
  -43.0970  119.4210  -13.2800 S   0  0  0  0  0
  -40.0140  120.9010  -13.7550 N   0  0  0  0  0
  -39.6180  122.2680  -14.0590 C   0  0  0  0  0
  -38.1500  122.5170  -13.8690 C   0  0  0  0  0
  -37.7080  123.6610  -13.6690 O   0  0  0  0  0
  -40.4270  123.2250  -13.2220 C   0  0  0  0  0
  -41.9110  123.1510  -13.5060 C   0  0  0  0  0
  -42.6500  124.1430  -12.6010 C   0  0  0  0  0
  -44.0980  124.1970  -12.8740 N   0  0  0  0  0
  -44.6600  124.7930  -13.9260 C   0  0  0  0  0
  -45.9670  124.7170  -14.0820 N   0  0  0  0  0
  -43.9310  125.4100  -14.8430 N   0  0  0  0  0
  -37.3560  121.4510  -13.9810 N   0  0  0  0  0
  -35.9180  121.5760  -13.8480 C   0  0  0  0  0
  -35.2800  122.0360  -15.1260 C   0  0  0  0  0
  -35.8580  121.9740  -16.2000 O   0  0  0  0  0
  -34.0760  122.5570  -14.9790 N   0  0  0  0  0
  -33.2270  122.8570  -16.1200 C   0  0  0  0  0
  -33.1440  121.6030  -16.9360 C   0  0  0  0  0
  -33.0010  120.5130  -16.3980 O   0  0  0  0  0
  -31.8410  123.3910  -15.6950 C   0  0  0  0  0
  -30.9490  122.3630  -15.1080 C   0  0  0  0  0
  -29.6930  123.0270  -14.6130 C   0  0  0  0  0
  -28.8760  123.5310  -15.7050 N   0  0  0  0  0
  -27.6380  123.9900  -15.5510 C   0  0  0  0  0
  -27.0880  123.9910  -14.3490 N   0  0  0  0  0
  -26.9340  124.4390  -16.6090 N   0  0  0  0  0
  -33.3060  121.7710  -18.2360 N   0  0  0  0  0
  -33.2700  120.6850  -19.1440 C   0  0  0  0  0
  -34.6570  120.2390  -19.4430 C   0  0  0  0  0
  -34.8620  119.5040  -20.3850 O   0  0  0  0  0
  -32.5000  121.0960  -20.4310 C   0  0  0  0  0
  -33.4320  121.9070  -21.3290 C   0  0  0  0  0
  -35.6520  120.6280  -18.6470 N   0  0  0  0  0
  -36.9800  120.0770  -18.8760 C   0  0  0  0  0
  -37.6230  120.7560  -20.0640 C   0  0  0  0  0
  -37.2930  121.9010  -20.3820 O   0  0  0  0  0
  -37.8820  120.1720  -17.6560 C   0  0  0  0  0
  -38.5080  121.4240  -17.5430 O   0  0  0  0  0
  -38.5160  120.0070  -20.7110 N   0  0  0  0  0
  -39.3810  120.5160  -21.7690 C   0  0  0  0  0
  -40.6600  120.9140  -21.0880 C   0  0  0  0  0
  -41.6190  120.1370  -21.0220 O   0  0  0  0  0
  -39.6530  119.4430  -22.8240 C   0  0  0  0  0
  -40.6500  122.1110  -20.5240 N   0  0  0  0  0
  -41.8540  122.6880  -19.9450 C   0  0  0  0  0
  -41.8140  124.1880  -20.2440 C   0  0  0  0  0
  -40.7580  124.8220  -20.1790 O   0  0  0  0  0
  -41.9590  122.3450  -18.4510 C   0  0  0  0  0
  -43.0700  123.3600  -17.4430 S   0  0  0  0  0
  -42.9640  124.7330  -20.6260 N   0  0  0  0  0
  -43.0480  126.0900  -21.1480 C   0  0  0  0  0
  -43.2960  126.1050  -22.6520 C   0  0  0  0  0
  -43.6220  127.1500  -23.2230 O   0  0  0  0  0
  -43.1490  124.9490  -23.2980 N   0  0  0  0  0
  -45.0550  119.6790  -15.2010 C   0  0  0  0  0
  -45.3890  118.7080  -16.1590 C   0  0  0  0  0
  -45.5530  119.0920  -17.5030 C   0  0  0  0  0
  -45.3210  120.4170  -17.8960 C   0  0  0  0  0
  -44.9680  121.3860  -16.9620 C   0  0  0  0  0
  -44.8360  121.0220  -15.6110 C   0  0  0  0  0
  -44.8790  119.2700  -13.8480 C   0  0  0  0  0
  -45.8550  118.1590  -18.4880 C   0  0  0  0  0
  -44.7760  122.6760  -17.4330 C   0  0  0  0  0
  -44.1184  114.8842  -25.0621 H   0  0  0  0  0
  -44.5974  113.2881  -25.0511 H   0  0  0  0  0
  -45.4570  114.4100  -25.9339 H   0  0  0  0  0
  -46.1440  115.5525  -23.9633 H   0  0  0  0  0
  -46.6669  112.5591  -23.7789 H   0  0  0  0  0
  -47.6687  113.8535  -23.0774 H   0  0  0  0  0
  -47.5336  113.6914  -24.8456 H   0  0  0  0  0
  -46.4565  115.4683  -21.6123 H   0  0  0  0  0
  -44.2734  114.1622  -20.0254 H   0  0  0  0  0
  -43.8789  116.5654  -21.1724 H   0  0  0  0  0
  -43.0864  115.8521  -19.5474 H   0  0  0  0  0
  -44.8742  113.5311  -18.0622 H   0  0  0  0  0
  -47.7078  114.2176  -17.4357 H   0  0  0  0  0
  -47.3375  111.9130  -18.3928 H   0  0  0  0  0
  -48.0474  111.8750  -16.7179 H   0  0  0  0  0
  -46.3830  110.3352  -17.0357 H   0  0  0  0  0
  -48.1466  112.7480  -15.1485 H   0  0  0  0  0
  -46.9768  114.5344  -13.1286 H   0  0  0  0  0
  -49.3923  113.8726  -13.1436 H   0  0  0  0  0
  -48.5363  113.3892  -11.5941 H   0  0  0  0  0
  -49.1726  111.3168  -11.8480 H   0  0  0  0  0
  -48.5016  111.2867  -13.5508 H   0  0  0  0  0
  -50.7647  112.5328  -14.0394 H   0  0  0  0  0
  -51.2799  111.6178  -12.5517 H   0  0  0  0  0
  -51.0743  109.6044  -13.7234 H   0  0  0  0  0
  -50.2903  111.3190  -17.3260 H   0  0  0  0  0
  -50.1797  112.3294  -15.8810 H   0  0  0  0  0
  -51.1865  108.3977  -15.5976 H   0  0  0  0  0
  -46.0625  111.6393  -14.5378 H   0  0  0  0  0
  -44.7695  110.5399  -12.1131 H   0  0  0  0  0
  -44.0444  108.7164  -13.6903 H   0  0  0  0  0
  -44.9239  109.5797  -15.0069 H   0  0  0  0  0
  -45.3750  108.0373  -11.6585 H   0  0  0  0  0
  -47.2440  109.1729  -15.3255 H   0  0  0  0  0
  -47.4324  106.9524  -10.9214 H   0  0  0  0  0
  -49.3263  108.0466  -14.5754 H   0  0  0  0  0
  -50.2866  106.8599  -12.8322 H   0  0  0  0  0
  -44.1157  113.0860  -13.9602 H   0  0  0  0  0
  -41.5252  112.2419  -14.9971 H   0  0  0  0  0
  -43.0167  114.8612  -15.0672 H   0  0  0  0  0
  -42.6844  113.7226  -16.4095 H   0  0  0  0  0
  -40.1838  114.2058  -15.6099 H   0  0  0  0  0
  -40.9822  115.7863  -15.1652 H   0  0  0  0  0
  -39.6704  114.0417  -17.4845 H   0  0  0  0  0
  -39.6091  112.6410  -14.1279 H   0  0  0  0  0
  -39.3256  113.6412  -11.4334 H   0  0  0  0  0
  -37.2464  113.1386  -13.6434 H   0  0  0  0  0
  -36.3565  114.4950  -11.8358 H   0  0  0  0  0
  -36.9154  113.2971  -10.6426 H   0  0  0  0  0
  -35.6456  112.8625  -11.8129 H   0  0  0  0  0
  -38.2649  111.2747  -11.4615 H   0  0  0  0  0
  -38.5983  111.1336  -13.2051 H   0  0  0  0  0
  -36.9392  110.9170  -12.5953 H   0  0  0  0  0
  -39.0918  115.6637  -10.6929 H   0  0  0  0  0
  -38.7138  118.0302  -10.7444 H   0  0  0  0  0
  -36.3137  116.9940  -12.2751 H   0  0  0  0  0
  -36.5005  117.0620  -10.4564 H   0  0  0  0  0
  -34.5087  118.2326  -11.8091 H   0  0  0  0  0
  -40.6586  118.0067  -12.2754 H   0  0  0  0  0
  -40.2034  118.0124  -15.1303 H   0  0  0  0  0
  -42.2824  117.2862  -13.9116 H   0  0  0  0  0
  -42.5408  118.3819  -15.3369 H   0  0  0  0  0
  -39.9821  120.5742  -12.7893 H   0  0  0  0  0
  -39.8189  122.4324  -15.1176 H   0  0  0  0  0
  -40.0940  124.2356  -13.4584 H   0  0  0  0  0
  -40.2759  122.9599  -12.1756 H   0  0  0  0  0
  -42.2701  122.1407  -13.3098 H   0  0  0  0  0
  -42.0956  123.4025  -14.5504 H   0  0  0  0  0
  -42.2382  125.1349  -12.7870 H   0  0  0  0  0
  -42.5169  123.8166  -11.5696 H   0  0  0  0  0
  -44.7191  123.7422  -12.2048 H   0  0  0  0  0
  -46.5329  124.2077  -13.4032 H   0  0  0  0  0
  -44.3813  125.8211  -15.6607 H   0  0  0  0  0
  -42.9191  125.4743  -14.7317 H   0  0  0  0  0
  -37.7665  120.5351  -14.1628 H   0  0  0  0  0
  -35.5104  120.5976  -13.5936 H   0  0  0  0  0
  -35.7077  122.3143  -13.0742 H   0  0  0  0  0
  -33.7322  122.7544  -14.0392 H   0  0  0  0  0
  -33.6531  123.6639  -16.7162 H   0  0  0  0  0
  -32.0086  124.1476  -14.9285 H   0  0  0  0  0
  -31.3515  123.7671  -16.5933 H   0  0  0  0  0
  -30.6975  121.6199  -15.8648 H   0  0  0  0  0
  -31.4545  121.8690  -14.2782 H   0  0  0  0  0
  -29.1099  122.2871  -14.0647 H   0  0  0  0  0
  -29.9786  123.8701  -13.9840 H   0  0  0  0  0
  -29.2758  123.5325  -16.6434 H   0  0  0  0  0
  -27.6131  123.6412  -13.5476 H   0  0  0  0  0
  -25.9806  124.7779  -16.4805 H   0  0  0  0  0
  -27.3547  124.4399  -17.5382 H   0  0  0  0  0
  -33.4619  122.7121  -18.5971 H   0  0  0  0  0
  -32.7380  119.8443  -18.6987 H   0  0  0  0  0
  -32.1640  120.2039  -20.9595 H   0  0  0  0  0
  -31.6311  121.6974  -20.1637 H   0  0  0  0  0
  -34.2972  121.2998  -21.5952 H   0  0  0  0  0
  -33.7624  122.7988  -20.7965 H   0  0  0  0  0
  -32.8992  122.1991  -22.2340 H   0  0  0  0  0
  -35.4872  121.2965  -17.8944 H   0  0  0  0  0
  -36.8529  119.0146  -19.0838 H   0  0  0  0  0
  -37.2643  120.0248  -16.7701 H   0  0  0  0  0
  -38.6605  119.4156  -17.7549 H   0  0  0  0  0
  -39.0640  121.4331  -16.7604 H   0  0  0  0  0
  -38.5988  119.0240  -20.4518 H   0  0  0  0  0
  -38.9166  121.3534  -22.2898 H   0  0  0  0  0
  -38.7098  119.1244  -23.2679 H   0  0  0  0  0
  -40.1418  118.5893  -22.3545 H   0  0  0  0  0
  -40.3005  119.8531  -23.5990 H   0  0  0  0  0
  -39.7790  122.6410  -20.4944 H   0  0  0  0  0
  -42.7610  122.2714  -20.3829 H   0  0  0  0  0
  -40.9614  122.5025  -18.0409 H   0  0  0  0  0
  -42.3625  121.3333  -18.4078 H   0  0  0  0  0
  -43.8186  124.1812  -20.5510 H   0  0  0  0  0
  -42.0999  126.5911  -20.9525 H   0  0  0  0  0
  -43.8816  126.5938  -20.6587 H   0  0  0  0  0
  -43.3073  124.9036  -24.3046 H   0  0  0  0  0
  -42.8782  124.1095  -22.7859 H   0  0  0  0  0
  -45.5200  117.6668  -15.8644 H   0  0  0  0  0
  -45.4183  120.6919  -18.9463 H   0  0  0  0  0
  -44.5636  121.7755  -14.8720 H   0  0  0  0  0
  -45.4894  119.9173  -13.2182 H   0  0  0  0  0
  -45.1691  118.2220  -13.7723 H   0  0  0  0  0
  -46.3077  117.2511  -18.0895 H   0  0  0  0  0
  -46.6081  118.5126  -19.1923 H   0  0  0  0  0
  -45.0771  122.6451  -18.4801 H   0  0  0  0  0
  -45.3357  123.3153  -16.7502 H   0  0  0  0  0
  2  1  1  0  0  0
  3  2  1  0  0  0
  2  5  1  0  0  0
  3  4  2  0  0  0
  6  3  1  0  0  0
  7  6  1  0  0  0
  8  7  1  0  0  0
  7 10  1  0  0  0
  8  9  2  0  0  0
 12  8  1  0  0  0
 10 11  1  0  0  0
 11132  1  0  0  0
 13 12  1  0  0  0
 14 13  1  0  0  0
 13 16  1  0  0  0
 14 15  2  0  0  0
 18 14  1  0  0  0
 16 17  1  0  0  0
 19 18  1  0  0  0
 20 19  1  0  0  0
 19 22  1  0  0  0
 20 21  2  0  0  0
 29 20  1  0  0  0
 22 23  1  0  0  0
 23 24  1  0  0  0
 24 25  1  0  0  0
 25 26  1  0  0  0
 26 27  1  0  0  0
 26 28  2  0  0  0
 30 29  1  0  0  0
 31 30  1  0  0  0
 30 33  1  0  0  0
 31 32  2  0  0  0
 41 31  1  0  0  0
 33 34  1  0  0  0
 34 35  4  0  0  0
 34 36  4  0  0  0
 35 37  4  0  0  0
 36 38  4  0  0  0
 37 39  4  0  0  0
 38 39  4  0  0  0
 39 40  1  0  0  0
 42 41  1  0  0  0
 43 42  1  0  0  0
 42 45  1  0  0  0
 43 44  2  0  0  0
 50 43  1  0  0  0
 45 46  1  0  0  0
 46 47  1  0  0  0
 47 48  2  0  0  0
 47 49  1  0  0  0
 51 50  1  0  0  0
 52 51  1  0  0  0
 51 54  1  0  0  0
 52 53  2  0  0  0
 57 52  1  0  0  0
 54 55  1  0  0  0
 54 56  1  0  0  0
 58 57  1  0  0  0
 59 58  1  0  0  0
 58 61  1  0  0  0
 59 60  2  0  0  0
 65 59  1  0  0  0
 61 62  1  0  0  0
 62 63  2  0  0  0
 62 64  1  0  0  0
 66 65  1  0  0  0
 66 67  1  0  0  0
 69 66  1  0  0  0
 67 68  2  0  0  0
 67 71  1  0  0  0
 70 69  1  0  0  0
131 70  1  0  0  0
 71 72  1  0  0  0
 72 73  1  0  0  0
 72 75  1  0  0  0
 73 74  2  0  0  0
 73 82  1  0  0  0
 75 76  1  0  0  0
 76 77  1  0  0  0
 77 78  1  0  0  0
 78 79  1  0  0  0
 79 80  2  0  0  0
 79 81  1  0  0  0
 82 83  1  0  0  0
 83 84  1  0  0  0
 84 85  2  0  0  0
 84 86  1  0  0  0
 86 87  1  0  0  0
 87 88  1  0  0  0
 87 90  1  0  0  0
 88 89  2  0  0  0
 88 97  1  0  0  0
 90 91  1  0  0  0
 91 92  1  0  0  0
 92 93  1  0  0  0
 93 94  1  0  0  0
 94 95  2  0  0  0
 94 96  1  0  0  0
 97 98  1  0  0  0
 98 99  1  0  0  0
 98101  1  0  0  0
 99100  2  0  0  0
 99103  1  0  0  0
101102  1  0  0  0
103104  1  0  0  0
104105  1  0  0  0
104107  1  0  0  0
105106  2  0  0  0
105109  1  0  0  0
107108  1  0  0  0
109110  1  0  0  0
110111  1  0  0  0
110113  1  0  0  0
111112  2  0  0  0
111114  1  0  0  0
114115  1  0  0  0
115116  1  0  0  0
115118  1  0  0  0
116117  2  0  0  0
116120  1  0  0  0
118119  1  0  0  0
119133  1  0  0  0
120121  1  0  0  0
121122  1  0  0  0
122123  2  0  0  0
122124  1  0  0  0
125126  4  0  0  0
125130  4  0  0  0
125131  1  0  0  0
126127  4  0  0  0
127128  4  0  0  0
127132  1  0  0  0
128129  4  0  0  0
129130  4  0  0  0
129133  1  0  0  0
  1134  1  0  0  0
  1135  1  0  0  0
  1136  1  0  0  0
  2137  1  0  0  0
  5138  1  0  0  0
  5139  1  0  0  0
  5140  1  0  0  0
  6141  1  0  0  0
  7142  1  0  0  0
 10143  1  0  0  0
 10144  1  0  0  0
 12145  1  0  0  0
 13146  1  0  0  0
 16147  1  0  0  0
 16148  1  0  0  0
 17149  1  0  0  0
 18150  1  0  0  0
 19151  1  0  0  0
 22152  1  0  0  0
 22153  1  0  0  0
 23154  1  0  0  0
 23155  1  0  0  0
 24156  1  0  0  0
 24157  1  0  0  0
 25158  1  0  0  0
 27159  1  0  0  0
 27160  1  0  0  0
 28161  1  0  0  0
 29162  1  0  0  0
 30163  1  0  0  0
 33164  1  0  0  0
 33165  1  0  0  0
 35166  1  0  0  0
 36167  1  0  0  0
 37168  1  0  0  0
 38169  1  0  0  0
 40170  1  0  0  0
 41171  1  0  0  0
 42172  1  0  0  0
 45173  1  0  0  0
 45174  1  0  0  0
 46175  1  0  0  0
 46176  1  0  0  0
 49177  1  0  0  0
 50178  1  0  0  0
 51179  1  0  0  0
 54180  1  0  0  0
 55181  1  0  0  0
 55182  1  0  0  0
 55183  1  0  0  0
 56184  1  0  0  0
 56185  1  0  0  0
 56186  1  0  0  0
 57187  1  0  0  0
 58188  1  0  0  0
 61189  1  0  0  0
 61190  1  0  0  0
 64191  1  0  0  0
 65192  1  0  0  0
 66193  1  0  0  0
 69194  1  0  0  0
 69195  1  0  0  0
 71196  1  0  0  0
 72197  1  0  0  0
 75198  1  0  0  0
 75199  1  0  0  0
 76200  1  0  0  0
 76201  1  0  0  0
 77202  1  0  0  0
 77203  1  0  0  0
 78204  1  0  0  0
 80205  1  0  0  0
 81206  1  0  0  0
 81207  1  0  0  0
 82208  1  0  0  0
 83209  1  0  0  0
 83210  1  0  0  0
 86211  1  0  0  0
 87212  1  0  0  0
 90213  1  0  0  0
 90214  1  0  0  0
 91215  1  0  0  0
 91216  1  0  0  0
 92217  1  0  0  0
 92218  1  0  0  0
 93219  1  0  0  0
 95220  1  0  0  0
 96221  1  0  0  0
 96222  1  0  0  0
 97223  1  0  0  0
 98224  1  0  0  0
101225  1  0  0  0
101226  1  0  0  0
102227  1  0  0  0
102228  1  0  0  0
102229  1  0  0  0
103230  1  0  0  0
104231  1  0  0  0
107232  1  0  0  0
107233  1  0  0  0
108234  1  0  0  0
109235  1  0  0  0
110236  1  0  0  0
113237  1  0  0  0
113238  1  0  0  0
113239  1  0  0  0
114240  1  0  0  0
115241  1  0  0  0
118242  1  0  0  0
118243  1  0  0  0
120244  1  0  0  0
121245  1  0  0  0
121246  1  0  0  0
124247  1  0  0  0
124248  1  0  0  0
126249  1  0  0  0
128250  1  0  0  0
130251  1  0  0  0
131252  1  0  0  0
131253  1  0  0  0
132254  1  0  0  0
132255  1  0  0  0
133256  1  0  0  0
133257  1  0  0  0
M  END
$$$$
