1pzo_ligand
  -I-interpret- 

 34 36  0  0  0  0  0  0  0  0999 V2000
    9.1350    8.4530   25.2140 Cl  0  0  0  0  0
    8.8000    9.4700   26.2660 C   0  0  0  0  0
    9.6450    9.6520   27.3900 C   0  0  0  0  0
    9.3940   10.7350   28.2740 C   0  0  0  0  0
    7.6900   10.3120   26.0430 C   0  0  0  0  0
    7.4660   11.3690   26.9360 C   0  0  0  0  0
    8.2870   11.5950   28.0490 C   0  0  0  0  0
    7.8910   12.6850   29.0640 C   0  0  0  0  0
    9.0410   13.1520   29.8690 N   0  0  0  0  0
    9.3430   12.5810   31.0400 C   0  0  0  0  0
   10.2850   13.0250   31.8840 N   0  0  0  0  0
   10.1760   12.2960   33.0710 N   0  0  0  0  0
    9.1100   11.3920   32.9230 N   0  0  0  0  0
    8.6300   11.6160   31.6310 N   0  0  0  0  0
    9.8450   14.2850   29.3500 C   0  0  0  0  0
    9.0720   15.6100   29.3930 C   0  0  0  0  0
    8.0720   15.8560   30.3550 C   0  0  0  0  0
    7.4740   17.1340   30.4050 C   0  0  0  0  0
    7.8170   18.1780   29.5270 C   0  0  0  0  0
    7.1960   19.5650   29.6790 Cl  0  0  0  0  0
    8.7760   17.9170   28.5480 C   0  0  0  0  0
    9.3960   16.6410   28.4970 C   0  0  0  0  0
   10.4756    8.9703   27.5731 H   0  0  0  0  0
   10.0519   10.9060   29.1260 H   0  0  0  0  0
    7.0231   10.1447   25.1972 H   0  0  0  0  0
    6.6242   12.0383   26.7586 H   0  0  0  0  0
    7.1538   12.2595   29.7449 H   0  0  0  0  0
    7.5008   13.5374   28.5079 H   0  0  0  0  0
   10.0991   14.0735   28.3113 H   0  0  0  0  0
   10.7309   14.3881   29.9767 H   0  0  0  0  0
    7.7655   15.0730   31.0486 H   0  0  0  0  0
    6.7102   17.3205   31.1599 H   0  0  0  0  0
    9.0475   18.6879   27.8268 H   0  0  0  0  0
   10.1517   16.4548   27.7338 H   0  0  0  0  0
  1  2  1  0  0  0
  2  3  4  0  0  0
  2  5  4  0  0  0
  3  4  4  0  0  0
  4  7  4  0  0  0
  5  6  4  0  0  0
  6  7  4  0  0  0
  7  8  1  0  0  0
  8  9  1  0  0  0
  9 10  1  0  0  0
  9 15  1  0  0  0
 10 11  4  0  0  0
 10 14  4  0  0  0
 11 12  4  0  0  0
 12 13  4  0  0  0
 13 14  4  0  0  0
 15 16  1  0  0  0
 16 17  4  0  0  0
 16 22  4  0  0  0
 17 18  4  0  0  0
 18 19  4  0  0  0
 19 20  1  0  0  0
 19 21  4  0  0  0
 21 22  4  0  0  0
  3 23  1  0  0  0
  4 24  1  0  0  0
  5 25  1  0  0  0
  6 26  1  0  0  0
  8 27  1  0  0  0
  8 28  1  0  0  0
 15 29  1  0  0  0
 15 30  1  0  0  0
 17 31  1  0  0  0
 18 32  1  0  0  0
 21 33  1  0  0  0
 22 34  1  0  0  0
M  END
$$$$
