2j27_ligand
  -I-interpret- 

 14 13  0  0  0  0  0  0  0  0999 V2000
   13.0610    6.1850    5.4680 P   0  0  0  0  0
   14.3700    6.3790    6.4440 O   0  0  0  0  0
   13.1900    7.2460    4.4020 O   0  0  0  0  0
   11.8290    6.4020    6.3430 O   0  0  0  0  0
   13.1710    4.7950    4.9530 O   0  0  0  0  0
   14.5310    7.7100    7.1250 C   0  0  0  0  0
   15.4470    7.6100    8.1930 C   0  0  0  0  0
   15.3880    8.6510    9.0220 O   0  0  0  0  0
   16.2100    6.6680    8.3260 O   0  0  0  0  0
   13.1095    8.1138    4.8045 H   0  0  0  0  0
   11.8095    7.3127    6.6460 H   0  0  0  0  0
   13.5642    8.0274    7.5158 H   0  0  0  0  0
   14.9066    8.4346    6.4026 H   0  0  0  0  0
   14.7155    9.2642    8.7165 H   0  0  0  0  0
  1  2  1  0  0  0
  1  3  1  0  0  0
  1  4  1  0  0  0
  1  5  2  0  0  0
  2  6  1  0  0  0
  6  7  1  0  0  0
  7  8  1  0  0  0
  7  9  2  0  0  0
  3 10  1  0  0  0
  4 11  1  0  0  0
  6 12  1  0  0  0
  6 13  1  0  0  0
  8 14  1  0  0  0
M  END
$$$$
