6g86_ligand
  -I-interpret- 

144147  0  0  0  0  0  0  0  0999 V2000
   14.1380   49.5560   54.2480 N   0  3  0  0  0
   15.0160   49.4680   55.4130 C   0  0  0  0  0
   14.6430   50.5050   56.4710 C   0  0  0  0  0
   15.4990   50.9410   57.2430 O   0  0  0  0  0
   16.4850   49.6490   55.0020 C   0  0  0  0  0
   17.1150   48.4130   54.4120 C   0  0  0  0  0
   17.1990   48.2540   53.0360 C   0  0  0  0  0
   17.6270   47.4130   55.2340 C   0  0  0  0  0
   17.7760   47.1220   52.4890 C   0  0  0  0  0
   18.2030   46.2780   54.6920 C   0  0  0  0  0
   18.2770   46.1310   53.3180 C   0  0  0  0  0
   13.3630   50.8890   56.4980 N   0  0  0  0  0
   12.8350   51.8550   57.4590 C   0  0  0  0  0
   13.6830   53.1210   57.4970 C   0  0  0  0  0
   13.5970   53.9620   56.5930 O   0  0  0  0  0
   12.7400   51.2360   58.8600 C   0  0  0  0  0
   14.5050   53.2630   58.5380 N   0  0  0  0  0
   15.4280   54.3940   58.6470 C   0  0  0  0  0
   16.7160   54.0730   57.8820 C   0  0  0  0  0
   17.7790   53.8000   58.4470 O   0  0  0  0  0
   15.6980   54.7230   60.1110 C   0  0  0  0  0
   16.5890   54.0880   56.5450 N   0  0  0  0  0
   17.7620   53.9470   55.6880 C   0  0  0  0  0
   18.2980   55.3260   55.3400 C   0  0  0  0  0
   17.5370   56.1720   54.8610 O   0  0  0  0  0
   17.4260   53.1920   54.4110 C   0  0  0  0  0
   19.5740   55.5990   55.5930 N   0  0  0  0  0
   20.1280   56.9160   55.2520 C   0  0  0  0  0
   20.0380   57.1990   53.7610 C   0  0  0  0  0
   20.1280   56.2960   52.9270 O   0  0  0  0  0
   21.5880   56.8170   55.7110 C   0  0  0  0  0
   21.8340   55.3670   55.9170 C   0  0  0  0  0
   20.5420   54.7600   56.3090 C   0  0  0  0  0
   19.8580   58.4780   53.4330 N   0  0  0  0  0
   19.8420   58.9350   52.0460 C   0  0  0  0  0
   21.2790   59.0800   51.5630 C   0  0  0  0  0
   22.0150   59.9480   52.0470 O   0  0  0  0  0
   19.1070   60.2720   51.9270 C   0  0  0  0  0
   18.3400   60.6030   50.6320 C   0  0  0  0  0
   18.5420   62.0720   50.2160 C   0  0  0  0  0
   18.6380   59.6480   49.4720 C   0  0  0  0  0
   21.6770   58.2490   50.5890 N   0  0  0  0  0
   22.9930   58.3500   49.9620 C   0  0  0  0  0
   22.7880   58.4830   48.4520 C   0  0  0  0  0
   23.0500   57.5580   47.6920 O   0  0  0  0  0
   23.8720   57.1450   50.3010 C   0  0  0  0  0
   24.1040   56.8710   51.7870 C   0  0  0  0  0
   24.8060   55.5230   51.9630 C   0  0  0  0  0
   24.9140   57.9950   52.4240 C   0  0  0  0  0
   22.3220   59.6530   48.0240 N   0  0  0  0  0
   21.9490   59.8260   46.6290 C   0  0  0  0  0
   23.1970   59.8660   45.7530 C   0  0  0  0  0
   24.2580   60.3060   46.2030 O   0  0  0  0  0
   21.1410   61.1150   46.4510 C   0  0  0  0  0
   23.0930   59.4200   44.5000 N   0  0  0  0  0
   24.2510   59.4690   43.6110 C   0  0  0  0  0
   24.7460   60.8920   43.4600 C   0  0  0  0  0
   23.9620   61.8540   43.5670 O   0  0  0  0  0
   23.7040   58.9220   42.2860 C   0  0  0  0  0
   22.2370   59.0900   42.3700 C   0  0  0  0  0
   21.8990   58.8970   43.8230 C   0  0  0  0  0
   26.0540   61.0810   43.2240 N   0  0  0  0  0
   26.6130   62.4360   43.1510 C   0  0  0  0  0
   26.3580   63.1050   41.8030 C   0  0  0  0  0
   26.6740   64.2840   41.6130 O   0  0  0  0  0
   28.1090   62.2040   43.3740 C   0  0  0  0  0
   28.3510   60.8510   42.7980 C   0  0  0  0  0
   27.0880   60.0480   43.0290 C   0  0  0  0  0
   25.8320   62.4770   40.8790 O   0  0  0  0  0
   13.1695   49.4332   54.5436 H   0  0  0  0  0
   14.2476   50.4704   53.8095 H   0  0  0  0  0
   14.3863   48.8256   53.5807 H   0  0  0  0  0
   14.8870   48.4753   55.8442 H   0  0  0  0  0
   17.0443   49.8972   55.9040 H   0  0  0  0  0
   16.5126   50.4229   54.2349 H   0  0  0  0  0
   16.8059   49.0297   52.3789 H   0  0  0  0  0
   17.5735   47.5255   56.3169 H   0  0  0  0  0
   17.8365   47.0096   51.4065 H   0  0  0  0  0
   18.5979   45.5007   55.3462 H   0  0  0  0  0
   18.7288   45.2369   52.8884 H   0  0  0  0  0
   12.7224   50.4875   55.8133 H   0  0  0  0  0
   11.8324   52.1290   57.1307 H   0  0  0  0  0
   12.0764   50.3718   58.8297 H   0  0  0  0  0
   13.7320   50.9228   59.1855 H   0  0  0  0  0
   12.3443   51.9753   59.5564 H   0  0  0  0  0
   14.4900   52.5630   59.2798 H   0  0  0  0  0
   14.9797   55.2811   58.1996 H   0  0  0  0  0
   14.7603   54.9815   60.6029 H   0  0  0  0  0
   16.1400   53.8557   60.6014 H   0  0  0  0  0
   16.3861   55.5662   60.1717 H   0  0  0  0  0
   15.6659   54.1988   56.1254 H   0  0  0  0  0
   18.5171   53.3766   56.2289 H   0  0  0  0  0
   17.0593   52.1973   54.6643 H   0  0  0  0  0
   16.6573   53.7349   53.8611 H   0  0  0  0  0
   18.3215   53.1047   53.7957 H   0  0  0  0  0
   19.5842   57.7333   55.7258 H   0  0  0  0  0
   21.7624   57.3880   56.6230 H   0  0  0  0  0
   22.2707   57.2399   54.9740 H   0  0  0  0  0
   22.5847   55.2095   56.6914 H   0  0  0  0  0
   22.2151   54.9072   55.0052 H   0  0  0  0  0
   20.4681   53.7035   56.0511 H   0  0  0  0  0
   20.3836   54.7464   57.3873 H   0  0  0  0  0
   19.7266   59.1626   54.1776 H   0  0  0  0  0
   19.3152   58.2064   51.4298 H   0  0  0  0  0
   19.8924   61.0257   51.9839 H   0  0  0  0  0
   18.3406   60.2365   52.7013 H   0  0  0  0  0
   17.2869   60.4551   50.8712 H   0  0  0  0  0
   18.1795   62.7260   51.0091 H   0  0  0  0  0
   19.6026   62.2577   50.0465 H   0  0  0  0  0
   17.9864   62.2683   49.2990 H   0  0  0  0  0
   19.7015   59.6856   49.2361 H   0  0  0  0  0
   18.3639   58.6329   49.7592 H   0  0  0  0  0
   18.0599   59.9483   48.5981 H   0  0  0  0  0
   21.0376   57.5194   50.2741 H   0  0  0  0  0
   23.5164   59.2261   50.3448 H   0  0  0  0  0
   24.8529   57.3559   49.8749 H   0  0  0  0  0
   23.3521   56.2708   49.9091 H   0  0  0  0  0
   23.1392   56.8304   52.2926 H   0  0  0  0  0
   24.1832   54.7329   51.5435 H   0  0  0  0  0
   25.7654   55.5442   51.4461 H   0  0  0  0  0
   24.9678   55.3349   53.0244 H   0  0  0  0  0
   25.8800   58.0728   51.9251 H   0  0  0  0  0
   24.3729   58.9354   52.3195 H   0  0  0  0  0
   25.0661   57.7774   53.4812 H   0  0  0  0  0
   22.2260   60.4313   48.6762 H   0  0  0  0  0
   21.3313   58.9807   46.3257 H   0  0  0  0  0
   20.2371   61.0624   47.0579 H   0  0  0  0  0
   21.7435   61.9665   46.7672 H   0  0  0  0  0
   20.8694   61.2301   45.4017 H   0  0  0  0  0
   25.1040   58.8988   43.9789 H   0  0  0  0  0
   23.9803   57.8780   42.1385 H   0  0  0  0  0
   24.1202   59.4536   41.4303 H   0  0  0  0  0
   21.7138   58.3730   41.7373 H   0  0  0  0  0
   21.9239   60.0707   42.0117 H   0  0  0  0  0
   20.9825   59.4071   44.1194 H   0  0  0  0  0
   21.6846   57.8589   44.0771 H   0  0  0  0  0
   26.1587   63.1091   43.8781 H   0  0  0  0  0
   27.0686   64.6411   42.4120 H   0  0  0  0  0
   28.3845   62.2612   44.4271 H   0  0  0  0  0
   28.7221   62.9712   42.9011 H   0  0  0  0  0
   29.2075   60.3736   43.2740 H   0  0  0  0  0
   28.5806   60.9168   41.7345 H   0  0  0  0  0
   26.8598   59.3801   42.1983 H   0  0  0  0  0
   27.1715   59.3743   43.8818 H   0  0  0  0  0
  1  2  1  0  0  0
  2  3  1  0  0  0
  2  5  1  0  0  0
  3  4  2  0  0  0
  3 12  1  0  0  0
  5  6  1  0  0  0
  6  7  4  0  0  0
  6  8  4  0  0  0
  7  9  4  0  0  0
  8 10  4  0  0  0
  9 11  4  0  0  0
 10 11  4  0  0  0
 12 13  1  0  0  0
 13 14  1  0  0  0
 13 16  1  0  0  0
 14 15  2  0  0  0
 14 17  1  0  0  0
 17 18  1  0  0  0
 18 19  1  0  0  0
 18 21  1  0  0  0
 19 20  2  0  0  0
 19 22  1  0  0  0
 22 23  1  0  0  0
 23 24  1  0  0  0
 23 26  1  0  0  0
 24 25  2  0  0  0
 24 27  1  0  0  0
 27 28  1  0  0  0
 27 33  1  0  0  0
 28 29  1  0  0  0
 28 31  1  0  0  0
 29 30  2  0  0  0
 29 34  1  0  0  0
 31 32  1  0  0  0
 32 33  1  0  0  0
 34 35  1  0  0  0
 35 36  1  0  0  0
 35 38  1  0  0  0
 36 37  2  0  0  0
 36 42  1  0  0  0
 38 39  1  0  0  0
 39 40  1  0  0  0
 39 41  1  0  0  0
 42 43  1  0  0  0
 43 44  1  0  0  0
 43 46  1  0  0  0
 44 45  2  0  0  0
 44 50  1  0  0  0
 46 47  1  0  0  0
 47 48  1  0  0  0
 47 49  1  0  0  0
 50 51  1  0  0  0
 51 52  1  0  0  0
 51 54  1  0  0  0
 52 53  2  0  0  0
 52 55  1  0  0  0
 55 56  1  0  0  0
 55 61  1  0  0  0
 56 57  1  0  0  0
 56 59  1  0  0  0
 57 58  2  0  0  0
 57 62  1  0  0  0
 59 60  1  0  0  0
 60 61  1  0  0  0
 62 63  1  0  0  0
 62 68  1  0  0  0
 63 64  1  0  0  0
 63 66  1  0  0  0
 64 65  1  0  0  0
 64 69  2  0  0  0
 66 67  1  0  0  0
 67 68  1  0  0  0
  1 70  1  0  0  0
  1 71  1  0  0  0
  1 72  1  0  0  0
  2 73  1  0  0  0
  5 74  1  0  0  0
  5 75  1  0  0  0
  7 76  1  0  0  0
  8 77  1  0  0  0
  9 78  1  0  0  0
 10 79  1  0  0  0
 11 80  1  0  0  0
 12 81  1  0  0  0
 13 82  1  0  0  0
 16 83  1  0  0  0
 16 84  1  0  0  0
 16 85  1  0  0  0
 17 86  1  0  0  0
 18 87  1  0  0  0
 21 88  1  0  0  0
 21 89  1  0  0  0
 21 90  1  0  0  0
 22 91  1  0  0  0
 23 92  1  0  0  0
 26 93  1  0  0  0
 26 94  1  0  0  0
 26 95  1  0  0  0
 28 96  1  0  0  0
 31 97  1  0  0  0
 31 98  1  0  0  0
 32 99  1  0  0  0
 32100  1  0  0  0
 33101  1  0  0  0
 33102  1  0  0  0
 34103  1  0  0  0
 35104  1  0  0  0
 38105  1  0  0  0
 38106  1  0  0  0
 39107  1  0  0  0
 40108  1  0  0  0
 40109  1  0  0  0
 40110  1  0  0  0
 41111  1  0  0  0
 41112  1  0  0  0
 41113  1  0  0  0
 42114  1  0  0  0
 43115  1  0  0  0
 46116  1  0  0  0
 46117  1  0  0  0
 47118  1  0  0  0
 48119  1  0  0  0
 48120  1  0  0  0
 48121  1  0  0  0
 49122  1  0  0  0
 49123  1  0  0  0
 49124  1  0  0  0
 50125  1  0  0  0
 51126  1  0  0  0
 54127  1  0  0  0
 54128  1  0  0  0
 54129  1  0  0  0
 56130  1  0  0  0
 59131  1  0  0  0
 59132  1  0  0  0
 60133  1  0  0  0
 60134  1  0  0  0
 61135  1  0  0  0
 61136  1  0  0  0
 63137  1  0  0  0
 65138  1  0  0  0
 66139  1  0  0  0
 66140  1  0  0  0
 67141  1  0  0  0
 67142  1  0  0  0
 68143  1  0  0  0
 68144  1  0  0  0
M  END
$$$$
