### 
### Created by X-TOOL on Wed Jan  1 15:39:35 2020
### 

@<TRIPOS>MOLECULE
6g86_ligand
  143   146     1     0     0
SMALL
GAST_HUCK


@<TRIPOS>ATOM
      1 N          14.1380   49.5560   54.2480 N.4       1 PHE         0.2394
      2 CA         15.0160   49.4680   55.4130 C.3       1 PHE         0.0744
      3 C          14.6430   50.5050   56.4710 C.2       1 PHE         0.2288
      4 O          15.4990   50.9410   57.2430 O.2       1 PHE        -0.3905
      5 CB         16.4850   49.6490   55.0020 C.3       1 PHE         0.0416
      6 CG         17.1150   48.4130   54.4120 C.ar      1 PHE        -0.0353
      7 CD1        17.1990   48.2540   53.0360 C.ar      1 PHE        -0.0600
      8 CD2        17.6270   47.4130   55.2340 C.ar      1 PHE        -0.0600
      9 CE1        17.7760   47.1220   52.4890 C.ar      1 PHE        -0.0686
     10 CE2        18.2030   46.2780   54.6920 C.ar      1 PHE        -0.0686
     11 CZ         18.2770   46.1310   53.3180 C.ar      1 PHE        -0.0687
     12 N          13.3630   50.8890   56.4980 N.am      1 LYS        -0.2611
     13 CA         12.8350   51.8550   57.4590 C.3       1 LYS         0.1283
     14 C          13.6830   53.1210   57.4970 C.2       1 LYS         0.2036
     15 O          13.5970   53.9620   56.5930 O.2       1 LYS        -0.3944
     16 CB         12.7400   51.2360   58.8600 C.3       1 LYS        -0.0244
     17 N          14.5050   53.2630   58.5380 N.am      1 ASN        -0.2640
     18 CA         15.4280   54.3940   58.6470 C.3       1 ASN         0.1282
     19 C          16.7160   54.0730   57.8820 C.2       1 ASN         0.2036
     20 O          17.7790   53.8000   58.4470 O.2       1 ASN        -0.3944
     21 CB         15.6980   54.7230   60.1110 C.3       1 ASN        -0.0244
     22 N          16.5890   54.0880   56.5450 N.am      1 ALA        -0.2640
     23 CA         17.7620   53.9470   55.6880 C.3       1 ALA         0.1284
     24 C          18.2980   55.3260   55.3400 C.2       1 ALA         0.2061
     25 O          17.5370   56.1720   54.8610 O.2       1 ALA        -0.3942
     26 CB         17.4260   53.1920   54.4110 C.3       1 ALA        -0.0244
     27 N          19.5740   55.5990   55.5930 N.am      1 PRO        -0.2498
     28 CA         20.1280   56.9160   55.2520 C.3       1 PRO         0.1338
     29 C          20.0380   57.1990   53.7610 C.2       1 PRO         0.2041
     30 O          20.1280   56.2960   52.9270 O.2       1 PRO        -0.3944
     31 CB         21.5880   56.8170   55.7110 C.3       1 PRO        -0.0104
     32 CG         21.8340   55.3670   55.9170 C.3       1 PRO        -0.0281
     33 CD         20.5420   54.7600   56.3090 C.3       1 PRO         0.0369
     34 N          19.8580   58.4780   53.4330 N.am      1 LEU        -0.2637
     35 CA         19.8420   58.9350   52.0460 C.3       1 LEU         0.1312
     36 C          21.2790   59.0800   51.5630 C.2       1 LEU         0.2039
     37 O          22.0150   59.9480   52.0470 O.2       1 LEU        -0.3944
     38 CB         19.1070   60.2720   51.9270 C.3       1 LEU        -0.0101
     39 CG         18.3400   60.6030   50.6320 C.3       1 LEU        -0.0425
     40 CD1        18.5420   62.0720   50.2160 C.3       1 LEU        -0.0625
     41 CD2        18.6380   59.6480   49.4720 C.3       1 LEU        -0.0625
     42 N          21.6770   58.2490   50.5890 N.am      1 LEU        -0.2637
     43 CA         22.9930   58.3500   49.9620 C.3       1 LEU         0.1312
     44 C          22.7880   58.4830   48.4520 C.2       1 LEU         0.2039
     45 O          23.0500   57.5580   47.6920 O.2       1 LEU        -0.3944
     46 CB         23.8720   57.1450   50.3010 C.3       1 LEU        -0.0101
     47 CG         24.1040   56.8710   51.7870 C.3       1 LEU        -0.0425
     48 CD1        24.8060   55.5230   51.9630 C.3       1 LEU        -0.0625
     49 CD2        24.9140   57.9950   52.4240 C.3       1 LEU        -0.0625
     50 N          22.3220   59.6530   48.0240 N.am      1 ALA        -0.2640
     51 CA         21.9490   59.8260   46.6290 C.3       1 ALA         0.1284
     52 C          23.1970   59.8660   45.7530 C.2       1 ALA         0.2061
     53 O          24.2580   60.3060   46.2030 O.2       1 ALA        -0.3942
     54 CB         21.1410   61.1150   46.4510 C.3       1 ALA        -0.0244
     55 N          23.0930   59.4200   44.5000 N.am      1 PRO        -0.2498
     56 CA         24.2510   59.4690   43.6110 C.3       1 PRO         0.1339
     57 C          24.7460   60.8920   43.4600 C.2       1 PRO         0.2060
     58 O          23.9620   61.8540   43.5670 O.2       1 PRO        -0.3942
     59 CB         23.7040   58.9220   42.2860 C.3       1 PRO        -0.0104
     60 CG         22.2370   59.0900   42.3700 C.3       1 PRO        -0.0281
     61 CD         21.8990   58.8970   43.8230 C.3       1 PRO         0.0369
     62 N          26.0540   61.0810   43.2240 N.am      1 PRO        -0.2556
     63 CA         26.6130   62.4360   43.1510 C.3       1 PRO         0.0972
     64 C          26.3580   63.1050   41.8030 C.2       1 PRO         0.0603
     65 O          26.6740   64.2840   41.6130 O.co2     1 PRO        -0.5666
     66 CB         28.1090   62.2040   43.3740 C.3       1 PRO        -0.0159
     67 CG         28.3510   60.8510   42.7980 C.3       1 PRO        -0.0288
     68 CD         27.0880   60.0480   43.0290 C.3       1 PRO         0.0362
     69 OXT        25.8320   62.4770   40.8790 O.co2     1 PRO        -0.5666
     70 H1         14.4088   48.8611   53.5699 H         1 PHE         0.2017
     71 H2         14.2149   50.4735   53.8378 H         1 PHE         0.2017
     72 H3         13.1847   49.3940   54.5327 H         1 PHE         0.2017
     73 H4         14.8994   48.4672   55.8543 H         1 PHE         0.1122
     74 H5         17.0603   49.9380   55.8939 H         1 PHE         0.0507
     75 H6         16.5381   50.4543   54.2546 H         1 PHE         0.0507
     76 H7         16.8081   49.0255   52.3825 H         1 PHE         0.0557
     77 H8         17.5738   47.5249   56.3109 H         1 PHE         0.0557
     78 H9         17.8362   47.0102   51.4125 H         1 PHE         0.0599
     79 H10        18.5958   45.5050   55.3426 H         1 PHE         0.0599
     80 H11        18.7263   45.2418   52.8907 H         1 PHE         0.0559
     81 H12        12.7350   50.4954   55.8267 H         1 LYS         0.1884
     82 H13        11.8205   52.1334   57.1375 H         1 LYS         0.0797
     83 H14        12.3408   51.9812   59.5638 H         1 LYS         0.0277
     84 H15        13.7406   50.9195   59.1897 H         1 LYS         0.0277
     85 H16        12.0705   50.3637   58.8309 H         1 LYS         0.0277
     86 H17        14.4903   52.5767   59.2652 H         1 ASN         0.1883
     87 H18        14.9606   55.2739   58.1809 H         1 ASN         0.0797
     88 H19        16.3924   55.5739   60.1735 H         1 ASN         0.0277
     89 H20        16.1441   53.8485   60.6071 H         1 ASN         0.0277
     90 H21        14.7524   54.9841   60.6086 H         1 ASN         0.0277
     91 H22        15.6840   54.1966   56.1336 H         1 ALA         0.1883
     92 H23        18.5351   53.3878   56.2353 H         1 ALA         0.0797
     93 H24        18.3290   53.1033   53.7892 H         1 ALA         0.0277
     94 H25        16.6503   53.7389   53.8550 H         1 ALA         0.0277
     95 H26        17.0558   52.1879   54.6653 H         1 ALA         0.0277
     96 H27        19.6011   57.7107   55.8004 H         1 PRO         0.0802
     97 H28        21.7355   57.3704   56.6501 H         1 PRO         0.0313
     98 H29        22.2628   57.2169   54.9398 H         1 PRO         0.0313
     99 H30        22.5778   55.2195   56.7139 H         1 PRO         0.0287
    100 H31        22.1990   54.9097   54.9855 H         1 PRO         0.0287
    101 H32        20.4789   53.7114   55.9826 H         1 PRO         0.0524
    102 H33        20.3895   54.8152   57.3970 H         1 PRO         0.0524
    103 H34        19.7292   59.1492   54.1630 H         1 LEU         0.1883
    104 H35        19.3245   58.1883   51.4258 H         1 LEU         0.0800
    105 H36        19.8581   61.0636   52.0653 H         1 LEU         0.0315
    106 H37        18.3778   60.3107   52.7496 H         1 LEU         0.0315
    107 H38        17.2719   60.4823   50.8658 H         1 LEU         0.0298
    108 H39        17.9817   62.2714   49.2906 H         1 LEU         0.0232
    109 H40        19.6120   62.2608   50.0446 H         1 LEU         0.0232
    110 H41        18.1765   62.7331   51.0156 H         1 LEU         0.0232
    111 H42        18.4842   58.6102   49.8027 H         1 LEU         0.0232
    112 H43        19.6810   59.7788   49.1480 H         1 LEU         0.0232
    113 H44        17.9627   59.8691   48.6323 H         1 LEU         0.0232
    114 H45        21.0501   57.5337   50.2802 H         1 LEU         0.1883
    115 H46        23.4947   59.2555   50.3339 H         1 LEU         0.0800
    116 H47        24.8544   57.3047   49.8326 H         1 LEU         0.0315
    117 H48        23.3990   56.2524   49.8658 H         1 LEU         0.0315
    118 H49        23.1267   56.8228   52.2896 H         1 LEU         0.0298
    119 H50        24.9699   55.3320   53.0338 H         1 LEU         0.0232
    120 H51        25.7744   55.5431   51.4418 H         1 LEU         0.0232
    121 H52        24.1784   54.7247   51.5401 H         1 LEU         0.0232
    122 H53        24.3882   58.9509   52.2835 H         1 LEU         0.0232
    123 H54        25.9045   58.0481   51.9486 H         1 LEU         0.0232
    124 H55        25.0335   57.7969   53.4994 H         1 LEU         0.0232
    125 H56        22.2278   60.4161   48.6634 H         1 ALA         0.1883
    126 H57        21.3267   58.9729   46.3209 H         1 ALA         0.0797
    127 H58        20.8663   61.2323   45.3923 H         1 ALA         0.0277
    128 H59        21.7479   61.9752   46.7698 H         1 ALA         0.0277
    129 H60        20.2284   61.0632   47.0630 H         1 ALA         0.0277
    130 H61        25.0668   58.8356   43.9894 H         1 PRO         0.0802
    131 H62        23.9641   57.8594   42.1712 H         1 PRO         0.0313
    132 H63        24.1091   59.4924   41.4372 H         1 PRO         0.0313
    133 H64        21.7267   58.3364   41.7522 H         1 PRO         0.0287
    134 H65        21.9445   60.0966   42.0367 H         1 PRO         0.0287
    135 H66        21.0016   59.4689   44.1016 H         1 PRO         0.0524
    136 H67        21.7433   57.8335   44.0569 H         1 PRO         0.0524
    137 H68        26.1932   63.0682   43.9472 H         1 PRO         0.0728
    138 H69        28.3524   62.2220   44.4466 H         1 PRO         0.0306
    139 H70        28.7056   62.9650   42.8497 H         1 PRO         0.0306
    140 H71        29.2029   60.3711   43.3020 H         1 PRO         0.0286
    141 H72        28.5589   60.9291   41.7207 H         1 PRO         0.0286
    142 H73        26.8565   59.4198   42.1563 H         1 PRO         0.0524
    143 H74        27.1834   59.4136   43.9225 H         1 PRO         0.0524
@<TRIPOS>BOND
     1    1    2 1  
     2    2    3 1  
     3    2    5 1  
     4    3    4 2  
     5    3   12 am 
     6    5    6 1  
     7    6    7 ar 
     8    6    8 ar 
     9    7    9 ar 
    10    8   10 ar 
    11    9   11 ar 
    12   10   11 ar 
    13   12   13 1  
    14   13   14 1  
    15   13   16 1  
    16   14   15 2  
    17   14   17 am 
    18   17   18 1  
    19   18   19 1  
    20   18   21 1  
    21   19   20 2  
    22   19   22 am 
    23   22   23 1  
    24   23   24 1  
    25   23   26 1  
    26   24   25 2  
    27   24   27 am 
    28   27   28 1  
    29   27   33 1  
    30   28   29 1  
    31   28   31 1  
    32   29   30 2  
    33   29   34 am 
    34   31   32 1  
    35   32   33 1  
    36   34   35 1  
    37   35   36 1  
    38   35   38 1  
    39   36   37 2  
    40   36   42 am 
    41   38   39 1  
    42   39   40 1  
    43   39   41 1  
    44   42   43 1  
    45   43   44 1  
    46   43   46 1  
    47   44   45 2  
    48   44   50 am 
    49   46   47 1  
    50   47   48 1  
    51   47   49 1  
    52   50   51 1  
    53   51   52 1  
    54   51   54 1  
    55   52   53 2  
    56   52   55 am 
    57   55   56 1  
    58   55   61 1  
    59   56   57 1  
    60   56   59 1  
    61   57   58 2  
    62   57   62 am 
    63   59   60 1  
    64   60   61 1  
    65   62   63 1  
    66   62   68 1  
    67   63   64 1  
    68   63   66 1  
    69   64   65 ar 
    70   64   69 ar 
    71   66   67 1  
    72   67   68 1  
    73    1   70 1  
    74    1   71 1  
    75    1   72 1  
    76    2   73 1  
    77    5   74 1  
    78    5   75 1  
    79    7   76 1  
    80    8   77 1  
    81    9   78 1  
    82   10   79 1  
    83   11   80 1  
    84   12   81 1  
    85   13   82 1  
    86   16   83 1  
    87   16   84 1  
    88   16   85 1  
    89   17   86 1  
    90   18   87 1  
    91   21   88 1  
    92   21   89 1  
    93   21   90 1  
    94   22   91 1  
    95   23   92 1  
    96   26   93 1  
    97   26   94 1  
    98   26   95 1  
    99   28   96 1  
   100   31   97 1  
   101   31   98 1  
   102   32   99 1  
   103   32  100 1  
   104   33  101 1  
   105   33  102 1  
   106   34  103 1  
   107   35  104 1  
   108   38  105 1  
   109   38  106 1  
   110   39  107 1  
   111   40  108 1  
   112   40  109 1  
   113   40  110 1  
   114   41  111 1  
   115   41  112 1  
   116   41  113 1  
   117   42  114 1  
   118   43  115 1  
   119   46  116 1  
   120   46  117 1  
   121   47  118 1  
   122   48  119 1  
   123   48  120 1  
   124   48  121 1  
   125   49  122 1  
   126   49  123 1  
   127   49  124 1  
   128   50  125 1  
   129   51  126 1  
   130   54  127 1  
   131   54  128 1  
   132   54  129 1  
   133   56  130 1  
   134   59  131 1  
   135   59  132 1  
   136   60  133 1  
   137   60  134 1  
   138   61  135 1  
   139   61  136 1  
   140   63  137 1  
   141   66  138 1  
   142   66  139 1  
   143   67  140 1  
   144   67  141 1  
   145   68  142 1  
   146   68  143 1  
@<TRIPOS>SUBSTRUCTURE
     1 PHE         1

