6miy_ligand
  -I-interpret- 

172173  0  0  0  0  0  0  0  0999 V2000
  171.9180   28.9510  209.3030 C   0  0  0  0  0
  173.2170   28.6980  208.4880 C   0  0  0  0  0
  173.1320   29.4250  207.1490 C   0  0  0  0  0
  172.6950   30.8760  207.3120 C   0  0  0  0  0
  171.3930   30.9430  208.0650 C   0  0  0  0  0
  172.0040   28.5190  210.7790 C   0  0  0  0  0
  159.5390   35.0170  195.9120 C   0  0  0  0  0
  160.4350   33.7950  196.1560 C   0  0  0  0  0
  159.5910   32.5180  196.1330 C   0  0  0  0  0
  160.4910   31.2790  195.9890 C   0  0  0  0  0
  161.1370   30.9200  197.3320 C   0  0  0  0  0
  161.6220   29.4620  197.3260 C   0  0  0  0  0
  161.7690   28.9950  198.7790 C   0  0  0  0  0
  162.5750   27.6930  198.8530 C   0  0  0  0  0
  162.6100   27.1760  200.3030 C   0  0  0  0  0
  163.6310   27.9610  201.1510 C   0  0  0  0  0
  163.7770   27.2990  202.5350 C   0  0  0  0  0
  165.0160   27.8320  203.2820 C   0  0  0  0  0
  164.8230   29.3030  203.6720 C   0  0  0  0  0
  165.7080   29.6820  204.8740 C   0  0  0  0  0
  167.1990   29.7330  204.4930 C   0  0  0  0  0
  167.3890   30.4330  203.2540 O   0  0  0  0  0
  168.0280   30.4690  205.5650 C   0  0  0  0  0
  167.5120   31.7940  205.7390 O   0  0  0  0  0
  168.0440   29.7460  206.9260 C   0  0  0  0  0
  169.0490   30.4430  207.8500 C   0  0  0  0  0
  170.3690   30.2730  207.3070 O   0  0  0  0  0
  172.5130   31.4740  206.0160 O   0  0  0  0  0
  174.4100   29.4210  206.5260 O   0  0  0  0  0
  171.5980   30.3490  209.3510 O   0  0  0  0  0
  171.9760   27.0920  210.8950 O   0  0  0  0  0
  174.4100   29.1440  209.1640 O   0  0  0  0  0
  175.1010   28.1200  209.9200 C   0  0  0  0  0
  176.1180   27.4920  209.1850 C   0  0  0  0  0
  176.1650   26.0950  209.1000 C   0  0  0  0  0
  177.1820   25.4630  208.3810 C   0  0  0  0  0
  178.1620   26.2250  207.7480 C   0  0  0  0  0
  178.1230   27.6170  207.8350 C   0  0  0  0  0
  177.1070   28.2480  208.5540 C   0  0  0  0  0
  168.4690   28.3420  206.7720 N   0  0  0  0  0
  168.2220   27.4150  207.7170 C   0  0  0  0  0
  167.6310   27.6450  208.7720 O   0  0  0  0  0
  168.7430   26.0050  207.3940 C   0  0  0  0  0
  167.6800   24.9330  207.6570 C   0  0  0  0  0
  166.5760   24.9620  206.5920 C   0  0  0  0  0
  165.4410   24.0600  207.0870 C   0  0  0  0  0
  164.4870   23.6760  205.9560 C   0  0  0  0  0
  163.5620   22.5650  206.4760 C   0  0  0  0  0
  162.3200   22.4380  205.5870 C   0  0  0  0  0
  161.1670   21.7910  206.3730 C   0  0  0  0  0
  160.4480   22.8440  207.2370 C   0  0  0  0  0
  158.9380   22.5630  207.3380 C   0  0  0  0  0
  158.5920   21.8220  208.6380 C   0  0  0  0  0
  158.5510   22.7920  209.8280 C   0  0  0  0  0
  157.9340   22.0920  211.0510 C   0  0  0  0  0
  159.0170   21.3540  211.8440 C   0  0  0  0  0
  158.4430   20.0990  212.5120 C   0  0  0  0  0
  159.5950   19.2640  213.0770 C   0  0  0  0  0
  159.1050   17.8820  213.5140 C   0  0  0  0  0
  160.3160   16.9690  213.7550 C   0  0  0  0  0
  160.8470   16.3890  212.4290 C   0  0  0  0  0
  162.3550   16.6350  212.3080 C   0  0  0  0  0
  163.0350   15.6240  211.3670 C   0  0  0  0  0
  162.4950   15.6930  209.9330 C   0  0  0  0  0
  162.8550   17.0160  209.2630 C   0  0  0  0  0
  162.5970   16.8980  207.7570 C   0  0  0  0  0
  162.7580   18.2680  207.0880 C   0  0  0  0  0
  171.1693   28.3564  208.7797 H   0  0  0  0  0
  173.2900   27.6185  208.3563 H   0  0  0  0  0
  172.3921   28.9012  206.5438 H   0  0  0  0  0
  173.4645   31.4133  207.8663 H   0  0  0  0  0
  171.0630   31.9720  208.2077 H   0  0  0  0  0
  171.1498   28.9316  211.3158 H   0  0  0  0  0
  172.9404   28.8869  211.1984 H   0  0  0  0  0
  159.0547   34.9226  194.9401 H   0  0  0  0  0
  158.7809   35.0719  196.6933 H   0  0  0  0  0
  160.1473   35.9213  195.9299 H   0  0  0  0  0
  160.9165   33.8905  197.1292 H   0  0  0  0  0
  161.1908   33.7409  195.3724 H   0  0  0  0  0
  158.9085   32.5602  195.2842 H   0  0  0  0  0
  159.0348   32.4446  197.0675 H   0  0  0  0  0
  161.2776   31.4967  195.2665 H   0  0  0  0  0
  159.8829   30.4385  195.6545 H   0  0  0  0  0
  160.3979   31.0432  198.1236 H   0  0  0  0  0
  161.9914   31.5758  197.4996 H   0  0  0  0  0
  162.5806   29.3899  196.8122 H   0  0  0  0  0
  160.9029   28.8318  196.8026 H   0  0  0  0  0
  160.7766   28.8182  199.1936 H   0  0  0  0  0
  162.2929   29.7655  199.3447 H   0  0  0  0  0
  163.5939   27.8827  198.5155 H   0  0  0  0  0
  162.1043   26.9436  198.2166 H   0  0  0  0  0
  162.9023   26.1260  200.2908 H   0  0  0  0  0
  161.6208   27.3051  200.7422 H   0  0  0  0  0
  163.2834   28.9865  201.2764 H   0  0  0  0  0
  164.5970   27.9587  200.6462 H   0  0  0  0  0
  163.8914   26.2240  202.3955 H   0  0  0  0  0
  162.8900   27.5289  203.1253 H   0  0  0  0  0
  165.8836   27.7521  202.6271 H   0  0  0  0  0
  165.1614   27.2435  204.1879 H   0  0  0  0  0
  163.7793   29.4557  203.9469 H   0  0  0  0  0
  165.1031   29.9272  202.8235 H   0  0  0  0  0
  165.5778   28.9250  205.6474 H   0  0  0  0  0
  165.4091   30.6711  205.2211 H   0  0  0  0  0
  167.5304   28.6984  204.4046 H   0  0  0  0  0
  168.3243   30.4514  203.0383 H   0  0  0  0  0
  169.0570   30.4939  205.2062 H   0  0  0  0  0
  168.0281   32.2521  206.4064 H   0  0  0  0  0
  167.0366   29.7763  207.3412 H   0  0  0  0  0
  168.9998   30.0061  208.8474 H   0  0  0  0  0
  168.8119   31.5045  207.9214 H   0  0  0  0  0
  173.3390   31.4357  205.5283 H   0  0  0  0  0
  174.7066   28.5150  206.4126 H   0  0  0  0  0
  172.0306   26.8462  211.8214 H   0  0  0  0  0
  174.3706   27.3592  210.1953 H   0  0  0  0  0
  175.5615   28.5980  210.7847 H   0  0  0  0  0
  175.4024   25.4966  209.5985 H   0  0  0  0  0
  177.2091   24.3753  208.3151 H   0  0  0  0  0
  178.9571   25.7348  207.1862 H   0  0  0  0  0
  178.8889   28.2137  207.3396 H   0  0  0  0  0
  177.0857   29.3356  208.6231 H   0  0  0  0  0
  168.9647   28.0651  205.9246 H   0  0  0  0  0
  169.6014   25.8014  208.0342 H   0  0  0  0  0
  169.0101   25.9715  206.3378 H   0  0  0  0  0
  167.2269   25.1275  208.6291 H   0  0  0  0  0
  168.1613   23.9554  207.6286 H   0  0  0  0  0
  166.9579   24.6064  205.6350 H   0  0  0  0  0
  166.2173   25.9800  206.4401 H   0  0  0  0  0
  164.8750   24.6048  207.8426 H   0  0  0  0  0
  165.8797   23.1472  207.4901 H   0  0  0  0  0
  165.0491   23.3252  205.0905 H   0  0  0  0  0
  163.9009   24.5412  205.6461 H   0  0  0  0  0
  163.2472   22.8128  207.4897 H   0  0  0  0  0
  164.1038   21.6193  206.4635 H   0  0  0  0  0
  162.5598   21.8131  204.7267 H   0  0  0  0  0
  162.0140   23.4311  205.2580 H   0  0  0  0  0
  161.5720   21.0153  207.0229 H   0  0  0  0  0
  160.4537   21.3630  205.6686 H   0  0  0  0  0
  160.5852   23.8207  206.7730 H   0  0  0  0  0
  160.8712   22.8115  208.2410 H   0  0  0  0  0
  158.6449   21.9378  206.4946 H   0  0  0  0  0
  158.4073   23.5151  207.3303 H   0  0  0  0  0
  159.3571   21.0688  208.8262 H   0  0  0  0  0
  157.6105   21.3609  208.5279 H   0  0  0  0  0
  157.9446   23.6588  209.5653 H   0  0  0  0  0
  159.5655   23.1096  210.0687 H   0  0  0  0  0
  157.1894   21.3723  210.7109 H   0  0  0  0  0
  157.4708   22.8409  211.6934 H   0  0  0  0  0
  159.4011   22.0192  212.6173 H   0  0  0  0  0
  159.8116   21.0558  211.1601 H   0  0  0  0  0
  157.8893   19.5128  211.7786 H   0  0  0  0  0
  157.7683   20.3875  213.3180 H   0  0  0  0  0
  160.0090   19.7792  213.9438 H   0  0  0  0  0
  160.3504   19.1388  212.3012 H   0  0  0  0  0
  158.4743   17.4545  212.7346 H   0  0  0  0  0
  158.5271   17.9730  214.4337 H   0  0  0  0  0
  160.0084   16.1443  214.3979 H   0  0  0  0  0
  161.1078   17.5558  214.2207 H   0  0  0  0  0
  160.3386   16.8773  211.5977 H   0  0  0  0  0
  160.6584   15.3156  212.4089 H   0  0  0  0  0
  162.7970   16.5270  213.2985 H   0  0  0  0  0
  162.5040   17.6338  211.8977 H   0  0  0  0  0
  162.8364   14.6235  211.7513 H   0  0  0  0  0
  164.0988   15.8596  211.3355 H   0  0  0  0  0
  161.4089   15.6083  209.9686 H   0  0  0  0  0
  162.9402   14.8818  209.3569 H   0  0  0  0  0
  163.9063   17.2436  209.4394 H   0  0  0  0  0
  162.2444   17.8173  209.6792 H   0  0  0  0  0
  161.5815   16.5369  207.5945 H   0  0  0  0  0
  163.3146   16.2011  207.3239 H   0  0  0  0  0
  162.0438   18.9685  207.5208 H   0  0  0  0  0
  163.7718   18.6336  207.2510 H   0  0  0  0  0
  162.5725   18.1725  206.0182 H   0  0  0  0  0
  1  2  1  0  0  0
  1  6  1  0  0  0
 30  1  1  0  0  0
  3  2  1  0  0  0
  2 32  1  0  0  0
  4  3  1  0  0  0
  3 29  1  0  0  0
  5  4  1  0  0  0
  4 28  1  0  0  0
 27  5  1  0  0  0
  5 30  1  0  0  0
  6 31  1  0  0  0
  8  7  1  0  0  0
  9  8  1  0  0  0
 10  9  1  0  0  0
 11 10  1  0  0  0
 12 11  1  0  0  0
 13 12  1  0  0  0
 14 13  1  0  0  0
 15 14  1  0  0  0
 16 15  1  0  0  0
 17 16  1  0  0  0
 18 17  1  0  0  0
 19 18  1  0  0  0
 20 19  1  0  0  0
 21 20  1  0  0  0
 21 22  1  0  0  0
 23 21  1  0  0  0
 23 24  1  0  0  0
 25 23  1  0  0  0
 26 25  1  0  0  0
 25 40  1  0  0  0
 26 27  1  0  0  0
 32 33  1  0  0  0
 33 34  1  0  0  0
 34 35  4  0  0  0
 34 39  4  0  0  0
 35 36  4  0  0  0
 36 37  4  0  0  0
 37 38  4  0  0  0
 38 39  4  0  0  0
 40 41  1  0  0  0
 41 42  2  0  0  0
 41 43  1  0  0  0
 43 44  1  0  0  0
 44 45  1  0  0  0
 45 46  1  0  0  0
 46 47  1  0  0  0
 47 48  1  0  0  0
 48 49  1  0  0  0
 49 50  1  0  0  0
 50 51  1  0  0  0
 51 52  1  0  0  0
 52 53  1  0  0  0
 53 54  1  0  0  0
 54 55  1  0  0  0
 55 56  1  0  0  0
 56 57  1  0  0  0
 57 58  1  0  0  0
 58 59  1  0  0  0
 59 60  1  0  0  0
 60 61  1  0  0  0
 61 62  1  0  0  0
 62 63  1  0  0  0
 63 64  1  0  0  0
 64 65  1  0  0  0
 65 66  1  0  0  0
 66 67  1  0  0  0
  1 68  1  0  0  0
  2 69  1  0  0  0
  3 70  1  0  0  0
  4 71  1  0  0  0
  5 72  1  0  0  0
  6 73  1  0  0  0
  6 74  1  0  0  0
  7 75  1  0  0  0
  7 76  1  0  0  0
  7 77  1  0  0  0
  8 78  1  0  0  0
  8 79  1  0  0  0
  9 80  1  0  0  0
  9 81  1  0  0  0
 10 82  1  0  0  0
 10 83  1  0  0  0
 11 84  1  0  0  0
 11 85  1  0  0  0
 12 86  1  0  0  0
 12 87  1  0  0  0
 13 88  1  0  0  0
 13 89  1  0  0  0
 14 90  1  0  0  0
 14 91  1  0  0  0
 15 92  1  0  0  0
 15 93  1  0  0  0
 16 94  1  0  0  0
 16 95  1  0  0  0
 17 96  1  0  0  0
 17 97  1  0  0  0
 18 98  1  0  0  0
 18 99  1  0  0  0
 19100  1  0  0  0
 19101  1  0  0  0
 20102  1  0  0  0
 20103  1  0  0  0
 21104  1  0  0  0
 22105  1  0  0  0
 23106  1  0  0  0
 24107  1  0  0  0
 25108  1  0  0  0
 26109  1  0  0  0
 26110  1  0  0  0
 28111  1  0  0  0
 29112  1  0  0  0
 31113  1  0  0  0
 33114  1  0  0  0
 33115  1  0  0  0
 35116  1  0  0  0
 36117  1  0  0  0
 37118  1  0  0  0
 38119  1  0  0  0
 39120  1  0  0  0
 40121  1  0  0  0
 43122  1  0  0  0
 43123  1  0  0  0
 44124  1  0  0  0
 44125  1  0  0  0
 45126  1  0  0  0
 45127  1  0  0  0
 46128  1  0  0  0
 46129  1  0  0  0
 47130  1  0  0  0
 47131  1  0  0  0
 48132  1  0  0  0
 48133  1  0  0  0
 49134  1  0  0  0
 49135  1  0  0  0
 50136  1  0  0  0
 50137  1  0  0  0
 51138  1  0  0  0
 51139  1  0  0  0
 52140  1  0  0  0
 52141  1  0  0  0
 53142  1  0  0  0
 53143  1  0  0  0
 54144  1  0  0  0
 54145  1  0  0  0
 55146  1  0  0  0
 55147  1  0  0  0
 56148  1  0  0  0
 56149  1  0  0  0
 57150  1  0  0  0
 57151  1  0  0  0
 58152  1  0  0  0
 58153  1  0  0  0
 59154  1  0  0  0
 59155  1  0  0  0
 60156  1  0  0  0
 60157  1  0  0  0
 61158  1  0  0  0
 61159  1  0  0  0
 62160  1  0  0  0
 62161  1  0  0  0
 63162  1  0  0  0
 63163  1  0  0  0
 64164  1  0  0  0
 64165  1  0  0  0
 65166  1  0  0  0
 65167  1  0  0  0
 66168  1  0  0  0
 66169  1  0  0  0
 67170  1  0  0  0
 67171  1  0  0  0
 67172  1  0  0  0
M  END
$$$$
