### 
### Created by X-TOOL on Mon Aug  2 16:14:50 2021
### 

@<TRIPOS>MOLECULE
6miy_ligand
  172   173     1     0     0
SMALL
GAST_HUCK


@<TRIPOS>ATOM
      1 C3        171.9180   28.9510  209.3030 C.3       1 JTV         0.1135
      2 C4        173.2170   28.6980  208.4880 C.3       1 JTV         0.1179
      3 C5        173.1320   29.4250  207.1490 C.3       1 JTV         0.1145
      4 C6        172.6950   30.8760  207.3120 C.3       1 JTV         0.1341
      5 C1        171.3930   30.9430  208.0650 C.3       1 JTV         0.1880
      6 C2        172.0040   28.5190  210.7790 C.3       1 JTV         0.0730
      7 CBT       159.5390   35.0170  195.9120 C.3       1 JTV        -0.0653
      8 CBS       160.4350   33.7950  196.1560 C.3       1 JTV        -0.0559
      9 CBR       159.5910   32.5180  196.1330 C.3       1 JTV        -0.0533
     10 CBQ       160.4910   31.2790  195.9890 C.3       1 JTV        -0.0531
     11 CBP       161.1370   30.9200  197.3320 C.3       1 JTV        -0.0531
     12 CBO       161.6220   29.4620  197.3260 C.3       1 JTV        -0.0531
     13 CBN       161.7690   28.9950  198.7790 C.3       1 JTV        -0.0531
     14 CBM       162.5750   27.6930  198.8530 C.3       1 JTV        -0.0531
     15 CBL       162.6100   27.1760  200.3030 C.3       1 JTV        -0.0531
     16 CBK       163.6310   27.9610  201.1510 C.3       1 JTV        -0.0531
     17 CBJ       163.7770   27.2990  202.5350 C.3       1 JTV        -0.0531
     18 CBI       165.0160   27.8320  203.2820 C.3       1 JTV        -0.0530
     19 CBH       164.8230   29.3030  203.6720 C.3       1 JTV        -0.0506
     20 CBG       165.7080   29.6820  204.8740 C.3       1 JTV        -0.0243
     21 CAQ       167.1990   29.7330  204.4930 C.3       1 JTV         0.0833
     22 OAR       167.3890   30.4330  203.2540 O.3       1 JTV        -0.3892
     23 CAP       168.0280   30.4690  205.5650 C.3       1 JTV         0.1059
     24 OAS       167.5120   31.7940  205.7390 O.3       1 JTV        -0.3869
     25 CAN       168.0440   29.7460  206.9260 C.3       1 JTV         0.0936
     26 CAM       169.0490   30.4430  207.8500 C.3       1 JTV         0.0762
     27 O1        170.3690   30.2730  207.3070 O.3       1 JTV        -0.3463
     28 O5        172.5130   31.4740  206.0160 O.3       1 JTV        -0.3841
     29 O3        174.4100   29.4210  206.5260 O.3       1 JTV        -0.3864
     30 O2        171.5980   30.3490  209.3510 O.3       1 JTV        -0.3405
     31 O6        171.9760   27.0920  210.8950 O.3       1 JTV        -0.3924
     32 O4        174.4100   29.1440  209.1640 O.3       1 JTV        -0.3588
     33 CAT       175.1010   28.1200  209.9200 C.3       1 JTV         0.0822
     34 CAU       176.1180   27.4920  209.1850 C.ar      1 JTV        -0.0175
     35 CAV       176.1650   26.0950  209.1000 C.ar      1 JTV        -0.0581
     36 CAW       177.1820   25.4630  208.3810 C.ar      1 JTV        -0.0685
     37 CAX       178.1620   26.2250  207.7480 C.ar      1 JTV        -0.0687
     38 CAY       178.1230   27.6170  207.8350 C.ar      1 JTV        -0.0685
     39 CAZ       177.1070   28.2480  208.5540 C.ar      1 JTV        -0.0581
     40 NAO       168.4690   28.3420  206.7720 N.am      1 JTV        -0.2791
     41 CBE       168.2220   27.4150  207.7170 C.2       1 JTV         0.1764
     42 OBF       167.6310   27.6450  208.7720 O.2       1 JTV        -0.3971
     43 CBU       168.7430   26.0050  207.3940 C.3       1 JTV         0.0372
     44 CBV       167.6800   24.9330  207.6570 C.3       1 JTV        -0.0361
     45 CBW       166.5760   24.9620  206.5920 C.3       1 JTV        -0.0510
     46 CBX       165.4410   24.0600  207.0870 C.3       1 JTV        -0.0529
     47 CBY       164.4870   23.6760  205.9560 C.3       1 JTV        -0.0531
     48 CBZ       163.5620   22.5650  206.4760 C.3       1 JTV        -0.0531
     49 CCA       162.3200   22.4380  205.5870 C.3       1 JTV        -0.0531
     50 CCB       161.1670   21.7910  206.3730 C.3       1 JTV        -0.0531
     51 CCC       160.4480   22.8440  207.2370 C.3       1 JTV        -0.0531
     52 CCD       158.9380   22.5630  207.3380 C.3       1 JTV        -0.0531
     53 CCE       158.5920   21.8220  208.6380 C.3       1 JTV        -0.0531
     54 CCF       158.5510   22.7920  209.8280 C.3       1 JTV        -0.0531
     55 CCG       157.9340   22.0920  211.0510 C.3       1 JTV        -0.0531
     56 CCH       159.0170   21.3540  211.8440 C.3       1 JTV        -0.0531
     57 CCI       158.4430   20.0990  212.5120 C.3       1 JTV        -0.0531
     58 CCJ       159.5950   19.2640  213.0770 C.3       1 JTV        -0.0531
     59 CCK       159.1050   17.8820  213.5140 C.3       1 JTV        -0.0531
     60 CCL       160.3160   16.9690  213.7550 C.3       1 JTV        -0.0531
     61 CCM       160.8470   16.3890  212.4290 C.3       1 JTV        -0.0531
     62 CCN       162.3550   16.6350  212.3080 C.3       1 JTV        -0.0531
     63 CCO       163.0350   15.6240  211.3670 C.3       1 JTV        -0.0531
     64 CCP       162.4950   15.6930  209.9330 C.3       1 JTV        -0.0531
     65 CCQ       162.8550   17.0160  209.2630 C.3       1 JTV        -0.0533
     66 CCR       162.5970   16.8980  207.7570 C.3       1 JTV        -0.0559
     67 CCS       162.7580   18.2680  207.0880 C.3       1 JTV        -0.0653
     68 H1        171.1010   28.4002  208.8140 H         1 JTV         0.0647
     69 H2        173.3030   27.6164  208.3074 H         1 JTV         0.0652
     70 H3        172.4076   28.9016  206.5077 H         1 JTV         0.0648
     71 H4        173.4678   31.4282  207.8668 H         1 JTV         0.0671
     72 H5        171.0994   31.9944  208.2003 H         1 JTV         0.0937
     73 H6        171.1502   28.9420  211.3287 H         1 JTV         0.0584
     74 H7        172.9421   28.8973  211.2112 H         1 JTV         0.0584
     75 H8        160.1518   35.9303  195.9299 H         1 JTV         0.0230
     76 H9        158.7735   35.0736  196.6999 H         1 JTV         0.0230
     77 H10       159.0496   34.9229  194.9314 H         1 JTV         0.0230
     78 H11       160.9243   33.8913  197.1364 H         1 JTV         0.0263
     79 H12       161.2005   33.7406  195.3679 H         1 JTV         0.0263
     80 H13       158.8944   32.5599  195.2828 H         1 JTV         0.0265
     81 H14       159.0209   32.4441  197.0708 H         1 JTV         0.0265
     82 H15       161.2810   31.4900  195.2532 H         1 JTV         0.0265
     83 H16       159.8839   30.4299  195.6419 H         1 JTV         0.0265
     84 H17       160.3975   31.0517  198.1356 H         1 JTV         0.0265
     85 H18       161.9945   31.5855  197.5101 H         1 JTV         0.0265
     86 H19       162.5935   29.3957  196.8144 H         1 JTV         0.0265
     87 H20       160.8891   28.8288  196.8046 H         1 JTV         0.0265
     88 H21       160.7697   28.8253  199.2062 H         1 JTV         0.0265
     89 H22       162.2877   29.7737  199.3574 H         1 JTV         0.0265
     90 H23       163.6026   27.8808  198.5085 H         1 JTV         0.0265
     91 H24       162.1045   26.9363  198.2079 H         1 JTV         0.0265
     92 H25       162.8903   26.1123  200.2979 H         1 JTV         0.0265
     93 H26       161.6108   27.2897  200.7486 H         1 JTV         0.0265
     94 H27       163.2824   28.9967  201.2764 H         1 JTV         0.0265
     95 H28       164.6059   27.9613  200.6415 H         1 JTV         0.0265
     96 H29       163.8781   26.2116  202.4034 H         1 JTV         0.0265
     97 H30       162.8785   27.5142  203.1319 H         1 JTV         0.0265
     98 H31       165.8968   27.7442  202.6290 H         1 JTV         0.0265
     99 H32       165.1734   27.2348  204.1923 H         1 JTV         0.0265
    100 H33       163.7683   29.4684  203.9369 H         1 JTV         0.0266
    101 H34       165.0900   29.9392  202.8153 H         1 JTV         0.0266
    102 H35       165.5690   28.9339  205.6684 H         1 JTV         0.0291
    103 H36       165.4011   30.6713  205.2442 H         1 JTV         0.0291
    104 H37       167.5698   28.7025  204.3907 H         1 JTV         0.0620
    105 H38       167.0654   31.3219  203.3409 H         1 JTV         0.2099
    106 H39       169.0650   30.5374  205.2044 H         1 JTV         0.0643
    107 H40       167.5674   32.2649  204.9157 H         1 JTV         0.2100
    108 H41       167.0381   29.7807  207.3697 H         1 JTV         0.0605
    109 H42       169.0012   29.9954  208.8537 H         1 JTV         0.0585
    110 H43       168.8107   31.5149  207.9148 H         1 JTV         0.0585
    111 H44       171.8412   30.9992  205.5409 H         1 JTV         0.2101
    112 H45       174.3488   29.8438  205.6776 H         1 JTV         0.2100
    113 H46       172.0300   26.8488  211.8118 H         1 JTV         0.2095
    114 H47       174.3700   27.3585  210.2293 H         1 JTV         0.0724
    115 H48       175.5476   28.5834  210.8121 H         1 JTV         0.0724
    116 H49       175.4066   25.4999  209.5958 H         1 JTV         0.0557
    117 H50       177.2089   24.3813  208.3155 H         1 JTV         0.0599
    118 H51       178.9528   25.7375  207.1893 H         1 JTV         0.0559
    119 H52       178.8847   28.2104  207.3423 H         1 JTV         0.0599
    120 H53       177.0859   29.3296  208.6227 H         1 JTV         0.0557
    121 H54       168.9549   28.0705  205.9412 H         1 JTV         0.1856
    122 H55       169.6216   25.7972  208.0223 H         1 JTV         0.0502
    123 H56       169.0331   25.9665  206.3336 H         1 JTV         0.0502
    124 H57       167.2289   25.1116  208.6442 H         1 JTV         0.0290
    125 H58       168.1603   23.9434  207.6469 H         1 JTV         0.0290
    126 H59       166.9662   24.5850  205.6351 H         1 JTV         0.0267
    127 H60       166.2086   25.9902  206.4587 H         1 JTV         0.0267
    128 H61       164.8749   24.5941  207.8644 H         1 JTV         0.0265
    129 H62       165.8747   23.1435  207.5136 H         1 JTV         0.0265
    130 H63       165.0603   23.3108  205.0911 H         1 JTV         0.0265
    131 H64       163.8899   24.5503  205.6575 H         1 JTV         0.0265
    132 H65       163.2488   22.8061  207.5025 H         1 JTV         0.0265
    133 H66       164.1074   21.6098  206.4738 H         1 JTV         0.0265
    134 H67       162.5603   21.8129  204.7144 H         1 JTV         0.0265
    135 H68       162.0121   23.4382  205.2480 H         1 JTV         0.0265
    136 H69       161.5706   21.0020  207.0246 H         1 JTV         0.0265
    137 H70       160.4486   21.3508  205.6659 H         1 JTV         0.0265
    138 H71       160.5965   23.8365  206.7865 H         1 JTV         0.0265
    139 H72       160.8812   22.8317  208.2480 H         1 JTV         0.0265
    140 H73       158.6307   21.9453  206.4813 H         1 JTV         0.0265
    141 H74       158.3937   23.5186  207.3150 H         1 JTV         0.0265
    142 H75       159.3543   21.0519  208.8274 H         1 JTV         0.0265
    143 H76       157.6072   21.3442  208.5289 H         1 JTV         0.0265
    144 H77       157.9417   23.6688  209.5634 H         1 JTV         0.0265
    145 H78       159.5739   23.1159  210.0704 H         1 JTV         0.0265
    146 H79       157.1769   21.3696  210.7120 H         1 JTV         0.0265
    147 H80       157.4593   22.8441  211.6984 H         1 JTV         0.0265
    148 H81       159.4163   22.0245  212.6192 H         1 JTV         0.0265
    149 H82       159.8272   21.0601  211.1605 H         1 JTV         0.0265
    150 H83       157.8881   19.5069  211.7694 H         1 JTV         0.0265
    151 H84       157.7656   20.3923  213.3275 H         1 JTV         0.0265
    152 H85       160.0251   19.7847  213.9453 H         1 JTV         0.0265
    153 H86       160.3666   19.1440  212.3022 H         1 JTV         0.0265
    154 H87       158.4703   17.4506  212.7259 H         1 JTV         0.0265
    155 H88       158.5237   17.9747  214.4432 H         1 JTV         0.0265
    156 H89       160.0162   16.1413  214.4145 H         1 JTV         0.0265
    157 H90       161.1146   17.5515  214.2375 H         1 JTV         0.0265
    158 H91       160.3313   16.8751  211.5877 H         1 JTV         0.0265
    159 H92       160.6525   15.3067  212.4024 H         1 JTV         0.0265
    160 H93       162.8090   16.5506  213.3064 H         1 JTV         0.0265
    161 H94       162.5182   17.6495  211.9155 H         1 JTV         0.0265
    162 H95       162.8654   14.6100  211.7583 H         1 JTV         0.0265
    163 H96       164.1147   15.8334  211.3467 H         1 JTV         0.0265
    164 H97       161.4000   15.5914  209.9581 H         1 JTV         0.0265
    165 H98       162.9266   14.8672  209.3484 H         1 JTV         0.0265
    166 H99       163.9172   17.2416  209.4388 H         1 JTV         0.0265
    167 H100      162.2347   17.8223  209.6815 H         1 JTV         0.0265
    168 H101      161.5741   16.5294  207.5905 H         1 JTV         0.0263
    169 H102      163.3172   16.1917  207.3184 H         1 JTV         0.0263
    170 H103      162.5710   18.1730  206.0082 H         1 JTV         0.0230
    171 H104      163.7808   18.6381  207.2518 H         1 JTV         0.0230
    172 H105      162.0377   18.9759  207.5239 H         1 JTV         0.0230
@<TRIPOS>BOND
     1    1    2 1  
     2    1    6 1  
     3   30    1 1  
     4    3    2 1  
     5    2   32 1  
     6    4    3 1  
     7    3   29 1  
     8    5    4 1  
     9    4   28 1  
    10   27    5 1  
    11    5   30 1  
    12    6   31 1  
    13    8    7 1  
    14    9    8 1  
    15   10    9 1  
    16   11   10 1  
    17   12   11 1  
    18   13   12 1  
    19   14   13 1  
    20   15   14 1  
    21   16   15 1  
    22   17   16 1  
    23   18   17 1  
    24   19   18 1  
    25   20   19 1  
    26   21   20 1  
    27   21   22 1  
    28   23   21 1  
    29   23   24 1  
    30   25   23 1  
    31   26   25 1  
    32   25   40 1  
    33   26   27 1  
    34   32   33 1  
    35   33   34 1  
    36   34   35 ar 
    37   34   39 ar 
    38   35   36 ar 
    39   36   37 ar 
    40   37   38 ar 
    41   38   39 ar 
    42   40   41 am 
    43   41   42 2  
    44   41   43 1  
    45   43   44 1  
    46   44   45 1  
    47   45   46 1  
    48   46   47 1  
    49   47   48 1  
    50   48   49 1  
    51   49   50 1  
    52   50   51 1  
    53   51   52 1  
    54   52   53 1  
    55   53   54 1  
    56   54   55 1  
    57   55   56 1  
    58   56   57 1  
    59   57   58 1  
    60   58   59 1  
    61   59   60 1  
    62   60   61 1  
    63   61   62 1  
    64   62   63 1  
    65   63   64 1  
    66   64   65 1  
    67   65   66 1  
    68   66   67 1  
    69    1   68 1  
    70    2   69 1  
    71    3   70 1  
    72    4   71 1  
    73    5   72 1  
    74    6   73 1  
    75    6   74 1  
    76    7   75 1  
    77    7   76 1  
    78    7   77 1  
    79    8   78 1  
    80    8   79 1  
    81    9   80 1  
    82    9   81 1  
    83   10   82 1  
    84   10   83 1  
    85   11   84 1  
    86   11   85 1  
    87   12   86 1  
    88   12   87 1  
    89   13   88 1  
    90   13   89 1  
    91   14   90 1  
    92   14   91 1  
    93   15   92 1  
    94   15   93 1  
    95   16   94 1  
    96   16   95 1  
    97   17   96 1  
    98   17   97 1  
    99   18   98 1  
   100   18   99 1  
   101   19  100 1  
   102   19  101 1  
   103   20  102 1  
   104   20  103 1  
   105   21  104 1  
   106   22  105 1  
   107   23  106 1  
   108   24  107 1  
   109   25  108 1  
   110   26  109 1  
   111   26  110 1  
   112   28  111 1  
   113   29  112 1  
   114   31  113 1  
   115   33  114 1  
   116   33  115 1  
   117   35  116 1  
   118   36  117 1  
   119   37  118 1  
   120   38  119 1  
   121   39  120 1  
   122   40  121 1  
   123   43  122 1  
   124   43  123 1  
   125   44  124 1  
   126   44  125 1  
   127   45  126 1  
   128   45  127 1  
   129   46  128 1  
   130   46  129 1  
   131   47  130 1  
   132   47  131 1  
   133   48  132 1  
   134   48  133 1  
   135   49  134 1  
   136   49  135 1  
   137   50  136 1  
   138   50  137 1  
   139   51  138 1  
   140   51  139 1  
   141   52  140 1  
   142   52  141 1  
   143   53  142 1  
   144   53  143 1  
   145   54  144 1  
   146   54  145 1  
   147   55  146 1  
   148   55  147 1  
   149   56  148 1  
   150   56  149 1  
   151   57  150 1  
   152   57  151 1  
   153   58  152 1  
   154   58  153 1  
   155   59  154 1  
   156   59  155 1  
   157   60  156 1  
   158   60  157 1  
   159   61  158 1  
   160   61  159 1  
   161   62  160 1  
   162   62  161 1  
   163   63  162 1  
   164   63  163 1  
   165   64  164 1  
   166   64  165 1  
   167   65  166 1  
   168   65  167 1  
   169   66  168 1  
   170   66  169 1  
   171   67  170 1  
   172   67  171 1  
   173   67  172 1  
@<TRIPOS>SUBSTRUCTURE
     1 JTV         1

