1mfi_ligand
  -I-interpret- 

 20 20  0  0  0  0  0  0  0  0999 V2000
   -5.7790   12.8310   -3.4600 C   0  0  0  0  0
   -6.3270   11.7680   -4.3150 C   0  0  0  0  0
   -5.8020   10.5790   -4.6410 C   0  0  0  0  0
   -4.4330   10.1460   -4.3210 C   0  0  0  0  0
   -4.3300    8.8990   -4.0560 O   0  0  0  0  0
   -3.4890   10.9710   -4.4260 O   0  0  0  0  0
   -4.6470   12.6650   -2.6530 C   0  0  0  0  0
   -4.2200   13.7210   -1.8080 C   0  0  0  0  0
   -4.9750   14.9330   -1.7730 C   0  0  0  0  0
   -4.6130   15.9730   -0.9510 O   0  0  0  0  0
   -6.0590   15.1180   -2.6040 C   0  0  0  0  0
   -6.4580   14.0670   -3.4230 C   0  0  0  0  0
   -6.5830    9.7240   -5.4240 F   0  0  0  0  0
   -7.3051   11.9781   -4.7478 H   0  0  0  0  0
   -5.2048    8.5041   -4.0351 H   0  0  0  0  0
   -4.0947   11.7255   -2.6741 H   0  0  0  0  0
   -3.3270   13.6091   -1.1931 H   0  0  0  0  0
   -5.2327   16.6978   -1.0620 H   0  0  0  0  0
   -6.5926   16.0684   -2.6190 H   0  0  0  0  0
   -7.3304   14.2039   -4.0619 H   0  0  0  0  0
  3 13  1  0  0  0
  1 12  4  0  0  0
  1  7  4  0  0  0
  2  1  1  0  0  0
  2  3  2  0  0  0
  3  4  1  0  0  0
  4  6  2  0  0  0
  4  5  1  0  0  0
  7  8  4  0  0  0
  8  9  4  0  0  0
  9 11  4  0  0  0
  9 10  1  0  0  0
 11 12  4  0  0  0
  2 14  1  0  0  0
  5 15  1  0  0  0
  7 16  1  0  0  0
  8 17  1  0  0  0
 10 18  1  0  0  0
 11 19  1  0  0  0
 12 20  1  0  0  0
M  END
$$$$
