2anl_ligand
  -I-interpret- 

 78 81  0  0  0  0  0  0  0  0999 V2000
   56.4850   14.6610   30.6000 C   0  0  0  0  0
   56.9170   14.0180   31.7500 O   0  0  0  0  0
   55.8570   15.8810   30.8120 C   0  0  0  0  0
   55.3720   16.5520   29.7190 C   0  0  0  0  0
   55.5190   16.0130   28.4350 C   0  0  0  0  0
   56.1350   14.8000   28.2100 C   0  0  0  0  0
   56.6210   14.1340   29.2950 C   0  0  0  0  0
   57.2770   12.8220   29.0630 C   0  0  0  0  0
   56.2460   14.2830   26.8010 C   0  0  0  0  0
   56.3670   12.9890   26.5280 O   0  0  0  0  0
   56.2370   15.0980   25.8380 N   0  0  0  0  0
   56.3340   14.6570   24.4560 C   0  0  0  0  0
   55.5220   15.6880   23.7060 C   0  0  0  0  0
   54.2110   15.8740   24.4290 C   0  0  0  0  0
   53.2900   14.8390   24.4640 C   0  0  0  0  0
   52.0780   15.0150   25.1010 C   0  0  0  0  0
   51.7990   16.2190   25.7170 C   0  0  0  0  0
   52.7020   17.2450   25.6710 C   0  0  0  0  0
   53.9170   17.0770   25.0340 C   0  0  0  0  0
   57.7680   14.6760   23.9660 C   0  0  0  0  0
   58.2030   16.0020   23.7760 O   0  0  0  0  0
   57.7820   14.0300   22.6320 C   0  0  0  0  0
   57.8490   14.7400   21.6770 O   0  0  0  0  0
   57.6640   12.7040   22.5670 N   0  0  0  0  0
   57.5850   11.8250   23.7420 C   0  0  0  0  0
   58.3950   10.3740   23.2090 S   0  0  0  0  0
   57.6250   10.4020   21.6700 C   0  0  0  0  0
   58.4600    9.6510   20.6490 C   0  0  0  0  0
   56.2720    9.7310   22.0100 C   0  0  0  0  0
   57.6790   11.9090   21.3180 C   0  0  0  0  0
   56.5810   12.1650   20.3140 C   0  0  0  0  0
   56.9210   12.2660   19.1180 O   0  0  0  0  0
   55.3000   12.1660   20.7780 N   0  0  0  0  0
   54.1690   12.1710   19.8670 C   0  0  0  0  0
   52.9460   12.6150   20.6230 C   0  0  0  0  0
   52.3390   13.8790   20.4820 C   0  0  0  0  0
   51.2040   14.2260   21.2090 C   0  0  0  0  0
   50.6750   13.3150   22.0940 C   0  0  0  0  0
   51.2570   12.0510   22.2290 C   0  0  0  0  0
   52.3970   11.7040   21.5050 C   0  0  0  0  0
   52.8820   14.9250   19.5330 C   0  0  0  0  0
   57.3368   13.1879   31.5126 H   0  0  0  0  0
   55.7528   16.2925   31.8159 H   0  0  0  0  0
   54.8693   17.5102   29.8503 H   0  0  0  0  0
   55.1327   16.5723   27.5829 H   0  0  0  0  0
   58.3030   12.8604   29.4291 H   0  0  0  0  0
   56.7290   12.0441   29.5947 H   0  0  0  0  0
   57.2788   12.6019   27.9955 H   0  0  0  0  0
   56.1594   16.0958   26.0348 H   0  0  0  0  0
   55.9830   13.6338   24.3216 H   0  0  0  0  0
   55.3420   15.3521   22.6848 H   0  0  0  0  0
   56.0637   16.6329   23.6640 H   0  0  0  0  0
   53.5226   13.8861   23.9886 H   0  0  0  0  0
   51.3453   14.2081   25.1176 H   0  0  0  0  0
   50.8536   16.3524   26.2429 H   0  0  0  0  0
   52.4624   18.1998   26.1389 H   0  0  0  0  0
   54.6398   17.8926   25.0102 H   0  0  0  0  0
   58.4080   14.1734   24.6912 H   0  0  0  0  0
   59.1116   15.9982   23.4660 H   0  0  0  0  0
   56.5592   11.6410   24.0614 H   0  0  0  0  0
   58.0463   12.2633   24.6270 H   0  0  0  0  0
   59.4397   10.1216   20.5659 H   0  0  0  0  0
   58.5787    8.6159   20.9692 H   0  0  0  0  0
   57.9592    9.6781   19.6812 H   0  0  0  0  0
   56.4520    8.7255   22.3904 H   0  0  0  0  0
   55.7558   10.3205   22.7677 H   0  0  0  0  0
   55.6589    9.6762   21.1105 H   0  0  0  0  0
   58.6017   12.2276   20.8331 H   0  0  0  0  0
   55.1322   12.1632   21.7841 H   0  0  0  0  0
   54.0130   11.1706   19.4633 H   0  0  0  0  0
   54.3620   12.8535   19.0394 H   0  0  0  0  0
   50.7414   15.2044   21.0792 H   0  0  0  0  0
   49.8016   13.5789   22.6903 H   0  0  0  0  0
   50.8128   11.3257   22.9107 H   0  0  0  0  0
   52.8516   10.7217   21.6338 H   0  0  0  0  0
   53.9048   15.1743   19.8157 H   0  0  0  0  0
   52.8701   14.5324   18.5162 H   0  0  0  0  0
   52.2609   15.8192   19.5859 H   0  0  0  0  0
  1  2  1  0  0  0
  1  3  4  0  0  0
  1  7  4  0  0  0
  3  4  4  0  0  0
  4  5  4  0  0  0
  5  6  4  0  0  0
  6  7  4  0  0  0
  6  9  1  0  0  0
  7  8  1  0  0  0
  9 10  2  0  0  0
  9 11  1  0  0  0
 11 12  1  0  0  0
 12 13  1  0  0  0
 12 20  1  0  0  0
 13 14  1  0  0  0
 14 15  4  0  0  0
 14 19  4  0  0  0
 15 16  4  0  0  0
 16 17  4  0  0  0
 17 18  4  0  0  0
 18 19  4  0  0  0
 20 21  1  0  0  0
 20 22  1  0  0  0
 22 23  2  0  0  0
 22 24  1  0  0  0
 24 25  1  0  0  0
 24 30  1  0  0  0
 25 26  1  0  0  0
 26 27  1  0  0  0
 27 28  1  0  0  0
 27 29  1  0  0  0
 27 30  1  0  0  0
 30 31  1  0  0  0
 31 32  2  0  0  0
 31 33  1  0  0  0
 33 34  1  0  0  0
 34 35  1  0  0  0
 35 36  4  0  0  0
 35 40  4  0  0  0
 36 37  4  0  0  0
 36 41  1  0  0  0
 37 38  4  0  0  0
 38 39  4  0  0  0
 39 40  4  0  0  0
  2 42  1  0  0  0
  3 43  1  0  0  0
  4 44  1  0  0  0
  5 45  1  0  0  0
  8 46  1  0  0  0
  8 47  1  0  0  0
  8 48  1  0  0  0
 11 49  1  0  0  0
 12 50  1  0  0  0
 13 51  1  0  0  0
 13 52  1  0  0  0
 15 53  1  0  0  0
 16 54  1  0  0  0
 17 55  1  0  0  0
 18 56  1  0  0  0
 19 57  1  0  0  0
 20 58  1  0  0  0
 21 59  1  0  0  0
 25 60  1  0  0  0
 25 61  1  0  0  0
 28 62  1  0  0  0
 28 63  1  0  0  0
 28 64  1  0  0  0
 29 65  1  0  0  0
 29 66  1  0  0  0
 29 67  1  0  0  0
 30 68  1  0  0  0
 33 69  1  0  0  0
 34 70  1  0  0  0
 34 71  1  0  0  0
 37 72  1  0  0  0
 38 73  1  0  0  0
 39 74  1  0  0  0
 40 75  1  0  0  0
 41 76  1  0  0  0
 41 77  1  0  0  0
 41 78  1  0  0  0
M  END
$$$$
