4eh7_ligand
  -I-interpret- 

 27 28  0  0  0  0  0  0  0  0999 V2000
    5.3050   -0.7910   18.9530 C   0  0  0  0  0
    5.8460   -0.8530   17.6630 C   0  0  0  0  0
    5.1040   -1.4610   16.6370 C   0  0  0  0  0
    3.8380   -2.0030   16.8950 C   0  0  0  0  0
    3.3050   -1.9310   18.1850 C   0  0  0  0  0
    4.0260   -1.3130   19.2220 C   0  0  0  0  0
    3.4920   -1.2610   20.5020 O   0  0  0  0  0
    2.8870   -0.1280   21.0210 C   0  0  0  0  0
    2.2690   -0.2140   22.2770 C   0  0  0  0  0
    2.8680    1.0970   20.3490 C   0  0  0  0  0
    2.2440    2.2090   20.9190 C   0  0  0  0  0
    1.6310    2.1200   22.1730 C   0  0  0  0  0
    1.6410    0.9010   22.8560 C   0  0  0  0  0
    0.9700    0.7770   24.2360 C   0  0  0  0  0
    0.4020    2.0170   24.6780 O   0  0  0  0  0
    5.8807   -0.3335   19.7576 H   0  0  0  0  0
    6.8312   -0.4344   17.4574 H   0  0  0  0  0
    5.5174   -1.5117   15.6297 H   0  0  0  0  0
    3.2718   -2.4783   16.0940 H   0  0  0  0  0
    2.3227   -2.3573   18.3888 H   0  0  0  0  0
    2.2762   -1.1629   22.8133 H   0  0  0  0  0
    3.3439    1.1854   19.3724 H   0  0  0  0  0
    2.2347    3.1567   20.3806 H   0  0  0  0  0
    1.1500    2.9934   22.6134 H   0  0  0  0  0
    1.7312    0.4777   24.9565 H   0  0  0  0  0
    0.1656    0.0458   24.1565 H   0  0  0  0  0
   -0.0038    1.8929   25.5391 H   0  0  0  0  0
  1  2  4  0  0  0
  1  6  4  0  0  0
  2  3  4  0  0  0
  3  4  4  0  0  0
  4  5  4  0  0  0
  5  6  4  0  0  0
  6  7  1  0  0  0
  7  8  1  0  0  0
  8  9  4  0  0  0
  8 10  4  0  0  0
  9 13  4  0  0  0
 10 11  4  0  0  0
 11 12  4  0  0  0
 12 13  4  0  0  0
 13 14  1  0  0  0
 14 15  1  0  0  0
  1 16  1  0  0  0
  2 17  1  0  0  0
  3 18  1  0  0  0
  4 19  1  0  0  0
  5 20  1  0  0  0
  9 21  1  0  0  0
 10 22  1  0  0  0
 11 23  1  0  0  0
 12 24  1  0  0  0
 14 25  1  0  0  0
 14 26  1  0  0  0
 15 27  1  0  0  0
M  END
$$$$
