6u6w_ligand
  -I-interpret- 

 32 33  0  0  0  0  0  0  0  0999 V2000
    6.2230   -0.6010    9.3680 C   0  0  0  0  0
    6.8150   -1.6450    8.6640 C   0  0  0  0  0
    0.8380    0.6590    7.7360 C   0  0  0  0  0
    7.4840   -1.4310    7.4550 C   0  0  0  0  0
    7.6280    2.4460    5.9010 C   0  0  0  0  0
    7.5820   -0.1460    6.9420 C   0  0  0  0  0
    6.3130    0.6750    8.8160 C   0  0  0  0  0
    3.1970    1.9650    8.3420 C   0  0  0  0  0
    1.7630    0.8400    6.7220 C   0  0  0  0  0
    2.2570    1.7830    9.3350 C   0  0  0  0  0
    6.9900    0.8980    7.6310 C   0  0  0  0  0
    2.9430    1.5020    7.0630 C   0  0  0  0  0
    1.0850    1.1130    9.0140 C   0  0  0  0  0
    4.4470    2.6780    8.6460 N   0  0  0  0  0
    4.9250    1.4410   10.9150 O   0  0  0  0  0
    6.5840    3.0550   10.0600 O   0  0  0  0  0
    3.8980    1.6750    6.0860 O   0  0  0  0  0
    7.0570    2.2200    7.2000 O   0  0  0  0  0
    5.5520    2.0470    9.7450 S   0  0  0  0  0
    6.6660   -3.4080    9.3950 Br  0  0  0  0  0
   -0.1100    0.8650   10.2860 Cl  0  0  0  0  0
    5.7093   -0.7745   10.3136 H   0  0  0  0  0
   -0.1010    0.1492    7.5203 H   0  0  0  0  0
    7.9265   -2.2701    6.9181 H   0  0  0  0  0
    8.6534    2.0766    5.8870 H   0  0  0  0  0
    7.0400    1.9181    5.1502 H   0  0  0  0  0
    7.6223    3.5141    5.6838 H   0  0  0  0  0
    8.1171    0.0386    6.0105 H   0  0  0  0  0
    1.5788    0.4834    5.7086 H   0  0  0  0  0
    2.4302    2.1555   10.3446 H   0  0  0  0  0
    4.6459    3.5657    8.1847 H   0  0  0  0  0
    3.5793    1.3050    5.2595 H   0  0  0  0  0
  1  2  4  0  0  0
  7  1  4  0  0  0
  2  4  4  0  0  0
  2 20  1  0  0  0
  9  3  4  0  0  0
 13  3  4  0  0  0
  6  4  4  0  0  0
 18  5  1  0  0  0
 11  6  4  0  0  0
  7 11  4  0  0  0
 19  7  1  0  0  0
  8 10  4  0  0  0
  8 12  4  0  0  0
 14  8  1  0  0  0
 12  9  4  0  0  0
 10 13  4  0  0  0
 11 18  1  0  0  0
 12 17  1  0  0  0
 13 21  1  0  0  0
 14 19  1  0  0  0
 19 15  2  0  0  0
 19 16  2  0  0  0
  1 22  1  0  0  0
  3 23  1  0  0  0
  4 24  1  0  0  0
  5 25  1  0  0  0
  5 26  1  0  0  0
  5 27  1  0  0  0
  6 28  1  0  0  0
  9 29  1  0  0  0
 10 30  1  0  0  0
 14 31  1  0  0  0
 17 32  1  0  0  0
M  END
$$$$
