5mgk_ligand
  -I-interpret- 

 23 23  0  0  0  0  0  0  0  0999 V2000
 -105.3940   37.0360   25.5320 C   0  0  0  0  0
 -105.4340   38.0760   26.6280 C   0  0  0  0  0
 -106.8210   38.6430   26.8150 C   0  0  0  0  0
 -107.7990   37.9840   26.5260 O   0  0  0  0  0
 -106.9740   40.0380   27.3680 C   0  0  0  0  0
 -105.9320   40.8890   27.6860 C   0  0  0  0  0
 -106.4740   42.0260   28.1450 N   0  0  0  0  0
 -107.8150   41.9410   28.1320 C   0  0  0  0  0
 -108.1580   40.6920   27.6470 C   0  0  0  0  0
 -108.7610   43.0270   28.5820 C   0  0  0  0  0
 -109.9180   43.0230   28.2150 O   0  0  0  0  0
 -108.2810   44.0330   29.4360 O   0  0  0  0  0
 -109.0520   45.2120   29.4430 C   0  0  0  0  0
 -106.0672   36.2170   25.7853 H   0  0  0  0  0
 -105.7083   37.4888   24.5916 H   0  0  0  0  0
 -104.3778   36.6548   25.4315 H   0  0  0  0  0
 -104.7658   38.8912   26.3504 H   0  0  0  0  0
 -105.1298   37.6015   27.5610 H   0  0  0  0  0
 -104.8681   40.6754   27.5828 H   0  0  0  0  0
 -109.1661   40.3002   27.5114 H   0  0  0  0  0
 -109.0771   45.6342   28.4384 H   0  0  0  0  0
 -110.0666   44.9792   29.7661 H   0  0  0  0  0
 -108.6067   45.9317   30.1299 H   0  0  0  0  0
  1  2  1  0  0  0
  2  3  1  0  0  0
  3  4  2  0  0  0
  3  5  1  0  0  0
  5  6  4  0  0  0
  5  9  4  0  0  0
  6  7  4  0  0  0
  7  8  4  0  0  0
  8  9  4  0  0  0
  8 10  1  0  0  0
 10 11  2  0  0  0
 10 12  1  0  0  0
 12 13  1  0  0  0
  1 14  1  0  0  0
  1 15  1  0  0  0
  1 16  1  0  0  0
  2 17  1  0  0  0
  2 18  1  0  0  0
  6 19  1  0  0  0
  9 20  1  0  0  0
 13 21  1  0  0  0
 13 22  1  0  0  0
 13 23  1  0  0  0
M  END
$$$$
