4a9n_ligand
  -I-interpret- 

 37 39  0  0  0  0  0  0  0  0999 V2000
   20.7720   13.3460  -11.6160 O   0  0  0  0  0
   19.4320   13.2300  -12.1150 S   0  0  0  0  0
   19.2070   12.9750  -13.5020 O   0  0  0  0  0
   18.6690   14.5960  -11.7380 N   0  0  0  0  0
   18.6580   15.1070  -10.3710 C   0  0  0  0  0
   19.7200   16.0250   -9.8860 C   0  0  0  0  0
   18.5520   16.5590  -10.0920 C   0  0  0  0  0
   18.7060   11.8940  -11.2040 C   0  0  0  0  0
   17.3240   11.6620  -11.2660 C   0  0  0  0  0
   16.3770   12.4820  -12.0690 C   0  0  0  0  0
   16.8380   10.5980  -10.5290 C   0  0  0  0  0
   17.6600    9.7950   -9.7610 C   0  0  0  0  0
   19.5340   11.0990  -10.4430 C   0  0  0  0  0
   19.0150   10.0460   -9.7160 C   0  0  0  0  0
   19.9240    9.2170   -8.9040 C   0  0  0  0  0
   19.8120    8.9360   -7.5260 C   0  0  0  0  0
   18.8610    9.3010   -6.6640 C   0  0  0  0  0
   21.0740    8.6200   -9.3460 C   0  0  0  0  0
   21.7450    8.5410  -10.6500 C   0  0  0  0  0
   21.6670    7.9810   -8.3070 O   0  0  0  0  0
   20.8700    8.1940   -7.1870 N   0  0  0  0  0
   18.1832   15.1152  -12.4694 H   0  0  0  0  0
   18.1749   14.1814  -10.0580 H   0  0  0  0  0
   20.7560   16.1583   -9.5745 H   0  0  0  0  0
   17.9286   17.4529  -10.0728 H   0  0  0  0  0
   16.4147   13.5166  -11.7279 H   0  0  0  0  0
   16.6588   12.4344  -13.1209 H   0  0  0  0  0
   15.3662   12.0936  -11.9444 H   0  0  0  0  0
   15.7693   10.3850  -10.5545 H   0  0  0  0  0
   17.2384    8.9659   -9.1927 H   0  0  0  0  0
   20.6045   11.3021  -10.4144 H   0  0  0  0  0
   18.8114   10.3889   -6.6189 H   0  0  0  0  0
   17.9008    8.9056   -6.9954 H   0  0  0  0  0
   19.0967    8.9055   -5.6760 H   0  0  0  0  0
   21.0798    8.0663  -11.3713 H   0  0  0  0  0
   21.9944    9.5460  -10.9903 H   0  0  0  0  0
   22.6571    7.9522  -10.5527 H   0  0  0  0  0
  1  2  2  0  0  0
  2  3  2  0  0  0
  2  4  1  0  0  0
  2  8  1  0  0  0
  4  5  1  0  0  0
  5  6  1  0  0  0
  5  7  1  0  0  0
  6  7  2  0  0  0
  8  9  4  0  0  0
  8 13  4  0  0  0
  9 10  1  0  0  0
  9 11  4  0  0  0
 11 12  4  0  0  0
 12 14  4  0  0  0
 13 14  4  0  0  0
 14 15  1  0  0  0
 15 16  4  0  0  0
 15 18  4  0  0  0
 16 17  1  0  0  0
 16 21  4  0  0  0
 18 19  1  0  0  0
 18 20  4  0  0  0
 20 21  4  0  0  0
  4 22  1  0  0  0
  5 23  1  0  0  0
  6 24  1  0  0  0
  7 25  1  0  0  0
 10 26  1  0  0  0
 10 27  1  0  0  0
 10 28  1  0  0  0
 11 29  1  0  0  0
 12 30  1  0  0  0
 13 31  1  0  0  0
 17 32  1  0  0  0
 17 33  1  0  0  0
 17 34  1  0  0  0
 19 35  1  0  0  0
 19 36  1  0  0  0
 19 37  1  0  0  0
M  END
$$$$
