5x9h_ligand
  -I-interpret- 

 47 49  0  0  0  0  0  0  0  0999 V2000
   10.1430   10.1700  157.8740 P   0  0  0  0  0
   10.0980   11.1010  156.6880 O   0  0  0  0  0
   10.8670   10.6840  159.1000 O   0  0  0  0  0
   10.5020    8.7680  157.4520 O   0  0  0  0  0
    8.1210    9.0820  159.5800 P   0  0  0  0  0
    6.6130    8.9270  159.4760 O   0  0  0  0  0
    8.7870    9.5660  160.8620 O   0  0  0  0  0
    8.6080   10.0500  158.3700 O   0  0  0  0  0
    7.9200    6.6200  158.2480 P   0  0  0  0  0
    7.4580    7.4460  157.0820 O   0  0  0  0  0
    6.9780    5.7460  159.0440 O   0  0  0  0  0
    8.7330    7.6380  159.1960 O   0  0  0  0  0
    9.0850    5.7100  157.6570 O   0  0  0  0  0
    9.7430    4.7770  158.4750 C   0  0  0  0  0
   11.1700    5.2540  158.3380 C   0  0  0  0  0
   11.9620    4.4410  159.1730 O   0  0  0  0  0
   11.6860    5.0840  156.9240 C   0  0  0  0  0
   12.5130    6.2090  156.6540 O   0  0  0  0  0
   12.5150    3.8140  156.9310 C   0  0  0  0  0
   13.7850    3.9940  156.3100 O   0  0  0  0  0
   12.8190    3.6030  158.3880 C   0  0  0  0  0
   12.6700    2.2000  158.8500 N   0  0  0  0  0
   11.5350    1.5340  159.1820 C   0  0  0  0  0
   11.8030    0.2770  159.6290 N   0  0  0  0  0
   13.1420    0.1590  159.5860 C   0  0  0  0  0
   14.1100   -0.8920  159.8950 C   0  0  0  0  0
   13.6430   -2.0700  160.3490 N   0  0  0  0  0
   15.4240   -0.6370  159.7060 N   0  0  0  0  0
   15.8600    0.5530  159.2610 C   0  0  0  0  0
   15.0420    1.5670  158.9570 N   0  0  0  0  0
   13.7070    1.4180  159.0890 C   0  0  0  0  0
    9.8677   11.9845  156.9847 H   0  0  0  0  0
   10.5754   11.5785  159.2909 H   0  0  0  0  0
    9.7379    9.5988  160.7346 H   0  0  0  0  0
    7.4665    5.3037  159.7421 H   0  0  0  0  0
    9.5888    3.7385  158.1819 H   0  0  0  0  0
    9.3783    4.7473  159.5018 H   0  0  0  0  0
   11.2139    6.3109  158.6011 H   0  0  0  0  0
   10.8973    5.0180  156.1746 H   0  0  0  0  0
   12.8629    6.1410  155.7626 H   0  0  0  0  0
   11.9833    3.0134  156.4167 H   0  0  0  0  0
   14.2733    3.1679  156.3373 H   0  0  0  0  0
   13.8705    3.8596  158.5166 H   0  0  0  0  0
   10.5325    1.9541  159.1006 H   0  0  0  0  0
   12.6396   -2.2090  160.4683 H   0  0  0  0  0
   14.2925   -2.8237  160.5737 H   0  0  0  0  0
   16.9335    0.6998  159.1417 H   0  0  0  0  0
  1  2  1  0  0  0
  1  3  1  0  0  0
  1  4  2  0  0  0
  8  1  1  0  0  0
  5  6  2  0  0  0
  5  7  1  0  0  0
  5  8  1  0  0  0
 12  5  1  0  0  0
  9 10  2  0  0  0
  9 11  1  0  0  0
  9 12  1  0  0  0
  9 13  1  0  0  0
 13 14  1  0  0  0
 14 15  1  0  0  0
 15 16  1  0  0  0
 15 17  1  0  0  0
 16 21  1  0  0  0
 17 18  1  0  0  0
 17 19  1  0  0  0
 19 20  1  0  0  0
 19 21  1  0  0  0
 21 22  1  0  0  0
 22 23  4  0  0  0
 22 31  4  0  0  0
 23 24  4  0  0  0
 24 25  4  0  0  0
 25 26  4  0  0  0
 25 31  4  0  0  0
 26 27  1  0  0  0
 26 28  4  0  0  0
 28 29  4  0  0  0
 29 30  4  0  0  0
 30 31  4  0  0  0
  2 32  1  0  0  0
  3 33  1  0  0  0
  7 34  1  0  0  0
 11 35  1  0  0  0
 14 36  1  0  0  0
 14 37  1  0  0  0
 15 38  1  0  0  0
 17 39  1  0  0  0
 18 40  1  0  0  0
 19 41  1  0  0  0
 20 42  1  0  0  0
 21 43  1  0  0  0
 23 44  1  0  0  0
 27 45  1  0  0  0
 27 46  1  0  0  0
 29 47  1  0  0  0
M  END
$$$$
