1uwu_ligand
  -I-interpret- 

 26 26  0  0  0  0  0  0  0  0999 V2000
   74.5520   21.0060   89.4610 C   0  0  0  0  0
   75.0040   21.1720   90.6950 N   0  0  0  0  0
   73.8000   22.2220   88.8780 C   0  0  0  0  0
   74.7720   19.7820   88.7940 N   0  3  0  0  0
   75.8450   20.1790   91.2060 O   0  0  0  0  0
   72.7420   22.5540   89.7360 O   0  0  0  0  0
   73.2510   21.9150   87.4810 C   0  0  0  0  0
   72.9960   23.2170   86.9110 O   0  0  0  0  0
   74.2960   21.0370   86.7040 C   0  0  0  0  0
   73.9330   20.9240   85.3500 O   0  0  0  0  0
   74.3700   19.6410   87.3900 C   0  0  0  0  0
   75.3780   18.6410   86.7940 C   0  0  0  0  0
   76.6830   19.1360   86.9310 O   0  0  0  0  0
   74.4347   20.4769   88.5153 H   0  0  0  0  0
   74.4956   23.0567   88.7916 H   0  0  0  0  0
   74.1966   19.1064   89.2969 H   0  0  0  0  0
   75.7859   19.6709   88.7851 H   0  0  0  0  0
   73.0887   22.7458   90.6104 H   0  0  0  0  0
   72.3336   21.3269   87.4568 H   0  0  0  0  0
   72.3490   23.6794   87.4488 H   0  0  0  0  0
   75.2794   21.5060   86.7349 H   0  0  0  0  0
   74.5809   20.3852   84.8901 H   0  0  0  0  0
   73.3637   19.2490   87.2423 H   0  0  0  0  0
   75.1581   18.4977   85.7361 H   0  0  0  0  0
   75.2971   17.6917   87.3236 H   0  0  0  0  0
   77.3038   18.5064   86.5570 H   0  0  0  0  0
  1  2  1  0  0  0
  1  3  1  0  0  0
  1  4  1  0  0  0
  2  5  2  0  0  0
  3  6  1  0  0  0
  3  7  1  0  0  0
  4 11  1  0  0  0
  7  8  1  0  0  0
  7  9  1  0  0  0
  9 10  1  0  0  0
  9 11  1  0  0  0
 11 12  1  0  0  0
 12 13  1  0  0  0
  1 14  1  0  0  0
  3 15  1  0  0  0
  4 16  1  0  0  0
  4 17  1  0  0  0
  6 18  1  0  0  0
  7 19  1  0  0  0
  8 20  1  0  0  0
  9 21  1  0  0  0
 10 22  1  0  0  0
 11 23  1  0  0  0
 12 24  1  0  0  0
 12 25  1  0  0  0
 13 26  1  0  0  0
M  END
$$$$
