4ufg_ligand
  -I-interpret- 

 74 76  0  0  0  0  0  0  0  0999 V2000
  143.4460  -16.7990   93.6930 O   0  0  0  0  0
  142.4610  -15.9710   94.3240 S   0  0  0  0  0
  141.2980  -16.5760   94.8940 O   0  0  0  0  0
  141.9630  -14.7640   93.1100 C   0  0  0  0  0
  140.8580  -15.2660   92.2280 C   0  0  0  0  0
  141.1360  -16.0490   91.1180 C   0  0  0  0  0
  140.1160  -16.5140   90.3080 C   0  0  0  0  0
  138.8050  -16.2040   90.5970 C   0  0  0  0  0
  138.5150  -15.4240   91.6950 C   0  0  0  0  0
  139.5340  -14.9590   92.5050 C   0  0  0  0  0
  143.2100  -15.1980   95.5350 N   0  0  0  0  0
  144.5290  -14.6230   95.3200 C   0  0  0  0  0
  145.2400  -14.4460   96.6690 C   0  0  0  0  0
  146.6000  -13.7950   96.5910 C   0  0  0  0  0
  146.7950  -12.5030   97.0550 C   0  0  0  0  0
  148.0400  -11.9060   96.9860 C   0  0  0  0  0
  149.1130  -12.5970   96.4620 C   0  0  0  0  0
  148.9370  -13.8860   96.0140 C   0  0  0  0  0
  147.6900  -14.4830   96.0810 C   0  0  0  0  0
  144.6100  -13.3300   94.5180 C   0  0  0  0  0
  143.8570  -12.4150   94.8010 O   0  0  0  0  0
  145.4640  -13.2540   93.4760 N   0  0  0  0  0
  146.3020  -14.3580   93.0120 C   0  0  0  0  0
  145.5580  -11.9740   92.7600 C   0  0  0  0  0
  146.7580  -11.9260   91.8150 C   0  0  0  0  0
  146.8910  -10.6160   91.1110 C   0  0  0  0  0
  144.2410  -11.6750   92.0380 C   0  0  0  0  0
  143.6830  -12.5350   91.3580 O   0  0  0  0  0
  143.7450  -10.4450   92.2080 N   0  0  0  0  0
  142.5450   -9.9790   91.5260 C   0  0  0  0  0
  141.3310   -9.9270   92.4230 C   0  0  0  0  0
  140.7520  -11.0940   92.8870 C   0  0  0  0  0
  139.6730  -11.0630   93.7520 C   0  0  0  0  0
  139.1440   -9.8500   94.1820 C   0  0  0  0  0
  138.0130   -9.8420   95.1310 C   0  0  0  0  0
  137.7060   -8.6850   95.7270 N   0  0  0  0  0
  137.2850  -10.8540   95.4310 N   0  0  0  0  0
  139.7190   -8.6760   93.7080 C   0  0  0  0  0
  140.7940   -8.7170   92.8360 C   0  0  0  0  0
  142.8245  -14.5427   92.4800 H   0  0  0  0  0
  141.5998  -13.8827   93.6386 H   0  0  0  0  0
  142.1697  -16.3008   90.8812 H   0  0  0  0  0
  140.3500  -17.1277   89.4381 H   0  0  0  0  0
  138.0014  -16.5740   89.9602 H   0  0  0  0  0
  137.4796  -15.1730   91.9255 H   0  0  0  0  0
  139.2942  -14.3435   93.3720 H   0  0  0  0  0
  142.7580  -15.1147   96.4456 H   0  0  0  0  0
  145.0283  -15.3505   94.6801 H   0  0  0  0  0
  145.3915  -15.4445   97.0789 H   0  0  0  0  0
  144.6115  -13.7918   97.2732 H   0  0  0  0  0
  145.9563  -11.9512   97.4794 H   0  0  0  0  0
  148.1743  -10.8862   97.3467 H   0  0  0  0  0
  150.0937  -12.1249   96.4033 H   0  0  0  0  0
  149.7826  -14.4390   95.6049 H   0  0  0  0  0
  147.5636  -15.5066   95.7284 H   0  0  0  0  0
  146.9661  -14.6717   93.8174 H   0  0  0  0  0
  145.6682  -15.1938   92.7156 H   0  0  0  0  0
  146.8944  -14.0289   92.1583 H   0  0  0  0  0
  145.7273  -11.1876   93.4956 H   0  0  0  0  0
  146.6170  -12.6978   91.0583 H   0  0  0  0  0
  147.6578  -12.0763   92.4115 H   0  0  0  0  0
  145.9943  -10.4300   90.5198 H   0  0  0  0  0
  147.0145   -9.8208   91.8462 H   0  0  0  0  0
  147.7609  -10.6443   90.4549 H   0  0  0  0  0
  144.2266   -9.8067   92.8413 H   0  0  0  0  0
  142.3299  -10.6811   90.7205 H   0  0  0  0  0
  142.7384   -8.9657   91.1739 H   0  0  0  0  0
  141.1530  -12.0552   92.5654 H   0  0  0  0  0
  139.2330  -11.9976   94.1000 H   0  0  0  0  0
  136.9262   -8.6404   96.3829 H   0  0  0  0  0
  138.2517   -7.8471   95.5257 H   0  0  0  0  0
  137.4688  -11.7601   95.0002 H   0  0  0  0  0
  139.3193   -7.7132   94.0262 H   0  0  0  0  0
  141.2241   -7.7851   92.4691 H   0  0  0  0  0
  1  2  2  0  0  0
  2  3  2  0  0  0
  2  4  1  0  0  0
  2 11  1  0  0  0
  4  5  1  0  0  0
  5  6  4  0  0  0
  5 10  4  0  0  0
  6  7  4  0  0  0
  7  8  4  0  0  0
  8  9  4  0  0  0
  9 10  4  0  0  0
 11 12  1  0  0  0
 12 13  1  0  0  0
 12 20  1  0  0  0
 13 14  1  0  0  0
 14 15  4  0  0  0
 14 19  4  0  0  0
 15 16  4  0  0  0
 16 17  4  0  0  0
 17 18  4  0  0  0
 18 19  4  0  0  0
 20 21  2  0  0  0
 20 22  1  0  0  0
 22 23  1  0  0  0
 22 24  1  0  0  0
 24 25  1  0  0  0
 24 27  1  0  0  0
 25 26  1  0  0  0
 27 28  2  0  0  0
 27 29  1  0  0  0
 29 30  1  0  0  0
 30 31  1  0  0  0
 31 32  4  0  0  0
 31 39  4  0  0  0
 32 33  4  0  0  0
 33 34  4  0  0  0
 34 35  1  0  0  0
 34 38  4  0  0  0
 35 36  1  0  0  0
 35 37  2  0  0  0
 38 39  4  0  0  0
  4 40  1  0  0  0
  4 41  1  0  0  0
  6 42  1  0  0  0
  7 43  1  0  0  0
  8 44  1  0  0  0
  9 45  1  0  0  0
 10 46  1  0  0  0
 11 47  1  0  0  0
 12 48  1  0  0  0
 13 49  1  0  0  0
 13 50  1  0  0  0
 15 51  1  0  0  0
 16 52  1  0  0  0
 17 53  1  0  0  0
 18 54  1  0  0  0
 19 55  1  0  0  0
 23 56  1  0  0  0
 23 57  1  0  0  0
 23 58  1  0  0  0
 24 59  1  0  0  0
 25 60  1  0  0  0
 25 61  1  0  0  0
 26 62  1  0  0  0
 26 63  1  0  0  0
 26 64  1  0  0  0
 29 65  1  0  0  0
 30 66  1  0  0  0
 30 67  1  0  0  0
 32 68  1  0  0  0
 33 69  1  0  0  0
 36 70  1  0  0  0
 36 71  1  0  0  0
 37 72  1  0  0  0
 38 73  1  0  0  0
 39 74  1  0  0  0
M  END
$$$$
