1ej4_ligand
  -I-interpret- 

252253  0  0  0  0  0  0  0  0999 V2000
   28.5100   11.6200    6.4720 N   0  3  0  0  0
   27.2370   10.8640    6.6310 C   0  0  0  0  0
   26.4930   10.7950    5.3010 C   0  0  0  0  0
   26.4150   11.7820    4.5680 O   0  0  0  0  0
   26.3320   11.5190    7.6920 C   0  0  0  0  0
   24.9900   10.7770    7.8990 C   0  0  0  0  0
   24.1250   11.4590    8.9580 C   0  0  0  0  0
   24.8000   11.4810   10.2530 N   0  0  0  0  0
   24.8650   10.4530   11.0920 C   0  0  0  0  0
   24.2900    9.2920   10.7940 N   0  0  0  0  0
   25.5340   10.5880   12.2270 N   0  0  0  0  0
   25.9550    9.6190    5.0050 N   0  0  0  0  0
   25.2190    9.3880    3.7660 C   0  0  0  0  0
   23.7210    9.5620    3.9830 C   0  0  0  0  0
   23.0640    8.7360    4.6280 O   0  0  0  0  0
   25.4660    7.9600    3.2090 C   0  0  0  0  0
   26.9550    7.7610    2.9180 C   0  0  0  0  0
   24.6530    7.7500    1.9530 C   0  0  0  0  0
   27.6210    8.7140    1.8850 C   0  0  0  0  0
   23.1910   10.6380    3.4190 N   0  0  0  0  0
   21.7820   10.9350    3.5270 C   0  0  0  0  0
   21.1220   10.8180    2.1620 C   0  0  0  0  0
   21.7350   11.1100    1.1370 O   0  0  0  0  0
   21.5510   12.3570    4.0310 C   0  0  0  0  0
   22.2320   12.5530    5.3890 C   0  0  0  0  0
   20.0530   12.6280    4.1230 C   0  0  0  0  0
   23.7360   12.7900    5.3240 C   0  0  0  0  0
   19.8640   10.3910    2.1690 N   0  0  0  0  0
   19.0860   10.2530    0.9520 C   0  0  0  0  0
   17.6860   10.7860    1.1550 C   0  0  0  0  0
   17.0440   10.5600    2.1910 O   0  0  0  0  0
   18.9770    8.7980    0.5010 C   0  0  0  0  0
   20.2670    8.2060   -0.0050 C   0  0  0  0  0
   20.8460    7.1330    0.6390 C   0  0  0  0  0
   20.8980    8.7160   -1.1470 C   0  0  0  0  0
   22.0170    6.5680    0.1770 C   0  0  0  0  0
   22.0800    8.1600   -1.6280 C   0  0  0  0  0
   22.6320    7.0820   -0.9520 C   0  0  0  0  0
   23.7880    6.5070   -1.3900 O   0  0  0  0  0
   17.2470   11.4830    0.1180 N   0  0  0  0  0
   15.9400   12.1100   -0.0110 C   0  0  0  0  0
   14.8540   11.0460   -0.1970 C   0  0  0  0  0
   15.1200    9.9670   -0.7190 O   0  0  0  0  0
   15.9460   12.9680   -1.2900 C   0  0  0  0  0
   15.2920   14.2640   -1.1010 C   0  0  0  0  0
   14.2210   14.2740   -0.4630 O   0  0  0  0  0
   15.8300   15.2750   -1.5890 O   0  0  0  0  0
   13.6310   11.3910    0.1850 N   0  0  0  0  0
   12.4740   10.5290   -0.0080 C   0  0  0  0  0
   12.3820   10.3260   -1.5240 C   0  0  0  0  0
   12.3050    9.1950   -2.0140 O   0  0  0  0  0
   11.2270   11.2570    0.5340 C   0  0  0  0  0
    9.8210   10.7590    0.1190 C   0  0  0  0  0
    9.4580    9.4080    0.6730 C   0  0  0  0  0
    8.0230    9.0740    0.6130 N   0  0  0  0  0
    7.2670    9.0500   -0.4860 C   0  0  0  0  0
    7.7700    9.3520   -1.6700 N   0  0  0  0  0
    6.0100    8.6420   -0.4150 N   0  0  0  0  0
   12.4210   11.4340   -2.2620 N   0  0  0  0  0
   12.3340   11.4110   -3.7190 C   0  0  0  0  0
   13.4560   10.6220   -4.3790 C   0  0  0  0  0
   13.1920    9.7990   -5.2520 O   0  0  0  0  0
   12.3180   12.8320   -4.2660 C   0  0  0  0  0
   14.7000   10.8630   -3.9720 N   0  0  0  0  0
   15.8230   10.1380   -4.5540 C   0  0  0  0  0
   15.7310    8.6450   -4.2490 C   0  0  0  0  0
   16.0020    7.8130   -5.1140 O   0  0  0  0  0
   17.1610   10.6550   -4.0400 C   0  0  0  0  0
   18.3370   10.0020   -4.7090 C   0  0  0  0  0
   18.5720   10.1970   -6.0670 C   0  0  0  0  0
   19.1660    9.1380   -4.0090 C   0  0  0  0  0
   19.6140    9.5350   -6.7100 C   0  0  0  0  0
   20.2140    8.4740   -4.6540 C   0  0  0  0  0
   20.4310    8.6770   -6.0020 C   0  0  0  0  0
   15.3680    8.2990   -3.0170 N   0  0  0  0  0
   15.2320    6.8910   -2.6730 C   0  0  0  0  0
   14.2070    6.2240   -3.6050 C   0  0  0  0  0
   14.4010    5.1000   -4.0630 O   0  0  0  0  0
   14.8070    6.7380   -1.2130 C   0  0  0  0  0
   15.8670    7.0520   -0.1520 C   0  0  0  0  0
   15.2430    7.0010    1.2410 C   0  0  0  0  0
   17.0230    6.0510   -0.2690 C   0  0  0  0  0
   13.1250    6.9330   -3.8940 N   0  0  0  0  0
   12.0850    6.4170   -4.7770 C   0  0  0  0  0
   12.6030    6.2270   -6.2050 C   0  0  0  0  0
   12.2370    5.2730   -6.9000 O   0  0  0  0  0
   10.8800    7.3680   -4.7570 C   0  0  0  0  0
   10.1350    7.3490   -3.4290 C   0  0  0  0  0
    9.4550    5.6850   -3.2170 S   0  0  0  0  0
    8.5900    5.8210   -1.6890 C   0  0  0  0  0
   13.4700    7.1410   -6.6310 N   0  0  0  0  0
   14.0580    7.0720   -7.9570 C   0  0  0  0  0
   14.9740    5.8730   -8.0930 C   0  0  0  0  0
   15.1100    5.3210   -9.1830 O   0  0  0  0  0
   14.9040    8.3110   -8.2570 C   0  0  0  0  0
   14.1780    9.6040   -8.2580 C   0  0  0  0  0
   14.6310   10.4680   -9.4070 C   0  0  0  0  0
   15.8690   10.6270   -9.5790 O   0  0  0  0  0
   13.7400   10.9760  -10.1390 O   0  0  0  0  0
   15.6180    5.4850   -6.9950 N   0  0  0  0  0
   16.5400    4.3510   -7.0280 C   0  0  0  0  0
   15.9310    2.9640   -7.2590 C   0  0  0  0  0
   16.6640    1.9850   -7.4260 O   0  0  0  0  0
   17.3990    4.3250   -5.7630 C   0  0  0  0  0
   18.6210    5.6650   -5.6650 S   0  0  0  0  0
   14.6060    2.8570   -7.2580 N   0  0  0  0  0
   14.0110    1.5510   -7.5270 C   0  0  0  0  0
   14.1100    1.2550   -9.0240 C   0  0  0  0  0
   13.7760    0.1700   -9.4730 O   0  0  0  0  0
   12.5710    1.4780   -7.0020 C   0  0  0  0  0
   11.7860    2.7010   -7.2680 C   0  0  0  0  0
   10.4660    2.7760   -6.5080 C   0  0  0  0  0
    9.8970    4.0810   -6.8090 N   0  0  0  0  0
    8.6170    4.3990   -6.7650 C   0  0  0  0  0
    7.6970    3.5040   -6.4200 N   0  0  0  0  0
    8.2660    5.6320   -7.1050 N   0  0  0  0  0
   14.6110    2.2340   -9.7760 N   0  0  0  0  0
   14.8430    2.1080  -11.2150 C   0  0  0  0  0
   16.2580    2.5780  -11.5620 C   0  0  0  0  0
   16.4270    3.5570  -12.3250 O   0  0  0  0  0
   13.8330    2.9260  -12.0210 C   0  0  0  0  0
   12.4790    2.2630  -12.0920 C   0  0  0  0  0
   12.3750    1.0910  -12.4680 O   0  0  0  0  0
   11.4290    3.0090  -11.7500 N   0  0  0  0  0
   17.2530    1.9860  -11.0840 O   0  0  0  0  0
   29.0881   11.1652    5.7653 H   0  0  0  0  0
   28.3026   12.5751    6.1802 H   0  0  0  0  0
   29.0082   11.6357    7.3619 H   0  0  0  0  0
   27.4872    9.8556    6.9604 H   0  0  0  0  0
   26.1001   12.5271    7.3485 H   0  0  0  0  0
   26.8690   11.4969    8.6403 H   0  0  0  0  0
   25.2064    9.7624    8.2335 H   0  0  0  0  0
   24.4453   10.7824    6.9549 H   0  0  0  0  0
   23.1935   10.9021    9.0594 H   0  0  0  0  0
   23.9357   12.4860    8.6456 H   0  0  0  0  0
   25.2550   12.3496   10.5339 H   0  0  0  0  0
   24.3642    8.5056   11.4394 H   0  0  0  0  0
   23.7747    9.1876    9.9200 H   0  0  0  0  0
   25.9910   11.4728   12.4475 H   0  0  0  0  0
   26.0594    8.8495    5.6663 H   0  0  0  0  0
   25.5822   10.1230    3.0477 H   0  0  0  0  0
   25.1556    7.2280    3.9546 H   0  0  0  0  0
   27.0385    6.7619    2.4904 H   0  0  0  0  0
   27.4654    7.9505    3.8623 H   0  0  0  0  0
   23.5942    7.8686    2.1830 H   0  0  0  0  0
   24.9479    8.4847    1.2038 H   0  0  0  0  0
   24.8325    6.7457    1.5692 H   0  0  0  0  0
   27.1228    8.6084    0.9213 H   0  0  0  0  0
   27.5305    9.7435    2.2314 H   0  0  0  0  0
   28.6748    8.4556    1.7809 H   0  0  0  0  0
   23.7939   11.2725    2.8952 H   0  0  0  0  0
   21.3535   10.2225    4.2319 H   0  0  0  0  0
   21.9897   13.0679    3.3308 H   0  0  0  0  0
   22.0816   11.6326    5.9533 H   0  0  0  0  0
   21.7913   13.4433    5.8375 H   0  0  0  0  0
   19.6033   12.5144    3.1366 H   0  0  0  0  0
   19.5986   11.9188    4.8148 H   0  0  0  0  0
   19.8903   13.6439    4.4831 H   0  0  0  0  0
   24.2174   11.9335    4.8521 H   0  0  0  0  0
   23.9361   13.6883    4.7399 H   0  0  0  0  0
   24.1265   12.9171    6.3337 H   0  0  0  0  0
   19.4301   10.1519    3.0606 H   0  0  0  0  0
   19.6082   10.8247    0.1848 H   0  0  0  0  0
   18.2665    8.7712   -0.3252 H   0  0  0  0  0
   18.6765    8.2146    1.3713 H   0  0  0  0  0
   20.3697    6.7234    1.5298 H   0  0  0  0  0
   20.4550    9.5643   -1.6688 H   0  0  0  0  0
   22.4570    5.7188    0.6998 H   0  0  0  0  0
   22.5622    8.5638   -2.5182 H   0  0  0  0  0
   24.0950    6.9663   -2.1751 H   0  0  0  0  0
   17.8882   11.5910   -0.6679 H   0  0  0  0  0
   15.7400   12.6992    0.8839 H   0  0  0  0  0
   15.3988   12.4252   -2.0608 H   0  0  0  0  0
   16.9844   13.1530   -1.5651 H   0  0  0  0  0
   14.0058   13.3800   -0.1871 H   0  0  0  0  0
   13.4960   12.2977    0.6324 H   0  0  0  0  0
   12.5496    9.5732    0.5104 H   0  0  0  0  0
   11.2958   12.2669    0.1296 H   0  0  0  0  0
   11.2668   11.1122    1.6136 H   0  0  0  0  0
    9.8177   10.6729   -0.9676 H   0  0  0  0  0
    9.0975   11.4732    0.5121 H   0  0  0  0  0
    9.7352    9.4157    1.7271 H   0  0  0  0  0
    9.9786    8.6685    0.0645 H   0  0  0  0  0
    7.5657    8.8394    1.4940 H   0  0  0  0  0
    8.7532    9.6095   -1.7558 H   0  0  0  0  0
    5.4498    8.5659   -1.2640 H   0  0  0  0  0
    5.6014    8.4037    0.4887 H   0  0  0  0  0
   12.5153   12.3337   -1.7908 H   0  0  0  0  0
   11.4021   10.9006   -3.9623 H   0  0  0  0  0
   11.4561   13.3649   -3.8644 H   0  0  0  0  0
   13.2336   13.3442   -3.9702 H   0  0  0  0  0
   12.2529   12.8006   -5.3536 H   0  0  0  0  0
   14.8691   11.5604   -3.2472 H   0  0  0  0  0
   15.7683   10.3005   -5.6304 H   0  0  0  0  0
   17.2174   10.4305   -2.9749 H   0  0  0  0  0
   17.2085   11.7231   -4.2521 H   0  0  0  0  0
   17.9333   10.8752   -6.6329 H   0  0  0  0  0
   18.9987    8.9748   -2.9443 H   0  0  0  0  0
   19.7851    9.6945   -7.7746 H   0  0  0  0  0
   20.8586    7.7971   -4.0932 H   0  0  0  0  0
   21.2470    8.1601   -6.5070 H   0  0  0  0  0
   15.1857    9.0173   -2.3161 H   0  0  0  0  0
   16.1967    6.4000   -2.8009 H   0  0  0  0  0
   14.5536    5.6859   -1.0825 H   0  0  0  0  0
   14.0033    7.4576   -1.0570 H   0  0  0  0  0
   16.2578    8.0566   -0.3137 H   0  0  0  0  0
   14.4412    7.7365    1.3057 H   0  0  0  0  0
   14.8392    6.0046    1.4206 H   0  0  0  0  0
   16.0049    7.2256    1.9875 H   0  0  0  0  0
   16.6439    5.0406   -0.1157 H   0  0  0  0  0
   17.4685    6.1267   -1.2609 H   0  0  0  0  0
   17.7753    6.2768    0.4868 H   0  0  0  0  0
   13.0169    7.8628   -3.4887 H   0  0  0  0  0
   11.7773    5.4364   -4.4139 H   0  0  0  0  0
   10.1866    7.0445   -5.5333 H   0  0  0  0  0
   11.2511    8.3803   -4.9170 H   0  0  0  0  0
    9.3373    8.0918   -3.4268 H   0  0  0  0  0
   10.8090    7.5947   -2.6083 H   0  0  0  0  0
    9.2898    6.0969   -0.9001 H   0  0  0  0  0
    7.8188    6.5864   -1.7764 H   0  0  0  0  0
    8.1279    4.8636   -1.4481 H   0  0  0  0  0
   13.7282    7.9090   -6.0114 H   0  0  0  0  0
   13.2226    6.9989   -8.6533 H   0  0  0  0  0
   15.2973    8.1783   -9.2648 H   0  0  0  0  0
   15.6470    8.3760   -7.4621 H   0  0  0  0  0
   14.3840   10.1247   -7.3228 H   0  0  0  0  0
   13.1107    9.4089   -8.3630 H   0  0  0  0  0
   12.8746   10.7164   -9.8146 H   0  0  0  0  0
   15.4664    5.9852   -6.1191 H   0  0  0  0  0
   17.1360    4.5381   -7.9212 H   0  0  0  0  0
   17.9517    3.3856   -5.7689 H   0  0  0  0  0
   16.7251    4.4417   -4.9143 H   0  0  0  0  0
   19.3114    5.5515   -4.5339 H   0  0  0  0  0
   14.0177    3.6696   -7.0733 H   0  0  0  0  0
   14.5625    0.7782   -6.9916 H   0  0  0  0  0
   12.6219    1.3492   -5.9208 H   0  0  0  0  0
   12.0764    0.6526   -7.5140 H   0  0  0  0  0
   11.5450    2.7029   -8.3310 H   0  0  0  0  0
   12.3913    3.5478   -6.9444 H   0  0  0  0  0
   10.6224    2.6536   -5.4363 H   0  0  0  0  0
    9.7923    1.9745   -6.8111 H   0  0  0  0  0
   10.5479    4.8184   -7.0791 H   0  0  0  0  0
    6.7104    3.7627   -6.4150 H   0  0  0  0  0
    7.9776    2.5584   -6.1602 H   0  0  0  0  0
    8.9778    6.3045   -7.3904 H   0  0  0  0  0
   14.8452    3.1182   -9.3246 H   0  0  0  0  0
   14.7236    1.0563  -11.4755 H   0  0  0  0  0
   15.5729    3.8959  -12.6029 H   0  0  0  0  0
   14.2137    3.0237  -13.0377 H   0  0  0  0  0
   13.7103    3.8901  -11.5275 H   0  0  0  0  0
   10.4887    2.6161  -11.7928 H   0  0  0  0  0
   11.5657    3.9728  -11.4455 H   0  0  0  0  0
  1  2  1  0  0  0
  2  3  1  0  0  0
  2  5  1  0  0  0
  3  4  2  0  0  0
  3 12  1  0  0  0
  5  6  1  0  0  0
  6  7  1  0  0  0
  7  8  1  0  0  0
  8  9  1  0  0  0
  9 10  1  0  0  0
  9 11  2  0  0  0
 12 13  1  0  0  0
 13 14  1  0  0  0
 13 16  1  0  0  0
 14 15  2  0  0  0
 14 20  1  0  0  0
 16 17  1  0  0  0
 16 18  1  0  0  0
 17 19  1  0  0  0
 20 21  1  0  0  0
 21 22  1  0  0  0
 21 24  1  0  0  0
 22 23  2  0  0  0
 22 28  1  0  0  0
 24 25  1  0  0  0
 24 26  1  0  0  0
 25 27  1  0  0  0
 28 29  1  0  0  0
 29 30  1  0  0  0
 29 32  1  0  0  0
 30 31  2  0  0  0
 30 40  1  0  0  0
 32 33  1  0  0  0
 33 34  4  0  0  0
 33 35  4  0  0  0
 34 36  4  0  0  0
 35 37  4  0  0  0
 36 38  4  0  0  0
 37 38  4  0  0  0
 38 39  1  0  0  0
 40 41  1  0  0  0
 41 42  1  0  0  0
 41 44  1  0  0  0
 42 43  2  0  0  0
 42 48  1  0  0  0
 44 45  1  0  0  0
 45 46  1  0  0  0
 45 47  2  0  0  0
 48 49  1  0  0  0
 49 50  1  0  0  0
 49 52  1  0  0  0
 50 51  2  0  0  0
 50 59  1  0  0  0
 52 53  1  0  0  0
 53 54  1  0  0  0
 54 55  1  0  0  0
 55 56  1  0  0  0
 56 57  2  0  0  0
 56 58  1  0  0  0
 59 60  1  0  0  0
 60 61  1  0  0  0
 60 63  1  0  0  0
 61 62  2  0  0  0
 61 64  1  0  0  0
 64 65  1  0  0  0
 65 66  1  0  0  0
 65 68  1  0  0  0
 66 67  2  0  0  0
 66 75  1  0  0  0
 68 69  1  0  0  0
 69 70  4  0  0  0
 69 71  4  0  0  0
 70 72  4  0  0  0
 71 73  4  0  0  0
 72 74  4  0  0  0
 73 74  4  0  0  0
 75 76  1  0  0  0
 76 77  1  0  0  0
 76 79  1  0  0  0
 77 78  2  0  0  0
 77 83  1  0  0  0
 79 80  1  0  0  0
 80 81  1  0  0  0
 80 82  1  0  0  0
 83 84  1  0  0  0
 84 85  1  0  0  0
 84 87  1  0  0  0
 85 86  2  0  0  0
 85 91  1  0  0  0
 87 88  1  0  0  0
 88 89  1  0  0  0
 89 90  1  0  0  0
 91 92  1  0  0  0
 92 93  1  0  0  0
 92 95  1  0  0  0
 93 94  2  0  0  0
 93100  1  0  0  0
 95 96  1  0  0  0
 96 97  1  0  0  0
 97 98  2  0  0  0
 97 99  1  0  0  0
100101  1  0  0  0
101102  1  0  0  0
101104  1  0  0  0
102103  2  0  0  0
102106  1  0  0  0
104105  1  0  0  0
106107  1  0  0  0
107108  1  0  0  0
107110  1  0  0  0
108109  2  0  0  0
108117  1  0  0  0
110111  1  0  0  0
111112  1  0  0  0
112113  1  0  0  0
113114  1  0  0  0
114115  1  0  0  0
114116  2  0  0  0
117118  1  0  0  0
118119  1  0  0  0
118121  1  0  0  0
119120  1  0  0  0
119125  2  0  0  0
121122  1  0  0  0
122123  2  0  0  0
122124  1  0  0  0
  1126  1  0  0  0
  1127  1  0  0  0
  1128  1  0  0  0
  2129  1  0  0  0
  5130  1  0  0  0
  5131  1  0  0  0
  6132  1  0  0  0
  6133  1  0  0  0
  7134  1  0  0  0
  7135  1  0  0  0
  8136  1  0  0  0
 10137  1  0  0  0
 10138  1  0  0  0
 11139  1  0  0  0
 12140  1  0  0  0
 13141  1  0  0  0
 16142  1  0  0  0
 17143  1  0  0  0
 17144  1  0  0  0
 18145  1  0  0  0
 18146  1  0  0  0
 18147  1  0  0  0
 19148  1  0  0  0
 19149  1  0  0  0
 19150  1  0  0  0
 20151  1  0  0  0
 21152  1  0  0  0
 24153  1  0  0  0
 25154  1  0  0  0
 25155  1  0  0  0
 26156  1  0  0  0
 26157  1  0  0  0
 26158  1  0  0  0
 27159  1  0  0  0
 27160  1  0  0  0
 27161  1  0  0  0
 28162  1  0  0  0
 29163  1  0  0  0
 32164  1  0  0  0
 32165  1  0  0  0
 34166  1  0  0  0
 35167  1  0  0  0
 36168  1  0  0  0
 37169  1  0  0  0
 39170  1  0  0  0
 40171  1  0  0  0
 41172  1  0  0  0
 44173  1  0  0  0
 44174  1  0  0  0
 46175  1  0  0  0
 48176  1  0  0  0
 49177  1  0  0  0
 52178  1  0  0  0
 52179  1  0  0  0
 53180  1  0  0  0
 53181  1  0  0  0
 54182  1  0  0  0
 54183  1  0  0  0
 55184  1  0  0  0
 57185  1  0  0  0
 58186  1  0  0  0
 58187  1  0  0  0
 59188  1  0  0  0
 60189  1  0  0  0
 63190  1  0  0  0
 63191  1  0  0  0
 63192  1  0  0  0
 64193  1  0  0  0
 65194  1  0  0  0
 68195  1  0  0  0
 68196  1  0  0  0
 70197  1  0  0  0
 71198  1  0  0  0
 72199  1  0  0  0
 73200  1  0  0  0
 74201  1  0  0  0
 75202  1  0  0  0
 76203  1  0  0  0
 79204  1  0  0  0
 79205  1  0  0  0
 80206  1  0  0  0
 81207  1  0  0  0
 81208  1  0  0  0
 81209  1  0  0  0
 82210  1  0  0  0
 82211  1  0  0  0
 82212  1  0  0  0
 83213  1  0  0  0
 84214  1  0  0  0
 87215  1  0  0  0
 87216  1  0  0  0
 88217  1  0  0  0
 88218  1  0  0  0
 90219  1  0  0  0
 90220  1  0  0  0
 90221  1  0  0  0
 91222  1  0  0  0
 92223  1  0  0  0
 95224  1  0  0  0
 95225  1  0  0  0
 96226  1  0  0  0
 96227  1  0  0  0
 99228  1  0  0  0
100229  1  0  0  0
101230  1  0  0  0
104231  1  0  0  0
104232  1  0  0  0
105233  1  0  0  0
106234  1  0  0  0
107235  1  0  0  0
110236  1  0  0  0
110237  1  0  0  0
111238  1  0  0  0
111239  1  0  0  0
112240  1  0  0  0
112241  1  0  0  0
113242  1  0  0  0
115243  1  0  0  0
115244  1  0  0  0
116245  1  0  0  0
117246  1  0  0  0
118247  1  0  0  0
120248  1  0  0  0
121249  1  0  0  0
121250  1  0  0  0
124251  1  0  0  0
124252  1  0  0  0
M  END
$$$$
