### 
### Created by X-TOOL on Tue Oct 16 15:17:21 2018
### 

@<TRIPOS>MOLECULE
1ej4_ligand
  252   253     1     0     0
SMALL
GAST_HUCK


@<TRIPOS>ATOM
      1 N          28.5100   11.6200    6.4720 N.4       1 ARG         0.2379
      2 CA         27.2370   10.8640    6.6310 C.3       1 ARG         0.0651
      3 C          26.4930   10.7950    5.3010 C.2       1 ARG         0.2267
      4 O          26.4150   11.7820    4.5680 O.2       1 ARG        -0.3907
      5 CB         26.3320   11.5190    7.6920 C.3       1 ARG         0.0110
      6 CG         24.9900   10.7770    7.8990 C.3       1 ARG        -0.0125
      7 CD         24.1250   11.4590    8.9580 C.3       1 ARG         0.0629
      8 NE         24.8000   11.4810   10.2530 N.pl3     1 ARG        -0.2723
      9 CZ         24.8650   10.4530   11.0920 C.cat     1 ARG         0.2882
     10 NH1        24.2900    9.2920   10.7940 N.pl3     1 ARG        -0.2849
     11 NH2        25.5340   10.5880   12.2270 N.pl3     1 ARG        -0.2849
     12 N          25.9550    9.6190    5.0050 N.am      1 ARG        -0.2608
     13 CA         25.2190    9.3880    3.7660 C.3       1 ARG         0.1336
     14 C          23.7210    9.5620    3.9830 C.2       1 ARG         0.2042
     15 O          23.0640    8.7360    4.6280 O.2       1 ARG        -0.3944
     16 CB         25.4660    7.9600    3.2090 C.3       1 ARG        -0.0037
     17 CG1        26.9550    7.7610    2.9180 C.3       1 ARG        -0.0491
     18 CG2        24.6530    7.7500    1.9530 C.3       1 ARG        -0.0582
     19 CD1        27.6210    8.7140    1.8850 C.3       1 ARG        -0.0648
     20 N          23.1910   10.6380    3.4190 N.am      1 ARG        -0.2635
     21 CA         21.7820   10.9350    3.5270 C.3       1 ARG         0.1335
     22 C          21.1220   10.8180    2.1620 C.2       1 ARG         0.2043
     23 O          21.7350   11.1100    1.1370 O.2       1 ARG        -0.3944
     24 CB         21.5510   12.3570    4.0310 C.3       1 ARG        -0.0037
     25 CG1        22.2320   12.5530    5.3890 C.3       1 ARG        -0.0491
     26 CG2        20.0530   12.6280    4.1230 C.3       1 ARG        -0.0582
     27 CD1        23.7360   12.7900    5.3240 C.3       1 ARG        -0.0648
     28 N          19.8640   10.3910    2.1690 N.am      1 ARG        -0.2621
     29 CA         19.0860   10.2530    0.9520 C.3       1 ARG         0.1390
     30 C          17.6860   10.7860    1.1550 C.2       1 ARG         0.2058
     31 O          17.0440   10.5600    2.1910 O.2       1 ARG        -0.3942
     32 CB         18.9770    8.7980    0.5010 C.3       1 ARG         0.0163
     33 CG         20.2670    8.2060   -0.0050 C.ar      1 ARG        -0.0493
     34 CD1        20.8460    7.1330    0.6390 C.ar      1 ARG        -0.0685
     35 CD2        20.8980    8.7160   -1.1470 C.ar      1 ARG        -0.0685
     36 CE1        22.0170    6.5680    0.1770 C.ar      1 ARG        -0.0398
     37 CE2        22.0800    8.1600   -1.6280 C.ar      1 ARG        -0.0398
     38 CZ         22.6320    7.0820   -0.9520 C.ar      1 ARG         0.0805
     39 OH         23.7880    6.5070   -1.3900 O.3       1 ARG        -0.3376
     40 N          17.2470   11.4830    0.1180 N.am      1 ARG        -0.2620
     41 CA         15.9400   12.1100   -0.0110 C.3       1 ARG         0.1423
     42 C          14.8540   11.0460   -0.1970 C.2       1 ARG         0.2056
     43 O          15.1200    9.9670   -0.7190 O.2       1 ARG        -0.3943
     44 CB         15.9460   12.9680   -1.2900 C.3       1 ARG         0.0406
     45 CG         15.2920   14.2640   -1.1010 C.2       1 ARG         0.0393
     46 OD1        14.2210   14.2740   -0.4630 O.co2     1 ARG        -0.5688
     47 OD2        15.8300   15.2750   -1.5890 O.co2     1 ARG        -0.5688
     48 N          13.6310   11.3910    0.1850 N.am      1 ARG        -0.2636
     49 CA         12.4740   10.5290   -0.0080 C.3       1 ARG         0.1311
     50 C          12.3820   10.3260   -1.5240 C.2       1 ARG         0.2039
     51 O          12.3050    9.1950   -2.0140 O.2       1 ARG        -0.3944
     52 CB         11.2270   11.2570    0.5340 C.3       1 ARG        -0.0092
     53 CG          9.8210   10.7590    0.1190 C.3       1 ARG        -0.0156
     54 CD          9.4580    9.4080    0.6730 C.3       1 ARG         0.0627
     55 NE          8.0230    9.0740    0.6130 N.pl3     1 ARG        -0.2723
     56 CZ          7.2670    9.0500   -0.4860 C.cat     1 ARG         0.2882
     57 NH1         7.7700    9.3520   -1.6700 N.pl3     1 ARG        -0.2849
     58 NH2         6.0100    8.6420   -0.4150 N.pl3     1 ARG        -0.2849
     59 N          12.4210   11.4340   -2.2620 N.am      1 ARG        -0.2640
     60 CA         12.3340   11.4110   -3.7190 C.3       1 ARG         0.1282
     61 C          13.4560   10.6220   -4.3790 C.2       1 ARG         0.2037
     62 O          13.1920    9.7990   -5.2520 O.2       1 ARG        -0.3944
     63 CB         12.3180   12.8320   -4.2660 C.3       1 ARG        -0.0244
     64 N          14.7000   10.8630   -3.9720 N.am      1 ARG        -0.2619
     65 CA         15.8230   10.1380   -4.5540 C.3       1 ARG         0.1404
     66 C          15.7310    8.6450   -4.2490 C.2       1 ARG         0.2060
     67 O          16.0020    7.8130   -5.1140 O.2       1 ARG        -0.3942
     68 CB         17.1610   10.6550   -4.0400 C.3       1 ARG         0.0214
     69 CG         18.3370   10.0020   -4.7090 C.ar      1 ARG        -0.0386
     70 CD1        18.5720   10.1970   -6.0670 C.ar      1 ARG        -0.0601
     71 CD2        19.1660    9.1380   -4.0090 C.ar      1 ARG        -0.0601
     72 CE1        19.6140    9.5350   -6.7100 C.ar      1 ARG        -0.0686
     73 CE2        20.2140    8.4740   -4.6540 C.ar      1 ARG        -0.0686
     74 CZ         20.4310    8.6770   -6.0020 C.ar      1 ARG        -0.0687
     75 N          15.3680    8.2990   -3.0170 N.am      1 ARG        -0.2636
     76 CA         15.2320    6.8910   -2.6730 C.3       1 ARG         0.1312
     77 C          14.2070    6.2240   -3.6050 C.2       1 ARG         0.2039
     78 O          14.4010    5.1000   -4.0630 O.2       1 ARG        -0.3944
     79 CB         14.8070    6.7380   -1.2130 C.3       1 ARG        -0.0101
     80 CG         15.8670    7.0520   -0.1520 C.3       1 ARG        -0.0425
     81 CD1        15.2430    7.0010    1.2410 C.3       1 ARG        -0.0625
     82 CD2        17.0230    6.0510   -0.2690 C.3       1 ARG        -0.0625
     83 N          13.1250    6.9330   -3.8940 N.am      1 ARG        -0.2637
     84 CA         12.0850    6.4170   -4.7770 C.3       1 ARG         0.1317
     85 C          12.6030    6.2270   -6.2050 C.2       1 ARG         0.2039
     86 O          12.2370    5.2730   -6.9000 O.2       1 ARG        -0.3944
     87 CB         10.8800    7.3680   -4.7570 C.3       1 ARG        -0.0034
     88 CG         10.1350    7.3490   -3.4290 C.3       1 ARG        -0.0024
     89 SD          9.4550    5.6850   -3.2170 S.3       1 ARG        -0.1639
     90 CE          8.5900    5.8210   -1.6890 C.3       1 ARG        -0.0181
     91 N          13.4700    7.1410   -6.6310 N.am      1 ARG        -0.2636
     92 CA         14.0580    7.0720   -7.9570 C.3       1 ARG         0.1325
     93 C          14.9740    5.8730   -8.0930 C.2       1 ARG         0.2040
     94 O          15.1100    5.3210   -9.1830 O.2       1 ARG        -0.3944
     95 CB         14.9040    8.3110   -8.2570 C.3       1 ARG        -0.0008
     96 CG         14.1780    9.6040   -8.2580 C.3       1 ARG         0.0044
     97 CD         14.6310   10.4680   -9.4070 C.2       1 ARG         0.0350
     98 OE1        15.8690   10.6270   -9.5790 O.co2     1 ARG        -0.5690
     99 OE2        13.7400   10.9760  -10.1390 O.co2     1 ARG        -0.5690
    100 N          15.6180    5.4850   -6.9950 N.am      1 ARG        -0.2629
    101 CA         16.5400    4.3510   -7.0280 C.3       1 ARG         0.1396
    102 C          15.9310    2.9640   -7.2590 C.2       1 ARG         0.2047
    103 O          16.6640    1.9850   -7.4260 O.2       1 ARG        -0.3944
    104 CB         17.3990    4.3250   -5.7630 C.3       1 ARG         0.0311
    105 SG         18.6210    5.6650   -5.6650 S.3       1 ARG        -0.1735
    106 N          14.6060    2.8570   -7.2580 N.am      1 ARG        -0.2637
    107 CA         14.0110    1.5510   -7.5270 C.3       1 ARG         0.1311
    108 C          14.1100    1.2550   -9.0240 C.2       1 ARG         0.2035
    109 O          13.7760    0.1700   -9.4730 O.2       1 ARG        -0.3944
    110 CB         12.5710    1.4780   -7.0020 C.3       1 ARG        -0.0092
    111 CG         11.7860    2.7010   -7.2680 C.3       1 ARG        -0.0156
    112 CD         10.4660    2.7760   -6.5080 C.3       1 ARG         0.0627
    113 NE          9.8970    4.0810   -6.8090 N.pl3     1 ARG        -0.2723
    114 CZ          8.6170    4.3990   -6.7650 C.cat     1 ARG         0.2882
    115 NH1         7.6970    3.5040   -6.4200 N.pl3     1 ARG        -0.2849
    116 NH2         8.2660    5.6320   -7.1050 N.pl3     1 ARG        -0.2849
    117 N          14.6110    2.2340   -9.7760 N.am      1 ARG        -0.2674
    118 CA         14.8430    2.1080  -11.2150 C.3       1 ARG         0.1110
    119 C          16.2580    2.5780  -11.5620 C.2       1 ARG         0.0624
    120 O          16.4270    3.5570  -12.3250 O.co2     1 ARG        -0.5665
    121 CB         13.8330    2.9260  -12.0210 C.3       1 ARG         0.0718
    122 CG         12.4790    2.2630  -12.0920 C.2       1 ARG         0.1774
    123 OD1        12.3750    1.0910  -12.4680 O.2       1 ARG        -0.3971
    124 ND2        11.4290    3.0090  -11.7500 N.am      1 ARG        -0.3007
    125 OXT        17.2530    1.9860  -11.0840 O.co2     1 ARG        -0.5665
    126 H1         28.9910   11.6580    7.3570 H         1 ARG         0.2015
    127 H2         28.3078   12.5566    6.1591 H         1 ARG         0.2015
    128 H3         29.0930   11.1572    5.7924 H         1 ARG         0.2015
    129 H4         27.4771    9.8411    6.9566 H         1 ARG         0.1098
    130 H5         26.1150   12.5502    7.3764 H         1 ARG         0.0347
    131 H6         26.8728   11.5347    8.6497 H         1 ARG         0.0347
    132 H7         25.1986    9.7455    8.2193 H         1 ARG         0.0302
    133 H8         24.4407   10.7611    6.9461 H         1 ARG         0.0302
    134 H9         23.1771   10.9096    9.0562 H         1 ARG         0.0689
    135 H10        23.9189   12.4925    8.6426 H         1 ARG         0.0689
    136 H11        25.2595   12.3581   10.5367 H         1 ARG         0.2642
    137 H12        24.3487    8.5037   11.4544 H         1 ARG         0.2615
    138 H13        23.7858    9.1808    9.9028 H         1 ARG         0.2615
    139 H14        25.9797   11.4873   12.4583 H         1 ARG         0.2615
    140 H15        25.6086    9.7937   12.8784 H         1 ARG         0.2615
    141 H16        26.0573    8.8646    5.6534 H         1 ARG         0.1885
    142 H17        25.5595   10.1223    3.0211 H         1 ARG         0.0803
    143 H18        25.1506    7.2240    3.9632 H         1 ARG         0.0345
    144 H19        27.0834    6.7332    2.5478 H         1 ARG         0.0267
    145 H20        27.4947    7.8782    3.8693 H         1 ARG         0.0267
    146 H21        23.5862    7.8963    2.1780 H         1 ARG         0.0235
    147 H22        24.8121    6.7275    1.5799 H         1 ARG         0.0235
    148 H23        24.9686    8.4733    1.1867 H         1 ARG         0.0235
    149 H24        28.6846    8.4542    1.7791 H         1 ARG         0.0230
    150 H25        27.5304    9.7534    2.2334 H         1 ARG         0.0230
    151 H26        27.1191    8.6084    0.9119 H         1 ARG         0.0230
    152 H27        23.7821   11.2601    2.9055 H         1 ARG         0.1883
    153 H28        21.3194   10.2211    4.2243 H         1 ARG         0.0803
    154 H29        21.9927   13.0642    3.3135 H         1 ARG         0.0345
    155 H30        22.0539   11.6517    5.9939 H         1 ARG         0.0267
    156 H31        21.7701   13.4218    5.8807 H         1 ARG         0.0267
    157 H32        19.5922   12.4797    3.1352 H         1 ARG         0.0235
    158 H33        19.8874   13.6642    4.4529 H         1 ARG         0.0235
    159 H34        19.5989   11.9356    4.8471 H         1 ARG         0.0235
    160 H35        24.1313   12.9185    6.3425 H         1 ARG         0.0230
    161 H36        23.9393   13.6964    4.7348 H         1 ARG         0.0230
    162 H37        24.2231   11.9262    4.8479 H         1 ARG         0.0230
    163 H38        19.4386   10.1566    3.0431 H         1 ARG         0.1885
    164 H39        19.5803   10.8331    0.1589 H         1 ARG         0.0821
    165 H40        18.2327    8.7429   -0.3070 H         1 ARG         0.0453
    166 H41        18.6347    8.1971    1.3564 H         1 ARG         0.0453
    167 H42        20.3723    6.7257    1.5249 H         1 ARG         0.0530
    168 H43        20.4574    9.5596   -1.6659 H         1 ARG         0.0530
    169 H44        22.4546    5.7234    0.6969 H         1 ARG         0.0525
    170 H45        22.5596    8.5616   -2.5133 H         1 ARG         0.0525
    171 H46        24.0209    5.7883   -0.8141 H         1 ARG         0.2458
    172 H47        17.8756   11.5889   -0.6524 H         1 ARG         0.1884
    173 H48        15.7259   12.7267    0.8743 H         1 ARG         0.0819
    174 H49        15.4187   12.4198   -2.0846 H         1 ARG         0.0478
    175 H50        16.9891   13.1406   -1.5937 H         1 ARG         0.0478
    176 H51        13.4987   12.2799    0.6236 H         1 ARG         0.1883
    177 H52        12.6023    9.5657    0.5073 H         1 ARG         0.0800
    178 H53        11.3034   12.3067    0.2141 H         1 ARG         0.0313
    179 H54        11.2756   11.2037    1.6316 H         1 ARG         0.0313
    180 H55         9.7849   10.7028   -0.9790 H         1 ARG         0.0301
    181 H56         9.0779   11.4884    0.4735 H         1 ARG         0.0301
    182 H57         9.7718    9.3759    1.7268 H         1 ARG         0.0689
    183 H58        10.0096    8.6461    0.1028 H         1 ARG         0.0689
    184 H59         7.5612    8.8371    1.5027 H         1 ARG         0.2642
    185 H60         7.1692    9.3274   -2.5063 H         1 ARG         0.2615
    186 H61         8.7629    9.6120   -1.7566 H         1 ARG         0.2615
    187 H62         5.5974    8.4013    0.4976 H         1 ARG         0.2615
    188 H63         5.4443    8.5651   -1.2723 H         1 ARG         0.2615
    189 H64        12.5135   12.3161   -1.8000 H         1 ARG         0.1883
    190 H65        11.3833   10.9270   -3.9870 H         1 ARG         0.0797
    191 H66        12.2523   12.8016   -5.3636 H         1 ARG         0.0277
    192 H67        13.2416   13.3500   -3.9682 H         1 ARG         0.0277
    193 H68        11.4486   13.3709   -3.8615 H         1 ARG         0.0277
    194 H69        14.8657   11.5468   -3.2614 H         1 ARG         0.1885
    195 H70        15.7898   10.2777   -5.6446 H         1 ARG         0.0823
    196 H71        17.2202   10.4610   -2.9589 H         1 ARG         0.0474
    197 H72        17.2115   11.7388   -4.2214 H         1 ARG         0.0474
    198 H73        17.9369   10.8715   -6.6298 H         1 ARG         0.0557
    199 H74        18.9996    8.9757   -2.9502 H         1 ARG         0.0557
    200 H75        19.7841    9.6936   -7.7688 H         1 ARG         0.0599
    201 H76        20.8550    7.8009   -4.0963 H         1 ARG         0.0599
    202 H77        21.2425    8.1629   -6.5042 H         1 ARG         0.0559
    203 H78        15.1892    9.0032   -2.3299 H         1 ARG         0.1883
    204 H79        16.2060    6.3981   -2.8086 H         1 ARG         0.0800
    205 H80        14.4869    5.6959   -1.0663 H         1 ARG         0.0315
    206 H81        13.9541    7.4112   -1.0416 H         1 ARG         0.0315
    207 H82        16.2574    8.0655   -0.3264 H         1 ARG         0.0298
    208 H83        16.0110    7.2275    1.9953 H         1 ARG         0.0232
    209 H84        14.8351    5.9959    1.4235 H         1 ARG         0.0232
    210 H85        14.4336    7.7429    1.3076 H         1 ARG         0.0232
    211 H86        17.4552    6.1064   -1.2790 H         1 ARG         0.0232
    212 H87        16.6469    5.0335   -0.0865 H         1 ARG         0.0232
    213 H88        17.7961    6.2951    0.4745 H         1 ARG         0.0232
    214 H89        13.0190    7.8445   -3.4967 H         1 ARG         0.1883
    215 H90        11.7626    5.4364   -4.3970 H         1 ARG         0.0800
    216 H91        10.1838    7.0699   -5.5548 H         1 ARG         0.0320
    217 H92        11.2368    8.3914   -4.9451 H         1 ARG         0.0320
    218 H93         9.3213    8.0891   -3.4432 H         1 ARG         0.0378
    219 H94        10.8270    7.5805   -2.6058 H         1 ARG         0.0378
    220 H95         8.1232    4.8554   -1.4448 H         1 ARG         0.0340
    221 H96         7.8114    6.5931   -1.7759 H         1 ARG         0.0340
    222 H97         9.2951    6.0994   -0.8920 H         1 ARG         0.0340
    223 H98        13.7231    7.8940   -6.0236 H         1 ARG         0.1883
    224 H99        13.2460    6.9968   -8.6952 H         1 ARG         0.0801
    225 H100       15.3571    8.1777   -9.2504 H         1 ARG         0.0330
    226 H101       15.6972    8.3701   -7.4972 H         1 ARG         0.0330
    227 H102       14.3746   10.1293   -7.3118 H         1 ARG         0.0433
    228 H103       13.0991    9.4124   -8.3538 H         1 ARG         0.0433
    229 H104       15.4693    5.9754   -6.1363 H         1 ARG         0.1884
    230 H105       17.2126    4.5341   -7.8789 H         1 ARG         0.0808
    231 H106       17.9359    3.3655   -5.7303 H         1 ARG         0.0422
    232 H107       16.7322    4.4019   -4.8916 H         1 ARG         0.0422
    233 H108       18.1455    6.5537   -5.6821 H         1 ARG         0.1019
    234 H109       14.0293    3.6536   -7.0770 H         1 ARG         0.1883
    235 H110       14.5971    0.7893   -6.9920 H         1 ARG         0.0800
    236 H111       12.6043    1.3149   -5.9147 H         1 ARG         0.0313
    237 H112       12.0666    0.6282   -7.4850 H         1 ARG         0.0313
    238 H113       11.5664    2.7422   -8.3451 H         1 ARG         0.0301
    239 H114       12.3967    3.5710   -6.9848 H         1 ARG         0.0301
    240 H115       10.6425    2.6774   -5.4268 H         1 ARG         0.0689
    241 H116        9.7873    1.9778   -6.8431 H         1 ARG         0.0689
    242 H117       10.5543    4.8256   -7.0817 H         1 ARG         0.2642
    243 H118        6.7029    3.7720   -6.3917 H         1 ARG         0.2615
    244 H119        7.9781    2.5424   -6.1809 H         1 ARG         0.2615
    245 H120        8.9870    6.3179   -7.3707 H         1 ARG         0.2615
    246 H121        7.2725    5.9036   -7.1033 H         1 ARG         0.2615
    247 H122       14.8406    3.1008   -9.3334 H         1 ARG         0.1877
    248 H123       14.7399    1.0488  -11.4931 H         1 ARG         0.0752
    249 H124       14.2177    3.0532  -13.0436 H         1 ARG         0.0544
    250 H125       13.7187    3.9120  -11.5469 H         1 ARG         0.0544
    251 H126       10.5084    2.6197  -11.7789 H         1 ARG         0.1814
    252 H127       11.5617    3.9581  -11.4645 H         1 ARG         0.1814
@<TRIPOS>BOND
     1    1    2 1  
     2    2    3 1  
     3    2    5 1  
     4    3    4 2  
     5    3   12 am 
     6    5    6 1  
     7    6    7 1  
     8    7    8 1  
     9    8    9 ar 
    10    9   10 ar 
    11    9   11 ar 
    12   12   13 1  
    13   13   14 1  
    14   13   16 1  
    15   14   15 2  
    16   14   20 am 
    17   16   17 1  
    18   16   18 1  
    19   17   19 1  
    20   20   21 1  
    21   21   22 1  
    22   21   24 1  
    23   22   23 2  
    24   22   28 am 
    25   24   25 1  
    26   24   26 1  
    27   25   27 1  
    28   28   29 1  
    29   29   30 1  
    30   29   32 1  
    31   30   31 2  
    32   30   40 am 
    33   32   33 1  
    34   33   34 ar 
    35   33   35 ar 
    36   34   36 ar 
    37   35   37 ar 
    38   36   38 ar 
    39   37   38 ar 
    40   38   39 1  
    41   40   41 1  
    42   41   42 1  
    43   41   44 1  
    44   42   43 2  
    45   42   48 am 
    46   44   45 1  
    47   45   46 ar 
    48   45   47 ar 
    49   48   49 1  
    50   49   50 1  
    51   49   52 1  
    52   50   51 2  
    53   50   59 am 
    54   52   53 1  
    55   53   54 1  
    56   54   55 1  
    57   55   56 ar 
    58   56   57 ar 
    59   56   58 ar 
    60   59   60 1  
    61   60   61 1  
    62   60   63 1  
    63   61   62 2  
    64   61   64 am 
    65   64   65 1  
    66   65   66 1  
    67   65   68 1  
    68   66   67 2  
    69   66   75 am 
    70   68   69 1  
    71   69   70 ar 
    72   69   71 ar 
    73   70   72 ar 
    74   71   73 ar 
    75   72   74 ar 
    76   73   74 ar 
    77   75   76 1  
    78   76   77 1  
    79   76   79 1  
    80   77   78 2  
    81   77   83 am 
    82   79   80 1  
    83   80   81 1  
    84   80   82 1  
    85   83   84 1  
    86   84   85 1  
    87   84   87 1  
    88   85   86 2  
    89   85   91 am 
    90   87   88 1  
    91   88   89 1  
    92   89   90 1  
    93   91   92 1  
    94   92   93 1  
    95   92   95 1  
    96   93   94 2  
    97   93  100 am 
    98   95   96 1  
    99   96   97 1  
   100   97   98 ar 
   101   97   99 ar 
   102  100  101 1  
   103  101  102 1  
   104  101  104 1  
   105  102  103 2  
   106  102  106 am 
   107  104  105 1  
   108  106  107 1  
   109  107  108 1  
   110  107  110 1  
   111  108  109 2  
   112  108  117 am 
   113  110  111 1  
   114  111  112 1  
   115  112  113 1  
   116  113  114 ar 
   117  114  115 ar 
   118  114  116 ar 
   119  117  118 1  
   120  118  119 1  
   121  118  121 1  
   122  119  120 ar 
   123  119  125 ar 
   124  121  122 1  
   125  122  123 2  
   126  122  124 am 
   127    1  126 1  
   128    1  127 1  
   129    1  128 1  
   130    2  129 1  
   131    5  130 1  
   132    5  131 1  
   133    6  132 1  
   134    6  133 1  
   135    7  134 1  
   136    7  135 1  
   137    8  136 1  
   138   10  137 1  
   139   10  138 1  
   140   11  139 1  
   141   11  140 1  
   142   12  141 1  
   143   13  142 1  
   144   16  143 1  
   145   17  144 1  
   146   17  145 1  
   147   18  146 1  
   148   18  147 1  
   149   18  148 1  
   150   19  149 1  
   151   19  150 1  
   152   19  151 1  
   153   20  152 1  
   154   21  153 1  
   155   24  154 1  
   156   25  155 1  
   157   25  156 1  
   158   26  157 1  
   159   26  158 1  
   160   26  159 1  
   161   27  160 1  
   162   27  161 1  
   163   27  162 1  
   164   28  163 1  
   165   29  164 1  
   166   32  165 1  
   167   32  166 1  
   168   34  167 1  
   169   35  168 1  
   170   36  169 1  
   171   37  170 1  
   172   39  171 1  
   173   40  172 1  
   174   41  173 1  
   175   44  174 1  
   176   44  175 1  
   177   48  176 1  
   178   49  177 1  
   179   52  178 1  
   180   52  179 1  
   181   53  180 1  
   182   53  181 1  
   183   54  182 1  
   184   54  183 1  
   185   55  184 1  
   186   57  185 1  
   187   57  186 1  
   188   58  187 1  
   189   58  188 1  
   190   59  189 1  
   191   60  190 1  
   192   63  191 1  
   193   63  192 1  
   194   63  193 1  
   195   64  194 1  
   196   65  195 1  
   197   68  196 1  
   198   68  197 1  
   199   70  198 1  
   200   71  199 1  
   201   72  200 1  
   202   73  201 1  
   203   74  202 1  
   204   75  203 1  
   205   76  204 1  
   206   79  205 1  
   207   79  206 1  
   208   80  207 1  
   209   81  208 1  
   210   81  209 1  
   211   81  210 1  
   212   82  211 1  
   213   82  212 1  
   214   82  213 1  
   215   83  214 1  
   216   84  215 1  
   217   87  216 1  
   218   87  217 1  
   219   88  218 1  
   220   88  219 1  
   221   90  220 1  
   222   90  221 1  
   223   90  222 1  
   224   91  223 1  
   225   92  224 1  
   226   95  225 1  
   227   95  226 1  
   228   96  227 1  
   229   96  228 1  
   230  100  229 1  
   231  101  230 1  
   232  104  231 1  
   233  104  232 1  
   234  105  233 1  
   235  106  234 1  
   236  107  235 1  
   237  110  236 1  
   238  110  237 1  
   239  111  238 1  
   240  111  239 1  
   241  112  240 1  
   242  112  241 1  
   243  113  242 1  
   244  115  243 1  
   245  115  244 1  
   246  116  245 1  
   247  116  246 1  
   248  117  247 1  
   249  118  248 1  
   250  121  249 1  
   251  121  250 1  
   252  124  251 1  
   253  124  252 1  
@<TRIPOS>SUBSTRUCTURE
     1 ARG         1

