4kwo_ligand
  -I-interpret- 

 51 54  0  0  0  0  0  0  0  0999 V2000
  102.1060   16.4500   22.1660 C   0  0  0  0  0
  103.0940   16.8390   21.2570 C   0  0  0  0  0
  102.7060   16.8710   19.9220 C   0  0  0  0  0
  101.4350   16.5410   19.4810 C   0  0  0  0  0
  100.4420   16.1280   20.3980 C   0  0  0  0  0
   99.0460   15.8100   19.9190 C   0  0  0  0  0
   98.8050   14.3840   19.4480 C   0  0  0  0  0
  100.8030   16.0960   21.7690 C   0  0  0  0  0
   99.8460   15.6990   22.7240 N   0  0  0  0  0
  100.1660   15.7060   23.9840 C   0  0  0  0  0
   99.2800   15.3430   24.9350 N   0  0  0  0  0
  101.4080   16.0640   24.4260 N   0  0  0  0  0
  102.4340   16.4370   23.6020 C   0  0  0  0  0
  103.5460   16.7510   24.0340 O   0  0  0  0  0
  103.3890   17.2030   18.7820 N   0  0  0  0  0
  101.3480   16.6860   18.1170 N   0  0  0  0  0
  102.5350   17.0780   17.7170 C   0  0  0  0  0
  102.9390   17.3490   16.4630 N   0  0  0  0  0
  101.9480   17.4770   15.4140 C   0  0  0  0  0
   95.8960   14.6790   17.3210 C   0  0  0  0  0
   95.9310   14.9850   15.9310 O   0  0  0  0  0
   95.4890   16.3110   15.6650 C   0  0  0  0  0
   97.1360   15.1000   17.8920 O   0  0  0  0  0
   97.3440   14.2540   19.0240 C   0  0  0  0  0
   96.8910   12.8670   18.5940 C   0  0  0  0  0
   96.3450   12.2370   19.7510 O   0  0  0  0  0
   96.4160   10.8150   19.7570 C   0  0  0  0  0
   95.8230   13.1710   17.5410 C   0  0  0  0  0
   94.5320   12.8450   18.0550 O   0  0  0  0  0
  104.1035   17.1004   21.5741 H   0  0  0  0  0
   98.8681   16.4498   19.0546 H   0  0  0  0  0
   98.3888   15.9626   20.7751 H   0  0  0  0  0
   99.0219   13.6841   20.2549 H   0  0  0  0  0
   99.4584   14.1548   18.6062 H   0  0  0  0  0
   98.9131   15.4095   22.4302 H   0  0  0  0  0
   99.5555   15.3473   25.9171 H   0  0  0  0  0
  103.9307   17.4630   16.2532 H   0  0  0  0  0
  101.3920   16.5437   15.3253 H   0  0  0  0  0
  101.2625   18.2878   15.6605 H   0  0  0  0  0
  102.4466   17.6955   14.4696 H   0  0  0  0  0
   95.0297   15.1700   17.7645 H   0  0  0  0  0
   94.4629   16.4274   16.0137 H   0  0  0  0  0
   96.1336   17.0189   16.1860 H   0  0  0  0  0
   95.5331   16.4990   14.5922 H   0  0  0  0  0
   96.7711   14.5155   19.9137 H   0  0  0  0  0
   97.6621   12.2084   18.1942 H   0  0  0  0  0
   95.8682   10.4215   18.9008 H   0  0  0  0  0
   97.4590   10.5043   19.6966 H   0  0  0  0  0
   95.9750   10.4344   20.6782 H   0  0  0  0  0
   95.9838   12.6023   16.6251 H   0  0  0  0  0
   94.4754   11.8973   18.1972 H   0  0  0  0  0
  1  2  4  0  0  0
  8  1  4  0  0  0
  1 13  1  0  0  0
  3  2  4  0  0  0
  4  3  4  0  0  0
  3 15  4  0  0  0
  5  4  4  0  0  0
  4 16  4  0  0  0
  6  5  1  0  0  0
  5  8  4  0  0  0
  7  6  1  0  0  0
 24  7  1  0  0  0
  8  9  1  0  0  0
  9 10  1  0  0  0
 10 11  2  0  0  0
 10 12  4  0  0  0
 13 12  1  0  0  0
 13 14  2  0  0  0
 17 15  4  0  0  0
 16 17  4  0  0  0
 17 18  1  0  0  0
 18 19  1  0  0  0
 20 21  1  0  0  0
 23 20  1  0  0  0
 20 28  1  0  0  0
 21 22  1  0  0  0
 23 24  1  0  0  0
 24 25  1  0  0  0
 25 26  1  0  0  0
 25 28  1  0  0  0
 26 27  1  0  0  0
 28 29  1  0  0  0
  2 30  1  0  0  0
  6 31  1  0  0  0
  6 32  1  0  0  0
  7 33  1  0  0  0
  7 34  1  0  0  0
  9 35  1  0  0  0
 11 36  1  0  0  0
 18 37  1  0  0  0
 19 38  1  0  0  0
 19 39  1  0  0  0
 19 40  1  0  0  0
 20 41  1  0  0  0
 22 42  1  0  0  0
 22 43  1  0  0  0
 22 44  1  0  0  0
 24 45  1  0  0  0
 25 46  1  0  0  0
 27 47  1  0  0  0
 27 48  1  0  0  0
 27 49  1  0  0  0
 28 50  1  0  0  0
 29 51  1  0  0  0
M  END
$$$$
