2r64_ligand
  -I-interpret- 

 58 62  0  0  0  0  0  0  0  0999 V2000
   21.7670   24.6660   31.7320 C   0  0  0  0  0
   22.0340   24.4640   30.3280 C   0  0  0  0  0
   22.0410   25.6070   29.4420 C   0  0  0  0  0
   21.7830   26.9100   29.9790 C   0  0  0  0  0
   21.5270   27.0670   31.3500 C   0  0  0  0  0
   21.5200   25.9660   32.2080 C   0  0  0  0  0
   21.7860   28.1370   29.1090 C   0  0  0  0  0
   23.2150   28.5100   28.6300 C   0  0  0  0  0
   23.5810   29.7760   29.0000 N   0  0  0  0  0
   24.7840   30.6260   28.7700 C   0  0  0  0  0
   24.9740   31.8610   29.2320 N   0  0  0  0  0
   26.1680   32.3580   28.8290 N   0  0  0  0  0
   26.8640   31.4720   28.0570 C   0  0  0  0  0
   28.1020   31.5090   27.4200 C   0  0  0  0  0
   28.5290   30.3880   26.6720 C   0  0  0  0  0
   27.6950   29.2180   26.5670 C   0  0  0  0  0
   26.4310   29.1860   27.2270 C   0  0  0  0  0
   25.9830   30.2860   27.9770 C   0  0  0  0  0
   28.1370   28.1460   25.8210 N   0  0  0  0  0
   28.0940   26.7420   26.2350 C   0  0  0  0  0
   23.8670   27.7140   27.9690 O   0  0  0  0  0
   28.7030   25.8780   25.0780 C   0  0  0  0  0
   28.7820   28.3250   24.3640 S   0  0  0  0  0
   28.6480   26.6540   23.7610 C   0  0  0  0  0
   27.9140   29.2550   23.5530 O   0  0  0  0  0
   30.1920   28.7150   24.6960 O   0  0  0  0  0
   22.6640   23.6190   33.8460 C   0  0  0  0  0
   21.7360   23.5880   32.6520 N   0  0  0  0  0
   20.7450   22.4980   32.4320 C   0  0  0  0  0
   20.9930   21.2160   33.2600 C   0  0  0  0  0
   21.3620   21.5880   34.7040 C   0  0  0  0  0
   22.7280   22.3020   34.6820 C   0  0  0  0  0
   22.2277   23.4637   29.9408 H   0  0  0  0  0
   22.2402   25.4787   28.3781 H   0  0  0  0  0
   21.3311   28.0618   31.7500 H   0  0  0  0  0
   21.3190   26.1170   33.2686 H   0  0  0  0  0
   21.3955   28.9696   29.6942 H   0  0  0  0  0
   21.1755   27.9317   28.2297 H   0  0  0  0  0
   22.8689   30.2442   29.5604 H   0  0  0  0  0
   28.7350   32.3930   27.4974 H   0  0  0  0  0
   29.4967   30.4090   26.1708 H   0  0  0  0  0
   25.8050   28.2971   27.1485 H   0  0  0  0  0
   27.0657   26.4382   26.4311 H   0  0  0  0  0
   28.6667   26.6017   27.1517 H   0  0  0  0  0
   28.1275   24.9579   24.9764 H   0  0  0  0  0
   29.7413   25.6442   25.3134 H   0  0  0  0  0
   27.7530   26.4641   23.1685 H   0  0  0  0  0
   29.4218   26.3745   23.0460 H   0  0  0  0  0
   22.2847   24.3924   34.5139 H   0  0  0  0  0
   23.6674   23.7874   33.4549 H   0  0  0  0  0
   20.8160   22.2142   31.3820 H   0  0  0  0  0
   19.7740   22.8879   32.7373 H   0  0  0  0  0
   21.8127   20.6532   32.8135 H   0  0  0  0  0
   20.0863   20.6111   33.2656 H   0  0  0  0  0
   21.4177   20.6905   35.3201 H   0  0  0  0  0
   20.6023   22.2446   35.1281 H   0  0  0  0  0
   23.0056   22.5531   35.7057 H   0  0  0  0  0
   23.4610   21.6362   34.2264 H   0  0  0  0  0
  1  2  4  0  0  0
  1  6  4  0  0  0
  1 28  1  0  0  0
  2  3  4  0  0  0
  3  4  4  0  0  0
  4  5  4  0  0  0
  4  7  1  0  0  0
  5  6  4  0  0  0
  7  8  1  0  0  0
  8  9  1  0  0  0
  8 21  2  0  0  0
  9 10  1  0  0  0
 10 11  4  0  0  0
 10 18  4  0  0  0
 11 12  4  0  0  0
 12 13  4  0  0  0
 13 14  4  0  0  0
 13 18  4  0  0  0
 14 15  4  0  0  0
 15 16  4  0  0  0
 16 17  4  0  0  0
 16 19  1  0  0  0
 17 18  4  0  0  0
 19 20  1  0  0  0
 19 23  1  0  0  0
 20 22  1  0  0  0
 22 24  1  0  0  0
 23 24  1  0  0  0
 23 25  2  0  0  0
 23 26  2  0  0  0
 28 27  1  0  0  0
 27 32  1  0  0  0
 28 29  1  0  0  0
 29 30  1  0  0  0
 30 31  1  0  0  0
 31 32  1  0  0  0
  2 33  1  0  0  0
  3 34  1  0  0  0
  5 35  1  0  0  0
  6 36  1  0  0  0
  7 37  1  0  0  0
  7 38  1  0  0  0
  9 39  1  0  0  0
 14 40  1  0  0  0
 15 41  1  0  0  0
 17 42  1  0  0  0
 20 43  1  0  0  0
 20 44  1  0  0  0
 22 45  1  0  0  0
 22 46  1  0  0  0
 24 47  1  0  0  0
 24 48  1  0  0  0
 27 49  1  0  0  0
 27 50  1  0  0  0
 29 51  1  0  0  0
 29 52  1  0  0  0
 30 53  1  0  0  0
 30 54  1  0  0  0
 31 55  1  0  0  0
 31 56  1  0  0  0
 32 57  1  0  0  0
 32 58  1  0  0  0
M  END
$$$$
