1i8j_ligand
  -I-interpret- 

 32 31  0  0  0  0  0  0  0  0999 V2000
   21.0900   91.0970   49.0530 C   0  0  0  0  0
   22.1830   90.9440   48.4620 O   0  0  0  0  0
   20.8720   90.2110   50.2440 C   0  0  0  0  0
   19.4260   90.2940   50.6570 C   0  0  0  0  0
   19.4090   89.3190   53.0310 C   0  0  0  0  0
   20.1800   91.9210   48.7380 O   0  0  0  0  0
   19.1040   88.1300   53.8630 C   0  0  0  0  0
   21.2680   87.0130   52.8070 C   0  0  0  0  0
   22.1730   88.0670   53.4550 C   0  0  0  0  0
   23.6270   87.6400   53.4910 C   0  0  0  0  0
   23.8890   86.4150   53.4100 O   0  0  0  0  0
   24.4650   88.5480   53.6370 O   0  0  0  0  0
   19.9240   86.9150   53.4810 C   0  0  0  0  0
   19.0370   89.1560   51.5690 C   0  0  0  0  0
   21.5090   90.5365   51.0664 H   0  0  0  0  0
   21.1232   89.1817   49.9879 H   0  0  0  0  0
   18.8098   90.2396   49.7595 H   0  0  0  0  0
   19.2766   91.2303   51.1948 H   0  0  0  0  0
   20.4862   89.4793   53.0761 H   0  0  0  0  0
   18.8232   90.1497   53.4245 H   0  0  0  0  0
   19.4467   91.8362   49.3517 H   0  0  0  0  0
   18.0531   87.8816   53.7149 H   0  0  0  0  0
   19.3407   88.3788   54.8975 H   0  0  0  0  0
   21.7610   86.0450   52.8966 H   0  0  0  0  0
   21.1038   87.3025   51.7690 H   0  0  0  0  0
   21.8392   88.2113   54.4825 H   0  0  0  0  0
   22.1048   88.9793   52.8623 H   0  0  0  0  0
   23.0732   85.9210   53.3006 H   0  0  0  0  0
   19.3049   86.4228   52.7310 H   0  0  0  0  0
   20.1609   86.4620   54.4437 H   0  0  0  0  0
   19.5766   88.2789   51.2116 H   0  0  0  0  0
   17.9493   89.0942   51.5348 H   0  0  0  0  0
  1  2  2  0  0  0
  3  1  1  0  0  0
  1  6  1  0  0  0
  4  3  1  0  0  0
 14  4  1  0  0  0
  7  5  1  0  0  0
  5 14  1  0  0  0
 13  7  1  0  0  0
  8  9  1  0  0  0
  8 13  1  0  0  0
  9 10  1  0  0  0
 10 11  1  0  0  0
 10 12  2  0  0  0
  3 15  1  0  0  0
  3 16  1  0  0  0
  4 17  1  0  0  0
  4 18  1  0  0  0
  5 19  1  0  0  0
  5 20  1  0  0  0
  6 21  1  0  0  0
  7 22  1  0  0  0
  7 23  1  0  0  0
  8 24  1  0  0  0
  8 25  1  0  0  0
  9 26  1  0  0  0
  9 27  1  0  0  0
 11 28  1  0  0  0
 13 29  1  0  0  0
 13 30  1  0  0  0
 14 31  1  0  0  0
 14 32  1  0  0  0
M  END
$$$$
