4z1e_ligand
  -I-interpret- 

 42 44  0  0  0  0  0  0  0  0999 V2000
   13.8330    2.7250   16.7940 O   0  0  0  0  0
   15.2310    2.6230   16.8670 S   0  0  0  0  0
   15.7710    2.7470   18.1820 O   0  0  0  0  0
   15.6150    1.2870   16.0930 N   0  0  0  0  0
   15.8100    3.9040   15.9110 C   0  0  0  0  0
   17.1320    3.9870   15.4320 C   0  0  0  0  0
   14.9310    4.9620   15.5800 C   0  0  0  0  0
   15.3320    6.0300   14.7830 C   0  0  0  0  0
   16.6360    6.0980   14.2940 C   0  0  0  0  0
   17.5410    5.0620   14.6160 C   0  0  0  0  0
   16.9640    7.3120   13.4530 C   0  0  0  0  0
   16.0550    7.9200   12.8220 O   0  0  0  0  0
   18.2880    7.8530   13.2920 N   0  0  0  0  0
   18.5320    8.7500   12.2050 C   0  0  0  0  0
   18.3010    8.3740   10.8540 C   0  0  0  0  0
   18.5460    9.2470    9.7840 C   0  0  0  0  0
   19.0430   10.5270   10.0480 C   0  0  0  0  0
   19.3210   11.4690    9.0770 O   0  0  0  0  0
   20.6980   11.5400    8.6230 C   0  0  0  0  0
   19.2850   10.9360   11.3720 C   0  0  0  0  0
   19.0300   10.0680   12.4460 C   0  0  0  0  0
   19.3360   10.5630   13.8150 C   0  0  0  0  0
   19.3550    9.5360   14.9070 C   0  0  0  0  0
   18.9330    8.1110   14.5680 C   0  0  0  0  0
   14.8839    0.7125   15.6737 H   0  0  0  0  0
   16.5922    1.0050   16.0161 H   0  0  0  0  0
   17.8489    3.2095   15.6957 H   0  0  0  0  0
   13.9098    4.9400   15.9604 H   0  0  0  0  0
   14.6212    6.8195   14.5391 H   0  0  0  0  0
   18.5605    5.0938   14.2318 H   0  0  0  0  0
   17.9210    7.3745   10.6425 H   0  0  0  0  0
   18.3513    8.9315    8.7590 H   0  0  0  0  0
   21.3455   11.7790    9.4666 H   0  0  0  0  0
   20.9899   10.5786    8.2003 H   0  0  0  0  0
   20.7889   12.3155    7.8624 H   0  0  0  0  0
   19.6739   11.9356   11.5660 H   0  0  0  0  0
   18.5382   11.2607   14.0697 H   0  0  0  0  0
   20.3442   10.9748   13.7694 H   0  0  0  0  0
   18.6265    9.8836   15.6395 H   0  0  0  0  0
   20.3991    9.4607   15.2109 H   0  0  0  0  0
   19.8628    7.5433   14.5328 H   0  0  0  0  0
   18.1853    7.8533   15.3181 H   0  0  0  0  0
  1  2  2  0  0  0
  2  3  2  0  0  0
  2  4  1  0  0  0
  2  5  1  0  0  0
  5  6  4  0  0  0
  5  7  4  0  0  0
  6 10  4  0  0  0
  7  8  4  0  0  0
  8  9  4  0  0  0
  9 10  4  0  0  0
  9 11  1  0  0  0
 11 12  2  0  0  0
 11 13  1  0  0  0
 13 14  1  0  0  0
 13 24  1  0  0  0
 14 15  4  0  0  0
 14 21  4  0  0  0
 15 16  4  0  0  0
 16 17  4  0  0  0
 17 18  1  0  0  0
 17 20  4  0  0  0
 18 19  1  0  0  0
 20 21  4  0  0  0
 21 22  1  0  0  0
 22 23  1  0  0  0
 23 24  1  0  0  0
  4 25  1  0  0  0
  4 26  1  0  0  0
  6 27  1  0  0  0
  7 28  1  0  0  0
  8 29  1  0  0  0
 10 30  1  0  0  0
 15 31  1  0  0  0
 16 32  1  0  0  0
 19 33  1  0  0  0
 19 34  1  0  0  0
 19 35  1  0  0  0
 20 36  1  0  0  0
 22 37  1  0  0  0
 22 38  1  0  0  0
 23 39  1  0  0  0
 23 40  1  0  0  0
 24 41  1  0  0  0
 24 42  1  0  0  0
M  END
$$$$
