2yi0_ligand
  -I-interpret- 

 33 35  0  0  0  0  0  0  0  0999 V2000
   30.1230    9.0240   28.0130 N   0  0  0  0  0
   30.0090    9.9180   27.0770 N   0  0  0  0  0
   30.8210    9.6080   26.0270 C   0  0  0  0  0
   31.6090    8.4490   26.1710 C   0  0  0  0  0
   30.8820   10.4360   24.8480 C   0  0  0  0  0
   32.5560    7.8240   25.3410 C   0  0  0  0  0
   32.2050    7.4140   24.0780 C   0  0  0  0  0
   33.0390    6.8120   23.1840 C   0  0  0  0  0
   34.3760    6.6920   23.5110 C   0  0  0  0  0
   34.8020    7.0880   24.7700 C   0  0  0  0  0
   33.8940    7.6470   25.6490 C   0  0  0  0  0
   29.7440   10.8380   24.1780 C   0  0  0  0  0
   29.7380   11.5920   22.9570 C   0  0  0  0  0
   31.0040   12.0830   22.5960 C   0  0  0  0  0
   32.1320   11.6890   23.3220 C   0  0  0  0  0
   32.1590   10.9080   24.4240 C   0  0  0  0  0
   31.1400   12.7290   21.4090 O   0  0  0  0  0
   28.5370   10.4350   24.6060 O   0  0  0  0  0
   35.3390    6.1070   22.7550 O   0  0  0  0  0
   31.1670    7.8150   27.7500 S   0  0  0  0  0
   34.9620    5.7450   21.4020 C   0  0  0  0  0
   33.7210   12.3740   22.7910 Cl  0  0  0  0  0
   31.1748    7.5841   23.7650 H   0  0  0  0  0
   32.6605    6.4344   22.2341 H   0  0  0  0  0
   35.8438    6.9594   25.0636 H   0  0  0  0  0
   34.2477    7.9632   26.6303 H   0  0  0  0  0
   28.8384   11.7669   22.3668 H   0  0  0  0  0
   33.0824   10.6588   24.9468 H   0  0  0  0  0
   32.0528   13.0053   21.2991 H   0  0  0  0  0
   27.8577   10.8001   24.0343 H   0  0  0  0  0
   34.1337    5.0372   21.4340 H   0  0  0  0  0
   34.6563    6.6397   20.8597 H   0  0  0  0  0
   35.8137    5.2870   20.8991 H   0  0  0  0  0
  1  2  4  0  0  0
  1 20  4  0  0  0
  2  3  4  0  0  0
  3  4  4  0  0  0
  3  5  1  0  0  0
  4  6  1  0  0  0
  4 20  4  0  0  0
  5 12  4  0  0  0
  5 16  4  0  0  0
  6  7  4  0  0  0
  6 11  4  0  0  0
  7  8  4  0  0  0
  8  9  4  0  0  0
  9 10  4  0  0  0
  9 19  1  0  0  0
 10 11  4  0  0  0
 12 13  4  0  0  0
 12 18  1  0  0  0
 13 14  4  0  0  0
 14 15  4  0  0  0
 14 17  1  0  0  0
 15 16  4  0  0  0
 15 22  1  0  0  0
 19 21  1  0  0  0
  7 23  1  0  0  0
  8 24  1  0  0  0
 10 25  1  0  0  0
 11 26  1  0  0  0
 13 27  1  0  0  0
 16 28  1  0  0  0
 17 29  1  0  0  0
 18 30  1  0  0  0
 21 31  1  0  0  0
 21 32  1  0  0  0
 21 33  1  0  0  0
M  END
$$$$
