6njz_ligand
  -I-interpret- 

152155  0  0  0  0  0  0  0  0999 V2000
    5.7290   -8.8630   14.6860 N   0  3  0  0  0
    5.1190   -9.2720   15.9850 C   0  0  0  0  0
    5.6920   -8.4620   17.1500 C   0  0  0  0  0
    6.8280   -7.9860   17.0760 O   0  0  0  0  0
    5.3420  -10.7620   16.2530 C   0  0  0  0  0
    4.7720  -11.7040   15.2160 C   0  0  0  0  0
    3.4150  -12.0080   15.1840 C   0  0  0  0  0
    5.6010  -12.3180   14.2910 C   0  0  0  0  0
    2.9050  -12.8870   14.2430 C   0  0  0  0  0
    5.1040  -13.1900   13.3550 C   0  0  0  0  0
    3.7610  -13.4720   13.3310 C   0  0  0  0  0
    3.2930  -14.3480   12.3850 O   0  0  0  0  0
    4.8990   -8.3200   18.2170 N   0  0  0  0  0
    5.2860   -7.5700   19.4040 C   0  0  0  0  0
    5.5530   -8.4930   20.5820 C   0  0  0  0  0
    4.8750   -9.5110   20.7670 O   0  0  0  0  0
    4.2030   -6.5670   19.8110 C   0  0  0  0  0
    4.1640   -5.4810   18.9110 O   0  0  0  0  0
    6.5220   -8.0890   21.4090 N   0  0  0  0  0
    6.8610   -8.8520   22.5980 C   0  0  0  0  0
    5.8960   -8.6240   23.7500 C   0  0  0  0  0
    5.7800   -9.4880   24.6220 O   0  0  0  0  0
    8.2650   -8.4960   23.0900 C   0  0  0  0  0
    5.2260   -7.4700   23.8000 N   0  0  0  0  0
    4.4420   -7.0850   24.9820 C   0  0  0  0  0
    3.2550   -6.2540   24.5240 C   0  0  0  0  0
    3.4300   -5.3590   23.6840 O   0  0  0  0  0
    5.2900   -6.2760   25.9900 C   0  0  0  0  0
    4.7160   -6.2260   27.3920 C   0  0  0  0  0
    3.7380   -5.3000   27.7280 C   0  0  0  0  0
    5.1650   -7.0940   28.3840 C   0  0  0  0  0
    3.1960   -5.2580   29.0000 C   0  0  0  0  0
    4.6380   -7.0550   29.6610 C   0  0  0  0  0
    3.6550   -6.1320   29.9650 C   0  0  0  0  0
    3.1260   -6.0890   31.2350 O   0  0  0  0  0
    2.0550   -6.5050   25.0580 N   0  0  0  0  0
    0.8660   -5.7860   24.5740 C   0  0  0  0  0
    0.9320   -4.2910   24.8450 C   0  0  0  0  0
    1.4800   -3.8430   25.8530 O   0  0  0  0  0
   -0.2940   -6.4150   25.3600 C   0  0  0  0  0
    0.2140   -7.6910   25.9030 C   0  0  0  0  0
    1.7140   -7.5410   26.0540 C   0  0  0  0  0
    0.3290   -3.5180   23.9430 N   0  0  0  0  0
    0.1500   -2.0840   24.1580 C   0  0  0  0  0
    1.4560   -1.4030   24.5280 C   0  0  0  0  0
    1.4790   -0.4680   25.3300 O   0  0  0  0  0
   -0.8920   -1.8180   25.2440 C   0  0  0  0  0
   -2.2050   -2.4580   24.9340 C   0  0  0  0  0
   -2.7330   -2.1660   23.8420 O   0  0  0  0  0
   -2.6890   -3.2700   25.7500 O   0  0  0  0  0
    2.5590   -1.8860   23.9860 N   0  0  0  0  0
    3.8410   -1.2390   24.2110 C   0  0  0  0  0
    4.0600   -0.2040   23.1090 C   0  0  0  0  0
    3.6740   -0.4090   21.9520 O   0  0  0  0  0
    4.9670   -2.2740   24.3000 C   0  0  0  0  0
    5.0160   -3.1790   23.2170 O   0  0  0  0  0
    4.6090    0.9430   23.5020 N   0  0  0  0  0
    4.8280    2.0750   22.6040 C   0  0  0  0  0
    6.2750    2.5320   22.7480 C   0  0  0  0  0
    6.7760    2.6490   23.8770 O   0  0  0  0  0
    3.8640    3.2260   22.9330 C   0  0  0  0  0
    4.2190    4.4680   22.1470 C   0  0  0  0  0
    2.4260    2.8170   22.6860 C   0  0  0  0  0
    6.9720    2.8430   21.6550 N   0  0  0  0  0
    8.3690    3.2690   21.7910 C   0  0  0  0  0
    8.4860    4.5330   22.6240 C   0  0  0  0  0
    7.5910    5.3810   22.6340 O   0  0  0  0  0
    8.8090    3.5290   20.3440 C   0  0  0  0  0
    7.8780    2.7220   19.5120 C   0  0  0  0  0
    6.5630    2.7300   20.2410 C   0  0  0  0  0
    9.6330    4.6660   23.2880 N   0  0  0  0  0
    9.9550    5.8580   24.0600 C   0  0  0  0  0
   11.0220    6.6800   23.3320 C   0  0  0  0  0
   10.7260    7.6320   22.6150 O   0  0  0  0  0
   10.4720    5.5100   25.4550 C   0  0  0  0  0
    9.4290    4.9990   26.4030 C   0  0  0  0  0
    9.8470    5.3880   28.1120 S   0  0  0  0  0
    9.7640    7.1770   28.0520 C   0  0  0  0  0
   12.2180    6.4210   23.4350 O   0  0  0  0  0
    5.5656   -7.8678   14.5334 H   0  0  0  0  0
    6.7325   -9.0441   14.7110 H   0  0  0  0  0
    5.3044   -9.3985   13.9288 H   0  0  0  0  0
    4.0495   -9.0759   15.9091 H   0  0  0  0  0
    4.8329  -10.9879   17.1900 H   0  0  0  0  0
    6.4207  -10.9186   16.2543 H   0  0  0  0  0
    2.7439  -11.5482   15.9094 H   0  0  0  0  0
    6.6697  -12.1041   14.3071 H   0  0  0  0  0
    1.8392  -13.1146   14.2226 H   0  0  0  0  0
    5.7737  -13.6571   12.6329 H   0  0  0  0  0
    4.0243  -14.6520   11.8424 H   0  0  0  0  0
    3.9781   -8.7583   18.1989 H   0  0  0  0  0
    6.1997   -7.0348   19.1454 H   0  0  0  0  0
    4.4295   -6.1897   20.8082 H   0  0  0  0  0
    3.2357   -7.0692   19.7988 H   0  0  0  0  0
    3.4798   -4.8653   19.1837 H   0  0  0  0  0
    7.0322   -7.2304   21.2019 H   0  0  0  0  0
    6.8038   -9.8981   22.2971 H   0  0  0  0  0
    8.9905   -8.7214   22.3084 H   0  0  0  0  0
    8.3060   -7.4336   23.3300 H   0  0  0  0  0
    8.4954   -9.0802   23.9809 H   0  0  0  0  0
    5.2591   -6.8403   22.9983 H   0  0  0  0  0
    4.1054   -7.9891   25.4894 H   0  0  0  0  0
    5.3302   -5.2501   25.6238 H   0  0  0  0  0
    6.2605   -6.7674   26.0588 H   0  0  0  0  0
    3.3905   -4.5925   26.9752 H   0  0  0  0  0
    5.9461   -7.8171   28.1491 H   0  0  0  0  0
    2.4118   -4.5396   29.2388 H   0  0  0  0  0
    4.9951   -7.7474   30.4233 H   0  0  0  0  0
    3.5500   -6.7561   31.7798 H   0  0  0  0  0
    0.7639   -5.8761   23.4925 H   0  0  0  0  0
   -1.1583   -6.5801   24.7167 H   0  0  0  0  0
   -0.6278   -5.7546   26.1603 H   0  0  0  0  0
   -0.0259   -8.5178   25.2345 H   0  0  0  0  0
   -0.2503   -7.9139   26.8636 H   0  0  0  0  0
    2.0077   -7.2624   27.0660 H   0  0  0  0  0
    2.2479   -8.4763   25.8856 H   0  0  0  0  0
   -0.0166   -3.9381   23.0801 H   0  0  0  0  0
   -0.2013   -1.6646   23.2152 H   0  0  0  0  0
   -1.0465   -0.7410   25.3095 H   0  0  0  0  0
   -0.5222   -2.2381   26.1793 H   0  0  0  0  0
   -2.1127   -3.3351   26.5150 H   0  0  0  0  0
    2.5109   -2.7218   23.4034 H   0  0  0  0  0
    3.8453   -0.7198   25.1694 H   0  0  0  0  0
    4.7896   -2.8624   25.2002 H   0  0  0  0  0
    5.9077   -1.7234   24.2990 H   0  0  0  0  0
    5.7439   -3.7915   23.3460 H   0  0  0  0  0
    4.8907    1.0365   24.4779 H   0  0  0  0  0
    4.6360    1.7695   21.5754 H   0  0  0  0  0
    3.9668    3.4592   23.9928 H   0  0  0  0  0
    5.2337    4.7773   22.3976 H   0  0  0  0  0
    4.1566    4.2517   21.0805 H   0  0  0  0  0
    3.5217    5.2672   22.3983 H   0  0  0  0  0
    2.3019    2.5449   21.6378 H   0  0  0  0  0
    2.1793    1.9625   23.3161 H   0  0  0  0  0
    1.7661    3.6504   22.9270 H   0  0  0  0  0
    8.9836    2.5261   22.2995 H   0  0  0  0  0
    9.8487    3.2461   20.1794 H   0  0  0  0  0
    8.7644    4.5883   20.0908 H   0  0  0  0  0
    8.2486    1.7061   19.3750 H   0  0  0  0  0
    7.7781    3.1404   18.5105 H   0  0  0  0  0
    5.9074    3.5408   19.9234 H   0  0  0  0  0
    5.9633    1.8416   20.0430 H   0  0  0  0  0
   10.3110    3.9047   23.2545 H   0  0  0  0  0
    9.0353    6.4335   24.1646 H   0  0  0  0  0
   10.8664    6.4307   25.8850 H   0  0  0  0  0
   11.2047    4.7126   25.3310 H   0  0  0  0  0
    9.3681    3.9156   26.2995 H   0  0  0  0  0
    8.4788    5.4755   26.1619 H   0  0  0  0  0
   10.4845    7.5486   27.3234 H   0  0  0  0  0
    8.7594    7.4833   27.7602 H   0  0  0  0  0
    9.9978    7.5835   29.0360 H   0  0  0  0  0
   12.3316    5.6644   24.0149 H   0  0  0  0  0
  1  2  1  0  0  0
  2  3  1  0  0  0
  2  5  1  0  0  0
  3  4  2  0  0  0
  3 13  1  0  0  0
  5  6  1  0  0  0
  6  7  4  0  0  0
  6  8  4  0  0  0
  7  9  4  0  0  0
  8 10  4  0  0  0
  9 11  4  0  0  0
 10 11  4  0  0  0
 11 12  1  0  0  0
 13 14  1  0  0  0
 14 15  1  0  0  0
 14 17  1  0  0  0
 15 16  2  0  0  0
 15 19  1  0  0  0
 17 18  1  0  0  0
 19 20  1  0  0  0
 20 21  1  0  0  0
 20 23  1  0  0  0
 21 22  2  0  0  0
 21 24  1  0  0  0
 24 25  1  0  0  0
 25 26  1  0  0  0
 25 28  1  0  0  0
 26 27  2  0  0  0
 26 36  1  0  0  0
 28 29  1  0  0  0
 29 30  4  0  0  0
 29 31  4  0  0  0
 30 32  4  0  0  0
 31 33  4  0  0  0
 32 34  4  0  0  0
 33 34  4  0  0  0
 34 35  1  0  0  0
 36 37  1  0  0  0
 36 42  1  0  0  0
 37 38  1  0  0  0
 37 40  1  0  0  0
 38 39  2  0  0  0
 38 43  1  0  0  0
 40 41  1  0  0  0
 41 42  1  0  0  0
 43 44  1  0  0  0
 44 45  1  0  0  0
 44 47  1  0  0  0
 45 46  2  0  0  0
 45 51  1  0  0  0
 47 48  1  0  0  0
 48 49  2  0  0  0
 48 50  1  0  0  0
 51 52  1  0  0  0
 52 53  1  0  0  0
 52 55  1  0  0  0
 53 54  2  0  0  0
 53 57  1  0  0  0
 55 56  1  0  0  0
 57 58  1  0  0  0
 58 59  1  0  0  0
 58 61  1  0  0  0
 59 60  2  0  0  0
 59 64  1  0  0  0
 61 62  1  0  0  0
 61 63  1  0  0  0
 64 65  1  0  0  0
 64 70  1  0  0  0
 65 66  1  0  0  0
 65 68  1  0  0  0
 66 67  2  0  0  0
 66 71  1  0  0  0
 68 69  1  0  0  0
 69 70  1  0  0  0
 71 72  1  0  0  0
 72 73  1  0  0  0
 72 75  1  0  0  0
 73 74  2  0  0  0
 73 79  1  0  0  0
 75 76  1  0  0  0
 76 77  1  0  0  0
 77 78  1  0  0  0
  1 80  1  0  0  0
  1 81  1  0  0  0
  1 82  1  0  0  0
  2 83  1  0  0  0
  5 84  1  0  0  0
  5 85  1  0  0  0
  7 86  1  0  0  0
  8 87  1  0  0  0
  9 88  1  0  0  0
 10 89  1  0  0  0
 12 90  1  0  0  0
 13 91  1  0  0  0
 14 92  1  0  0  0
 17 93  1  0  0  0
 17 94  1  0  0  0
 18 95  1  0  0  0
 19 96  1  0  0  0
 20 97  1  0  0  0
 23 98  1  0  0  0
 23 99  1  0  0  0
 23100  1  0  0  0
 24101  1  0  0  0
 25102  1  0  0  0
 28103  1  0  0  0
 28104  1  0  0  0
 30105  1  0  0  0
 31106  1  0  0  0
 32107  1  0  0  0
 33108  1  0  0  0
 35109  1  0  0  0
 37110  1  0  0  0
 40111  1  0  0  0
 40112  1  0  0  0
 41113  1  0  0  0
 41114  1  0  0  0
 42115  1  0  0  0
 42116  1  0  0  0
 43117  1  0  0  0
 44118  1  0  0  0
 47119  1  0  0  0
 47120  1  0  0  0
 50121  1  0  0  0
 51122  1  0  0  0
 52123  1  0  0  0
 55124  1  0  0  0
 55125  1  0  0  0
 56126  1  0  0  0
 57127  1  0  0  0
 58128  1  0  0  0
 61129  1  0  0  0
 62130  1  0  0  0
 62131  1  0  0  0
 62132  1  0  0  0
 63133  1  0  0  0
 63134  1  0  0  0
 63135  1  0  0  0
 65136  1  0  0  0
 68137  1  0  0  0
 68138  1  0  0  0
 69139  1  0  0  0
 69140  1  0  0  0
 70141  1  0  0  0
 70142  1  0  0  0
 71143  1  0  0  0
 72144  1  0  0  0
 75145  1  0  0  0
 75146  1  0  0  0
 76147  1  0  0  0
 76148  1  0  0  0
 78149  1  0  0  0
 78150  1  0  0  0
 78151  1  0  0  0
 79152  1  0  0  0
M  END
$$$$
