### 
### Created by X-TOOL on Mon Aug  2 16:11:44 2021
### 

@<TRIPOS>MOLECULE
6njz_ligand
  150   153     1     0     0
SMALL
GAST_HUCK


@<TRIPOS>ATOM
      1 N           5.7290   -8.8630   14.6860 N.4       1 TYR         0.2392
      2 CA          5.1190   -9.2720   15.9850 C.3       1 TYR         0.0730
      3 C           5.6920   -8.4620   17.1500 C.2       1 TYR         0.2286
      4 O           6.8280   -7.9860   17.0760 O.2       1 TYR        -0.3905
      5 CB          5.3420  -10.7620   16.2530 C.3       1 TYR         0.0365
      6 CG          4.7720  -11.7040   15.2160 C.ar      1 TYR        -0.0460
      7 CD1         3.4150  -12.0080   15.1840 C.ar      1 TYR        -0.0684
      8 CD2         5.6010  -12.3180   14.2910 C.ar      1 TYR        -0.0684
      9 CE1         2.9050  -12.8870   14.2430 C.ar      1 TYR        -0.0398
     10 CE2         5.1040  -13.1900   13.3550 C.ar      1 TYR        -0.0398
     11 CZ          3.7610  -13.4720   13.3310 C.ar      1 TYR         0.0805
     12 OH          3.2930  -14.3480   12.3850 O.3       1 TYR        -0.3376
     13 N           4.8990   -8.3200   18.2170 N.am      1 TYR        -0.2587
     14 CA          5.2860   -7.5700   19.4040 C.3       1 TYR         0.1540
     15 C           5.5530   -8.4930   20.5820 C.2       1 TYR         0.2062
     16 O           4.8750   -9.5110   20.7670 O.2       1 TYR        -0.3943
     17 CB          4.2030   -6.5670   19.8110 C.3       1 TYR         0.0843
     18 OG          4.1640   -5.4810   18.9110 O.3       1 TYR        -0.3903
     19 N           6.5220   -8.0890   21.4090 N.am      1 TYR        -0.2639
     20 CA          6.8610   -8.8520   22.5980 C.3       1 TYR         0.1282
     21 C           5.8960   -8.6240   23.7500 C.2       1 TYR         0.2037
     22 O           5.7800   -9.4880   24.6220 O.2       1 TYR        -0.3944
     23 CB          8.2650   -8.4960   23.0900 C.3       1 TYR        -0.0244
     24 N           5.2260   -7.4700   23.8000 N.am      1 TYR        -0.2621
     25 CA          4.4420   -7.0850   24.9820 C.3       1 TYR         0.1392
     26 C           3.2550   -6.2540   24.5240 C.2       1 TYR         0.2082
     27 O           3.4300   -5.3590   23.6840 O.2       1 TYR        -0.3940
     28 CB          5.2900   -6.2760   25.9900 C.3       1 TYR         0.0164
     29 CG          4.7160   -6.2260   27.3920 C.ar      1 TYR        -0.0493
     30 CD1         3.7380   -5.3000   27.7280 C.ar      1 TYR        -0.0685
     31 CD2         5.1650   -7.0940   28.3840 C.ar      1 TYR        -0.0685
     32 CE1         3.1960   -5.2580   29.0000 C.ar      1 TYR        -0.0398
     33 CE2         4.6380   -7.0550   29.6610 C.ar      1 TYR        -0.0398
     34 CZ          3.6550   -6.1320   29.9650 C.ar      1 TYR         0.0805
     35 OH          3.1260   -6.0890   31.2350 O.3       1 TYR        -0.3376
     36 N           2.0550   -6.5050   25.0580 N.am      1 TYR        -0.2497
     37 CA          0.8660   -5.7860   24.5740 C.3       1 TYR         0.1338
     38 C           0.9320   -4.2910   24.8450 C.2       1 TYR         0.2042
     39 O           1.4800   -3.8430   25.8530 O.2       1 TYR        -0.3944
     40 CB         -0.2940   -6.4150   25.3600 C.3       1 TYR        -0.0104
     41 CG          0.2140   -7.6910   25.9030 C.3       1 TYR        -0.0281
     42 CD          1.7140   -7.5410   26.0540 C.3       1 TYR         0.0369
     43 N           0.3290   -3.5180   23.9430 N.am      1 TYR        -0.2622
     44 CA          0.1500   -2.0840   24.1580 C.3       1 TYR         0.1423
     45 C           1.4560   -1.4030   24.5280 C.2       1 TYR         0.2057
     46 O           1.4790   -0.4680   25.3300 O.2       1 TYR        -0.3943
     47 CB         -0.8920   -1.8180   25.2440 C.3       1 TYR         0.0406
     48 CG         -2.2050   -2.4580   24.9340 C.2       1 TYR         0.0393
     49 OD1        -2.7330   -2.1660   23.8420 O.co2     1 TYR        -0.5688
     50 OD2        -2.6890   -3.2700   25.7500 O.co2     1 TYR        -0.5688
     51 N           2.5590   -1.8860   23.9860 N.am      1 TYR        -0.2615
     52 CA          3.8410   -1.2390   24.2110 C.3       1 TYR         0.1539
     53 C           4.0600   -0.2040   23.1090 C.2       1 TYR         0.2062
     54 O           3.6740   -0.4090   21.9520 O.2       1 TYR        -0.3943
     55 CB          4.9670   -2.2740   24.3000 C.3       1 TYR         0.0843
     56 OG          5.0160   -3.1790   23.2170 O.3       1 TYR        -0.3903
     57 N           4.6090    0.9430   23.5020 N.am      1 TYR        -0.2634
     58 CA          4.8280    2.0750   22.6040 C.3       1 TYR         0.1334
     59 C           6.2750    2.5320   22.7480 C.2       1 TYR         0.2066
     60 O           6.7760    2.6490   23.8770 O.2       1 TYR        -0.3942
     61 CB          3.8640    3.2260   22.9330 C.3       1 TYR        -0.0062
     62 CG1         4.2190    4.4680   22.1470 C.3       1 TYR        -0.0584
     63 CG2         2.4260    2.8170   22.6860 C.3       1 TYR        -0.0584
     64 N           6.9720    2.8430   21.6550 N.am      1 TYR        -0.2498
     65 CA          8.3690    3.2690   21.7910 C.3       1 TYR         0.1337
     66 C           8.4860    4.5330   22.6240 C.2       1 TYR         0.2035
     67 O           7.5910    5.3810   22.6340 O.2       1 TYR        -0.3944
     68 CB          8.8090    3.5290   20.3440 C.3       1 TYR        -0.0104
     69 CG          7.8780    2.7220   19.5120 C.3       1 TYR        -0.0281
     70 CD          6.5630    2.7300   20.2410 C.3       1 TYR         0.0369
     71 N           9.6330    4.6660   23.2880 N.am      1 TYR        -0.2695
     72 CA          9.9550    5.8580   24.0600 C.3       1 TYR         0.0951
     73 C          11.0220    6.6800   23.3320 C.2       1 TYR         0.0601
     74 O          10.7260    7.6320   22.6150 O.co2     1 TYR        -0.5666
     75 CB         10.4720    5.5100   25.4550 C.3       1 TYR        -0.0089
     76 CG          9.4290    4.9990   26.4030 C.3       1 TYR        -0.0030
     77 SD          9.8470    5.3880   28.1120 S.3       1 TYR        -0.1639
     78 CE          9.7640    7.1770   28.0520 C.3       1 TYR        -0.0181
     79 OXT        12.2180    6.4210   23.4350 O.co2     1 TYR        -0.5666
     80 H1          5.3321   -9.4131   13.9404 H         1 TYR         0.2017
     81 H2          6.7252   -9.0130   14.7205 H         1 TYR         0.2017
     82 H3          5.5418   -7.8867   14.5195 H         1 TYR         0.2017
     83 H4          4.0366   -9.0846   15.9286 H         1 TYR         0.1120
     84 H5          4.8800  -11.0048   17.2213 H         1 TYR         0.0486
     85 H6          6.4264  -10.9372   16.3099 H         1 TYR         0.0486
     86 H7          2.7475  -11.5507   15.9054 H         1 TYR         0.0530
     87 H8          6.6638  -12.1053   14.3070 H         1 TYR         0.0530
     88 H9          1.8451  -13.1133   14.2227 H         1 TYR         0.0525
     89 H10         5.7700  -13.6546   12.6369 H         1 TYR         0.0525
     90 H11         2.3536  -14.4483   12.4851 H         1 TYR         0.2458
     91 H12         3.9962   -8.7497   18.1992 H         1 TYR         0.1885
     92 H13         6.2087   -7.0176   19.1730 H         1 TYR         0.0823
     93 H14         4.4210   -6.1907   20.8214 H         1 TYR         0.0606
     94 H15         3.2254   -7.0713   19.8105 H         1 TYR         0.0606
     95 H16         3.4869   -4.8717   19.1809 H         1 TYR         0.2097
     96 H17         7.0222   -7.2472   21.2060 H         1 TYR         0.1883
     97 H18         6.8373   -9.9188   22.3311 H         1 TYR         0.0797
     98 H19         8.4987   -9.0850   23.9891 H         1 TYR         0.0277
     99 H20         8.3077   -7.4240   23.3327 H         1 TYR         0.0277
    100 H21         8.9982   -8.7231   22.3021 H         1 TYR         0.0277
    101 H22         5.2585   -6.8527   23.0140 H         1 TYR         0.1885
    102 H23         4.0774   -7.9955   25.4800 H         1 TYR         0.0821
    103 H24         5.3772   -5.2449   25.6169 H         1 TYR         0.0453
    104 H25         6.2894   -6.7324   26.0434 H         1 TYR         0.0453
    105 H26         3.3924   -4.5964   26.9793 H         1 TYR         0.0530
    106 H27         5.9418   -7.8131   28.1504 H         1 TYR         0.0530
    107 H28         2.4161   -4.5436   29.2375 H         1 TYR         0.0525
    108 H29         4.9931   -7.7436   30.4191 H         1 TYR         0.0525
    109 H30         2.4676   -5.4056   31.2796 H         1 TYR         0.2458
    110 H31         0.7377   -5.9486   23.4937 H         1 TYR         0.0802
    111 H32        -1.1496   -6.5989   24.6936 H         1 TYR         0.0313
    112 H33        -0.6037   -5.7494   26.1792 H         1 TYR         0.0313
    113 H34        -0.0157   -8.5145   25.2108 H         1 TYR         0.0287
    114 H35        -0.2457   -7.8952   26.8812 H         1 TYR         0.0287
    115 H36         1.9765   -7.2119   27.0703 H         1 TYR         0.0524
    116 H37         2.2289   -8.4870   25.8304 H         1 TYR         0.0524
    117 H38        -0.0098   -3.9298   23.0971 H         1 TYR         0.1884
    118 H39        -0.2117   -1.6439   23.2170 H         1 TYR         0.0819
    119 H40        -1.0400   -0.7318   25.3347 H         1 TYR         0.0478
    120 H41        -0.5193   -2.2183   26.1984 H         1 TYR         0.0478
    121 H42         2.5118   -2.7054   23.4148 H         1 TYR         0.1884
    122 H43         3.8006   -0.7085   25.1738 H         1 TYR         0.0823
    123 H44         4.8299   -2.8525   25.2255 H         1 TYR         0.0606
    124 H45         5.9257   -1.7363   24.3423 H         1 TYR         0.0606
    125 H46         5.7363   -3.7851   23.3446 H         1 TYR         0.2097
    126 H47         4.8852    1.0347   24.4587 H         1 TYR         0.1883
    127 H48         4.6521    1.7524   21.5672 H         1 TYR         0.0803
    128 H49         3.9695    3.4608   24.0024 H         1 TYR         0.0343
    129 H50         3.5159    5.2753   22.3998 H         1 TYR         0.0234
    130 H51         4.1564    4.2510   21.0704 H         1 TYR         0.0234
    131 H52         5.2429    4.7813   22.3990 H         1 TYR         0.0234
    132 H53         2.1966    1.9130   23.2692 H         1 TYR         0.0234
    133 H54         2.2827    2.6088   21.6154 H         1 TYR         0.0234
    134 H55         1.7548    3.6322   22.9941 H         1 TYR         0.0234
    135 H56         8.9759    2.4739   22.2486 H         1 TYR         0.0802
    136 H57         9.8480    3.2021   20.1904 H         1 TYR         0.0313
    137 H58         8.7207    4.5976   20.0984 H         1 TYR         0.0313
    138 H59         8.2518    1.6927   19.4081 H         1 TYR         0.0287
    139 H60         7.7658    3.1737   18.5153 H         1 TYR         0.0287
    140 H61         5.9470    3.5892   19.9371 H         1 TYR         0.0524
    141 H62         6.0060    1.7983   20.0631 H         1 TYR         0.0524
    142 H63        10.2977    3.9196   23.2551 H         1 TYR         0.1875
    143 H64         9.0424    6.4635   24.1628 H         1 TYR         0.0726
    144 H65        10.9161    6.4168   25.8914 H         1 TYR         0.0313
    145 H66        11.2469    4.7364   25.3496 H         1 TYR         0.0313
    146 H67         9.3498    3.9073   26.2935 H         1 TYR         0.0378
    147 H68         8.4628    5.4633   26.1563 H         1 TYR         0.0378
    148 H69         9.9997    7.5885   29.0445 H         1 TYR         0.0340
    149 H70         8.7506    7.4874   27.7577 H         1 TYR         0.0340
    150 H71        10.4908    7.5534   27.3171 H         1 TYR         0.0340
@<TRIPOS>BOND
     1    1    2 1  
     2    2    3 1  
     3    2    5 1  
     4    3    4 2  
     5    3   13 am 
     6    5    6 1  
     7    6    7 ar 
     8    6    8 ar 
     9    7    9 ar 
    10    8   10 ar 
    11    9   11 ar 
    12   10   11 ar 
    13   11   12 1  
    14   13   14 1  
    15   14   15 1  
    16   14   17 1  
    17   15   16 2  
    18   15   19 am 
    19   17   18 1  
    20   19   20 1  
    21   20   21 1  
    22   20   23 1  
    23   21   22 2  
    24   21   24 am 
    25   24   25 1  
    26   25   26 1  
    27   25   28 1  
    28   26   27 2  
    29   26   36 am 
    30   28   29 1  
    31   29   30 ar 
    32   29   31 ar 
    33   30   32 ar 
    34   31   33 ar 
    35   32   34 ar 
    36   33   34 ar 
    37   34   35 1  
    38   36   37 1  
    39   36   42 1  
    40   37   38 1  
    41   37   40 1  
    42   38   39 2  
    43   38   43 am 
    44   40   41 1  
    45   41   42 1  
    46   43   44 1  
    47   44   45 1  
    48   44   47 1  
    49   45   46 2  
    50   45   51 am 
    51   47   48 1  
    52   48   49 ar 
    53   48   50 ar 
    54   51   52 1  
    55   52   53 1  
    56   52   55 1  
    57   53   54 2  
    58   53   57 am 
    59   55   56 1  
    60   57   58 1  
    61   58   59 1  
    62   58   61 1  
    63   59   60 2  
    64   59   64 am 
    65   61   62 1  
    66   61   63 1  
    67   64   65 1  
    68   64   70 1  
    69   65   66 1  
    70   65   68 1  
    71   66   67 2  
    72   66   71 am 
    73   68   69 1  
    74   69   70 1  
    75   71   72 1  
    76   72   73 1  
    77   72   75 1  
    78   73   74 ar 
    79   73   79 ar 
    80   75   76 1  
    81   76   77 1  
    82   77   78 1  
    83    1   80 1  
    84    1   81 1  
    85    1   82 1  
    86    2   83 1  
    87    5   84 1  
    88    5   85 1  
    89    7   86 1  
    90    8   87 1  
    91    9   88 1  
    92   10   89 1  
    93   12   90 1  
    94   13   91 1  
    95   14   92 1  
    96   17   93 1  
    97   17   94 1  
    98   18   95 1  
    99   19   96 1  
   100   20   97 1  
   101   23   98 1  
   102   23   99 1  
   103   23  100 1  
   104   24  101 1  
   105   25  102 1  
   106   28  103 1  
   107   28  104 1  
   108   30  105 1  
   109   31  106 1  
   110   32  107 1  
   111   33  108 1  
   112   35  109 1  
   113   37  110 1  
   114   40  111 1  
   115   40  112 1  
   116   41  113 1  
   117   41  114 1  
   118   42  115 1  
   119   42  116 1  
   120   43  117 1  
   121   44  118 1  
   122   47  119 1  
   123   47  120 1  
   124   51  121 1  
   125   52  122 1  
   126   55  123 1  
   127   55  124 1  
   128   56  125 1  
   129   57  126 1  
   130   58  127 1  
   131   61  128 1  
   132   62  129 1  
   133   62  130 1  
   134   62  131 1  
   135   63  132 1  
   136   63  133 1  
   137   63  134 1  
   138   65  135 1  
   139   68  136 1  
   140   68  137 1  
   141   69  138 1  
   142   69  139 1  
   143   70  140 1  
   144   70  141 1  
   145   71  142 1  
   146   72  143 1  
   147   75  144 1  
   148   75  145 1  
   149   76  146 1  
   150   76  147 1  
   151   78  148 1  
   152   78  149 1  
   153   78  150 1  
@<TRIPOS>SUBSTRUCTURE
     1 TYR         1

