### 
### Created by X-TOOL on Mon Aug  2 16:11:47 2021
### 

@<TRIPOS>MOLECULE
6om2_ligand
  144   143     1     0     0
SMALL
GAST_HUCK


@<TRIPOS>ATOM
      1 N         -62.0500  -13.7690  -53.2030 N.4       1 GLY         0.2357
      2 CA        -63.4860  -13.6660  -53.3900 C.3       1 GLY         0.0545
      3 C         -64.1220  -12.5750  -52.5510 C.2       1 GLY         0.2236
      4 O         -63.6470  -11.4400  -52.5280 O.2       1 GLY        -0.3910
      5 N         -65.2050  -12.9180  -51.8580 N.am      1 GLY        -0.2613
      6 CA        -65.9040  -11.9900  -50.9750 C.3       1 GLY         0.1312
      7 C         -65.9960  -12.6120  -49.5890 C.2       1 GLY         0.2039
      8 O         -66.6860  -13.6190  -49.3990 O.2       1 GLY        -0.3944
      9 CB        -67.2930  -11.6540  -51.5150 C.3       1 GLY        -0.0092
     10 CG        -67.2760  -10.8180  -52.7790 C.3       1 GLY        -0.0156
     11 CD        -68.6850  -10.5060  -53.2550 C.3       1 GLY         0.0627
     12 NE        -68.6790   -9.7050  -54.4760 N.pl3     1 GLY        -0.2723
     13 CZ        -69.7700   -9.3720  -55.1570 C.cat     1 GLY         0.2882
     14 NH1       -70.9600   -9.7770  -54.7420 N.pl3     1 GLY        -0.2849
     15 NH2       -69.6700   -8.6390  -56.2570 N.pl3     1 GLY        -0.2849
     16 N         -65.2990  -12.0180  -48.6300 N.am      1 GLY        -0.2637
     17 CA        -65.3110  -12.4690  -47.2490 C.3       1 GLY         0.1311
     18 C         -65.7680  -11.3130  -46.3660 C.2       1 GLY         0.2037
     19 O         -66.0240  -10.2050  -46.8410 O.2       1 GLY        -0.3944
     20 CB        -63.9260  -12.9830  -46.8430 C.3       1 GLY        -0.0092
     21 CG        -63.1120  -13.4930  -48.0250 C.3       1 GLY        -0.0156
     22 CD        -61.9710  -14.3960  -47.5970 C.3       1 GLY         0.0627
     23 NE        -60.9310  -13.6880  -46.8560 N.pl3     1 GLY        -0.2723
     24 CZ        -59.8890  -13.0850  -47.4190 C.cat     1 GLY         0.2882
     25 NH1       -59.7450  -13.0900  -48.7360 N.pl3     1 GLY        -0.2849
     26 NH2       -58.9880  -12.4740  -46.6620 N.pl3     1 GLY        -0.2849
     27 N         -65.8870  -11.5750  -45.0690 N.am      1 GLY        -0.2664
     28 CA        -66.2530  -10.5110  -44.1600 C.3       1 GLY         0.1201
     29 C         -67.6920  -10.5640  -43.6950 C.2       1 GLY         0.2008
     30 O         -68.2370  -11.6390  -43.4280 O.2       1 GLY        -0.3947
     31 N         -68.3160   -9.3880  -43.5980 N.am      1 GLY        -0.2624
     32 CA        -69.6960   -9.2970  -43.1430 C.3       1 GLY         0.1423
     33 C         -70.6910   -9.6420  -44.2430 C.2       1 GLY         0.2056
     34 O         -71.7650  -10.1800  -43.9530 O.2       1 GLY        -0.3943
     35 CB        -69.9730   -7.8920  -42.6070 C.3       1 GLY         0.0406
     36 CG        -71.3370   -7.7720  -41.9690 C.2       1 GLY         0.0393
     37 OD1       -71.6250   -8.5460  -41.0330 O.co2     1 GLY        -0.5688
     38 OD2       -72.1190   -6.8960  -42.3950 O.co2     1 GLY        -0.5688
     39 N         -70.3570   -9.3480  -45.4980 N.am      1 GLY        -0.2636
     40 CA        -71.2370   -9.6190  -46.6270 C.3       1 GLY         0.1312
     41 C         -70.9680  -10.9730  -47.2740 C.2       1 GLY         0.2039
     42 O         -71.4880  -11.2380  -48.3620 O.2       1 GLY        -0.3944
     43 CB        -71.1050   -8.5100  -47.6750 C.3       1 GLY        -0.0101
     44 CG        -71.2600   -7.0720  -47.1820 C.3       1 GLY        -0.0425
     45 CD1       -70.9280   -6.0880  -48.2910 C.3       1 GLY        -0.0625
     46 CD2       -72.6670   -6.8400  -46.6600 C.3       1 GLY        -0.0625
     47 N         -70.1770  -11.8330  -46.6300 N.am      1 GLY        -0.2640
     48 CA        -69.7960  -13.0990  -47.2460 C.3       1 GLY         0.1282
     49 C         -70.9320  -14.1150  -47.2080 C.2       1 GLY         0.2037
     50 O         -71.1610  -14.8280  -48.1910 O.2       1 GLY        -0.3944
     51 CB        -68.5530  -13.6640  -46.5580 C.3       1 GLY        -0.0244
     52 N         -71.6490  -14.2000  -46.0850 N.am      1 GLY        -0.2613
     53 CA        -72.7150  -15.1910  -45.9640 C.3       1 GLY         0.1565
     54 C         -73.8070  -14.9640  -47.0030 C.2       1 GLY         0.2065
     55 O         -74.3070  -15.9210  -47.6060 O.2       1 GLY        -0.3943
     56 CB        -73.3080  -15.1590  -44.5540 C.3       1 GLY         0.0924
     57 OG1       -74.1650  -14.0180  -44.4180 O.3       1 GLY        -0.3874
     58 CG2       -72.2010  -15.0810  -43.5130 C.3       1 GLY        -0.0346
     59 N         -74.1930  -13.7090  -47.2190 N.am      1 GLY        -0.2634
     60 CA        -75.2630  -13.3660  -48.1520 C.3       1 GLY         0.1333
     61 C         -75.0950  -14.0740  -49.4940 C.2       1 GLY         0.2017
     62 O         -75.9810  -14.8080  -49.9330 O.2       1 GLY        -0.3945
     63 CB        -75.3420  -11.8430  -48.3560 C.3       1 GLY        -0.0037
     64 CG1       -75.5330  -11.1340  -47.0140 C.3       1 GLY        -0.0491
     65 CG2       -76.4680  -11.4910  -49.3150 C.3       1 GLY        -0.0582
     66 CD1       -76.7170  -11.6410  -46.2210 C.3       1 GLY        -0.0648
     67 N         -73.9560  -13.8490  -50.1420 N.am      1 GLY        -0.2881
     68 CA        -73.6730  -14.4680  -51.4320 C.3       1 GLY         0.0196
     69 H1        -61.6876  -14.5082  -53.7847 H         1 GLY         0.2012
     70 H2        -61.8509  -13.9739  -52.2364 H         1 GLY         0.2012
     71 H3        -61.6145  -12.8965  -53.4582 H         1 GLY         0.2012
     72 H4        -63.9438  -14.6282  -53.1171 H         1 GLY         0.1061
     73 H5        -63.6858  -13.4525  -54.4504 H         1 GLY         0.1061
     74 H6        -65.5545  -13.8508  -51.9460 H         1 GLY         0.1884
     75 H7        -65.3233  -11.0581  -50.9087 H         1 GLY         0.0800
     76 H8        -67.8406  -11.0981  -50.7397 H         1 GLY         0.0313
     77 H9        -67.8179  -12.5964  -51.7304 H         1 GLY         0.0313
     78 H10       -66.7461  -11.3721  -53.5677 H         1 GLY         0.0301
     79 H11       -66.7491   -9.8738  -52.5768 H         1 GLY         0.0301
     80 H12       -69.2124   -9.9493  -52.4664 H         1 GLY         0.0689
     81 H13       -69.2121  -11.4512  -53.4517 H         1 GLY         0.0689
     82 H14       -67.7700   -9.3769  -54.8323 H         1 GLY         0.2642
     83 H15       -71.8053   -9.5183  -55.2707 H         1 GLY         0.2615
     84 H16       -71.0406  -10.3508  -53.8904 H         1 GLY         0.2615
     85 H17       -68.7455   -8.3223  -56.5826 H         1 GLY         0.2615
     86 H18       -70.5168   -8.3862  -56.7861 H         1 GLY         0.2615
     87 H19       -64.7399  -11.2238  -48.8681 H         1 GLY         0.1883
     88 H20       -66.0300  -13.2954  -47.1484 H         1 GLY         0.0800
     89 H21       -64.0540  -13.8057  -46.1242 H         1 GLY         0.0313
     90 H22       -63.3730  -12.1610  -46.3649 H         1 GLY         0.0313
     91 H23       -62.6955  -12.6301  -48.5653 H         1 GLY         0.0301
     92 H24       -63.7774  -14.0582  -48.6941 H         1 GLY         0.0301
     93 H25       -61.5197  -14.8409  -48.4961 H         1 GLY         0.0689
     94 H26       -62.3762  -15.1936  -46.9570 H         1 GLY         0.0689
     95 H27       -61.0101  -13.6536  -45.8296 H         1 GLY         0.2642
     96 H28       -58.9356  -12.6212  -49.1674 H         1 GLY         0.2615
     97 H29       -60.4424  -13.5627  -49.3285 H         1 GLY         0.2615
     98 H30       -59.0953  -12.4672  -45.6376 H         1 GLY         0.2615
     99 H31       -58.1808  -12.0061  -47.0983 H         1 GLY         0.2615
    100 H32       -65.7250  -12.4996  -44.7242 H         1 GLY         0.1881
    101 H33       -66.0897   -9.5498  -44.6694 H         1 GLY         0.0763
    102 H34       -65.6017  -10.5726  -43.2757 H         1 GLY         0.0763
    103 H35       -67.8253   -8.5518  -43.8430 H         1 GLY         0.1884
    104 H36       -69.8328  -10.0169  -42.3226 H         1 GLY         0.0819
    105 H37       -69.9104   -7.1779  -43.4414 H         1 GLY         0.0478
    106 H38       -69.2093   -7.6450  -41.8548 H         1 GLY         0.0478
    107 H39       -69.4678   -8.9249  -45.6723 H         1 GLY         0.1883
    108 H40       -72.2717   -9.6228  -46.2536 H         1 GLY         0.0800
    109 H41       -71.8748   -8.6834  -48.4414 H         1 GLY         0.0315
    110 H42       -70.1076   -8.5997  -48.1302 H         1 GLY         0.0315
    111 H43       -70.5532   -6.9112  -46.3546 H         1 GLY         0.0298
    112 H44       -71.0454   -5.0604  -47.9166 H         1 GLY         0.0232
    113 H45       -71.6087   -6.2490  -49.1400 H         1 GLY         0.0232
    114 H46       -69.8895   -6.2422  -48.6193 H         1 GLY         0.0232
    115 H47       -72.8848   -7.5624  -45.8595 H         1 GLY         0.0232
    116 H48       -73.3886   -6.9723  -47.4796 H         1 GLY         0.0232
    117 H49       -72.7467   -5.8174  -46.2627 H         1 GLY         0.0232
    118 H50       -69.8418  -11.6072  -45.7153 H         1 GLY         0.1883
    119 H51       -69.5497  -12.9044  -48.3003 H         1 GLY         0.0797
    120 H52       -68.2745  -14.6179  -47.0298 H         1 GLY         0.0277
    121 H53       -68.7678  -13.8311  -45.4922 H         1 GLY         0.0277
    122 H54       -67.7224  -12.9497  -46.6571 H         1 GLY         0.0277
    123 H55       -71.4552  -13.5821  -45.3230 H         1 GLY         0.1884
    124 H56       -72.2798  -16.1866  -46.1355 H         1 GLY         0.0826
    125 H57       -73.8937  -16.0755  -44.3897 H         1 GLY         0.0639
    126 H58       -74.5314  -14.0012  -43.5416 H         1 GLY         0.2101
    127 H59       -72.6449  -15.0589  -42.5068 H         1 GLY         0.0257
    128 H60       -71.6105  -14.1669  -43.6734 H         1 GLY         0.0257
    129 H61       -71.5474  -15.9608  -43.6061 H         1 GLY         0.0257
    130 H62       -73.7327  -12.9724  -46.7234 H         1 GLY         0.1883
    131 H63       -76.2134  -13.7007  -47.7108 H         1 GLY         0.0802
    132 H64       -74.3933  -11.5020  -48.7961 H         1 GLY         0.0345
    133 H65       -75.6777  -10.0606  -47.2059 H         1 GLY         0.0267
    134 H66       -74.6240  -11.2796  -46.4119 H         1 GLY         0.0267
    135 H67       -76.3108  -12.0107  -50.2716 H         1 GLY         0.0235
    136 H68       -76.4782  -10.4044  -49.4855 H         1 GLY         0.0235
    137 H69       -77.4297  -11.8033  -48.8818 H         1 GLY         0.0235
    138 H70       -76.7887  -11.0861  -45.2739 H         1 GLY         0.0230
    139 H71       -76.5848  -12.7123  -46.0091 H         1 GLY         0.0230
    140 H72       -77.6386  -11.4933  -46.8031 H         1 GLY         0.0230
    141 H73       -73.2759  -13.2397  -49.7344 H         1 GLY         0.1848
    142 H74       -72.6819  -14.1455  -51.7839 H         1 GLY         0.0484
    143 H75       -74.4381  -14.1627  -52.1610 H         1 GLY         0.0484
    144 H76       -73.6854  -15.5626  -51.3241 H         1 GLY         0.0484
@<TRIPOS>BOND
     1    1    2 1  
     2    2    3 1  
     3    3    4 2  
     4    3    5 am 
     5    5    6 1  
     6    6    7 1  
     7    6    9 1  
     8    7    8 2  
     9    7   16 am 
    10    9   10 1  
    11   10   11 1  
    12   11   12 1  
    13   12   13 ar 
    14   13   14 ar 
    15   13   15 ar 
    16   16   17 1  
    17   17   18 1  
    18   17   20 1  
    19   18   19 2  
    20   18   27 am 
    21   20   21 1  
    22   21   22 1  
    23   22   23 1  
    24   23   24 ar 
    25   24   25 ar 
    26   24   26 ar 
    27   27   28 1  
    28   28   29 1  
    29   29   30 2  
    30   29   31 am 
    31   31   32 1  
    32   32   33 1  
    33   32   35 1  
    34   33   34 2  
    35   33   39 am 
    36   35   36 1  
    37   36   37 ar 
    38   36   38 ar 
    39   39   40 1  
    40   40   41 1  
    41   40   43 1  
    42   41   42 2  
    43   41   47 am 
    44   43   44 1  
    45   44   45 1  
    46   44   46 1  
    47   47   48 1  
    48   48   49 1  
    49   48   51 1  
    50   49   50 2  
    51   49   52 am 
    52   52   53 1  
    53   53   54 1  
    54   53   56 1  
    55   54   55 2  
    56   54   59 am 
    57   56   57 1  
    58   56   58 1  
    59   59   60 1  
    60   60   61 1  
    61   60   63 1  
    62   61   62 2  
    63   61   67 am 
    64   63   64 1  
    65   63   65 1  
    66   64   66 1  
    67   67   68 1  
    68    1   69 1  
    69    1   70 1  
    70    1   71 1  
    71    2   72 1  
    72    2   73 1  
    73    5   74 1  
    74    6   75 1  
    75    9   76 1  
    76    9   77 1  
    77   10   78 1  
    78   10   79 1  
    79   11   80 1  
    80   11   81 1  
    81   12   82 1  
    82   14   83 1  
    83   14   84 1  
    84   15   85 1  
    85   15   86 1  
    86   16   87 1  
    87   17   88 1  
    88   20   89 1  
    89   20   90 1  
    90   21   91 1  
    91   21   92 1  
    92   22   93 1  
    93   22   94 1  
    94   23   95 1  
    95   25   96 1  
    96   25   97 1  
    97   26   98 1  
    98   26   99 1  
    99   27  100 1  
   100   28  101 1  
   101   28  102 1  
   102   31  103 1  
   103   32  104 1  
   104   35  105 1  
   105   35  106 1  
   106   39  107 1  
   107   40  108 1  
   108   43  109 1  
   109   43  110 1  
   110   44  111 1  
   111   45  112 1  
   112   45  113 1  
   113   45  114 1  
   114   46  115 1  
   115   46  116 1  
   116   46  117 1  
   117   47  118 1  
   118   48  119 1  
   119   51  120 1  
   120   51  121 1  
   121   51  122 1  
   122   52  123 1  
   123   53  124 1  
   124   56  125 1  
   125   57  126 1  
   126   58  127 1  
   127   58  128 1  
   128   58  129 1  
   129   59  130 1  
   130   60  131 1  
   131   63  132 1  
   132   64  133 1  
   133   64  134 1  
   134   65  135 1  
   135   65  136 1  
   136   65  137 1  
   137   66  138 1  
   138   66  139 1  
   139   66  140 1  
   140   67  141 1  
   141   68  142 1  
   142   68  143 1  
   143   68  144 1  
@<TRIPOS>SUBSTRUCTURE
     1 GLY         1

