6om2_ligand
  -I-interpret- 

143142  0  0  0  0  0  0  0  0999 V2000
  -62.0500  -13.7690  -53.2030 N   0  3  0  0  0
  -63.4860  -13.6660  -53.3900 C   0  0  0  0  0
  -64.1220  -12.5750  -52.5510 C   0  0  0  0  0
  -63.6470  -11.4400  -52.5280 O   0  0  0  0  0
  -65.2050  -12.9180  -51.8580 N   0  0  0  0  0
  -65.9040  -11.9900  -50.9750 C   0  0  0  0  0
  -65.9960  -12.6120  -49.5890 C   0  0  0  0  0
  -66.6860  -13.6190  -49.3990 O   0  0  0  0  0
  -67.2930  -11.6540  -51.5150 C   0  0  0  0  0
  -67.2760  -10.8180  -52.7790 C   0  0  0  0  0
  -68.6850  -10.5060  -53.2550 C   0  0  0  0  0
  -68.6790   -9.7050  -54.4760 N   0  0  0  0  0
  -69.7700   -9.3720  -55.1570 C   0  0  0  0  0
  -70.9600   -9.7770  -54.7420 N   0  0  0  0  0
  -69.6700   -8.6390  -56.2570 N   0  0  0  0  0
  -65.2990  -12.0180  -48.6300 N   0  0  0  0  0
  -65.3110  -12.4690  -47.2490 C   0  0  0  0  0
  -65.7680  -11.3130  -46.3660 C   0  0  0  0  0
  -66.0240  -10.2050  -46.8410 O   0  0  0  0  0
  -63.9260  -12.9830  -46.8430 C   0  0  0  0  0
  -63.1120  -13.4930  -48.0250 C   0  0  0  0  0
  -61.9710  -14.3960  -47.5970 C   0  0  0  0  0
  -60.9310  -13.6880  -46.8560 N   0  0  0  0  0
  -59.8890  -13.0850  -47.4190 C   0  0  0  0  0
  -59.7450  -13.0900  -48.7360 N   0  0  0  0  0
  -58.9880  -12.4740  -46.6620 N   0  0  0  0  0
  -65.8870  -11.5750  -45.0690 N   0  0  0  0  0
  -66.2530  -10.5110  -44.1600 C   0  0  0  0  0
  -67.6920  -10.5640  -43.6950 C   0  0  0  0  0
  -68.2370  -11.6390  -43.4280 O   0  0  0  0  0
  -68.3160   -9.3880  -43.5980 N   0  0  0  0  0
  -69.6960   -9.2970  -43.1430 C   0  0  0  0  0
  -70.6910   -9.6420  -44.2430 C   0  0  0  0  0
  -71.7650  -10.1800  -43.9530 O   0  0  0  0  0
  -69.9730   -7.8920  -42.6070 C   0  0  0  0  0
  -71.3370   -7.7720  -41.9690 C   0  0  0  0  0
  -71.6250   -8.5460  -41.0330 O   0  0  0  0  0
  -72.1190   -6.8960  -42.3950 O   0  0  0  0  0
  -70.3570   -9.3480  -45.4980 N   0  0  0  0  0
  -71.2370   -9.6190  -46.6270 C   0  0  0  0  0
  -70.9680  -10.9730  -47.2740 C   0  0  0  0  0
  -71.4880  -11.2380  -48.3620 O   0  0  0  0  0
  -71.1050   -8.5100  -47.6750 C   0  0  0  0  0
  -71.2600   -7.0720  -47.1820 C   0  0  0  0  0
  -70.9280   -6.0880  -48.2910 C   0  0  0  0  0
  -72.6670   -6.8400  -46.6600 C   0  0  0  0  0
  -70.1770  -11.8330  -46.6300 N   0  0  0  0  0
  -69.7960  -13.0990  -47.2460 C   0  0  0  0  0
  -70.9320  -14.1150  -47.2080 C   0  0  0  0  0
  -71.1610  -14.8280  -48.1910 O   0  0  0  0  0
  -68.5530  -13.6640  -46.5580 C   0  0  0  0  0
  -71.6490  -14.2000  -46.0850 N   0  0  0  0  0
  -72.7150  -15.1910  -45.9640 C   0  0  0  0  0
  -73.8070  -14.9640  -47.0030 C   0  0  0  0  0
  -74.3070  -15.9210  -47.6060 O   0  0  0  0  0
  -73.3080  -15.1590  -44.5540 C   0  0  0  0  0
  -74.1650  -14.0180  -44.4180 O   0  0  0  0  0
  -72.2010  -15.0810  -43.5130 C   0  0  0  0  0
  -74.1930  -13.7090  -47.2190 N   0  0  0  0  0
  -75.2630  -13.3660  -48.1520 C   0  0  0  0  0
  -75.0950  -14.0740  -49.4940 C   0  0  0  0  0
  -75.9810  -14.8080  -49.9330 O   0  0  0  0  0
  -75.3420  -11.8430  -48.3560 C   0  0  0  0  0
  -75.5330  -11.1340  -47.0140 C   0  0  0  0  0
  -76.4680  -11.4910  -49.3150 C   0  0  0  0  0
  -76.7170  -11.6410  -46.2210 C   0  0  0  0  0
  -73.9560  -13.8490  -50.1420 N   0  0  0  0  0
  -73.6730  -14.4680  -51.4320 C   0  0  0  0  0
  -61.6844  -14.5172  -53.7920 H   0  0  0  0  0
  -61.6104  -12.8856  -53.4615 H   0  0  0  0  0
  -61.8498  -13.9763  -52.2246 H   0  0  0  0  0
  -63.9272  -14.6153  -53.0862 H   0  0  0  0  0
  -63.6657  -13.4237  -54.4374 H   0  0  0  0  0
  -65.5615  -13.8695  -51.9478 H   0  0  0  0  0
  -65.3474  -11.0544  -50.9207 H   0  0  0  0  0
  -67.8062  -11.0725  -50.7491 H   0  0  0  0  0
  -67.7831  -12.5970  -51.7571 H   0  0  0  0  0
  -66.7631  -11.3801  -53.5594 H   0  0  0  0  0
  -66.7661   -9.8784  -52.5662 H   0  0  0  0  0
  -69.1927   -9.9385  -52.4751 H   0  0  0  0  0
  -69.1924  -11.4476  -53.4650 H   0  0  0  0  0
  -67.7788   -9.3801  -54.8289 H   0  0  0  0  0
  -71.0398  -10.3452  -53.8987 H   0  0  0  0  0
  -70.5085   -8.3886  -56.7810 H   0  0  0  0  0
  -68.7545   -8.3254  -56.5794 H   0  0  0  0  0
  -64.7287  -11.2079  -48.8728 H   0  0  0  0  0
  -66.0056  -13.3003  -47.1283 H   0  0  0  0  0
  -64.0690  -13.8153  -46.1539 H   0  0  0  0  0
  -63.3801  -12.1514  -46.3974 H   0  0  0  0  0
  -62.6849  -12.6305  -48.5367 H   0  0  0  0  0
  -63.7765  -14.0715  -48.6668 H   0  0  0  0  0
  -61.5159  -14.8063  -48.4985 H   0  0  0  0  0
  -62.3825  -15.1632  -46.9411 H   0  0  0  0  0
  -61.0093  -13.6540  -45.8396 H   0  0  0  0  0
  -60.4356  -13.5581  -49.3228 H   0  0  0  0  0
  -58.1886  -12.0107  -47.0941 H   0  0  0  0  0
  -59.0943  -12.4673  -45.6476 H   0  0  0  0  0
  -65.7217  -12.5181  -44.7173 H   0  0  0  0  0
  -66.1211   -9.5703  -44.6946 H   0  0  0  0  0
  -65.6241  -10.6118  -43.2754 H   0  0  0  0  0
  -67.8155   -8.5351  -43.8479 H   0  0  0  0  0
  -69.8278  -10.0297  -42.3469 H   0  0  0  0  0
  -69.9336   -7.1987  -43.4472 H   0  0  0  0  0
  -69.2257   -7.6703  -41.8451 H   0  0  0  0  0
  -71.6997   -6.4161  -43.1130 H   0  0  0  0  0
  -69.4501   -8.9164  -45.6758 H   0  0  0  0  0
  -72.2539   -9.6448  -46.2354 H   0  0  0  0  0
  -71.9164   -8.6716  -48.3847 H   0  0  0  0  0
  -70.0891   -8.5849  -48.0629 H   0  0  0  0  0
  -70.5592   -6.9095  -46.3631 H   0  0  0  0  0
  -69.8988   -6.2418  -48.6154 H   0  0  0  0  0
  -71.6031   -6.2486  -49.1316 H   0  0  0  0  0
  -71.0447   -5.0702  -47.9189 H   0  0  0  0  0
  -73.3845   -7.0208  -47.4604 H   0  0  0  0  0
  -72.8635   -7.5225  -45.8331 H   0  0  0  0  0
  -72.7594   -5.8108  -46.3131 H   0  0  0  0  0
  -69.8351  -11.6027  -45.6970 H   0  0  0  0  0
  -69.5701  -12.9028  -48.2941 H   0  0  0  0  0
  -67.7308  -12.9553  -46.6569 H   0  0  0  0  0
  -68.7671  -13.8290  -45.5021 H   0  0  0  0  0
  -68.2780  -14.6091  -47.0263 H   0  0  0  0  0
  -71.4513  -13.5698  -45.3077 H   0  0  0  0  0
  -72.2814  -16.1743  -46.1461 H   0  0  0  0  0
  -73.8803  -16.0732  -44.3963 H   0  0  0  0  0
  -74.5352  -14.0010  -43.5324 H   0  0  0  0  0
  -71.5541  -15.9533  -43.6064 H   0  0  0  0  0
  -71.6167  -14.1749  -43.6731 H   0  0  0  0  0
  -72.6420  -15.0592  -42.5164 H   0  0  0  0  0
  -73.7235  -12.9577  -46.7135 H   0  0  0  0  0
  -76.1986  -13.7103  -47.7112 H   0  0  0  0  0
  -74.4032  -11.5030  -48.7931 H   0  0  0  0  0
  -75.7098  -10.0794  -47.2251 H   0  0  0  0  0
  -74.6390  -11.3181  -46.4182 H   0  0  0  0  0
  -76.2861  -11.9685  -50.2778 H   0  0  0  0  0
  -77.4151  -11.8434  -48.9063 H   0  0  0  0  0
  -76.5072  -10.4096  -49.4460 H   0  0  0  0  0
  -77.6295  -11.4941  -46.7989 H   0  0  0  0  0
  -76.5848  -12.7025  -46.0118 H   0  0  0  0  0
  -76.7870  -11.0904  -45.2829 H   0  0  0  0  0
  -73.2623  -13.2275  -49.7263 H   0  0  0  0  0
  -73.6857  -15.5525  -51.3237 H   0  0  0  0  0
  -74.4318  -14.1647  -52.1534 H   0  0  0  0  0
  -72.6908  -14.1477  -51.7796 H   0  0  0  0  0
  1  2  1  0  0  0
  2  3  1  0  0  0
  3  4  2  0  0  0
  3  5  1  0  0  0
  5  6  1  0  0  0
  6  7  1  0  0  0
  6  9  1  0  0  0
  7  8  2  0  0  0
  7 16  1  0  0  0
  9 10  1  0  0  0
 10 11  1  0  0  0
 11 12  1  0  0  0
 12 13  1  0  0  0
 13 14  2  0  0  0
 13 15  1  0  0  0
 16 17  1  0  0  0
 17 18  1  0  0  0
 17 20  1  0  0  0
 18 19  2  0  0  0
 18 27  1  0  0  0
 20 21  1  0  0  0
 21 22  1  0  0  0
 22 23  1  0  0  0
 23 24  1  0  0  0
 24 25  2  0  0  0
 24 26  1  0  0  0
 27 28  1  0  0  0
 28 29  1  0  0  0
 29 30  2  0  0  0
 29 31  1  0  0  0
 31 32  1  0  0  0
 32 33  1  0  0  0
 32 35  1  0  0  0
 33 34  2  0  0  0
 33 39  1  0  0  0
 35 36  1  0  0  0
 36 37  2  0  0  0
 36 38  1  0  0  0
 39 40  1  0  0  0
 40 41  1  0  0  0
 40 43  1  0  0  0
 41 42  2  0  0  0
 41 47  1  0  0  0
 43 44  1  0  0  0
 44 45  1  0  0  0
 44 46  1  0  0  0
 47 48  1  0  0  0
 48 49  1  0  0  0
 48 51  1  0  0  0
 49 50  2  0  0  0
 49 52  1  0  0  0
 52 53  1  0  0  0
 53 54  1  0  0  0
 53 56  1  0  0  0
 54 55  2  0  0  0
 54 59  1  0  0  0
 56 57  1  0  0  0
 56 58  1  0  0  0
 59 60  1  0  0  0
 60 61  1  0  0  0
 60 63  1  0  0  0
 61 62  2  0  0  0
 61 67  1  0  0  0
 63 64  1  0  0  0
 63 65  1  0  0  0
 64 66  1  0  0  0
 67 68  1  0  0  0
  1 69  1  0  0  0
  1 70  1  0  0  0
  1 71  1  0  0  0
  2 72  1  0  0  0
  2 73  1  0  0  0
  5 74  1  0  0  0
  6 75  1  0  0  0
  9 76  1  0  0  0
  9 77  1  0  0  0
 10 78  1  0  0  0
 10 79  1  0  0  0
 11 80  1  0  0  0
 11 81  1  0  0  0
 12 82  1  0  0  0
 14 83  1  0  0  0
 15 84  1  0  0  0
 15 85  1  0  0  0
 16 86  1  0  0  0
 17 87  1  0  0  0
 20 88  1  0  0  0
 20 89  1  0  0  0
 21 90  1  0  0  0
 21 91  1  0  0  0
 22 92  1  0  0  0
 22 93  1  0  0  0
 23 94  1  0  0  0
 25 95  1  0  0  0
 26 96  1  0  0  0
 26 97  1  0  0  0
 27 98  1  0  0  0
 28 99  1  0  0  0
 28100  1  0  0  0
 31101  1  0  0  0
 32102  1  0  0  0
 35103  1  0  0  0
 35104  1  0  0  0
 38105  1  0  0  0
 39106  1  0  0  0
 40107  1  0  0  0
 43108  1  0  0  0
 43109  1  0  0  0
 44110  1  0  0  0
 45111  1  0  0  0
 45112  1  0  0  0
 45113  1  0  0  0
 46114  1  0  0  0
 46115  1  0  0  0
 46116  1  0  0  0
 47117  1  0  0  0
 48118  1  0  0  0
 51119  1  0  0  0
 51120  1  0  0  0
 51121  1  0  0  0
 52122  1  0  0  0
 53123  1  0  0  0
 56124  1  0  0  0
 57125  1  0  0  0
 58126  1  0  0  0
 58127  1  0  0  0
 58128  1  0  0  0
 59129  1  0  0  0
 60130  1  0  0  0
 63131  1  0  0  0
 64132  1  0  0  0
 64133  1  0  0  0
 65134  1  0  0  0
 65135  1  0  0  0
 65136  1  0  0  0
 66137  1  0  0  0
 66138  1  0  0  0
 66139  1  0  0  0
 67140  1  0  0  0
 68141  1  0  0  0
 68142  1  0  0  0
 68143  1  0  0  0
M  END
$$$$
