5lx6_ligand
  -I-interpret- 

 34 36  0  0  0  0  0  0  0  0999 V2000
   43.6940   16.8220   80.0260 C   0  0  0  0  0
   43.5220   16.0560   78.8430 C   0  0  0  0  0
   44.6210   15.2390   78.4330 C   0  0  0  0  0
   43.4840   18.1270   81.7950 C   0  0  0  0  0
   42.2850   15.9800   78.0890 C   0  0  0  0  0
   42.8860   19.0920   82.8360 C   0  0  0  0  0
   41.4230   20.9800   83.0520 C   0  0  0  0  0
   43.7770   20.3370   83.0090 C   0  0  0  0  0
   45.8370   15.2630   79.1660 C   0  0  0  0  0
   45.9410   16.0370   80.3500 C   0  0  0  0  0
   44.8920   16.7890   80.7620 C   0  0  0  0  0
   44.7260   17.6040   81.8460 N   0  0  0  0  0
   42.8500   17.6600   80.7100 N   0  0  0  0  0
   41.2990   16.7910   78.4370 N   0  0  0  0  0
   42.1120   15.1110   77.1800 O   0  0  0  0  0
   41.6390   19.6940   82.3340 N   0  3  0  0  0
   42.8320   21.5040   83.2910 C   0  0  0  0  0
   42.6240   18.3480   84.1690 C   0  0  0  0  0
   44.5256   14.5972   77.5572 H   0  0  0  0  0
   40.8663   20.8487   83.9799 H   0  0  0  0  0
   40.8126   21.6778   82.4787 H   0  0  0  0  0
   44.3717   20.5212   82.1143 H   0  0  0  0  0
   44.4868   20.2011   83.8249 H   0  0  0  0  0
   46.6929   14.6849   78.8177 H   0  0  0  0  0
   46.8648   16.0268   80.9284 H   0  0  0  0  0
   40.3929   16.7202   77.9740 H   0  0  0  0  0
   41.4451   17.4869   79.1683 H   0  0  0  0  0
   40.8539   19.0639   82.4984 H   0  0  0  0  0
   41.7085   19.8598   81.3300 H   0  0  0  0  0
   42.9482   21.8644   84.3131 H   0  0  0  0  0
   43.0506   22.3514   82.6412 H   0  0  0  0  0
   43.5731   18.0212   84.5939 H   0  0  0  0  0
   42.1244   19.0201   84.8666 H   0  0  0  0  0
   41.9908   17.4809   83.9813 H   0  0  0  0  0
  1  2  4  0  0  0
  1 11  4  0  0  0
 13  1  4  0  0  0
  2  3  4  0  0  0
  2  5  1  0  0  0
  3  9  4  0  0  0
  4  6  1  0  0  0
  4 12  4  0  0  0
  4 13  4  0  0  0
  5 14  1  0  0  0
  5 15  2  0  0  0
  6  8  1  0  0  0
  6 16  1  0  0  0
  6 18  1  0  0  0
 16  7  1  0  0  0
  7 17  1  0  0  0
  8 17  1  0  0  0
  9 10  4  0  0  0
 10 11  4  0  0  0
 11 12  4  0  0  0
  3 19  1  0  0  0
  7 20  1  0  0  0
  7 21  1  0  0  0
  8 22  1  0  0  0
  8 23  1  0  0  0
  9 24  1  0  0  0
 10 25  1  0  0  0
 14 26  1  0  0  0
 14 27  1  0  0  0
 16 28  1  0  0  0
 16 29  1  0  0  0
 17 30  1  0  0  0
 17 31  1  0  0  0
 18 32  1  0  0  0
 18 33  1  0  0  0
 18 34  1  0  0  0
M  END
$$$$
