3q1x_ligand
  -I-interpret- 

 15 14  0  0  0  0  0  0  0  0999 V2000
   -2.6190  -15.9300  -11.8020 N   0  3  0  0  0
   -2.8470  -16.3760  -10.3940 C   0  0  0  0  0
   -4.1080  -17.2230  -10.2980 C   0  0  0  0  0
   -4.8300  -17.3960  -11.2780 O   0  0  0  0  0
   -2.9480  -15.1680   -9.4590 C   0  0  0  0  0
   -4.1000  -14.3880   -9.7520 O   0  0  0  0  0
   -4.4270  -17.7490   -9.2390 O   0  0  0  0  0
   -2.5544  -16.7466  -12.4098 H   0  0  0  0  0
   -3.3971  -15.3425  -12.1015 H   0  0  0  0  0
   -1.7504  -15.3976  -11.8523 H   0  0  0  0  0
   -1.9967  -16.9847  -10.0864 H   0  0  0  0  0
   -4.4614  -16.9298  -12.0319 H   0  0  0  0  0
   -2.0627  -14.5469   -9.5952 H   0  0  0  0  0
   -3.0220  -15.5270   -8.4325 H   0  0  0  0  0
   -4.1389  -13.6390   -9.1527 H   0  0  0  0  0
  1  2  1  0  0  0
  2  3  1  0  0  0
  2  5  1  0  0  0
  3  4  1  0  0  0
  3  7  2  0  0  0
  5  6  1  0  0  0
  1  8  1  0  0  0
  1  9  1  0  0  0
  1 10  1  0  0  0
  2 11  1  0  0  0
  4 12  1  0  0  0
  5 13  1  0  0  0
  5 14  1  0  0  0
  6 15  1  0  0  0
M  END
$$$$
