4uiv_ligand
  -I-interpret- 

 52 55  0  0  0  0  0  0  0  0999 V2000
   -1.4670   10.3450    9.3720 C   0  0  0  0  0
   -0.6790   11.2610   10.2340 N   0  0  0  0  0
    0.5390   11.6900    9.8260 C   0  0  0  0  0
    1.3190   12.5410   10.5580 C   0  0  0  0  0
    2.6650   12.9400   10.0380 C   0  0  0  0  0
    3.4870   11.9960    9.4060 C   0  0  0  0  0
    4.7370   12.3660    8.9150 C   0  0  0  0  0
    5.1520   13.6860    9.0020 C   0  0  0  0  0
    4.3320   14.6470    9.5990 C   0  0  0  0  0
    3.0990   14.2680   10.1200 C   0  0  0  0  0
    4.7800   16.0730    9.7090 C   0  0  0  0  0
    4.6910   16.5780   10.9510 F   0  0  0  0  0
    4.0270   16.8630    9.0090 F   0  0  0  0  0
    6.0320   16.2230    9.2370 F   0  0  0  0  0
    0.7790   13.0050   11.7900 C   0  0  0  0  0
    1.5620   14.0650   12.9290 S   0  0  0  0  0
    0.2080   14.0050   14.0060 C   0  0  0  0  0
   -0.7760   13.1590   13.5290 C   0  0  0  0  0
   -0.4810   12.5620   12.2810 C   0  0  0  0  0
   -1.2490   11.6510   11.4460 C   0  0  0  0  0
   -2.3620   11.2640   11.7580 O   0  0  0  0  0
    0.1160   14.7880   15.2740 C   0  0  0  0  0
    1.0960   15.1060   15.9660 N   0  0  0  0  0
   -1.0830   15.2030   15.4880 N   0  0  0  0  0
   -1.6090   16.0450   16.5550 C   0  0  0  0  0
   -2.3110   17.2270   15.9310 C   0  0  0  0  0
   -2.7760   18.2370   16.9660 C   0  0  0  0  0
   -3.9480   17.4630   18.0350 S   0  0  0  0  0
   -4.2280   18.3370   19.1380 O   0  0  0  0  0
   -5.0580   16.9960   17.2550 O   0  0  0  0  0
   -3.0270   16.0750   18.6160 C   0  0  0  0  0
   -2.5430   15.2460   17.4320 C   0  0  0  0  0
   -1.6624    9.4184    9.9118 H   0  0  0  0  0
   -2.4122   10.8196    9.1083 H   0  0  0  0  0
   -0.9031   10.1267    8.4651 H   0  0  0  0  0
    0.9163   11.3390    8.8655 H   0  0  0  0  0
    3.1458   10.9664    9.2983 H   0  0  0  0  0
    5.3884   11.6182    8.4627 H   0  0  0  0  0
    6.1238   13.9758    8.6023 H   0  0  0  0  0
    2.4637   15.0139   10.5976 H   0  0  0  0  0
   -1.7027   12.9678   14.0700 H   0  0  0  0  0
    2.0348   14.8306   15.6777 H   0  0  0  0  0
   -1.7735   14.8943   14.8037 H   0  0  0  0  0
   -0.7991   16.4081   17.1878 H   0  0  0  0  0
   -3.1895   16.8569   15.4025 H   0  0  0  0  0
   -1.6056   17.7257   15.2663 H   0  0  0  0  0
   -3.2387   19.0887   16.4674 H   0  0  0  0  0
   -1.9232   18.5880   17.5471 H   0  0  0  0  0
   -3.6641   15.4595   19.2511 H   0  0  0  0  0
   -2.1670   16.4258   19.1865 H   0  0  0  0  0
   -2.0068   14.3760   17.8111 H   0  0  0  0  0
   -3.4073   14.9464   16.8393 H   0  0  0  0  0
  1  2  1  0  0  0
  2  3  1  0  0  0
  2 20  1  0  0  0
  3  4  2  0  0  0
  4  5  1  0  0  0
  4 15  1  0  0  0
  5  6  4  0  0  0
  5 10  4  0  0  0
  6  7  4  0  0  0
  7  8  4  0  0  0
  8  9  4  0  0  0
  9 10  4  0  0  0
  9 11  1  0  0  0
 11 12  1  0  0  0
 11 13  1  0  0  0
 11 14  1  0  0  0
 15 16  4  0  0  0
 15 19  4  0  0  0
 16 17  4  0  0  0
 17 18  4  0  0  0
 17 22  1  0  0  0
 18 19  4  0  0  0
 19 20  1  0  0  0
 20 21  2  0  0  0
 22 23  2  0  0  0
 22 24  1  0  0  0
 24 25  1  0  0  0
 25 26  1  0  0  0
 25 32  1  0  0  0
 26 27  1  0  0  0
 27 28  1  0  0  0
 28 29  2  0  0  0
 28 30  2  0  0  0
 28 31  1  0  0  0
 31 32  1  0  0  0
  1 33  1  0  0  0
  1 34  1  0  0  0
  1 35  1  0  0  0
  3 36  1  0  0  0
  6 37  1  0  0  0
  7 38  1  0  0  0
  8 39  1  0  0  0
 10 40  1  0  0  0
 18 41  1  0  0  0
 23 42  1  0  0  0
 24 43  1  0  0  0
 25 44  1  0  0  0
 26 45  1  0  0  0
 26 46  1  0  0  0
 27 47  1  0  0  0
 27 48  1  0  0  0
 31 49  1  0  0  0
 31 50  1  0  0  0
 32 51  1  0  0  0
 32 52  1  0  0  0
M  END
$$$$
