1kkq_ligand
  -I-interpret- 

 81 84  0  0  0  0  0  0  0  0999 V2000
   73.3010   29.3380   26.3950 N   0  0  0  0  0
   72.7480   29.0630   27.7190 C   0  0  0  0  0
   73.8590   28.9180   28.7580 C   0  0  0  0  0
   75.1810   28.3010   28.3640 C   0  0  0  0  0
   76.1160   29.0330   27.7400 C   0  0  0  0  0
   75.4560   27.0130   28.6190 C   0  0  0  0  0
   77.2910   28.4990   27.3750 C   0  0  0  0  0
   76.6310   26.4790   28.2550 C   0  0  0  0  0
   77.5640   27.2100   27.6250 C   0  0  0  0  0
   78.7660   26.6740   27.2410 O   0  0  0  0  0
   72.9910   28.7860   25.1550 C   0  0  0  0  0
   73.6520   29.1940   24.0740 C   0  0  0  0  0
   71.9440   27.7310   24.9480 C   0  0  0  0  0
   75.3750   30.5410   22.7220 C   0  0  0  0  0
   74.7370   30.7140   21.5550 C   0  0  0  0  0
   75.4150   31.0310   20.4420 C   0  0  0  0  0
   76.7480   31.1860   20.4490 C   0  0  0  0  0
   77.5390   31.5450   19.2120 C   0  0  0  0  0
   76.7870   31.5670   18.0750 F   0  0  0  0  0
   78.0850   32.7870   19.3410 F   0  0  0  0  0
   78.5640   30.6760   18.9850 F   0  0  0  0  0
   77.3830   31.0100   21.6170 C   0  0  0  0  0
   76.7070   30.6930   22.7320 C   0  0  0  0  0
   74.7450   30.2120   23.9300 C   0  0  0  0  0
   75.1210   30.8060   24.9390 O   0  0  0  0  0
   80.4760   25.6080   21.7450 O   0  0  0  0  0
   80.3680   24.2810   22.0700 C   0  0  0  0  0
   80.2490   24.1640   23.4410 N   0  0  0  0  0
   80.2860   25.4400   23.9660 C   0  0  0  0  0
   80.4280   26.3320   22.9070 C   0  0  0  0  0
   80.5220   27.8390   22.9190 C   0  0  0  0  0
   80.3820   23.3000   21.1560 C   0  0  0  0  0
   80.2790   22.0010   21.4770 C   0  0  0  0  0
   80.2990   21.0430   20.5370 C   0  0  0  0  0
   80.4240   21.3730   19.2440 C   0  0  0  0  0
   80.5270   22.6660   18.9030 C   0  0  0  0  0
   80.5060   23.6090   19.8560 C   0  0  0  0  0
   78.7840   26.0100   25.9790 C   0  0  0  0  0
   80.1870   25.7310   25.4450 C   0  0  0  0  0
   71.7930   30.1840   28.1210 C   0  0  0  0  0
   70.3870   29.8840   27.8630 N   0  0  0  0  0
   69.6470   30.4980   26.9570 C   0  0  0  0  0
   70.0640   31.3960   26.2270 O   0  0  0  0  0
   68.2010   30.0440   26.8410 C   0  0  0  0  0
   67.9990   28.8270   25.9410 C   0  0  0  0  0
   74.0321   30.0490   26.3760 H   0  0  0  0  0
   72.2016   28.1208   27.6768 H   0  0  0  0  0
   73.4497   28.2359   29.5032 H   0  0  0  0  0
   74.1072   29.9417   29.0382 H   0  0  0  0  0
   75.9169   30.0829   27.5253 H   0  0  0  0  0
   74.7167   26.3941   29.1274 H   0  0  0  0  0
   78.0316   29.1191   26.8700 H   0  0  0  0  0
   76.8324   25.4306   28.4751 H   0  0  0  0  0
   73.3510   28.7112   23.1443 H   0  0  0  0  0
   71.1852   28.1040   24.2601 H   0  0  0  0  0
   72.4079   26.8377   24.5297 H   0  0  0  0  0
   71.4811   27.4877   25.9044 H   0  0  0  0  0
   73.6544   30.5955   21.5106 H   0  0  0  0  0
   74.8694   31.1662   19.5081 H   0  0  0  0  0
   78.4659   31.1263   21.6614 H   0  0  0  0  0
   77.2525   30.5562   23.6657 H   0  0  0  0  0
   81.4717   28.1460   22.4809 H   0  0  0  0  0
   79.7002   28.2577   22.3381 H   0  0  0  0  0
   80.4618   28.1973   23.9466 H   0  0  0  0  0
   80.1768   21.7175   22.5245 H   0  0  0  0  0
   80.2135   19.9954   20.8256 H   0  0  0  0  0
   80.4418   20.5984   18.4774 H   0  0  0  0  0
   80.6274   22.9492   17.8552 H   0  0  0  0  0
   80.5921   24.6563   19.5666 H   0  0  0  0  0
   78.2890   26.6647   25.2617 H   0  0  0  0  0
   78.2912   25.0470   26.1129 H   0  0  0  0  0
   80.7667   26.6376   25.6183 H   0  0  0  0  0
   80.5374   24.8352   25.9576 H   0  0  0  0  0
   72.0522   31.0598   27.5262 H   0  0  0  0  0
   71.9011   30.3325   29.1954 H   0  0  0  0  0
   69.9469   29.1513   28.4197 H   0  0  0  0  0
   67.6391   30.8675   26.4002 H   0  0  0  0  0
   67.8701   29.7636   27.8410 H   0  0  0  0  0
   68.3441   29.0603   24.9337 H   0  0  0  0  0
   68.5689   27.9860   26.3360 H   0  0  0  0  0
   66.9403   28.5691   25.9131 H   0  0  0  0  0
  2  1  1  0  0  0
  1 11  1  0  0  0
  3  2  1  0  0  0
  2 40  1  0  0  0
  4  3  1  0  0  0
  5  4  4  0  0  0
  6  4  4  0  0  0
  7  5  4  0  0  0
  8  6  4  0  0  0
  9  7  4  0  0  0
  9  8  4  0  0  0
 10  9  1  0  0  0
 38 10  1  0  0  0
 11 12  2  0  0  0
 11 13  1  0  0  0
 12 24  1  0  0  0
 14 15  4  0  0  0
 14 23  4  0  0  0
 24 14  1  0  0  0
 15 16  4  0  0  0
 16 17  4  0  0  0
 17 18  1  0  0  0
 22 17  4  0  0  0
 18 19  1  0  0  0
 18 20  1  0  0  0
 18 21  1  0  0  0
 23 22  4  0  0  0
 24 25  2  0  0  0
 26 27  4  0  0  0
 30 26  4  0  0  0
 28 27  4  0  0  0
 27 32  1  0  0  0
 29 28  4  0  0  0
 29 30  4  0  0  0
 39 29  1  0  0  0
 30 31  1  0  0  0
 32 33  4  0  0  0
 32 37  4  0  0  0
 33 34  4  0  0  0
 34 35  4  0  0  0
 36 35  4  0  0  0
 37 36  4  0  0  0
 38 39  1  0  0  0
 40 41  1  0  0  0
 41 42  1  0  0  0
 42 43  2  0  0  0
 42 44  1  0  0  0
 44 45  1  0  0  0
  1 46  1  0  0  0
  2 47  1  0  0  0
  3 48  1  0  0  0
  3 49  1  0  0  0
  5 50  1  0  0  0
  6 51  1  0  0  0
  7 52  1  0  0  0
  8 53  1  0  0  0
 12 54  1  0  0  0
 13 55  1  0  0  0
 13 56  1  0  0  0
 13 57  1  0  0  0
 15 58  1  0  0  0
 16 59  1  0  0  0
 22 60  1  0  0  0
 23 61  1  0  0  0
 31 62  1  0  0  0
 31 63  1  0  0  0
 31 64  1  0  0  0
 33 65  1  0  0  0
 34 66  1  0  0  0
 35 67  1  0  0  0
 36 68  1  0  0  0
 37 69  1  0  0  0
 38 70  1  0  0  0
 38 71  1  0  0  0
 39 72  1  0  0  0
 39 73  1  0  0  0
 40 74  1  0  0  0
 40 75  1  0  0  0
 41 76  1  0  0  0
 44 77  1  0  0  0
 44 78  1  0  0  0
 45 79  1  0  0  0
 45 80  1  0  0  0
 45 81  1  0  0  0
M  END
$$$$
