1y0x_ligand
  -I-interpret- 

 36 37  0  0  0  0  0  0  0  0999 V2000
   27.7140   38.6950   92.6870 C   0  0  0  0  0
   28.7500   39.3010   91.9840 C   0  0  0  0  0
   29.5620   40.2880   92.5300 C   0  0  0  0  0
   29.2880   40.7450   93.8780 C   0  0  0  0  0
   28.2040   40.0940   94.6350 C   0  0  0  0  0
   27.4940   39.0850   94.0110 C   0  0  0  0  0
   26.8310   37.5580   92.1120 C   0  0  0  0  0
   26.1690   37.7340   90.7230 C   0  0  0  0  0
   25.1590   36.6510   90.4880 C   0  0  0  0  0
   31.0610   41.2960   95.2340 C   0  0  0  0  0
   31.4830   42.2130   96.1320 C   0  0  0  0  0
   32.5130   41.9480   97.0040 C   0  0  0  0  0
   33.2220   40.7340   97.0790 C   0  0  0  0  0
   32.7390   39.7500   96.1110 C   0  0  0  0  0
   31.6840   40.0560   95.2310 C   0  0  0  0  0
   25.5750   39.0350   90.4710 N   0  3  0  0  0
   30.0460   41.7120   94.4220 O   0  0  0  0  0
   34.1340   40.7580   98.0320 O   0  0  0  0  0
   25.3840   35.4320   90.7890 O   0  0  0  0  0
   24.1440   37.0300   89.8770 O   0  0  0  0  0
   31.0050   41.2660   91.4000 I   0  0  0  0  0
   33.0810   43.3760   98.3360 I   0  0  0  0  0
   27.7300   40.6430   96.5950 I   0  0  0  0  0
   33.5010   37.8300   95.8510 I   0  0  0  0  0
   28.9337   38.9870   90.9565 H   0  0  0  0  0
   26.7228   38.5669   94.5811 H   0  0  0  0  0
   25.9960   37.4776   92.8080 H   0  0  0  0  0
   27.5111   36.7150   91.9893 H   0  0  0  0  0
   26.9915   37.6588   90.0117 H   0  0  0  0  0
   30.9950   43.1871   96.1662 H   0  0  0  0  0
   31.3462   39.2963   94.5261 H   0  0  0  0  0
   25.1690   39.0466   89.5354 H   0  0  0  0  0
   24.8459   39.2141   91.1615 H   0  0  0  0  0
   26.2943   39.7549   90.5398 H   0  0  0  0  0
   34.5955   39.9164   98.0530 H   0  0  0  0  0
   26.2202   35.3680   91.2562 H   0  0  0  0  0
  2  1  4  0  0  0
  6  1  4  0  0  0
  1  7  1  0  0  0
  3  2  4  0  0  0
  4  3  4  0  0  0
  3 21  1  0  0  0
  4  5  4  0  0  0
 17  4  1  0  0  0
  5  6  4  0  0  0
  5 23  1  0  0  0
  7  8  1  0  0  0
  8  9  1  0  0  0
  8 16  1  0  0  0
  9 19  1  0  0  0
  9 20  2  0  0  0
 10 11  4  0  0  0
 10 15  4  0  0  0
 10 17  1  0  0  0
 11 12  4  0  0  0
 12 13  4  0  0  0
 12 22  1  0  0  0
 13 14  4  0  0  0
 13 18  1  0  0  0
 14 15  4  0  0  0
 14 24  1  0  0  0
  2 25  1  0  0  0
  6 26  1  0  0  0
  7 27  1  0  0  0
  7 28  1  0  0  0
  8 29  1  0  0  0
 11 30  1  0  0  0
 15 31  1  0  0  0
 16 32  1  0  0  0
 16 33  1  0  0  0
 16 34  1  0  0  0
 18 35  1  0  0  0
 19 36  1  0  0  0
M  END
$$$$
