6c4d_ligand
  -I-interpret- 

 53 57  0  0  0  0  0  0  0  0999 V2000
    3.1030   -6.9440    9.5610 N   0  0  0  0  0
   12.4050    0.4220    7.7450 N   0  0  0  0  0
   13.2680   -0.6060    3.4850 C   0  0  0  0  0
    4.4560   -4.3730   11.4730 C   0  0  0  0  0
   14.7720    0.2030    5.6400 C   0  0  0  0  0
   12.6840    0.1170    4.4990 C   0  0  0  0  0
    5.3810   -3.6020   12.1390 C   0  0  0  0  0
    4.8550   -5.5040   10.8040 C   0  0  0  0  0
    6.7170   -3.9430   12.1540 C   0  0  0  0  0
   11.1440   -0.8880    8.8020 C   0  0  0  0  0
   10.0200   -1.6970    9.1780 C   0  0  0  0  0
   11.5900   -2.7330   10.7680 C   0  0  0  0  0
    9.2900   -4.6790   10.6900 C   0  0  0  0  0
    9.1260   -3.1830   10.8820 C   0  0  0  0  0
   12.8220    1.3050    6.6770 C   0  0  0  0  0
    3.8920   -6.2980   10.1170 C   0  0  0  0  0
   14.6040   -0.9270    3.5470 C   0  0  0  0  0
   15.3550   -0.5220    4.6260 C   0  0  0  0  0
    6.1820   -5.8630   10.8040 C   0  0  0  0  0
   12.3190   -0.7730    9.5870 C   0  0  0  0  0
   13.4370    0.5220    5.5770 C   0  0  0  0  0
    7.0930   -5.0820   11.4740 C   0  0  0  0  0
   13.1100    0.0870    8.8630 C   0  0  0  0  0
    8.8870   -2.7760   12.3080 C   0  0  0  0  0
   12.4580   -1.4980   10.8580 C   0  0  0  0  0
    7.3750   -2.8600   14.2130 C   0  0  0  0  0
   11.2000   -0.1580    7.6830 N   0  0  0  0  0
    7.6670   -3.1580   12.8300 N   0  0  0  0  0
   10.2440   -2.4570   10.3080 N   0  0  0  0  0
    8.9830   -1.6760    8.5280 O   0  0  0  0  0
    9.7220   -2.1410   12.9350 O   0  0  0  0  0
    8.4030   -5.5020   11.4330 O   0  0  0  0  0
   14.6820    0.7120    9.1610 Cl  0  0  0  0  0
   12.6709   -0.9251    2.6307 H   0  0  0  0  0
    3.4046   -4.0855   11.4765 H   0  0  0  0  0
   15.3693    0.5242    6.4933 H   0  0  0  0  0
   11.6247    0.3691    4.4485 H   0  0  0  0  0
    5.0516   -2.7055   12.6642 H   0  0  0  0  0
   11.5150   -3.1560   11.7698 H   0  0  0  0  0
   12.0519   -3.4079   10.0474 H   0  0  0  0  0
   10.2951   -4.9236   11.0334 H   0  0  0  0  0
    9.0836   -4.8774    9.6383 H   0  0  0  0  0
    8.2183   -2.9119   10.3428 H   0  0  0  0  0
   13.5546    2.0130    7.0644 H   0  0  0  0  0
   11.9517    1.8373    6.2933 H   0  0  0  0  0
   15.0663   -1.5006    2.7436 H   0  0  0  0  0
   16.4138   -0.7758    4.6779 H   0  0  0  0  0
    6.5089   -6.7595   10.2771 H   0  0  0  0  0
   13.4986   -1.7729   11.0304 H   0  0  0  0  0
   12.1462   -0.8706   11.6930 H   0  0  0  0  0
    6.4328   -2.3155   14.2749 H   0  0  0  0  0
    7.2959   -3.7906   14.7750 H   0  0  0  0  0
    8.1768   -2.2499   14.6290 H   0  0  0  0  0
 16  1  3  0  0  0
  2 15  1  0  0  0
 23  2  4  0  0  0
 27  2  4  0  0  0
  6  3  4  0  0  0
  3 17  4  0  0  0
  7  4  4  0  0  0
  8  4  4  0  0  0
  5 18  4  0  0  0
 21  5  4  0  0  0
 21  6  4  0  0  0
  9  7  4  0  0  0
  8 16  1  0  0  0
 19  8  4  0  0  0
 22  9  4  0  0  0
  9 28  1  0  0  0
 11 10  1  0  0  0
 10 20  4  0  0  0
 10 27  4  0  0  0
 29 11  1  0  0  0
 11 30  2  0  0  0
 12 25  1  0  0  0
 29 12  1  0  0  0
 13 14  1  0  0  0
 32 13  1  0  0  0
 14 24  1  0  0  0
 14 29  1  0  0  0
 15 21  1  0  0  0
 18 17  4  0  0  0
 22 19  4  0  0  0
 20 23  4  0  0  0
 25 20  1  0  0  0
 22 32  1  0  0  0
 23 33  1  0  0  0
 24 28  1  0  0  0
 24 31  2  0  0  0
 28 26  1  0  0  0
  3 34  1  0  0  0
  4 35  1  0  0  0
  5 36  1  0  0  0
  6 37  1  0  0  0
  7 38  1  0  0  0
 12 39  1  0  0  0
 12 40  1  0  0  0
 13 41  1  0  0  0
 13 42  1  0  0  0
 14 43  1  0  0  0
 15 44  1  0  0  0
 15 45  1  0  0  0
 17 46  1  0  0  0
 18 47  1  0  0  0
 19 48  1  0  0  0
 25 49  1  0  0  0
 25 50  1  0  0  0
 26 51  1  0  0  0
 26 52  1  0  0  0
 26 53  1  0  0  0
M  END
$$$$
