2x24_ligand
  -I-interpret- 

 76 79  0  0  0  0  0  0  0  0999 V2000
    3.8420   20.6240   41.0310 C   0  0  0  0  0
    4.6080   20.8640   42.3340 C   0  0  0  0  0
    3.9380   22.0270   43.0770 C   0  0  0  0  0
    4.5250   19.5990   43.1870 C   0  0  0  0  0
    6.0200   21.0720   42.0460 O   0  0  0  0  0
    6.8480   22.0010   42.5930 C   0  0  0  0  0
    6.8030   22.3250   43.7690 O   0  0  0  0  0
    7.7770   22.5630   41.7900 N   0  0  0  0  0
    7.8850   22.1230   40.3880 C   0  0  0  0  0
    7.8500   23.2710   39.3830 C   0  0  0  0  0
    6.5150   24.0390   39.4130 C   0  0  0  0  0
    6.4720   25.0100   38.2270 C   0  0  0  0  0
    7.7260   25.9090   38.2080 C   0  0  0  0  0
    7.6900   26.7980   36.9700 C   0  0  0  0  0
    6.8650   27.9380   37.3730 N   0  0  0  0  0
    6.2420   28.7640   36.5120 C   0  0  0  0  0
    6.4120   28.7080   35.3070 O   0  0  0  0  0
    5.4610   29.8480   37.1270 C   0  0  0  0  0
    6.2100   30.8570   37.6780 C   0  0  0  0  0
    5.6190   31.9530   38.3150 C   0  0  0  0  0
    4.3000   32.0320   38.4490 N   0  0  0  0  0
    3.4900   31.0610   37.9650 C   0  0  0  0  0
    2.0790   31.1450   38.1130 C   0  0  0  0  0
    1.2700   30.1540   37.6030 C   0  0  0  0  0
    1.8130   29.0470   36.9300 C   0  0  0  0  0
    3.1770   28.9150   36.7750 C   0  0  0  0  0
    4.0440   29.9150   37.2840 C   0  0  0  0  0
    6.6000   32.9440   38.8090 C   0  0  0  0  0
    7.8960   32.4640   39.0700 C   0  0  0  0  0
    8.8930   33.3110   39.5070 C   0  0  0  0  0
    8.6260   34.6670   39.6350 C   0  0  0  0  0
    9.7320   35.5840   40.0910 C   0  0  0  0  0
   10.9730   35.2590   39.3730 N   0  3  0  0  0
    7.3390   35.1600   39.3690 C   0  0  0  0  0
    6.3230   34.3090   38.9380 C   0  0  0  0  0
    9.0810   25.1650   38.3230 C   0  0  0  0  0
    9.0720   24.2030   39.5270 C   0  0  0  0  0
    3.9534   21.4915   40.3805 H   0  0  0  0  0
    4.2424   19.7410   40.5330 H   0  0  0  0  0
    2.7865   20.4693   41.2548 H   0  0  0  0  0
    4.4395   22.1834   44.0320 H   0  0  0  0  0
    4.0115   22.9321   42.4741 H   0  0  0  0  0
    2.8886   21.7889   43.2509 H   0  0  0  0  0
    4.9387   18.7586   42.6296 H   0  0  0  0  0
    5.0946   19.7434   44.1051 H   0  0  0  0  0
    3.4827   19.3958   43.4328 H   0  0  0  0  0
    8.3989   23.2863   42.1512 H   0  0  0  0  0
    7.0293   21.4805   40.1802 H   0  0  0  0  0
    8.8456   21.6200   40.2764 H   0  0  0  0  0
    7.9168   22.8213   38.3924 H   0  0  0  0  0
    6.4313   24.5949   40.3468 H   0  0  0  0  0
    5.6847   23.3363   39.3435 H   0  0  0  0  0
    5.5886   25.6415   38.3220 H   0  0  0  0  0
    6.4390   24.4337   37.3024 H   0  0  0  0  0
    7.6786   26.5094   39.1165 H   0  0  0  0  0
    7.2814   26.2799   36.1024 H   0  0  0  0  0
    8.6872   27.1028   36.6524 H   0  0  0  0  0
    6.7551   28.1181   38.3709 H   0  0  0  0  0
    7.2970   30.8029   37.6175 H   0  0  0  0  0
    1.6362   31.9956   38.6312 H   0  0  0  0  0
    0.1894   30.2300   37.7237 H   0  0  0  0  0
    1.1485   28.2834   36.5256 H   0  0  0  0  0
    3.5873   28.0447   36.2628 H   0  0  0  0  0
    8.1159   31.4063   38.9247 H   0  0  0  0  0
    9.8809   32.9193   39.7494 H   0  0  0  0  0
    9.8898   35.4550   41.1618 H   0  0  0  0  0
    9.4539   36.6171   39.8823 H   0  0  0  0  0
   11.7180   35.8820   39.6850 H   0  0  0  0  0
   11.2333   34.2920   39.5669 H   0  0  0  0  0
   10.8257   35.3783   38.3708 H   0  0  0  0  0
    7.1316   36.2219   39.5012 H   0  0  0  0  0
    5.3321   34.6994   38.7060 H   0  0  0  0  0
    9.8754   25.8981   38.4630 H   0  0  0  0  0
    9.2458   24.5891   37.4124 H   0  0  0  0  0
    9.9915   23.6181   39.5488 H   0  0  0  0  0
    9.0091   24.7657   40.4584 H   0  0  0  0  0
  1  2  1  0  0  0
  2  3  1  0  0  0
  2  4  1  0  0  0
  2  5  1  0  0  0
  5  6  1  0  0  0
  6  7  2  0  0  0
  6  8  1  0  0  0
  8  9  1  0  0  0
  9 10  1  0  0  0
 10 11  1  0  0  0
 10 37  1  0  0  0
 11 12  1  0  0  0
 12 13  1  0  0  0
 13 14  1  0  0  0
 13 36  1  0  0  0
 14 15  1  0  0  0
 15 16  1  0  0  0
 16 17  2  0  0  0
 16 18  1  0  0  0
 18 19  4  0  0  0
 18 27  4  0  0  0
 19 20  4  0  0  0
 20 21  4  0  0  0
 20 28  1  0  0  0
 21 22  4  0  0  0
 22 23  4  0  0  0
 22 27  4  0  0  0
 23 24  4  0  0  0
 24 25  4  0  0  0
 25 26  4  0  0  0
 26 27  4  0  0  0
 28 29  4  0  0  0
 28 35  4  0  0  0
 29 30  4  0  0  0
 30 31  4  0  0  0
 31 32  1  0  0  0
 31 34  4  0  0  0
 32 33  1  0  0  0
 34 35  4  0  0  0
 36 37  1  0  0  0
  1 38  1  0  0  0
  1 39  1  0  0  0
  1 40  1  0  0  0
  3 41  1  0  0  0
  3 42  1  0  0  0
  3 43  1  0  0  0
  4 44  1  0  0  0
  4 45  1  0  0  0
  4 46  1  0  0  0
  8 47  1  0  0  0
  9 48  1  0  0  0
  9 49  1  0  0  0
 10 50  1  0  0  0
 11 51  1  0  0  0
 11 52  1  0  0  0
 12 53  1  0  0  0
 12 54  1  0  0  0
 13 55  1  0  0  0
 14 56  1  0  0  0
 14 57  1  0  0  0
 15 58  1  0  0  0
 19 59  1  0  0  0
 23 60  1  0  0  0
 24 61  1  0  0  0
 25 62  1  0  0  0
 26 63  1  0  0  0
 29 64  1  0  0  0
 30 65  1  0  0  0
 32 66  1  0  0  0
 32 67  1  0  0  0
 33 68  1  0  0  0
 33 69  1  0  0  0
 33 70  1  0  0  0
 34 71  1  0  0  0
 35 72  1  0  0  0
 36 73  1  0  0  0
 36 74  1  0  0  0
 37 75  1  0  0  0
 37 76  1  0  0  0
M  END
$$$$
