4b1c_ligand
  -I-interpret- 

 45 48  0  0  0  0  0  0  0  0999 V2000
    5.5840    2.4870  -20.6520 C   0  0  0  0  0
    4.1790    2.8010  -20.3620 N   0  0  0  0  0
    4.1540    3.1200  -19.1080 C   0  0  0  0  0
    6.1270    3.4660  -21.6450 C   0  0  0  0  0
    5.8420    1.0800  -21.1230 C   0  0  0  0  0
    5.4060    0.0310  -20.3510 C   0  0  0  0  0
    5.6320   -1.2830  -20.6850 C   0  0  0  0  0
    6.3290   -1.5540  -21.8440 C   0  0  0  0  0
    6.7900   -0.5090  -22.6230 C   0  0  0  0  0
    6.5630    0.8030  -22.2660 C   0  0  0  0  0
    3.0640    3.4890  -18.3610 N   0  0  0  0  0
    5.8580    3.2720  -17.0860 C   0  0  0  0  0
    5.7850    4.9210  -21.4630 C   0  0  0  0  0
    5.2470    4.1570  -22.6500 C   0  0  0  0  0
    5.1950   -2.3490  -19.8010 C   0  0  0  0  0
    4.0080   -2.3270  -19.1080 C   0  0  0  0  0
    3.7350   -3.3950  -18.2720 C   0  0  0  0  0
    4.6330   -4.4310  -18.1440 C   0  0  0  0  0
    6.0140   -3.4410  -19.6000 C   0  0  0  0  0
    2.5450   -3.4330  -17.5170 C   0  0  0  0  0
    6.3760    2.6490  -19.4060 N   0  0  0  0  0
    5.7930   -4.4860  -18.8000 N   0  0  0  0  0
    5.5190    3.0110  -18.5250 C   0  0  0  0  0
    1.5470   -3.4700  -16.8540 C   0  0  0  0  0
    0.3430   -3.5170  -16.0580 C   0  0  0  0  0
    3.3917    2.7736  -21.0099 H   0  0  0  0  0
    7.0351    2.8698  -21.7348 H   0  0  0  0  0
    4.8576    0.2498  -19.4348 H   0  0  0  0  0
    6.5151   -2.5853  -22.1438 H   0  0  0  0  0
    7.3433   -0.7266  -23.5366 H   0  0  0  0  0
    6.9500    1.6149  -22.8818 H   0  0  0  0  0
    3.1733    3.7001  -17.3691 H   0  0  0  0  0
    6.2695    2.3661  -16.6409 H   0  0  0  0  0
    6.5939    4.0739  -17.0271 H   0  0  0  0  0
    4.9559    3.5648  -16.5489 H   0  0  0  0  0
    6.2943    5.8626  -21.2575 H   0  0  0  0  0
    5.4164    5.5840  -20.6803 H   0  0  0  0  0
    4.2943    3.9923  -23.1533 H   0  0  0  0  0
    5.1737    4.2713  -23.7315 H   0  0  0  0  0
    3.3076   -1.4985  -19.2133 H   0  0  0  0  0
    4.3823   -5.2503  -17.4702 H   0  0  0  0  0
    6.9496   -3.4513  -20.1592 H   0  0  0  0  0
   -0.4921   -3.1291  -16.6413 H   0  0  0  0  0
    0.1390   -4.5485  -15.7706 H   0  0  0  0  0
    0.4765   -2.9088  -15.1633 H   0  0  0  0  0
  1  2  1  0  0  0
  1  4  1  0  0  0
  1  5  1  0  0  0
  1 21  1  0  0  0
  2  3  1  0  0  0
  3 11  2  0  0  0
  3 23  1  0  0  0
  4 13  1  0  0  0
  4 14  1  0  0  0
  5  6  4  0  0  0
  5 10  4  0  0  0
  6  7  4  0  0  0
  7  8  4  0  0  0
  7 15  1  0  0  0
  8  9  4  0  0  0
  9 10  4  0  0  0
 23 12  1  0  0  0
 13 14  1  0  0  0
 15 16  4  0  0  0
 15 19  4  0  0  0
 16 17  4  0  0  0
 17 18  4  0  0  0
 17 20  1  0  0  0
 18 22  4  0  0  0
 19 22  4  0  0  0
 20 24  3  0  0  0
 21 23  2  0  0  0
 24 25  1  0  0  0
  2 26  1  0  0  0
  4 27  1  0  0  0
  6 28  1  0  0  0
  8 29  1  0  0  0
  9 30  1  0  0  0
 10 31  1  0  0  0
 11 32  1  0  0  0
 12 33  1  0  0  0
 12 34  1  0  0  0
 12 35  1  0  0  0
 13 36  1  0  0  0
 13 37  1  0  0  0
 14 38  1  0  0  0
 14 39  1  0  0  0
 16 40  1  0  0  0
 18 41  1  0  0  0
 19 42  1  0  0  0
 25 43  1  0  0  0
 25 44  1  0  0  0
 25 45  1  0  0  0
M  END
$$$$
