### 
### Created by X-TOOL on Mon Sep 10 21:13:32 2018
### 

@<TRIPOS>MOLECULE
5ofu_ligand
   35    37     1     0     0
SMALL
GAST_HUCK


@<TRIPOS>ATOM
      1 P         -25.0370  -14.4800   37.0450 P.3       1 AMP         0.2008
      2 O1P       -25.4080  -13.2720   36.2260 O.co2     1 AMP        -0.5537
      3 O2P       -23.7590  -15.1600   36.6240 O.co2     1 AMP        -0.5537
      4 O3P       -25.1220  -14.2860   38.5410 O.co2     1 AMP        -0.5537
      5 O5'       -26.2600  -15.4690   36.7430 O.3       1 AMP        -0.2734
      6 C5'       -26.2760  -16.7970   37.2540 C.3       1 AMP         0.1072
      7 C4'       -27.3030  -17.6590   36.5290 C.3       1 AMP         0.1182
      8 O4'       -28.6050  -17.0710   36.5700 O.3       1 AMP        -0.3365
      9 C3'       -26.9880  -17.8710   35.0600 C.3       1 AMP         0.1149
     10 O3'       -26.1080  -18.9670   34.8370 O.3       1 AMP        -0.3864
     11 C2'       -28.3470  -18.0950   34.4500 C.3       1 AMP         0.1385
     12 O2'       -28.7490  -19.4640   34.5150 O.3       1 AMP        -0.3836
     13 C1'       -29.2540  -17.2160   35.3010 C.3       1 AMP         0.2010
     14 N9        -29.3820  -15.9100   34.5950 N.pl3     1 AMP        -0.1919
     15 C8        -28.7330  -14.7600   34.8830 C.2       1 AMP         0.1123
     16 N7        -29.0830  -13.7760   34.0270 N.2       1 AMP        -0.2958
     17 C5        -29.9630  -14.2940   33.1680 C.ar      1 AMP         0.1045
     18 C6        -30.7070  -13.7870   32.0090 C.ar      1 AMP         0.1298
     19 N6        -30.5600  -12.5070   31.6320 N.pl3     1 AMP        -0.3152
     20 N1        -31.5290  -14.6410   31.3640 N.ar      1 AMP        -0.2698
     21 C2        -31.6770  -15.9290   31.7500 C.ar      1 AMP         0.0533
     22 N3        -31.0140  -16.4580   32.7990 N.ar      1 AMP        -0.2714
     23 C4        -30.1550  -15.7020   33.5300 C.ar      1 AMP         0.1613
     24 H1        -26.5268  -16.7657   38.3246 H         1 AMP         0.0639
     25 H2        -25.2788  -17.2427   37.1239 H         1 AMP         0.0639
     26 H3        -27.3319  -18.6378   37.0302 H         1 AMP         0.0650
     27 H4        -26.5265  -16.9662   34.6378 H         1 AMP         0.0648
     28 H5        -25.2880  -18.8106   35.2905 H         1 AMP         0.2100
     29 H6        -28.3585  -17.7677   33.3999 H         1 AMP         0.0676
     30 H7        -28.1217  -19.9998   34.0439 H         1 AMP         0.2101
     31 H8        -30.2452  -17.6750   35.4307 H         1 AMP         0.0996
     32 H9        -28.0210  -14.6423   35.6986 H         1 AMP         0.1349
     33 H10       -31.0800  -12.1465   30.8193 H         1 AMP         0.1820
     34 H11       -29.9272  -11.8854   32.1555 H         1 AMP         0.1820
     35 H12       -32.3572  -16.5629   31.1928 H         1 AMP         0.0996
@<TRIPOS>BOND
     1    1    2 ar 
     2    1    3 ar 
     3    1    4 ar 
     4    1    5 1  
     5    5    6 1  
     6    6    7 1  
     7    7    8 1  
     8    7    9 1  
     9    8   13 1  
    10    9   10 1  
    11    9   11 1  
    12   11   12 1  
    13   11   13 1  
    14   13   14 1  
    15   14   15 1  
    16   14   23 1  
    17   15   16 2  
    18   16   17 1  
    19   17   18 ar 
    20   17   23 ar 
    21   18   19 1  
    22   18   20 ar 
    23   20   21 ar 
    24   21   22 ar 
    25   22   23 ar 
    26    6   24 1  
    27    6   25 1  
    28    7   26 1  
    29    9   27 1  
    30   10   28 1  
    31   11   29 1  
    32   12   30 1  
    33   13   31 1  
    34   15   32 1  
    35   19   33 1  
    36   19   34 1  
    37   21   35 1  
@<TRIPOS>SUBSTRUCTURE
     1 AMP         1

