5ofu_ligand
  -I-interpret- 

 37 39  0  0  0  0  0  0  0  0999 V2000
  -25.0370  -14.4800   37.0450 P   0  0  0  0  0
  -25.4080  -13.2720   36.2260 O   0  0  0  0  0
  -23.7590  -15.1600   36.6240 O   0  0  0  0  0
  -25.1220  -14.2860   38.5410 O   0  0  0  0  0
  -26.2600  -15.4690   36.7430 O   0  0  0  0  0
  -26.2760  -16.7970   37.2540 C   0  0  0  0  0
  -27.3030  -17.6590   36.5290 C   0  0  0  0  0
  -28.6050  -17.0710   36.5700 O   0  0  0  0  0
  -26.9880  -17.8710   35.0600 C   0  0  0  0  0
  -26.1080  -18.9670   34.8370 O   0  0  0  0  0
  -28.3470  -18.0950   34.4500 C   0  0  0  0  0
  -28.7490  -19.4640   34.5150 O   0  0  0  0  0
  -29.2540  -17.2160   35.3010 C   0  0  0  0  0
  -29.3820  -15.9100   34.5950 N   0  0  0  0  0
  -28.7330  -14.7600   34.8830 C   0  0  0  0  0
  -29.0830  -13.7760   34.0270 N   0  0  0  0  0
  -29.9630  -14.2940   33.1680 C   0  0  0  0  0
  -30.7070  -13.7870   32.0090 C   0  0  0  0  0
  -30.5600  -12.5070   31.6320 N   0  0  0  0  0
  -31.5290  -14.6410   31.3640 N   0  0  0  0  0
  -31.6770  -15.9290   31.7500 C   0  0  0  0  0
  -31.0140  -16.4580   32.7990 N   0  0  0  0  0
  -30.1550  -15.7020   33.5300 C   0  0  0  0  0
  -23.5970  -15.9154   37.1939 H   0  0  0  0  0
  -24.8702  -15.1002   38.9829 H   0  0  0  0  0
  -26.5404  -16.7583   38.3107 H   0  0  0  0  0
  -25.2894  -17.2365   37.1071 H   0  0  0  0  0
  -27.2693  -18.6120   37.0570 H   0  0  0  0  0
  -26.4560  -17.0276   34.6199 H   0  0  0  0  0
  -25.9424  -19.0565   33.8956 H   0  0  0  0  0
  -28.3735  -17.8502   33.3882 H   0  0  0  0  0
  -29.6171  -19.5607   34.1166 H   0  0  0  0  0
  -30.2505  -17.6306   35.4530 H   0  0  0  0  0
  -28.0204  -14.6422   35.6993 H   0  0  0  0  0
  -29.9333  -11.8914   32.1504 H   0  0  0  0  0
  -31.0750  -12.1500   30.8271 H   0  0  0  0  0
  -32.3610  -16.5664   31.1897 H   0  0  0  0  0
  1  2  2  0  0  0
  1  3  1  0  0  0
  1  4  1  0  0  0
  1  5  1  0  0  0
  5  6  1  0  0  0
  6  7  1  0  0  0
  7  8  1  0  0  0
  7  9  1  0  0  0
  8 13  1  0  0  0
  9 10  1  0  0  0
  9 11  1  0  0  0
 11 12  1  0  0  0
 11 13  1  0  0  0
 13 14  1  0  0  0
 14 15  4  0  0  0
 14 23  4  0  0  0
 15 16  4  0  0  0
 16 17  4  0  0  0
 17 18  4  0  0  0
 17 23  4  0  0  0
 18 19  1  0  0  0
 18 20  4  0  0  0
 20 21  4  0  0  0
 21 22  4  0  0  0
 22 23  4  0  0  0
  3 24  1  0  0  0
  4 25  1  0  0  0
  6 26  1  0  0  0
  6 27  1  0  0  0
  7 28  1  0  0  0
  9 29  1  0  0  0
 10 30  1  0  0  0
 11 31  1  0  0  0
 12 32  1  0  0  0
 13 33  1  0  0  0
 15 34  1  0  0  0
 19 35  1  0  0  0
 19 36  1  0  0  0
 21 37  1  0  0  0
M  END
$$$$
