5zo8_ligand
  -I-interpret- 

 52 54  0  0  0  0  0  0  0  0999 V2000
   38.2240   -6.6540   25.6890 O   0  0  0  0  0
   39.0650   -6.9880   24.8790 C   0  0  0  0  0
   40.3240   -6.7880   25.2640 O   0  0  0  0  0
   38.6970   -7.5660   23.5000 C   0  0  0  0  0
   37.2570   -7.3870   23.2660 N   0  3  0  0  0
   39.4430   -6.8730   22.3710 C   0  0  0  0  0
   39.4490   -7.7200   20.7900 S   0  0  0  0  0
   40.5380   -6.8050   19.6610 C   0  0  0  0  0
   40.5170   -7.4030   18.2960 C   0  0  0  0  0
   40.7850   -6.6130   17.1820 C   0  0  0  0  0
   40.7190   -7.1990   15.9390 C   0  0  0  0  0
   40.4440   -8.5560   15.7570 C   0  0  0  0  0
   40.1620   -9.3470   16.8410 C   0  0  0  0  0
   40.1890   -8.7650   18.1070 C   0  0  0  0  0
   42.0010   -6.8290   20.0900 C   0  0  0  0  0
   42.4960   -7.7470   21.0170 C   0  0  0  0  0
   43.8410   -7.7610   21.3580 C   0  0  0  0  0
   44.7240   -6.8620   20.7990 C   0  0  0  0  0
   44.2540   -5.9310   19.9020 C   0  0  0  0  0
   42.9140   -5.9310   19.5360 C   0  0  0  0  0
   39.8860   -5.4600   19.7900 C   0  0  0  0  0
   40.3860   -4.4390   20.6270 C   0  0  0  0  0
   39.7030   -3.2370   20.7670 C   0  0  0  0  0
   38.4700   -3.0670   20.1210 C   0  0  0  0  0
   37.7460   -1.9410   20.2030 O   0  0  0  0  0
   37.8360   -1.0140   21.2590 C   0  0  0  0  0
   37.9700   -4.0490   19.2970 C   0  0  0  0  0
   38.6780   -5.2450   19.1520 C   0  0  0  0  0
   40.9198   -7.0776   24.5692 H   0  0  0  0  0
   38.9736   -8.6203   23.5069 H   0  0  0  0  0
   36.7331   -7.8443   24.0122 H   0  0  0  0  0
   37.0367   -6.3911   23.2553 H   0  0  0  0  0
   37.0054   -7.8018   22.3687 H   0  0  0  0  0
   40.4843   -6.8105   22.6871 H   0  0  0  0  0
   38.9329   -5.9239   22.2062 H   0  0  0  0  0
   41.0402   -5.5589   17.2913 H   0  0  0  0  0
   40.8885   -6.5780   15.0593 H   0  0  0  0  0
   40.4535   -8.9855   14.7553 H   0  0  0  0  0
   39.9230  -10.4031   16.7158 H   0  0  0  0  0
   39.9504   -9.3776   18.9764 H   0  0  0  0  0
   41.8168   -8.4630   21.4797 H   0  0  0  0  0
   44.2047   -8.4936   22.0785 H   0  0  0  0  0
   45.7809   -6.8885   21.0643 H   0  0  0  0  0
   44.9340   -5.1923   19.4778 H   0  0  0  0  0
   42.5664   -5.2101   18.7961 H   0  0  0  0  0
   41.3184   -4.5953   21.1696 H   0  0  0  0  0
   40.1217   -2.4338   21.3733 H   0  0  0  0  0
   37.5821   -1.5079   22.1969 H   0  0  0  0  0
   38.8532   -0.6263   21.3148 H   0  0  0  0  0
   37.1421   -0.1927   21.0799 H   0  0  0  0  0
   37.0321   -3.8957   18.7633 H   0  0  0  0  0
   38.2666   -6.0306   18.5182 H   0  0  0  0  0
  1  2  2  0  0  0
  2  3  1  0  0  0
  2  4  1  0  0  0
  4  5  1  0  0  0
  4  6  1  0  0  0
  6  7  1  0  0  0
  7  8  1  0  0  0
  8  9  1  0  0  0
  8 15  1  0  0  0
  8 21  1  0  0  0
  9 10  4  0  0  0
  9 14  4  0  0  0
 10 11  4  0  0  0
 11 12  4  0  0  0
 12 13  4  0  0  0
 13 14  4  0  0  0
 15 16  4  0  0  0
 15 20  4  0  0  0
 16 17  4  0  0  0
 17 18  4  0  0  0
 18 19  4  0  0  0
 19 20  4  0  0  0
 21 22  4  0  0  0
 21 28  4  0  0  0
 22 23  4  0  0  0
 23 24  4  0  0  0
 24 25  1  0  0  0
 24 27  4  0  0  0
 25 26  1  0  0  0
 27 28  4  0  0  0
  3 29  1  0  0  0
  4 30  1  0  0  0
  5 31  1  0  0  0
  5 32  1  0  0  0
  5 33  1  0  0  0
  6 34  1  0  0  0
  6 35  1  0  0  0
 10 36  1  0  0  0
 11 37  1  0  0  0
 12 38  1  0  0  0
 13 39  1  0  0  0
 14 40  1  0  0  0
 16 41  1  0  0  0
 17 42  1  0  0  0
 18 43  1  0  0  0
 19 44  1  0  0  0
 20 45  1  0  0  0
 22 46  1  0  0  0
 23 47  1  0  0  0
 26 48  1  0  0  0
 26 49  1  0  0  0
 26 50  1  0  0  0
 27 51  1  0  0  0
 28 52  1  0  0  0
M  END
$$$$
