5fqv_ligand
  -I-interpret- 

 55 57  0  0  0  0  0  0  0  0999 V2000
   19.0890   25.1160   64.6630 C   0  0  0  0  0
   17.5280   25.3300   64.5350 C   0  0  0  0  0
   16.8630   24.1570   64.3790 C   0  0  0  0  0
   15.4450   24.2740   64.1660 C   0  0  0  0  0
   14.8860   25.5040   64.2230 C   0  0  0  0  0
   15.5650   26.7180   64.3710 C   0  0  0  0  0
   16.9480   26.5880   64.5940 C   0  0  0  0  0
   17.7130   27.7060   64.7970 O   0  0  0  0  0
   13.3590   25.6900   64.0640 C   0  0  0  0  0
   12.8540   24.4930   63.2670 C   0  0  0  0  0
   13.1360   23.2590   64.0390 N   0  3  0  0  0
   14.6410   23.0730   64.1130 C   0  0  0  0  0
   14.9070   22.1330   65.2420 C   0  0  0  0  0
   14.7310   22.6630   66.5670 C   0  0  0  0  0
   14.9600   21.8410   67.7180 C   0  0  0  0  0
   15.3660   20.5290   67.5190 C   0  0  0  0  0
   15.5360   20.0470   66.1820 C   0  0  0  0  0
   15.3040   20.8410   65.0140 C   0  0  0  0  0
   15.5900   19.5220   68.6280 C   0  0  0  0  0
   15.9850   19.9540   69.8420 C   0  0  0  0  0
   16.1560   18.9160   70.9030 C   0  0  0  0  0
   15.8860   17.7150   70.6970 O   0  0  0  0  0
   16.5490   19.3520   72.0840 O   0  0  0  0  0
   12.5390   22.0310   63.4860 C   0  0  0  0  0
   11.1200   21.7480   64.1860 C   0  0  0  0  0
   11.2150   21.6000   65.7290 C   0  0  0  0  0
   10.4700   20.5010   63.6400 C   0  0  0  0  0
   19.2986   24.4884   65.5292 H   0  0  0  0  0
   19.4630   24.6302   63.7617 H   0  0  0  0  0
   19.5780   26.0823   64.7860 H   0  0  0  0  0
   17.3689   23.1921   64.4128 H   0  0  0  0  0
   15.0641   27.6846   64.3179 H   0  0  0  0  0
   17.1474   28.4816   64.8089 H   0  0  0  0  0
   13.1325   26.6236   63.5490 H   0  0  0  0  0
   12.8704   25.7435   65.0369 H   0  0  0  0  0
   13.3578   24.4504   62.3014 H   0  0  0  0  0
   11.7817   24.5868   63.0951 H   0  0  0  0  0
   12.7080   23.3929   64.9551 H   0  0  0  0  0
   14.9704   22.6589   63.1600 H   0  0  0  0  0
   14.4205   23.6997   66.6970 H   0  0  0  0  0
   14.8189   22.2360   68.7241 H   0  0  0  0  0
   15.8610   19.0156   66.0455 H   0  0  0  0  0
   15.4347   20.4437   64.0075 H   0  0  0  0  0
   15.4333   18.4588   68.4461 H   0  0  0  0  0
   16.1707   21.0096   70.0402 H   0  0  0  0  0
   16.7063   20.2979   72.0385 H   0  0  0  0  0
   13.2067   21.1904   63.6750 H   0  0  0  0  0
   12.3918   22.1549   62.4131 H   0  0  0  0  0
   10.5162   22.6257   63.9552 H   0  0  0  0  0
   11.8741   20.7668   65.9729 H   0  0  0  0  0
   11.6154   22.5191   66.1569 H   0  0  0  0  0
   10.2219   21.4106   66.1364 H   0  0  0  0  0
   10.3086   20.6164   62.5682 H   0  0  0  0  0
   11.1202   19.6450   63.8207 H   0  0  0  0  0
    9.5132   20.3437   64.1380 H   0  0  0  0  0
  1  2  1  0  0  0
  2  3  4  0  0  0
  2  7  4  0  0  0
  3  4  4  0  0  0
  4  5  4  0  0  0
  4 12  1  0  0  0
  5  6  4  0  0  0
  5  9  1  0  0  0
  6  7  4  0  0  0
  7  8  1  0  0  0
  9 10  1  0  0  0
 10 11  1  0  0  0
 11 12  1  0  0  0
 11 24  1  0  0  0
 12 13  1  0  0  0
 13 14  4  0  0  0
 13 18  4  0  0  0
 14 15  4  0  0  0
 15 16  4  0  0  0
 16 17  4  0  0  0
 16 19  1  0  0  0
 17 18  4  0  0  0
 19 20  2  0  0  0
 20 21  1  0  0  0
 21 22  2  0  0  0
 21 23  1  0  0  0
 24 25  1  0  0  0
 25 26  1  0  0  0
 25 27  1  0  0  0
  1 28  1  0  0  0
  1 29  1  0  0  0
  1 30  1  0  0  0
  3 31  1  0  0  0
  6 32  1  0  0  0
  8 33  1  0  0  0
  9 34  1  0  0  0
  9 35  1  0  0  0
 10 36  1  0  0  0
 10 37  1  0  0  0
 11 38  1  0  0  0
 12 39  1  0  0  0
 14 40  1  0  0  0
 15 41  1  0  0  0
 17 42  1  0  0  0
 18 43  1  0  0  0
 19 44  1  0  0  0
 20 45  1  0  0  0
 23 46  1  0  0  0
 24 47  1  0  0  0
 24 48  1  0  0  0
 25 49  1  0  0  0
 26 50  1  0  0  0
 26 51  1  0  0  0
 26 52  1  0  0  0
 27 53  1  0  0  0
 27 54  1  0  0  0
 27 55  1  0  0  0
M  END
$$$$
