3g0f_ligand
  -I-interpret- 

 35 37  0  0  0  0  0  0  0  0999 V2000
  -12.5570   70.4800  -38.3840 C   0  0  0  0  0
  -17.2200   78.9120  -37.0410 C   0  0  0  0  0
  -15.9490   78.6880  -37.6290 C   0  0  0  0  0
  -17.4610   76.4830  -36.5450 C   0  0  0  0  0
  -15.7520   71.3360  -36.5950 C   0  0  0  0  0
  -17.9580   77.8080  -36.5030 C   0  0  0  0  0
  -16.2070   76.2720  -37.1310 C   0  0  0  0  0
  -15.3940   75.0750  -37.3600 C   0  0  0  0  0
  -14.1310   75.5470  -38.0500 C   0  0  0  0  0
  -14.9040   68.8820  -36.6820 C   0  0  0  0  0
  -17.0050   71.1090  -35.8030 C   0  0  0  0  0
  -15.8450   73.8610  -36.9720 C   0  0  0  0  0
  -13.8060   70.9660  -37.7090 C   0  0  0  0  0
  -15.4740   77.3620  -37.6560 C   0  0  0  0  0
  -15.2880   72.5530  -37.0820 C   0  0  0  0  0
  -14.8080   70.3190  -36.9890 C   0  0  0  0  0
  -14.1260   72.3020  -37.7440 N   0  0  0  0  0
  -14.2720   76.9180  -38.1800 N   0  0  0  0  0
  -15.2650   68.5790  -35.3700 N   0  0  0  0  0
  -13.1940   74.8890  -38.4210 O   0  0  0  0  0
  -14.6630   68.0270  -37.5350 O   0  0  0  0  0
  -19.1470   78.0170  -35.9440 F   0  0  0  0  0
  -11.9055   70.0118  -37.6462 H   0  0  0  0  0
  -12.8201   69.7526  -39.1520 H   0  0  0  0  0
  -12.0414   71.3239  -38.8424 H   0  0  0  0  0
  -17.6336   79.9196  -36.9986 H   0  0  0  0  0
  -15.3633   79.5086  -38.0433 H   0  0  0  0  0
  -18.0364   75.6534  -36.1341 H   0  0  0  0  0
  -16.9590   71.6859  -34.8793 H   0  0  0  0  0
  -17.8667   71.4277  -36.3894 H   0  0  0  0  0
  -17.0968   70.0489  -35.5666 H   0  0  0  0  0
  -16.8186   73.8870  -36.4825 H   0  0  0  0  0
  -13.5753   77.5267  -38.6095 H   0  0  0  0  0
  -15.3411   67.6059  -35.0738 H   0  0  0  0  0
  -15.4530   69.3304  -34.7063 H   0  0  0  0  0
 13  1  1  0  0  0
  3  2  4  0  0  0
  6  2  4  0  0  0
 14  3  4  0  0  0
  4  6  4  0  0  0
  7  4  4  0  0  0
  5 11  1  0  0  0
  5 15  4  0  0  0
 16  5  4  0  0  0
  6 22  1  0  0  0
  8  7  1  0  0  0
  7 14  4  0  0  0
  8  9  1  0  0  0
 12  8  2  0  0  0
  9 18  1  0  0  0
  9 20  2  0  0  0
 16 10  1  0  0  0
 10 19  1  0  0  0
 10 21  2  0  0  0
 15 12  1  0  0  0
 13 16  4  0  0  0
 13 17  4  0  0  0
 14 18  1  0  0  0
 15 17  4  0  0  0
  1 23  1  0  0  0
  1 24  1  0  0  0
  1 25  1  0  0  0
  2 26  1  0  0  0
  3 27  1  0  0  0
  4 28  1  0  0  0
 11 29  1  0  0  0
 11 30  1  0  0  0
 11 31  1  0  0  0
 12 32  1  0  0  0
 18 33  1  0  0  0
 19 34  1  0  0  0
 19 35  1  0  0  0
M  END
$$$$
