### 
### Created by X-TOOL on Mon Aug  2 16:17:05 2021
### 

@<TRIPOS>MOLECULE
6hoi_ligand
  128   128     1     0     0
SMALL
GAST_HUCK


@<TRIPOS>ATOM
      1 N          -1.5490    1.3210   -3.6610 N.4       1 ALA         0.2377
      2 CA         -2.4130    0.1970   -4.0020 C.3       1 ALA         0.0621
      3 C          -3.6020    0.6270   -4.8340 C.2       1 ALA         0.2264
      4 O          -4.3410   -0.2200   -5.3140 O.2       1 ALA        -0.3907
      5 CB         -2.9030   -0.5130   -2.7510 C.3       1 ALA        -0.0040
      6 N          -3.7880    1.9430   -4.9840 N.am      1 ALA        -0.2613
      7 CA         -5.0000    2.4610   -5.6100 C.3       1 ALA         0.1283
      8 C          -5.2140    1.8980   -7.0070 C.2       1 ALA         0.2037
      9 O          -6.3590    1.6880   -7.4250 O.2       1 ALA        -0.3944
     10 CB         -4.9420    3.9940   -5.6450 C.3       1 ALA        -0.0244
     11 N          -4.1400    1.6540   -7.7460 N.am      1 ALA        -0.2616
     12 CA         -4.2820    1.1520   -9.0990 C.3       1 ALA         0.1539
     13 C          -4.2520   -0.3660   -9.1620 C.2       1 ALA         0.2063
     14 O          -4.4180   -0.9190  -10.2520 O.2       1 ALA        -0.3943
     15 CB         -3.1760    1.7200   -9.9900 C.3       1 ALA         0.0843
     16 OG         -1.9150    1.3100   -9.4850 O.3       1 ALA        -0.3903
     17 N          -4.0070   -1.0470   -8.0350 N.am      1 ALA        -0.2619
     18 CA         -3.9860   -2.5100   -7.9990 C.3       1 ALA         0.1404
     19 C          -5.3660   -3.0580   -7.6580 C.2       1 ALA         0.2060
     20 O          -6.1470   -2.4200   -6.9450 O.2       1 ALA        -0.3942
     21 CB         -3.0330   -2.9970   -6.9100 C.3       1 ALA         0.0214
     22 CG         -1.5980   -2.8140   -7.2420 C.ar      1 ALA        -0.0386
     23 CD1        -0.9510   -1.6160   -6.9580 C.ar      1 ALA        -0.0601
     24 CD2        -0.8680   -3.8530   -7.8250 C.ar      1 ALA        -0.0601
     25 CE1         0.3900   -1.4490   -7.2480 C.ar      1 ALA        -0.0686
     26 CE2         0.4530   -3.6770   -8.1390 C.ar      1 ALA        -0.0686
     27 CZ          1.0840   -2.4730   -7.8540 C.ar      1 ALA        -0.0687
     28 N          -5.6370   -4.2800   -8.1060 N.am      1 ALA        -0.2612
     29 CA         -6.8570   -4.9970   -7.7570 C.3       1 ALA         0.1565
     30 C          -6.4920   -6.1300   -6.8060 C.2       1 ALA         0.2065
     31 O          -5.7450   -7.0430   -7.1870 O.2       1 ALA        -0.3943
     32 CB         -7.5170   -5.5410   -9.0330 C.3       1 ALA         0.0924
     33 OG1        -7.9180   -4.4440   -9.8660 O.3       1 ALA        -0.3874
     34 CG2        -8.7570   -6.3860   -8.7090 C.3       1 ALA        -0.0346
     35 N          -7.0120   -6.0760   -5.5790 N.am      1 ALA        -0.2636
     36 CA         -6.7840   -7.1640   -4.6420 C.3       1 ALA         0.1312
     37 C          -7.5790   -8.3780   -5.0710 C.2       1 ALA         0.2039
     38 O          -8.7470   -8.2710   -5.4530 O.2       1 ALA        -0.3944
     39 CB         -7.1440   -6.7600   -3.2060 C.3       1 ALA        -0.0101
     40 CG         -6.0330   -6.0010   -2.4530 C.3       1 ALA        -0.0425
     41 CD1        -6.5620   -5.2310   -1.2630 C.3       1 ALA        -0.0625
     42 CD2        -4.9280   -6.9790   -2.0150 C.3       1 ALA        -0.0625
     43 N          -6.9580   -9.5410   -5.0030 N.am      1 ALA        -0.2635
     44 CA         -7.6460  -10.7880   -5.3080 C.3       1 ALA         0.1335
     45 C          -7.0950  -11.8670   -4.4020 C.2       1 ALA         0.2040
     46 O          -5.8930  -11.9020   -4.1330 O.2       1 ALA        -0.3944
     47 CB         -7.4720  -11.1350   -6.8060 C.3       1 ALA        -0.0037
     48 CG1        -8.3420  -12.3180   -7.2180 C.3       1 ALA        -0.0491
     49 CG2        -6.0250  -11.3860   -7.1470 C.3       1 ALA        -0.0582
     50 CD1        -8.3040  -12.5380   -8.7270 C.3       1 ALA        -0.0648
     51 N          -7.9680  -12.7520   -3.9200 N.am      1 ALA        -0.2664
     52 CA         -7.5150  -13.8980   -3.1570 C.3       1 ALA         0.1201
     53 C          -7.5180  -13.7590   -1.6490 C.2       1 ALA         0.2002
     54 O          -7.2370  -14.7400   -0.9630 O.2       1 ALA        -0.3947
     55 N          -7.8590  -12.6020   -1.1020 N.am      1 ALA        -0.2696
     56 CA         -7.8650  -12.4550    0.3550 C.3       1 ALA         0.0958
     57 C          -8.9200  -13.3560    0.9560 C.2       1 ALA         0.0602
     58 O         -10.0660  -13.3970    0.4460 O.co2     1 ALA        -0.5666
     59 CB         -8.1080  -11.0020    0.7440 C.3       1 ALA        -0.0064
     60 CG         -6.9770  -10.1010    0.2790 C.3       1 ALA         0.0038
     61 CD         -7.2130   -8.6630    0.6660 C.2       1 ALA         0.0350
     62 OE1        -8.2510   -8.1180    0.2140 O.co2     1 ALA        -0.5690
     63 OE2        -6.4050   -8.0850    1.4390 O.co2     1 ALA        -0.5690
     64 OXT        -8.6460  -14.0310    1.9740 O.co2     1 ALA        -0.5666
     65 H1         -0.7724    0.9923   -3.1088 H         1 ALA         0.2015
     66 H2         -2.0738    1.9999   -3.1321 H         1 ALA         0.2015
     67 H3         -1.2034    1.7477   -4.5063 H         1 ALA         0.2015
     68 H4         -1.8203   -0.5155   -4.5945 H         1 ALA         0.1095
     69 H5         -3.5510   -1.3545   -3.0371 H         1 ALA         0.0310
     70 H6         -3.4721    0.1927   -2.1280 H         1 ALA         0.0310
     71 H7         -2.0406   -0.8912   -2.1824 H         1 ALA         0.0310
     72 H8         -3.0873    2.5802   -4.6630 H         1 ALA         0.1884
     73 H9         -5.8584    2.1607   -4.9912 H         1 ALA         0.0797
     74 H10        -5.8556    4.3848   -6.1169 H         1 ALA         0.0277
     75 H11        -4.0639    4.3146   -6.2248 H         1 ALA         0.0277
     76 H12        -4.8650    4.3816   -4.6184 H         1 ALA         0.0277
     77 H13        -3.2284    1.8169   -7.3685 H         1 ALA         0.1884
     78 H14        -5.2538    1.4914   -9.4869 H         1 ALA         0.0823
     79 H15        -3.2323    2.8185   -9.9917 H         1 ALA         0.0606
     80 H16        -3.3011    1.3449  -11.0164 H         1 ALA         0.0606
     81 H17        -1.2252    1.6609  -10.0359 H         1 ALA         0.2097
     82 H18        -3.8328   -0.5396   -7.1911 H         1 ALA         0.1885
     83 H19        -3.6634   -2.8920   -8.9788 H         1 ALA         0.0823
     84 H20        -3.2161   -4.0687   -6.7432 H         1 ALA         0.0474
     85 H21        -3.2487   -2.4400   -5.9863 H         1 ALA         0.0474
     86 H22        -1.5055   -0.8030   -6.5035 H         1 ALA         0.0557
     87 H23        -1.3495   -4.8024   -8.0296 H         1 ALA         0.0557
     88 H24         0.8913   -0.5202   -7.0007 H         1 ALA         0.0599
     89 H25         1.0079   -4.4795   -8.6113 H         1 ALA         0.0599
     90 H26         2.1287   -2.3383   -8.1099 H         1 ALA         0.0559
     91 H27        -4.9753   -4.7265   -8.7084 H         1 ALA         0.1884
     92 H28        -7.5563   -4.3122   -7.2550 H         1 ALA         0.0826
     93 H29        -6.7888   -6.1643   -9.5726 H         1 ALA         0.0639
     94 H30        -8.5378   -3.8999   -9.3945 H         1 ALA         0.2101
     95 H31        -9.2019   -6.7576   -9.6439 H         1 ALA         0.0257
     96 H32        -9.4924   -5.7677   -8.1734 H         1 ALA         0.0257
     97 H33        -8.4653   -7.2382   -8.0777 H         1 ALA         0.0257
     98 H34        -7.5595   -5.2860   -5.3031 H         1 ALA         0.1883
     99 H35        -5.7148   -7.4214   -4.6658 H         1 ALA         0.0800
    100 H36        -7.3778   -7.6744   -2.6411 H         1 ALA         0.0315
    101 H37        -8.0342   -6.1150   -3.2444 H         1 ALA         0.0315
    102 H38        -5.5907   -5.2747   -3.1508 H         1 ALA         0.0298
    103 H39        -5.7311   -4.7105   -0.7643 H         1 ALA         0.0232
    104 H40        -7.0349   -5.9283   -0.5558 H         1 ALA         0.0232
    105 H41        -7.3045   -4.4943   -1.6035 H         1 ALA         0.0232
    106 H42        -4.5563   -7.5289   -2.8922 H         1 ALA         0.0232
    107 H43        -5.3372   -7.6905   -1.2826 H         1 ALA         0.0232
    108 H44        -4.1008   -6.4166   -1.5573 H         1 ALA         0.0232
    109 H45        -5.9945   -9.5663   -4.7364 H         1 ALA         0.1883
    110 H46        -8.7199  -10.6682   -5.1020 H         1 ALA         0.0803
    111 H47        -7.8039  -10.2620   -7.3871 H         1 ALA         0.0345
    112 H48        -9.3801  -12.1230   -6.9108 H         1 ALA         0.0267
    113 H49        -7.9749  -13.2247   -6.7148 H         1 ALA         0.0267
    114 H50        -5.4204  -10.5197   -6.8403 H         1 ALA         0.0235
    115 H51        -5.9248  -11.5373   -8.2319 H         1 ALA         0.0235
    116 H52        -5.6739  -12.2840   -6.6176 H         1 ALA         0.0235
    117 H53        -8.9404  -13.3963   -8.9885 H         1 ALA         0.0230
    118 H54        -7.2695  -12.7391   -9.0423 H         1 ALA         0.0230
    119 H55        -8.6747  -11.6374   -9.2383 H         1 ALA         0.0230
    120 H56        -8.9456  -12.6237   -4.0867 H         1 ALA         0.1881
    121 H57        -6.4834  -14.1186   -3.4687 H         1 ALA         0.0763
    122 H58        -8.1653  -14.7471   -3.4141 H         1 ALA         0.0763
    123 H59        -8.1123  -11.8291   -1.6837 H         1 ALA         0.1875
    124 H60        -6.8818  -12.7592    0.7432 H         1 ALA         0.0727
    125 H61        -8.1906  -10.9347    1.8388 H         1 ALA         0.0323
    126 H62        -9.0474  -10.6617    0.2838 H         1 ALA         0.0323
    127 H63        -6.8965  -10.1666   -0.8161 H         1 ALA         0.0432
    128 H64        -6.0374  -10.4435    0.7369 H         1 ALA         0.0432
@<TRIPOS>BOND
     1    1    2 1  
     2    2    3 1  
     3    2    5 1  
     4    3    4 2  
     5    3    6 am 
     6    6    7 1  
     7    7    8 1  
     8    7   10 1  
     9    8    9 2  
    10    8   11 am 
    11   11   12 1  
    12   12   13 1  
    13   12   15 1  
    14   13   14 2  
    15   13   17 am 
    16   15   16 1  
    17   17   18 1  
    18   18   19 1  
    19   18   21 1  
    20   19   20 2  
    21   19   28 am 
    22   21   22 1  
    23   22   23 ar 
    24   22   24 ar 
    25   23   25 ar 
    26   24   26 ar 
    27   25   27 ar 
    28   26   27 ar 
    29   28   29 1  
    30   29   30 1  
    31   29   32 1  
    32   30   31 2  
    33   30   35 am 
    34   32   33 1  
    35   32   34 1  
    36   35   36 1  
    37   36   37 1  
    38   36   39 1  
    39   37   38 2  
    40   37   43 am 
    41   39   40 1  
    42   40   41 1  
    43   40   42 1  
    44   43   44 1  
    45   44   45 1  
    46   44   47 1  
    47   45   46 2  
    48   45   51 am 
    49   47   48 1  
    50   47   49 1  
    51   48   50 1  
    52   51   52 1  
    53   52   53 1  
    54   53   54 2  
    55   53   55 am 
    56   55   56 1  
    57   56   57 1  
    58   56   59 1  
    59   57   58 ar 
    60   57   64 ar 
    61   59   60 1  
    62   60   61 1  
    63   61   62 ar 
    64   61   63 ar 
    65    1   65 1  
    66    1   66 1  
    67    1   67 1  
    68    2   68 1  
    69    5   69 1  
    70    5   70 1  
    71    5   71 1  
    72    6   72 1  
    73    7   73 1  
    74   10   74 1  
    75   10   75 1  
    76   10   76 1  
    77   11   77 1  
    78   12   78 1  
    79   15   79 1  
    80   15   80 1  
    81   16   81 1  
    82   17   82 1  
    83   18   83 1  
    84   21   84 1  
    85   21   85 1  
    86   23   86 1  
    87   24   87 1  
    88   25   88 1  
    89   26   89 1  
    90   27   90 1  
    91   28   91 1  
    92   29   92 1  
    93   32   93 1  
    94   33   94 1  
    95   34   95 1  
    96   34   96 1  
    97   34   97 1  
    98   35   98 1  
    99   36   99 1  
   100   39  100 1  
   101   39  101 1  
   102   40  102 1  
   103   41  103 1  
   104   41  104 1  
   105   41  105 1  
   106   42  106 1  
   107   42  107 1  
   108   42  108 1  
   109   43  109 1  
   110   44  110 1  
   111   47  111 1  
   112   48  112 1  
   113   48  113 1  
   114   49  114 1  
   115   49  115 1  
   116   49  116 1  
   117   50  117 1  
   118   50  118 1  
   119   50  119 1  
   120   51  120 1  
   121   52  121 1  
   122   52  122 1  
   123   55  123 1  
   124   56  124 1  
   125   59  125 1  
   126   59  126 1  
   127   60  127 1  
   128   60  128 1  
@<TRIPOS>SUBSTRUCTURE
     1 ALA         1

