6hoi_ligand
  -I-interpret- 

130130  0  0  0  0  0  0  0  0999 V2000
   -1.5490    1.3210   -3.6610 N   0  3  0  0  0
   -2.4130    0.1970   -4.0020 C   0  0  0  0  0
   -3.6020    0.6270   -4.8340 C   0  0  0  0  0
   -4.3410   -0.2200   -5.3140 O   0  0  0  0  0
   -2.9030   -0.5130   -2.7510 C   0  0  0  0  0
   -3.7880    1.9430   -4.9840 N   0  0  0  0  0
   -5.0000    2.4610   -5.6100 C   0  0  0  0  0
   -5.2140    1.8980   -7.0070 C   0  0  0  0  0
   -6.3590    1.6880   -7.4250 O   0  0  0  0  0
   -4.9420    3.9940   -5.6450 C   0  0  0  0  0
   -4.1400    1.6540   -7.7460 N   0  0  0  0  0
   -4.2820    1.1520   -9.0990 C   0  0  0  0  0
   -4.2520   -0.3660   -9.1620 C   0  0  0  0  0
   -4.4180   -0.9190  -10.2520 O   0  0  0  0  0
   -3.1760    1.7200   -9.9900 C   0  0  0  0  0
   -1.9150    1.3100   -9.4850 O   0  0  0  0  0
   -4.0070   -1.0470   -8.0350 N   0  0  0  0  0
   -3.9860   -2.5100   -7.9990 C   0  0  0  0  0
   -5.3660   -3.0580   -7.6580 C   0  0  0  0  0
   -6.1470   -2.4200   -6.9450 O   0  0  0  0  0
   -3.0330   -2.9970   -6.9100 C   0  0  0  0  0
   -1.5980   -2.8140   -7.2420 C   0  0  0  0  0
   -0.9510   -1.6160   -6.9580 C   0  0  0  0  0
   -0.8680   -3.8530   -7.8250 C   0  0  0  0  0
    0.3900   -1.4490   -7.2480 C   0  0  0  0  0
    0.4530   -3.6770   -8.1390 C   0  0  0  0  0
    1.0840   -2.4730   -7.8540 C   0  0  0  0  0
   -5.6370   -4.2800   -8.1060 N   0  0  0  0  0
   -6.8570   -4.9970   -7.7570 C   0  0  0  0  0
   -6.4920   -6.1300   -6.8060 C   0  0  0  0  0
   -5.7450   -7.0430   -7.1870 O   0  0  0  0  0
   -7.5170   -5.5410   -9.0330 C   0  0  0  0  0
   -7.9180   -4.4440   -9.8660 O   0  0  0  0  0
   -8.7570   -6.3860   -8.7090 C   0  0  0  0  0
   -7.0120   -6.0760   -5.5790 N   0  0  0  0  0
   -6.7840   -7.1640   -4.6420 C   0  0  0  0  0
   -7.5790   -8.3780   -5.0710 C   0  0  0  0  0
   -8.7470   -8.2710   -5.4530 O   0  0  0  0  0
   -7.1440   -6.7600   -3.2060 C   0  0  0  0  0
   -6.0330   -6.0010   -2.4530 C   0  0  0  0  0
   -6.5620   -5.2310   -1.2630 C   0  0  0  0  0
   -4.9280   -6.9790   -2.0150 C   0  0  0  0  0
   -6.9580   -9.5410   -5.0030 N   0  0  0  0  0
   -7.6460  -10.7880   -5.3080 C   0  0  0  0  0
   -7.0950  -11.8670   -4.4020 C   0  0  0  0  0
   -5.8930  -11.9020   -4.1330 O   0  0  0  0  0
   -7.4720  -11.1350   -6.8060 C   0  0  0  0  0
   -8.3420  -12.3180   -7.2180 C   0  0  0  0  0
   -6.0250  -11.3860   -7.1470 C   0  0  0  0  0
   -8.3040  -12.5380   -8.7270 C   0  0  0  0  0
   -7.9680  -12.7520   -3.9200 N   0  0  0  0  0
   -7.5150  -13.8980   -3.1570 C   0  0  0  0  0
   -7.5180  -13.7590   -1.6490 C   0  0  0  0  0
   -7.2370  -14.7400   -0.9630 O   0  0  0  0  0
   -7.8590  -12.6020   -1.1020 N   0  0  0  0  0
   -7.8650  -12.4550    0.3550 C   0  0  0  0  0
   -8.9200  -13.3560    0.9560 C   0  0  0  0  0
  -10.0660  -13.3970    0.4460 O   0  0  0  0  0
   -8.1080  -11.0020    0.7440 C   0  0  0  0  0
   -6.9770  -10.1010    0.2790 C   0  0  0  0  0
   -7.2130   -8.6630    0.6660 C   0  0  0  0  0
   -8.2510   -8.1180    0.2140 O   0  0  0  0  0
   -6.4050   -8.0850    1.4390 O   0  0  0  0  0
   -8.6460  -14.0310    1.9740 O   0  0  0  0  0
   -1.2350    1.7787   -4.5167 H   0  0  0  0  0
   -2.0688    1.9866   -3.0890 H   0  0  0  0  0
   -0.7409    0.9812   -3.1395 H   0  0  0  0  0
   -1.8101   -0.4904   -4.5954 H   0  0  0  0  0
   -3.5278    0.1659   -2.1707 H   0  0  0  0  0
   -3.4845   -1.3896   -3.0365 H   0  0  0  0  0
   -2.0469   -0.8228   -2.1517 H   0  0  0  0  0
   -3.0733    2.5929   -4.6565 H   0  0  0  0  0
   -5.8520    2.1403   -5.0105 H   0  0  0  0  0
   -4.1168    4.3106   -6.2829 H   0  0  0  0  0
   -5.8797    4.3828   -6.0420 H   0  0  0  0  0
   -4.7884    4.3737   -4.6349 H   0  0  0  0  0
   -3.2102    1.8202   -7.3610 H   0  0  0  0  0
   -5.2580    1.4787   -9.4578 H   0  0  0  0  0
   -3.2323    2.8085   -9.9947 H   0  0  0  0  0
   -3.3003    1.3512  -11.0081 H   0  0  0  0  0
   -1.2179    1.6646  -10.0417 H   0  0  0  0  0
   -3.8294   -0.5294   -7.1742 H   0  0  0  0  0
   -3.6670   -2.8558   -8.9822 H   0  0  0  0  0
   -3.2032   -4.0663   -6.7843 H   0  0  0  0  0
   -3.2363   -2.4098   -6.0145 H   0  0  0  0  0
   -1.5086   -0.7985   -6.5009 H   0  0  0  0  0
   -1.3522   -4.8076   -8.0307 H   0  0  0  0  0
    0.8940   -0.5151   -6.9993 H   0  0  0  0  0
    1.0110   -4.4840   -8.6139 H   0  0  0  0  0
    2.1345   -2.3376   -8.1114 H   0  0  0  0  0
   -4.9621   -4.7354   -8.7204 H   0  0  0  0  0
   -7.5677   -4.3314   -7.2671 H   0  0  0  0  0
   -6.7885   -6.1706   -9.5438 H   0  0  0  0  0
   -8.3305   -4.7835  -10.6636 H   0  0  0  0  0
   -8.4666   -7.2301   -8.0834 H   0  0  0  0  0
   -9.4848   -5.7722   -8.1783 H   0  0  0  0  0
   -9.1970   -6.7536   -9.6360 H   0  0  0  0  0
   -7.5705   -5.2702   -5.2976 H   0  0  0  0  0
   -5.7214   -7.4067   -4.6510 H   0  0  0  0  0
   -7.3292   -7.6814   -2.6540 H   0  0  0  0  0
   -7.9999   -6.0882   -3.2704 H   0  0  0  0  0
   -5.6156   -5.2681   -3.1434 H   0  0  0  0  0
   -7.2976   -4.5015   -1.6018 H   0  0  0  0  0
   -7.0304   -5.9230   -0.5631 H   0  0  0  0  0
   -5.7378   -4.7157   -0.7698 H   0  0  0  0  0
   -5.3545   -7.7359   -1.3567 H   0  0  0  0  0
   -4.5006   -7.4599   -2.8948 H   0  0  0  0  0
   -4.1492   -6.4313   -1.4844 H   0  0  0  0  0
   -5.9753   -9.5668   -4.7310 H   0  0  0  0  0
   -8.7171  -10.6962   -5.1277 H   0  0  0  0  0
   -7.8064  -10.2680   -7.3757 H   0  0  0  0  0
   -9.3709  -12.1099   -6.9243 H   0  0  0  0  0
   -7.9621  -13.2144   -6.7278 H   0  0  0  0  0
   -5.4411  -10.4921   -6.9279 H   0  0  0  0  0
   -5.6522  -12.2199   -6.5522 H   0  0  0  0  0
   -5.9392  -11.6269   -8.2066 H   0  0  0  0  0
   -8.6715  -11.6449   -9.2325 H   0  0  0  0  0
   -7.2785  -12.7371   -9.0381 H   0  0  0  0  0
   -8.9349  -13.3886   -8.9849 H   0  0  0  0  0
   -8.9652  -12.6212   -4.0900 H   0  0  0  0  0
   -6.4743  -14.0541   -3.4410 H   0  0  0  0  0
   -8.2129  -14.7038   -3.3846 H   0  0  0  0  0
   -8.1174  -11.8136   -1.6954 H   0  0  0  0  0
   -6.8908  -12.7488    0.7457 H   0  0  0  0  0
  -10.0943  -12.8211   -0.3215 H   0  0  0  0  0
   -8.1706  -10.9426    1.8306 H   0  0  0  0  0
   -9.0308  -10.6685    0.2694 H   0  0  0  0  0
   -6.9175  -10.1584   -0.8079 H   0  0  0  0  0
   -6.0543  -10.4366    0.7524 H   0  0  0  0  0
   -5.6880   -8.6849    1.6573 H   0  0  0  0  0
  1  2  1  0  0  0
  2  3  1  0  0  0
  2  5  1  0  0  0
  3  4  2  0  0  0
  3  6  1  0  0  0
  6  7  1  0  0  0
  7  8  1  0  0  0
  7 10  1  0  0  0
  8  9  2  0  0  0
  8 11  1  0  0  0
 11 12  1  0  0  0
 12 13  1  0  0  0
 12 15  1  0  0  0
 13 14  2  0  0  0
 13 17  1  0  0  0
 15 16  1  0  0  0
 17 18  1  0  0  0
 18 19  1  0  0  0
 18 21  1  0  0  0
 19 20  2  0  0  0
 19 28  1  0  0  0
 21 22  1  0  0  0
 22 23  4  0  0  0
 22 24  4  0  0  0
 23 25  4  0  0  0
 24 26  4  0  0  0
 25 27  4  0  0  0
 26 27  4  0  0  0
 28 29  1  0  0  0
 29 30  1  0  0  0
 29 32  1  0  0  0
 30 31  2  0  0  0
 30 35  1  0  0  0
 32 33  1  0  0  0
 32 34  1  0  0  0
 35 36  1  0  0  0
 36 37  1  0  0  0
 36 39  1  0  0  0
 37 38  2  0  0  0
 37 43  1  0  0  0
 39 40  1  0  0  0
 40 41  1  0  0  0
 40 42  1  0  0  0
 43 44  1  0  0  0
 44 45  1  0  0  0
 44 47  1  0  0  0
 45 46  2  0  0  0
 45 51  1  0  0  0
 47 48  1  0  0  0
 47 49  1  0  0  0
 48 50  1  0  0  0
 51 52  1  0  0  0
 52 53  1  0  0  0
 53 54  2  0  0  0
 53 55  1  0  0  0
 55 56  1  0  0  0
 56 57  1  0  0  0
 56 59  1  0  0  0
 57 58  1  0  0  0
 57 64  2  0  0  0
 59 60  1  0  0  0
 60 61  1  0  0  0
 61 62  2  0  0  0
 61 63  1  0  0  0
  1 65  1  0  0  0
  1 66  1  0  0  0
  1 67  1  0  0  0
  2 68  1  0  0  0
  5 69  1  0  0  0
  5 70  1  0  0  0
  5 71  1  0  0  0
  6 72  1  0  0  0
  7 73  1  0  0  0
 10 74  1  0  0  0
 10 75  1  0  0  0
 10 76  1  0  0  0
 11 77  1  0  0  0
 12 78  1  0  0  0
 15 79  1  0  0  0
 15 80  1  0  0  0
 16 81  1  0  0  0
 17 82  1  0  0  0
 18 83  1  0  0  0
 21 84  1  0  0  0
 21 85  1  0  0  0
 23 86  1  0  0  0
 24 87  1  0  0  0
 25 88  1  0  0  0
 26 89  1  0  0  0
 27 90  1  0  0  0
 28 91  1  0  0  0
 29 92  1  0  0  0
 32 93  1  0  0  0
 33 94  1  0  0  0
 34 95  1  0  0  0
 34 96  1  0  0  0
 34 97  1  0  0  0
 35 98  1  0  0  0
 36 99  1  0  0  0
 39100  1  0  0  0
 39101  1  0  0  0
 40102  1  0  0  0
 41103  1  0  0  0
 41104  1  0  0  0
 41105  1  0  0  0
 42106  1  0  0  0
 42107  1  0  0  0
 42108  1  0  0  0
 43109  1  0  0  0
 44110  1  0  0  0
 47111  1  0  0  0
 48112  1  0  0  0
 48113  1  0  0  0
 49114  1  0  0  0
 49115  1  0  0  0
 49116  1  0  0  0
 50117  1  0  0  0
 50118  1  0  0  0
 50119  1  0  0  0
 51120  1  0  0  0
 52121  1  0  0  0
 52122  1  0  0  0
 55123  1  0  0  0
 56124  1  0  0  0
 58125  1  0  0  0
 59126  1  0  0  0
 59127  1  0  0  0
 60128  1  0  0  0
 60129  1  0  0  0
 63130  1  0  0  0
M  END
$$$$
