3mmf_ligand
  -I-interpret- 

 35 36  0  0  0  0  0  0  0  0999 V2000
   -5.3320    2.0580   15.7700 C   0  0  0  0  0
   -5.4280   -0.5910   16.0780 N   0  0  0  0  0
   -7.3950    0.8770   16.6480 O   0  0  0  0  0
   -5.9260    0.7330   16.7560 S   0  0  0  0  0
   -6.1360    3.0940   15.3830 C   0  0  0  0  0
   -5.3620    0.9630   18.0380 O   0  0  0  0  0
   -5.6090    4.2180   14.5900 C   0  0  0  0  0
   -4.2870    4.1770   14.2510 C   0  0  0  0  0
   -3.4210    3.0800   14.6580 C   0  0  0  0  0
   -3.9240    2.0480   15.3760 C   0  0  0  0  0
   -3.6130    5.1780   13.5450 N   0  0  0  0  0
   -4.1860    6.1400   12.7300 C   0  0  0  0  0
   -3.3100    6.9740   12.1470 N   0  0  0  0  0
   -3.7650    7.9520   11.3660 C   0  0  0  0  0
   -2.8540    8.8520   10.7410 N   0  0  0  0  0
   -5.0790    8.1110   11.2030 N   0  0  0  0  0
   -5.9240    7.2630   11.7920 C   0  0  0  0  0
   -7.5810    7.5300   11.6110 Cl  0  0  0  0  0
   -5.4980    6.2740   12.5730 N   0  0  0  0  0
   -1.4510    8.5490   10.7320 C   0  0  0  0  0
   -1.1510    7.7510    9.5020 C   0  0  0  0  0
    0.1540    7.2910    9.5320 O   0  0  0  0  0
   -6.0979   -1.2221   15.6383 H   0  0  0  0  0
   -4.4342   -0.8209   16.0768 H   0  0  0  0  0
   -7.1883    3.0881   15.6670 H   0  0  0  0  0
   -6.2476    5.0476   14.2866 H   0  0  0  0  0
   -2.3660    3.0893   14.3843 H   0  0  0  0  0
   -3.2822    1.2137   15.6589 H   0  0  0  0  0
   -2.5977    5.2022   13.6397 H   0  0  0  0  0
   -3.1970    9.7067   10.3025 H   0  0  0  0  0
   -1.1858    7.9783   11.6220 H   0  0  0  0  0
   -0.8692    9.4708   10.7310 H   0  0  0  0  0
   -1.2838    8.3856    8.6258 H   0  0  0  0  0
   -1.8275    6.8974    9.4587 H   0  0  0  0  0
    0.3309    6.7818    8.7377 H   0  0  0  0  0
  1  4  1  0  0  0
  1  5  4  0  0  0
  1 10  4  0  0  0
  4  2  1  0  0  0
  4  3  2  0  0  0
  4  6  2  0  0  0
  5  7  4  0  0  0
  7  8  4  0  0  0
  8  9  4  0  0  0
  8 11  1  0  0  0
  9 10  4  0  0  0
 11 12  1  0  0  0
 12 13  4  0  0  0
 12 19  4  0  0  0
 13 14  4  0  0  0
 14 15  1  0  0  0
 14 16  4  0  0  0
 15 20  1  0  0  0
 16 17  4  0  0  0
 17 18  1  0  0  0
 17 19  4  0  0  0
 20 21  1  0  0  0
 21 22  1  0  0  0
  2 23  1  0  0  0
  2 24  1  0  0  0
  5 25  1  0  0  0
  7 26  1  0  0  0
  9 27  1  0  0  0
 10 28  1  0  0  0
 11 29  1  0  0  0
 15 30  1  0  0  0
 20 31  1  0  0  0
 20 32  1  0  0  0
 21 33  1  0  0  0
 21 34  1  0  0  0
 22 35  1  0  0  0
M  END
$$$$
