3gnv_ligand
  -I-interpret- 

 66 70  0  0  0  0  0  0  0  0999 V2000
   28.0250   43.8540   95.6130 Cl  0  0  0  0  0
   28.2390   44.2750   97.2560 C   0  0  0  0  0
   28.7080   43.2810   98.0920 C   0  0  0  0  0
   28.9080   43.5520   99.4270 C   0  0  0  0  0
   29.3790   42.5370  100.2030 O   0  0  0  0  0
   29.5280   42.7140  101.6100 C   0  0  0  0  0
   28.2000   42.9560  102.2890 C   0  0  0  0  0
   28.1670   43.7540  103.4370 C   0  0  0  0  0
   26.9520   43.9810  104.0910 C   0  0  0  0  0
   25.7770   43.4160  103.6020 C   0  0  0  0  0
   25.8140   42.6170  102.4510 C   0  0  0  0  0
   27.0220   42.3850  101.7870 C   0  0  0  0  0
   28.6270   44.8360   99.9180 C   0  0  0  0  0
   28.1510   45.8260   99.0810 C   0  0  0  0  0
   27.9440   45.5570   97.7350 C   0  0  0  0  0
   27.4310   46.6080   96.7580 C   0  0  0  0  0
   28.5230   46.8510   95.7930 N   0  0  0  0  0
   28.1790   47.4820   94.5800 C   0  0  0  0  0
   27.1990   47.0260   94.0090 O   0  0  0  0  0
   28.8860   48.6670   93.9430 C   0  0  0  0  0
   29.8540   47.0500   96.3000 C   0  0  0  0  0
   30.8730   46.1880   95.8880 C   0  0  0  0  0
   32.1730   46.2980   96.3650 C   0  0  0  0  0
   27.0000   47.8950   97.4920 C   0  0  0  0  0
   25.5380   48.0550   97.7550 C   0  0  0  0  0
   24.7700   47.1310   97.5660 O   0  0  0  0  0
   25.0180   49.3810   98.2680 C   0  0  0  0  0
   25.9330   49.9370   99.3450 C   0  0  0  0  0
   25.4080   51.3300   99.7410 C   0  0  0  0  0
   26.0010   49.0090  100.5800 C   0  0  0  0  0
   27.3230   50.0650   98.7430 C   0  0  0  0  0
   27.8400   48.8500   97.9600 C   0  0  0  0  0
   29.2060   48.8590   97.8050 N   0  0  0  0  0
   30.1680   48.0090   97.2650 C   0  0  0  0  0
   31.4660   48.1200   97.7500 C   0  0  0  0  0
   31.7890   49.0400   98.6860 O   0  0  0  0  0
   32.4650   47.2780   97.2980 C   0  0  0  0  0
   28.9187   42.2871   97.6971 H   0  0  0  0  0
   30.1633   43.5831  101.7805 H   0  0  0  0  0
   29.9645   41.8056  102.0252 H   0  0  0  0  0
   29.0856   44.1977  103.8209 H   0  0  0  0  0
   26.9246   44.6021  104.9863 H   0  0  0  0  0
   24.8309   43.5946  104.1130 H   0  0  0  0  0
   24.8939   42.1732  102.0708 H   0  0  0  0  0
   27.0478   41.7673  100.8893 H   0  0  0  0  0
   28.7865   45.0550  100.9738 H   0  0  0  0  0
   27.9378   46.8188   99.4774 H   0  0  0  0  0
   26.5378   46.2616   96.2381 H   0  0  0  0  0
   29.2392   48.3871   92.9505 H   0  0  0  0  0
   28.1903   49.5020   93.8604 H   0  0  0  0  0
   29.7338   48.9587   94.5629 H   0  0  0  0  0
   30.6404   45.4030   95.1684 H   0  0  0  0  0
   32.9515   45.6227   96.0099 H   0  0  0  0  0
   24.0257   49.2294   98.6929 H   0  0  0  0  0
   24.9791   50.0882   97.4395 H   0  0  0  0  0
   25.4144   51.9813   98.8670 H   0  0  0  0  0
   24.3902   51.2389  100.1204 H   0  0  0  0  0
   26.0492   51.7520  100.5149 H   0  0  0  0  0
   25.0031   48.8967  101.0038 H   0  0  0  0  0
   26.3813   48.0329  100.2789 H   0  0  0  0  0
   26.6664   49.4456  101.3248 H   0  0  0  0  0
   28.0059   50.1982   99.5820 H   0  0  0  0  0
   27.2697   50.8862   98.0283 H   0  0  0  0  0
   29.6233   49.7091   98.1840 H   0  0  0  0  0
   32.7230   48.9673   98.8956 H   0  0  0  0  0
   33.4817   47.3857   97.6760 H   0  0  0  0  0
  1  2  1  0  0  0
  2  3  4  0  0  0
  2 15  4  0  0  0
  3  4  4  0  0  0
  4  5  1  0  0  0
  4 13  4  0  0  0
  5  6  1  0  0  0
  6  7  1  0  0  0
  7  8  4  0  0  0
  7 12  4  0  0  0
  8  9  4  0  0  0
  9 10  4  0  0  0
 10 11  4  0  0  0
 11 12  4  0  0  0
 13 14  4  0  0  0
 14 15  4  0  0  0
 15 16  1  0  0  0
 16 17  1  0  0  0
 16 24  1  0  0  0
 17 18  1  0  0  0
 17 21  1  0  0  0
 18 19  2  0  0  0
 18 20  1  0  0  0
 21 22  4  0  0  0
 21 34  4  0  0  0
 22 23  4  0  0  0
 23 37  4  0  0  0
 24 25  1  0  0  0
 24 32  2  0  0  0
 25 26  2  0  0  0
 25 27  1  0  0  0
 27 28  1  0  0  0
 28 29  1  0  0  0
 28 30  1  0  0  0
 28 31  1  0  0  0
 31 32  1  0  0  0
 32 33  1  0  0  0
 33 34  1  0  0  0
 34 35  4  0  0  0
 35 36  1  0  0  0
 35 37  4  0  0  0
  3 38  1  0  0  0
  6 39  1  0  0  0
  6 40  1  0  0  0
  8 41  1  0  0  0
  9 42  1  0  0  0
 10 43  1  0  0  0
 11 44  1  0  0  0
 12 45  1  0  0  0
 13 46  1  0  0  0
 14 47  1  0  0  0
 16 48  1  0  0  0
 20 49  1  0  0  0
 20 50  1  0  0  0
 20 51  1  0  0  0
 22 52  1  0  0  0
 23 53  1  0  0  0
 27 54  1  0  0  0
 27 55  1  0  0  0
 29 56  1  0  0  0
 29 57  1  0  0  0
 29 58  1  0  0  0
 30 59  1  0  0  0
 30 60  1  0  0  0
 30 61  1  0  0  0
 31 62  1  0  0  0
 31 63  1  0  0  0
 33 64  1  0  0  0
 36 65  1  0  0  0
 37 66  1  0  0  0
M  END
$$$$
