#	Name:			6j8q_ligand
#	Creating user name:	wangrx
#	Creation time:		Thu Aug  5 17:18:47 2021

#	Modifying user name:	wangrx
#	Modification time:	Thu Aug  5 17:19:59 2021

@<TRIPOS>MOLECULE
6j8q_ligand
   25    24     1     0     0
SMALL
GAST_HUCK


@<TRIPOS>ATOM
      1 C1        126.2050  -61.2000  124.8050 C.3       1 BHU        -0.2408 
      2 N2        125.1250  -61.9690  125.3690 N.am      1 BHU        -0.4407 
      3 C3        125.2590  -63.3640  125.7170 C.2       1 BHU         0.1511 
      4 O4        126.2910  -63.9490  125.5500 O.2       1 BHU        -0.3993 
      5 C5        124.0000  -63.9820  126.3340 C.3       1 BHU         0.0521 
      6 C6        123.4400  -65.1260  125.5070 C.3       1 BHU         0.0100 
      7 S7        122.6790  -64.4570  123.9850 S.3       1 BHU        -0.1756 
      8 C8        124.3560  -64.3900  127.7580 C.3       1 BHU        -0.0447 
      9 B9        125.8250  -59.7010  125.1730 B         1 BHU         3.0000 
     10 O10       126.3350  -59.1520  126.3220 O.3       1 BHU        -0.4105 
     11 O11       124.6500  -59.2140  124.6980 O.3       1 BHU        -0.4105 
     12 H1        127.1312  -61.7928  124.8337 H         1 BHU        -0.1856 
     13 H3        125.9665  -60.9426  123.7625 H         1 BHU        -0.1856 
     14 H4        124.2464  -61.5181  125.5259 H         1 BHU         0.1457 
     15 H5        123.2218  -63.2061  126.3823 H         1 BHU         0.0542 
     16 H6        122.6795  -65.6641  126.0919 H         1 BHU         0.0401 
     17 H7        124.2526  -65.8170  125.2381 H         1 BHU         0.0401 
     18 H8        122.3070  -65.2156  123.4353 H         1 BHU         0.1018 
     19 H9        124.7539  -63.5195  128.3002 H         1 BHU         0.0257 
     20 H10       125.1159  -65.1849  127.7326 H         1 BHU         0.0257 
     21 H11       123.4552  -64.7601  128.2695 H         1 BHU         0.0257 
     22 H12       127.1536  -59.5817  126.5407 H         1 BHU         0.2052 
     23 H13       127.1535  -59.5817  126.5407 H         1 BHU         0.2052 
     24 H14       123.9711  -59.3350  125.3514 H         1 BHU         0.2052 
     25 H15       123.9711  -59.3350  125.3514 H         1 BHU         0.2052 
@<TRIPOS>BOND
     1    1    2 1    
     2    1    9 1    
     3    2    3 am   
     4    3    4 2    
     5    3    5 1    
     6    5    6 1    
     7    5    8 1    
     8    6    7 1    
     9    9   10 1    
    10    9   11 1    
    11    1   12 1    
    12    1   13 1    
    13    2   14 1    
    14    5   15 1    
    15    6   16 1    
    16    6   17 1    
    17    7   18 1    
    18    8   19 1    
    19    8   20 1    
    20    8   21 1    
    21   10   22 1    
    22   10   23 1    
    23   11   24 1    
    24   11   25 1    
@<TRIPOS>SUBSTRUCTURE
     1 BHU         1 PERM              0 ****  ****    0 ROOT 
