6j8q_ligand

Created by X-TOOL on Mon Aug  2 16:10:25 2021
 26 25  0  0  0  0  0  0  0  0999 V2000
  126.2050  -61.2000  124.8050  C 0  0  0  4  0  5
  125.1250  -61.9690  125.3690  N 0  0  0  2  0  3
  125.2590  -63.3640  125.7170  C 0  0  0  1  0  3
  126.2910  -63.9490  125.5500  O 0  0  0  1  0  1
  124.0000  -63.9820  126.3340  C 0  0  0  2  0  4
  123.4400  -65.1260  125.5070  C 0  0  0  3  0  4
  122.6790  -64.4570  123.9850  S 0  0  0  2  0  2
  124.3560  -64.3900  127.7580  C 0  0  0  4  0  4
  125.8250  -59.7010  125.1730  B 0  0  0  1  0  3
  126.3350  -59.1520  126.3220  O 0  0  0  3  0  3
  124.6500  -59.2140  124.6980  O 0  0  0  3  0  3
  127.1312  -61.7928  124.8337  H 0  0  0  1  0  1
  126.3419  -60.2775  125.3883  H 0  0  0  1  0  1
  125.9664  -60.9427  123.7625  H 0  0  0  1  0  1
  124.2464  -61.5181  125.5259  H 0  0  0  1  0  1
  123.2218  -63.2061  126.3823  H 0  0  0  1  0  1
  122.6795  -65.6641  126.0919  H 0  0  0  1  0  1
  124.2526  -65.8170  125.2381  H 0  0  0  1  0  1
  122.3070  -65.2156  123.4353  H 0  0  0  1  0  1
  124.7539  -63.5195  128.3002  H 0  0  0  1  0  1
  125.1159  -65.1849  127.7326  H 0  0  0  1  0  1
  123.4552  -64.7601  128.2695  H 0  0  0  1  0  1
  127.1536  -59.5817  126.5407  H 0  0  0  1  0  1
  127.1535  -59.5817  126.5407  H 0  0  0  1  0  1
  123.9711  -59.3350  125.3514  H 0  0  0  1  0  1
  123.9711  -59.3350  125.3514  H 0  0  0  1  0  1
  1  2  1  0  0  2
  1  9  1  0  0  2
  2  3  1  0  0  2
  3  4  2  0  0  2
  3  5  1  0  0  2
  5  6  1  0  0  2
  5  8  1  0  0  2
  6  7  1  0  0  2
  9 10  1  0  0  2
  9 11  1  0  0  2
  1 12  1  0  0  2
  1 13  1  0  0  2
  1 14  1  0  0  2
  2 15  1  0  0  2
  5 16  1  0  0  2
  6 17  1  0  0  2
  6 18  1  0  0  2
  7 19  1  0  0  2
  8 20  1  0  0  2
  8 21  1  0  0  2
  8 22  1  0  0  2
 10 23  1  0  0  2
 10 24  1  0  0  2
 11 25  1  0  0  2
 11 26  1  0  0  2
M  END
> <MOLECULAR_FORMULA>
C5H15NO3SB

> <MOLECULAR_WEIGHT>
179.9

> <NUM_HB_ATOMS>
5  

> <NUM_ROTOR>
4  

> <XLOGP2>
-1.00

$$$$
