6p84_ligand
  -I-interpret- 

 47 51  0  0  0  0  0  0  0  0999 V2000
  -14.9220   27.0670   19.4210 C   0  0  0  0  0
  -14.8210   26.3930   18.1570 C   0  0  0  0  0
  -15.2360   25.0390   18.0300 C   0  0  0  0  0
  -15.7070   24.4260   19.1890 C   0  0  0  0  0
  -16.0220   22.9930   19.2630 C   0  0  0  0  0
  -16.5480   22.4300   20.5630 C   0  0  0  0  0
  -17.3640   23.4410   21.3630 C   0  0  0  0  0
  -14.2740   27.3540   17.2900 C   0  0  0  0  0
  -12.0170   30.9350   16.1110 C   0  0  0  0  0
  -12.4230   32.1190   16.7040 C   0  0  0  0  0
  -13.3780   32.1080   17.7110 C   0  0  0  0  0
  -13.9300   30.9060   18.1430 C   0  0  0  0  0
  -17.7890   22.8140   22.6810 C   0  0  0  0  0
  -18.6180   23.8910   20.5770 C   0  0  0  0  0
  -14.0840   23.9570   16.0270 C   0  0  0  0  0
  -14.3960   23.5290   14.6840 C   0  0  0  0  0
  -15.7140   23.7160   14.3810 C   0  0  0  0  0
  -15.8110   25.2090   20.4050 C   0  0  0  0  0
  -13.5060   29.7260   17.5460 C   0  0  0  0  0
  -12.5460   29.7150   16.5140 C   0  0  0  0  0
  -15.1970   24.4580   16.6820 C   0  0  0  0  0
  -16.4630   24.6360   21.6630 C   0  0  0  0  0
  -15.4300   26.4710   20.5440 N   0  0  0  0  0
  -14.0650   28.4920   18.0280 N   0  0  0  0  0
  -14.4600   28.3530   19.3530 N   0  0  0  0  0
  -15.8740   22.2450   18.3110 O   0  0  0  0  0
  -14.0020   27.3570   15.9820 O   0  0  0  0  0
  -16.6040   24.3950   15.6760 S   0  0  0  0  0
  -15.6907   22.1398   21.1704 H   0  0  0  0  0
  -17.2017   21.5918   20.3217 H   0  0  0  0  0
  -11.2714   30.9606   15.3163 H   0  0  0  0  0
  -11.9901   33.0647   16.3780 H   0  0  0  0  0
  -13.6972   33.0457   18.1658 H   0  0  0  0  0
  -14.6799   30.8909   18.9339 H   0  0  0  0  0
  -18.3430   23.5463   23.2683 H   0  0  0  0  0
  -18.4235   21.9501   22.4830 H   0  0  0  0  0
  -16.9042   22.4976   23.2334 H   0  0  0  0  0
  -19.2519   23.0263   20.3807 H   0  0  0  0  0
  -19.1713   24.6225   21.1660 H   0  0  0  0  0
  -18.3113   24.3403   19.6324 H   0  0  0  0  0
  -13.0912   23.8935   16.4724 H   0  0  0  0  0
  -13.6658   23.1066   13.9937 H   0  0  0  0  0
  -16.1530   23.4601   13.4167 H   0  0  0  0  0
  -12.2296   28.7817   16.0482 H   0  0  0  0  0
  -15.6689   24.2991   22.3293 H   0  0  0  0  0
  -17.0787   25.4176   22.1081 H   0  0  0  0  0
  -14.4159   29.0467   20.0995 H   0  0  0  0  0
  2  1  4  0  0  0
  1 23  4  0  0  0
  1 25  1  0  0  0
  2  3  4  0  0  0
  8  2  1  0  0  0
  3  4  4  0  0  0
  3 21  1  0  0  0
  4  5  1  0  0  0
  4 18  4  0  0  0
  5  6  1  0  0  0
  5 26  2  0  0  0
  6  7  1  0  0  0
  7 13  1  0  0  0
  7 14  1  0  0  0
 22  7  1  0  0  0
 24  8  1  0  0  0
  8 27  2  0  0  0
  9 10  4  0  0  0
 20  9  4  0  0  0
 11 10  4  0  0  0
 12 11  4  0  0  0
 19 12  4  0  0  0
 15 16  4  0  0  0
 21 15  4  0  0  0
 16 17  4  0  0  0
 17 28  4  0  0  0
 18 22  1  0  0  0
 23 18  4  0  0  0
 19 20  4  0  0  0
 19 24  1  0  0  0
 21 28  4  0  0  0
 24 25  1  0  0  0
  6 29  1  0  0  0
  6 30  1  0  0  0
  9 31  1  0  0  0
 10 32  1  0  0  0
 11 33  1  0  0  0
 12 34  1  0  0  0
 13 35  1  0  0  0
 13 36  1  0  0  0
 13 37  1  0  0  0
 14 38  1  0  0  0
 14 39  1  0  0  0
 14 40  1  0  0  0
 15 41  1  0  0  0
 16 42  1  0  0  0
 17 43  1  0  0  0
 20 44  1  0  0  0
 22 45  1  0  0  0
 22 46  1  0  0  0
 25 47  1  0  0  0
M  END
$$$$
