5om9_ligand
  -I-interpret- 

 27 26  0  0  0  0  0  0  0  0999 V2000
   70.6030  -52.1920   11.9450 O   0  0  0  0  0
   71.3280  -51.2780   12.3360 C   0  0  0  0  0
   71.9330  -50.4620   11.5860 O   0  0  0  0  0
   71.3280  -51.2100   13.8310 C   0  0  0  0  0
   72.6730  -51.4540   14.5040 C   0  0  0  0  0
   73.9960  -51.6320   13.7950 C   0  0  0  0  0
   75.1670  -51.6630   14.7950 C   0  0  0  0  0
   74.1570  -52.8210   12.8320 C   0  0  0  0  0
   70.7060  -49.8670   14.3040 C   0  0  0  0  0
   69.6030  -49.0060   13.1900 S   0  0  0  0  0
   69.8140  -50.1740   15.5290 C   0  0  0  0  0
   72.4333  -49.8445   12.1245 H   0  0  0  0  0
   70.7128  -52.0500   14.1534 H   0  0  0  0  0
   72.5251  -52.4343   14.9571 H   0  0  0  0  0
   72.8291  -50.5199   15.0437 H   0  0  0  0  0
   74.0095  -50.7514   13.1528 H   0  0  0  0  0
   75.1450  -52.6013   15.3493 H   0  0  0  0  0
   76.1088  -51.5822   14.2523 H   0  0  0  0  0
   75.0730  -50.8274   15.4886 H   0  0  0  0  0
   75.1057  -52.7323   12.3027 H   0  0  0  0  0
   74.1419  -53.7514   13.3997 H   0  0  0  0  0
   73.3371  -52.8188   12.1137 H   0  0  0  0  0
   71.5770  -49.2286   14.4522 H   0  0  0  0  0
   70.2604  -48.6821   12.0802 H   0  0  0  0  0
   69.4440  -49.2395   15.9507 H   0  0  0  0  0
   68.9720  -50.7923   15.2179 H   0  0  0  0  0
   70.3994  -50.7059   16.2790 H   0  0  0  0  0
  1  2  2  0  0  0
  2  3  1  0  0  0
  2  4  1  0  0  0
  4  5  1  0  0  0
  4  9  1  0  0  0
  5  6  1  0  0  0
  6  7  1  0  0  0
  6  8  1  0  0  0
  9 10  1  0  0  0
  9 11  1  0  0  0
  3 12  1  0  0  0
  4 13  1  0  0  0
  5 14  1  0  0  0
  5 15  1  0  0  0
  6 16  1  0  0  0
  7 17  1  0  0  0
  7 18  1  0  0  0
  7 19  1  0  0  0
  8 20  1  0  0  0
  8 21  1  0  0  0
  8 22  1  0  0  0
  9 23  1  0  0  0
 10 24  1  0  0  0
 11 25  1  0  0  0
 11 26  1  0  0  0
 11 27  1  0  0  0
M  END
$$$$
