4zsh_ligand
  -I-interpret- 

 56 56  0  0  0  0  0  0  0  0999 V2000
   64.2490   44.9910   32.6880 C   0  0  0  0  0
   64.7830   44.9230   34.0990 C   0  0  0  0  0
   63.7600   45.1190   35.2020 C   0  0  0  0  0
   62.4110   45.6630   34.8030 C   0  0  0  0  0
   62.5870   46.6940   33.7310 C   0  0  0  0  0
   63.2530   46.1430   32.4600 C   0  0  0  0  0
   62.6080   46.1280   31.0180 C   0  0  0  0  0
   61.2850   46.3370   30.6910 C   0  0  0  0  0
   61.0870   46.3710   29.1740 C   0  0  0  0  0
   59.6490   46.6060   28.7260 C   0  0  0  0  0
   58.5910   46.0890   29.7190 C   0  0  0  0  0
   57.2780   46.0360   29.3070 C   0  0  0  0  0
   56.3220   45.0500   29.9840 C   0  0  0  0  0
   55.0510   44.8740   29.1650 C   0  0  0  0  0
   53.7000   44.9150   29.8820 C   0  0  0  0  0
   63.7270   43.6280   32.2760 C   0  0  0  0  0
   65.4060   45.4020   31.8250 C   0  0  0  0  0
   61.3840   47.6010   33.5140 C   0  0  0  0  0
   62.0300   47.2930   28.4300 C   0  0  0  0  0
   56.1360   45.3760   31.4360 C   0  0  0  0  0
   53.3710   43.8120   30.6500 O   0  0  0  0  0
   53.0650   46.1350   30.0340 O   0  0  0  0  0
   65.5006   45.7377   34.1962 H   0  0  0  0  0
   65.1859   43.9184   34.2277 H   0  0  0  0  0
   64.1901   45.8599   35.8760 H   0  0  0  0  0
   63.5698   44.1258   35.6088 H   0  0  0  0  0
   61.9313   46.1177   35.6697 H   0  0  0  0  0
   61.7878   44.8511   34.4281 H   0  0  0  0  0
   63.3237   47.3942   34.1249 H   0  0  0  0  0
   63.7264   47.1131   32.3089 H   0  0  0  0  0
   63.2856   45.9300   30.1875 H   0  0  0  0  0
   60.4835   46.4619   31.4191 H   0  0  0  0  0
   61.3500   45.3519   28.8905 H   0  0  0  0  0
   59.5085   46.0624   27.7917 H   0  0  0  0  0
   59.5100   47.6834   28.6373 H   0  0  0  0  0
   58.8745   45.7729   30.7229 H   0  0  0  0  0
   56.9236   46.6880   28.5087 H   0  0  0  0  0
   56.7682   44.0556   30.0000 H   0  0  0  0  0
   55.1198   43.8686   28.7497 H   0  0  0  0  0
   55.0346   45.7242   28.4831 H   0  0  0  0  0
   63.3960   43.6656   31.2382 H   0  0  0  0  0
   64.5222   42.8896   32.3785 H   0  0  0  0  0
   62.8890   43.3526   32.9162 H   0  0  0  0  0
   66.2096   44.6724   31.9252 H   0  0  0  0  0
   65.0833   45.4484   30.7849 H   0  0  0  0  0
   65.7625   46.3826   32.1403 H   0  0  0  0  0
   61.6863   48.4695   32.9289 H   0  0  0  0  0
   60.6089   47.0525   32.9787 H   0  0  0  0  0
   60.9984   47.9281   34.4796 H   0  0  0  0  0
   61.8954   48.3138   28.7876 H   0  0  0  0  0
   63.0585   46.9777   28.6059 H   0  0  0  0  0
   61.8125   47.2489   27.3628 H   0  0  0  0  0
   57.0992   45.3284   31.9440 H   0  0  0  0  0
   55.7226   46.3800   31.5316 H   0  0  0  0  0
   55.4515   44.6557   31.8840 H   0  0  0  0  0
   53.4346   46.7665   29.4126 H   0  0  0  0  0
  1  2  1  0  0  0
  1  6  1  0  0  0
  1 16  1  0  0  0
  1 17  1  0  0  0
  2  3  1  0  0  0
  3  4  1  0  0  0
  4  5  1  0  0  0
  5  6  1  0  0  0
  5 18  1  0  0  0
  6  7  1  0  0  0
  7  8  2  0  0  0
  8  9  1  0  0  0
  9 10  1  0  0  0
  9 19  1  0  0  0
 10 11  1  0  0  0
 11 12  2  0  0  0
 12 13  1  0  0  0
 13 14  1  0  0  0
 13 20  1  0  0  0
 14 15  1  0  0  0
 15 21  2  0  0  0
 15 22  1  0  0  0
  2 23  1  0  0  0
  2 24  1  0  0  0
  3 25  1  0  0  0
  3 26  1  0  0  0
  4 27  1  0  0  0
  4 28  1  0  0  0
  5 29  1  0  0  0
  6 30  1  0  0  0
  7 31  1  0  0  0
  8 32  1  0  0  0
  9 33  1  0  0  0
 10 34  1  0  0  0
 10 35  1  0  0  0
 11 36  1  0  0  0
 12 37  1  0  0  0
 13 38  1  0  0  0
 14 39  1  0  0  0
 14 40  1  0  0  0
 16 41  1  0  0  0
 16 42  1  0  0  0
 16 43  1  0  0  0
 17 44  1  0  0  0
 17 45  1  0  0  0
 17 46  1  0  0  0
 18 47  1  0  0  0
 18 48  1  0  0  0
 18 49  1  0  0  0
 19 50  1  0  0  0
 19 51  1  0  0  0
 19 52  1  0  0  0
 20 53  1  0  0  0
 20 54  1  0  0  0
 20 55  1  0  0  0
 22 56  1  0  0  0
M  END
$$$$
