6gxw_ligand
  -I-interpret- 

 35 36  0  0  0  0  0  0  0  0999 V2000
   45.7810   33.7060   84.7720 C   0  0  0  0  0
   45.1100   34.6780   85.3910 C   0  0  0  0  0
   43.9730   35.4400   84.8530 C   0  0  0  0  0
   43.4860   35.1790   83.5650 C   0  0  0  0  0
   42.3910   35.8650   83.0690 C   0  0  0  0  0
   41.7600   36.8160   83.8410 C   0  0  0  0  0
   42.2230   37.1020   85.1160 C   0  0  0  0  0
   43.3280   36.4240   85.6160 C   0  0  0  0  0
   43.0810   37.4420   87.7770 C   0  0  0  0  0
   43.8680   36.6720   86.8530 O   0  0  0  0  0
   43.9790   38.4810   88.3970 C   0  0  0  0  0
   44.0770   38.6310   89.7910 C   0  0  0  0  0
   44.8370   39.6230   90.3870 C   0  0  0  0  0
   45.5360   40.5120   89.5930 C   0  0  0  0  0
   45.4840   40.4050   88.2160 C   0  0  0  0  0
   44.7230   39.4010   87.6390 C   0  0  0  0  0
   47.1600   31.7950   84.7700 N   0  0  0  0  0
   46.6860   32.7930   85.5060 C   0  0  0  0  0
   46.9330   32.9080   86.7210 O   0  0  0  0  0
   46.8400   30.4810   85.1020 O   0  0  0  0  0
   43.2120   37.5450   90.8330 Cl  0  0  0  0  0
   44.7200   39.2890   85.9060 Cl  0  0  0  0  0
   45.6598   33.5803   83.6961 H   0  0  0  0  0
   45.4377   34.9339   86.3986 H   0  0  0  0  0
   43.9755   34.4267   82.9465 H   0  0  0  0  0
   42.0265   35.6522   82.0640 H   0  0  0  0  0
   40.8927   37.3460   83.4473 H   0  0  0  0  0
   41.7223   37.8556   85.7238 H   0  0  0  0  0
   42.6642   36.7946   88.5485 H   0  0  0  0  0
   42.2514   37.9217   87.2577 H   0  0  0  0  0
   44.8835   39.7020   91.4731 H   0  0  0  0  0
   46.1306   41.3005   90.0543 H   0  0  0  0  0
   46.0370   41.1045   87.5892 H   0  0  0  0  0
   47.7557   31.9897   83.9652 H   0  0  0  0  0
   47.2574   29.8835   84.4772 H   0  0  0  0  0
  1  2  2  0  0  0
  1 18  1  0  0  0
  2  3  1  0  0  0
  3  4  4  0  0  0
  3  8  4  0  0  0
  4  5  4  0  0  0
  5  6  4  0  0  0
  6  7  4  0  0  0
  7  8  4  0  0  0
  8 10  1  0  0  0
 10  9  1  0  0  0
  9 11  1  0  0  0
 11 12  4  0  0  0
 11 16  4  0  0  0
 12 13  4  0  0  0
 12 21  1  0  0  0
 13 14  4  0  0  0
 14 15  4  0  0  0
 15 16  4  0  0  0
 16 22  1  0  0  0
 18 17  1  0  0  0
 17 20  1  0  0  0
 18 19  2  0  0  0
  1 23  1  0  0  0
  2 24  1  0  0  0
  4 25  1  0  0  0
  5 26  1  0  0  0
  6 27  1  0  0  0
  7 28  1  0  0  0
  9 29  1  0  0  0
  9 30  1  0  0  0
 13 31  1  0  0  0
 14 32  1  0  0  0
 15 33  1  0  0  0
 17 34  1  0  0  0
 20 35  1  0  0  0
M  END
$$$$
