3avg_ligand
  -I-interpret- 

123123  0  0  0  0  0  0  0  0999 V2000
   15.9360   38.8140  -16.1520 N   0  0  0  0  0
   16.1160   38.2750  -17.5190 C   0  0  0  0  0
   14.9240   38.5170  -18.4460 C   0  0  0  0  0
   14.8350   37.9180  -19.5310 O   0  0  0  0  0
   16.4530   36.7440  -17.4400 C   0  0  0  0  0
   13.9940   39.3770  -18.0300 N   0  0  0  0  0
   12.6930   39.6020  -18.7410 C   0  0  0  0  0
   11.7300   38.3930  -18.8300 C   0  0  0  0  0
   10.8660   38.3120  -19.7240 O   0  0  0  0  0
   12.9520   40.1170  -20.1660 C   0  0  0  0  0
   11.9300   41.1370  -20.5980 C   0  0  0  0  0
   10.7390   41.0110  -20.2440 O   0  0  0  0  0
   12.3270   42.0860  -21.3070 O   0  0  0  0  0
   11.8370   37.4900  -17.8720 N   0  0  0  0  0
   10.9660   36.3160  -17.8470 C   0  0  0  0  0
   10.0650   36.4710  -16.6320 C   0  0  0  0  0
   10.5100   37.1100  -15.6330 O   0  0  0  0  0
   11.8880   35.1390  -17.6340 C   0  0  0  0  0
   12.9070   34.8920  -18.8030 C   0  0  0  0  0
   12.2030   34.6450  -20.1270 C   0  0  0  0  0
   13.3600   34.6880  -21.2300 C   0  0  0  0  0
   12.8820   34.5030  -22.5800 N   0  3  0  0  0
    8.9080   35.8130  -16.6180 N   0  0  0  0  0
    8.0050   35.8670  -15.4290 C   0  0  0  0  0
    8.7340   35.3150  -14.1940 C   0  0  0  0  0
    8.5220   35.7820  -13.0340 O   0  0  0  0  0
    6.6750   35.0540  -15.7320 C   0  0  0  0  0
    5.4840   35.5690  -14.9330 C   0  0  0  0  0
    6.8450   33.5980  -15.4890 C   0  0  0  0  0
    4.9060   36.8040  -15.6360 C   0  0  0  0  0
    9.5990   34.3110  -14.4160 N   0  0  0  0  0
   10.2210   33.6030  -13.2980 C   0  0  0  0  0
   11.5940   34.1540  -13.0360 C   0  0  0  0  0
   12.2830   33.6710  -12.1070 O   0  0  0  0  0
   10.3410   32.0570  -13.4650 C   0  0  0  0  0
   10.8980   31.6560  -14.8090 C   0  0  0  0  0
   11.0900   30.4360  -15.0240 O   0  0  0  0  0
   11.1250   32.5650  -15.6490 O   0  0  0  0  0
   11.9960   35.1310  -13.8440 N   0  0  0  0  0
   13.2640   35.8460  -13.5850 C   0  0  0  0  0
   13.1070   37.2150  -14.2350 C   0  0  0  0  0
   13.3870   37.4240  -15.4400 O   0  0  0  0  0
   14.4520   35.0530  -14.1480 C   0  0  0  0  0
   15.8210   35.5830  -13.6410 C   0  0  0  0  0
   15.9430   36.7270  -13.2190 O   0  0  0  0  0
   16.8400   34.7370  -13.6990 N   0  0  0  0  0
   12.5890   38.1540  -13.4430 N   0  0  0  0  0
   12.2110   39.4400  -14.0500 C   0  0  0  0  0
   13.4470   40.1760  -14.5920 C   0  0  0  0  0
   13.3580   40.8960  -15.5990 O   0  0  0  0  0
   11.4460   40.3150  -13.0220 C   0  0  0  0  0
   10.0080   39.8400  -12.8140 C   0  0  0  0  0
    9.3630   40.8010  -11.7930 C   0  0  0  0  0
    9.1360   39.8110  -14.1080 C   0  0  0  0  0
   14.5680   39.9520  -13.9130 N   0  0  0  0  0
   15.9050   40.4520  -14.3390 C   0  0  0  0  0
   16.2280   40.0710  -15.7940 C   0  0  0  0  0
   16.7090   40.9090  -16.5700 O   0  0  0  0  0
   17.0140   39.9290  -13.4010 C   0  0  0  0  0
   17.1710   40.7580  -12.1090 C   0  0  0  0  0
   16.5870   41.8600  -11.9840 O   0  0  0  0  0
   17.8960   40.2890  -11.2000 O   0  0  0  0  0
   15.5658   38.1878  -15.4370 H   0  0  0  0  0
   16.9465   38.8232  -17.9638 H   0  0  0  0  0
   15.5893   36.2026  -17.0540 H   0  0  0  0  0
   16.6990   36.3756  -18.4359 H   0  0  0  0  0
   17.3039   36.5944  -16.7754 H   0  0  0  0  0
   14.1776   39.9116  -17.1810 H   0  0  0  0  0
   12.1843   40.3342  -18.1139 H   0  0  0  0  0
   12.8940   39.2691  -20.8485 H   0  0  0  0  0
   13.9328   40.5924  -20.1815 H   0  0  0  0  0
   13.2699   41.9949  -21.4629 H   0  0  0  0  0
   12.5365   37.6134  -17.1400 H   0  0  0  0  0
   10.3663   36.1933  -18.7489 H   0  0  0  0  0
   11.2607   34.2504  -17.5638 H   0  0  0  0  0
   12.4734   35.3496  -16.7390 H   0  0  0  0  0
   13.4975   34.0085  -18.5603 H   0  0  0  0  0
   13.5287   35.7812  -18.9076 H   0  0  0  0  0
   11.4347   35.3936  -20.3202 H   0  0  0  0  0
   11.6778   33.6899  -20.1316 H   0  0  0  0  0
   14.0479   33.8708  -21.0129 H   0  0  0  0  0
   13.8216   35.6742  -21.1799 H   0  0  0  0  0
   13.6698   34.5419  -23.2267 H   0  0  0  0  0
   12.4231   33.5952  -22.6555 H   0  0  0  0  0
   12.2166   35.2417  -22.8080 H   0  0  0  0  0
    8.6335   35.2631  -17.4321 H   0  0  0  0  0
    7.7301   36.9009  -15.2205 H   0  0  0  0  0
    6.4697   35.2106  -16.7910 H   0  0  0  0  0
    5.8052   35.8363  -13.9263 H   0  0  0  0  0
    4.7216   34.7926  -14.8687 H   0  0  0  0  0
    7.6345   33.2130  -16.1344 H   0  0  0  0  0
    7.1146   33.4341  -14.4457 H   0  0  0  0  0
    5.9102   33.0826  -15.7093 H   0  0  0  0  0
    5.6712   37.5779  -15.6956 H   0  0  0  0  0
    4.5843   36.5311  -16.6411 H   0  0  0  0  0
    4.0532   37.1774  -15.0690 H   0  0  0  0  0
    9.8238   34.0402  -15.3734 H   0  0  0  0  0
    9.5427   33.7714  -12.4615 H   0  0  0  0  0
    9.3406   31.6330  -13.3781 H   0  0  0  0  0
   11.0229   31.6901  -12.6979 H   0  0  0  0  0
   10.9043   33.4166  -15.2647 H   0  0  0  0  0
   11.4250   35.3891  -14.6488 H   0  0  0  0  0
   13.4694   35.9576  -12.5204 H   0  0  0  0  0
   14.4361   35.1520  -15.2334 H   0  0  0  0  0
   14.3506   34.0191  -13.8181 H   0  0  0  0  0
   17.7652   35.0308  -13.3859 H   0  0  0  0  0
   16.6988   33.7923  -14.0568 H   0  0  0  0  0
   12.4585   37.9859  -12.4454 H   0  0  0  0  0
   11.5485   39.2432  -14.8929 H   0  0  0  0  0
   11.4137   41.3355  -13.4036 H   0  0  0  0  0
   11.9663   40.2479  -12.0666 H   0  0  0  0  0
   10.0486   38.8062  -12.4708 H   0  0  0  0  0
    9.9220   40.7642  -10.8580 H   0  0  0  0  0
    9.3819   41.8162  -12.1893 H   0  0  0  0  0
    8.3313   40.4989  -11.6132 H   0  0  0  0  0
    9.0787   40.8150  -14.5286 H   0  0  0  0  0
    9.5889   39.1365  -14.8347 H   0  0  0  0  0
    8.1335   39.4613  -13.8613 H   0  0  0  0  0
   14.5092   39.4075  -13.0525 H   0  0  0  0  0
   15.8687   41.5396  -14.2774 H   0  0  0  0  0
   17.9570   39.9885  -13.9444 H   0  0  0  0  0
   16.7431   38.9147  -13.1079 H   0  0  0  0  0
   18.2526   39.4432  -11.4810 H   0  0  0  0  0
  1  2  1  0  0  0
  1 57  1  0  0  0
  2  3  1  0  0  0
  2  5  1  0  0  0
  3  4  2  0  0  0
  3  6  1  0  0  0
  6  7  1  0  0  0
  7  8  1  0  0  0
  7 10  1  0  0  0
  8  9  2  0  0  0
  8 14  1  0  0  0
 10 11  1  0  0  0
 11 12  2  0  0  0
 11 13  1  0  0  0
 14 15  1  0  0  0
 15 16  1  0  0  0
 15 18  1  0  0  0
 16 17  2  0  0  0
 16 23  1  0  0  0
 18 19  1  0  0  0
 19 20  1  0  0  0
 20 21  1  0  0  0
 21 22  1  0  0  0
 23 24  1  0  0  0
 24 25  1  0  0  0
 24 27  1  0  0  0
 25 26  2  0  0  0
 25 31  1  0  0  0
 27 28  1  0  0  0
 27 29  1  0  0  0
 28 30  1  0  0  0
 31 32  1  0  0  0
 32 33  1  0  0  0
 32 35  1  0  0  0
 33 34  2  0  0  0
 33 39  1  0  0  0
 35 36  1  0  0  0
 36 37  2  0  0  0
 36 38  1  0  0  0
 39 40  1  0  0  0
 40 41  1  0  0  0
 40 43  1  0  0  0
 41 42  2  0  0  0
 41 47  1  0  0  0
 43 44  1  0  0  0
 44 45  2  0  0  0
 44 46  1  0  0  0
 47 48  1  0  0  0
 48 49  1  0  0  0
 48 51  1  0  0  0
 49 50  2  0  0  0
 49 55  1  0  0  0
 51 52  1  0  0  0
 52 53  1  0  0  0
 52 54  1  0  0  0
 55 56  1  0  0  0
 56 57  1  0  0  0
 56 59  1  0  0  0
 57 58  2  0  0  0
 59 60  1  0  0  0
 60 61  2  0  0  0
 60 62  1  0  0  0
  1 63  1  0  0  0
  2 64  1  0  0  0
  5 65  1  0  0  0
  5 66  1  0  0  0
  5 67  1  0  0  0
  6 68  1  0  0  0
  7 69  1  0  0  0
 10 70  1  0  0  0
 10 71  1  0  0  0
 13 72  1  0  0  0
 14 73  1  0  0  0
 15 74  1  0  0  0
 18 75  1  0  0  0
 18 76  1  0  0  0
 19 77  1  0  0  0
 19 78  1  0  0  0
 20 79  1  0  0  0
 20 80  1  0  0  0
 21 81  1  0  0  0
 21 82  1  0  0  0
 22 83  1  0  0  0
 22 84  1  0  0  0
 22 85  1  0  0  0
 23 86  1  0  0  0
 24 87  1  0  0  0
 27 88  1  0  0  0
 28 89  1  0  0  0
 28 90  1  0  0  0
 29 91  1  0  0  0
 29 92  1  0  0  0
 29 93  1  0  0  0
 30 94  1  0  0  0
 30 95  1  0  0  0
 30 96  1  0  0  0
 31 97  1  0  0  0
 32 98  1  0  0  0
 35 99  1  0  0  0
 35100  1  0  0  0
 38101  1  0  0  0
 39102  1  0  0  0
 40103  1  0  0  0
 43104  1  0  0  0
 43105  1  0  0  0
 46106  1  0  0  0
 46107  1  0  0  0
 47108  1  0  0  0
 48109  1  0  0  0
 51110  1  0  0  0
 51111  1  0  0  0
 52112  1  0  0  0
 53113  1  0  0  0
 53114  1  0  0  0
 53115  1  0  0  0
 54116  1  0  0  0
 54117  1  0  0  0
 54118  1  0  0  0
 55119  1  0  0  0
 56120  1  0  0  0
 59121  1  0  0  0
 59122  1  0  0  0
 62123  1  0  0  0
M  END
$$$$
