1fv0_ligand
  -I-interpret- 

 37 40  0  0  0  0  0  0  0  0999 V2000
   15.5110   22.9080   40.4330 C   0  0  0  0  0
   14.1180   22.8870   40.2100 C   0  0  0  0  0
   13.2010   22.9020   41.2540 C   0  0  0  0  0
   13.6190   22.9400   42.6060 C   0  0  0  0  0
   15.0560   22.9660   42.9560 C   0  0  0  0  0
   16.0310   22.9540   41.8090 C   0  0  0  0  0
   15.5570   22.9990   44.3250 C   0  0  0  0  0
   17.0210   23.0050   44.5500 C   0  0  0  0  0
   17.8960   22.9940   43.4400 C   0  0  0  0  0
   17.4450   22.9840   42.1020 C   0  0  0  0  0
   14.7200   23.0160   45.4980 C   0  0  0  0  0
   15.2500   23.0370   46.7900 C   0  0  0  0  0
   16.6320   23.0370   46.9950 C   0  0  0  0  0
   17.5620   23.0200   45.8850 C   0  0  0  0  0
   11.3760   22.9040   42.4750 C   0  0  0  0  0
   16.3290   23.0260   39.1400 C   0  0  0  0  0
   20.1900   21.9140   46.0480 C   0  0  0  0  0
   18.8630   22.5860   46.0210 O   0  0  0  0  0
   11.8510   22.8780   41.1170 O   0  0  0  0  0
   12.4940   22.9420   43.3850 O   0  0  0  0  0
   17.2480   22.2820   38.8000 O   0  0  0  0  0
   15.8920   23.4950   38.0950 O   0  0  0  0  0
   17.0970   23.0530   48.3350 O   0  0  0  0  0
   18.7170   23.9890   40.2160 O   0  0  0  0  0
   19.5990   23.1920   41.9230 O   0  0  0  0  0
   18.7030   23.3900   41.0990 N   0  0  0  0  0
   13.7489   22.8581   39.1848 H   0  0  0  0  0
   18.9701   22.9932   43.6257 H   0  0  0  0  0
   13.6372   23.0123   45.3727 H   0  0  0  0  0
   14.5779   23.0536   47.6480 H   0  0  0  0  0
   10.7608   23.7914   42.6239 H   0  0  0  0  0
   10.7863   22.0076   42.6670 H   0  0  0  0  0
   20.1061   20.9683   46.5834 H   0  0  0  0  0
   20.5218   21.7266   45.0268 H   0  0  0  0  0
   20.9110   22.5565   46.5535 H   0  0  0  0  0
   17.6370   21.8789   39.5796 H   0  0  0  0  0
   18.0570   23.0513   48.3394 H   0  0  0  0  0
  1 16  1  0  0  0
  1  6  4  0  0  0
  1  2  4  0  0  0
  2  3  4  0  0  0
  3 19  1  0  0  0
  3  4  4  0  0  0
  4 20  1  0  0  0
  4  5  4  0  0  0
  5  7  4  0  0  0
  5  6  4  0  0  0
  6 10  4  0  0  0
 10 26  1  0  0  0
 10  9  4  0  0  0
  9  8  4  0  0  0
  8 14  4  0  0  0
  7  8  4  0  0  0
  7 11  4  0  0  0
 11 12  4  0  0  0
 12 13  4  0  0  0
 13 23  1  0  0  0
 14 13  4  0  0  0
 14 18  1  0  0  0
 18 17  1  0  0  0
 26 24  2  0  0  0
 26 25  2  0  0  0
 20 15  1  0  0  0
 15 19  1  0  0  0
 16 22  2  0  0  0
 16 21  1  0  0  0
  2 27  1  0  0  0
  9 28  1  0  0  0
 11 29  1  0  0  0
 12 30  1  0  0  0
 15 31  1  0  0  0
 15 32  1  0  0  0
 17 33  1  0  0  0
 17 34  1  0  0  0
 17 35  1  0  0  0
 21 36  1  0  0  0
 23 37  1  0  0  0
M  END
$$$$
