5m4i_ligand
  -I-interpret- 

 33 35  0  0  0  0  0  0  0  0999 V2000
  -17.8460    4.1750   21.3840 C   0  0  0  0  0
  -15.7810    6.7700   14.6470 C   0  0  0  0  0
  -17.2540    5.0290   15.4410 C   0  0  0  0  0
  -17.4310    5.0840   19.0680 C   0  0  0  0  0
  -15.9110    6.8800   18.4300 C   0  0  0  0  0
  -16.1560    6.4830   17.0450 C   0  0  0  0  0
  -21.5990    1.6540   22.6600 O   0  0  0  0  0
  -15.0720    7.9250   18.7460 O   0  0  0  0  0
  -19.6970    0.9470   23.4730 O   0  0  0  0  0
  -16.3770    6.4810   20.7670 O   0  0  0  0  0
  -15.0150    7.6090   13.3420 Cl  0  0  0  0  0
  -18.3310    3.7060   15.1460 Cl  0  0  0  0  0
  -19.9090    2.6020   20.4030 C   0  0  0  0  0
  -18.5550    3.3530   22.2420 C   0  0  0  0  0
  -19.2030    3.4310   19.5480 C   0  0  0  0  0
  -16.6450    5.6980   14.3860 C   0  0  0  0  0
  -15.5300    7.1680   15.9620 C   0  0  0  0  0
  -17.5980    4.7820   17.8000 O   0  0  0  0  0
  -20.3390    1.6790   22.6760 C   0  0  0  0  0
  -19.5860    2.5680   21.7500 C   0  0  0  0  0
  -18.1750    4.2270   20.0360 C   0  0  0  0  0
  -16.5840    6.1360   19.4510 C   0  0  0  0  0
  -16.9960    5.4440   16.7860 C   0  0  0  0  0
  -17.0269    4.7834   21.7674 H   0  0  0  0  0
  -15.1969    7.6943   18.5527 H   0  0  0  0  0
  -21.9218    2.2692   21.9975 H   0  0  0  0  0
  -14.7137    8.3016   17.9389 H   0  0  0  0  0
  -15.7675    7.2214   20.8105 H   0  0  0  0  0
  -20.7159    1.9784   20.0180 H   0  0  0  0  0
  -18.3034    3.3228   23.3021 H   0  0  0  0  0
  -19.4550    3.4590   18.4879 H   0  0  0  0  0
  -16.8388    5.3898   13.3586 H   0  0  0  0  0
  -14.8562    8.0015   16.1604 H   0  0  0  0  0
 14  1  4  0  0  0
  1 21  4  0  0  0
  2 11  1  0  0  0
 16  2  4  0  0  0
 17  2  4  0  0  0
  3 12  1  0  0  0
  3 16  4  0  0  0
 23  3  4  0  0  0
  4 18  1  0  0  0
 21  4  1  0  0  0
  4 22  2  0  0  0
  5  6  1  0  0  0
  5  8  1  0  0  0
 22  5  1  0  0  0
  6 17  4  0  0  0
 23  6  4  0  0  0
 19  7  1  0  0  0
 19  9  2  0  0  0
 22 10  1  0  0  0
 13 15  4  0  0  0
 20 13  4  0  0  0
 20 14  4  0  0  0
 15 21  4  0  0  0
 18 23  1  0  0  0
 19 20  1  0  0  0
  1 24  1  0  0  0
  5 25  1  0  0  0
  7 26  1  0  0  0
  8 27  1  0  0  0
 10 28  1  0  0  0
 13 29  1  0  0  0
 14 30  1  0  0  0
 15 31  1  0  0  0
 16 32  1  0  0  0
 17 33  1  0  0  0
M  END
$$$$
