2g1y_ligand
  -I-interpret- 

 55 57  0  0  0  0  0  0  0  0999 V2000
   27.3650  106.3890  130.6310 C   0  0  0  0  0
   28.0590  107.1070  131.5340 N   0  0  0  0  0
   27.8160  108.4200  131.5610 C   0  0  0  0  0
   26.9440  109.0510  130.7560 N   0  0  0  0  0
   26.2260  108.3450  129.8410 C   0  0  0  0  0
   26.4110  106.9510  129.7470 C   0  0  0  0  0
   27.6220  105.0660  130.6200 N   0  0  0  0  0
   28.4760  109.1670  132.4390 N   0  0  0  0  0
   25.2490  109.1290  128.9660 C   0  0  0  0  0
   25.9960  105.8530  127.4620 C   0  0  0  0  0
   25.1930  104.9780  126.6870 C   0  0  0  0  0
   24.0730  104.3300  127.2660 C   0  0  0  0  0
   23.7300  104.5560  128.6380 C   0  0  0  0  0
   24.5420  105.4390  129.3600 C   0  0  0  0  0
   25.6580  106.0800  128.8110 C   0  0  0  0  0
   23.3370  103.5030  126.4410 O   0  0  0  0  0
   22.3660  102.6280  127.0300 C   0  0  0  0  0
   21.8700  102.9890  128.4960 C   0  0  0  0  0
   22.6160  103.9150  129.2160 N   0  0  0  0  0
   22.1760  104.1690  130.6340 C   0  0  0  0  0
   21.2070  105.3680  130.8100 C   0  0  0  0  0
   21.2520  105.9580  132.2310 C   0  0  0  0  0
   20.1000  106.7400  132.4910 O   0  0  0  0  0
   20.0440  107.3260  133.7790 C   0  0  0  0  0
   22.9770  101.2140  127.0900 C   0  0  0  0  0
   21.1970  102.6480  126.0420 C   0  0  0  0  0
   20.8950  102.4090  128.9520 O   0  0  0  0  0
   23.8550  109.2430  129.5760 C   0  0  0  0  0
   28.3042  104.6736  131.2689 H   0  0  0  0  0
   27.1343  104.4572  129.9628 H   0  0  0  0  0
   29.1496  108.7352  133.0717 H   0  0  0  0  0
   28.3092  110.1724  132.4805 H   0  0  0  0  0
   25.1531  108.5972  128.0194 H   0  0  0  0  0
   25.6438  110.1387  128.8527 H   0  0  0  0  0
   26.8633  106.3435  127.0200 H   0  0  0  0  0
   25.4385  104.8026  125.6396 H   0  0  0  0  0
   24.2922  105.6371  130.4023 H   0  0  0  0  0
   23.0737  104.4010  131.2071 H   0  0  0  0  0
   21.6406  103.2785  130.9634 H   0  0  0  0  0
   20.1936  105.0115  130.6257 H   0  0  0  0  0
   21.5078  106.1490  130.1117 H   0  0  0  0  0
   22.1336  106.5930  132.3189 H   0  0  0  0  0
   21.2888  105.1390  132.9493 H   0  0  0  0  0
   20.0628  106.5410  134.5350 H   0  0  0  0  0
   20.9023  107.9839  133.9151 H   0  0  0  0  0
   19.1239  107.9025  133.8748 H   0  0  0  0  0
   23.2218  100.8823  126.0810 H   0  0  0  0  0
   23.8826  101.2363  127.6963 H   0  0  0  0  0
   22.2571  100.5271  127.5350 H   0  0  0  0  0
   20.8240  103.6674  125.9431 H   0  0  0  0  0
   21.5375  102.2885  125.0709 H   0  0  0  0  0
   20.4001  102.0023  126.4109 H   0  0  0  0  0
   23.4406  108.2453  129.7212 H   0  0  0  0  0
   23.9208  109.7538  130.5366 H   0  0  0  0  0
   23.2112  109.8110  128.9044 H   0  0  0  0  0
  1  2  4  0  0  0
  6  1  4  0  0  0
  1  7  1  0  0  0
  2  3  4  0  0  0
  4  3  4  0  0  0
  3  8  1  0  0  0
  5  4  4  0  0  0
  6  5  4  0  0  0
  5  9  1  0  0  0
 15  6  1  0  0  0
  9 28  1  0  0  0
 10 11  4  0  0  0
 10 15  4  0  0  0
 11 12  4  0  0  0
 12 13  4  0  0  0
 12 16  1  0  0  0
 13 14  4  0  0  0
 13 19  1  0  0  0
 14 15  4  0  0  0
 16 17  1  0  0  0
 17 18  1  0  0  0
 17 25  1  0  0  0
 17 26  1  0  0  0
 18 19  1  0  0  0
 18 27  2  0  0  0
 19 20  1  0  0  0
 20 21  1  0  0  0
 21 22  1  0  0  0
 22 23  1  0  0  0
 23 24  1  0  0  0
  7 29  1  0  0  0
  7 30  1  0  0  0
  8 31  1  0  0  0
  8 32  1  0  0  0
  9 33  1  0  0  0
  9 34  1  0  0  0
 10 35  1  0  0  0
 11 36  1  0  0  0
 14 37  1  0  0  0
 20 38  1  0  0  0
 20 39  1  0  0  0
 21 40  1  0  0  0
 21 41  1  0  0  0
 22 42  1  0  0  0
 22 43  1  0  0  0
 24 44  1  0  0  0
 24 45  1  0  0  0
 24 46  1  0  0  0
 25 47  1  0  0  0
 25 48  1  0  0  0
 25 49  1  0  0  0
 26 50  1  0  0  0
 26 51  1  0  0  0
 26 52  1  0  0  0
 28 53  1  0  0  0
 28 54  1  0  0  0
 28 55  1  0  0  0
M  END
$$$$
