4efs_ligand
  -I-interpret- 

 49 51  0  0  0  0  0  0  0  0999 V2000
  -10.8930  -29.3390    1.7520 O   0  0  0  0  0
  -10.2010  -28.5480    2.3380 C   0  0  0  0  0
   -9.3960  -29.0360    3.4060 N   0  0  0  0  0
  -10.1860  -27.0720    1.9680 C   0  0  0  0  0
  -10.2370  -26.8430    0.4900 C   0  0  0  0  0
  -10.3330  -25.3640    0.2220 C   0  0  0  0  0
   -8.9860  -24.6910    0.1580 C   0  0  0  0  0
   -9.0960  -23.4750    0.3600 O   0  0  0  0  0
   -8.1030  -25.5080   -0.0700 O   0  0  0  0  0
   -8.9920  -26.4170    2.4530 N   0  0  0  0  0
   -9.0820  -25.6230    3.6290 C   0  0  0  0  0
  -10.1410  -25.5560    4.1930 O   0  0  0  0  0
   -7.8600  -24.9570    4.2050 C   0  0  0  0  0
   -6.5880  -25.3740    3.8490 C   0  0  0  0  0
   -5.4760  -24.7720    4.4290 C   0  0  0  0  0
   -5.6330  -23.7420    5.3350 C   0  0  0  0  0
   -6.9000  -23.3640    5.7280 C   0  0  0  0  0
   -8.0050  -23.9600    5.1470 C   0  0  0  0  0
   -4.5370  -23.2040    5.9760 C   0  0  0  0  0
   -3.2180  -23.6510    5.7820 C   0  0  0  0  0
   -2.2160  -22.8650    6.8080 C   0  0  0  0  0
   -2.9610  -22.0110    7.6330 C   0  0  0  0  0
   -4.5670  -22.1230    7.2220 S   0  0  0  0  0
   -0.7210  -23.0830    6.8700 C   0  0  0  0  0
    0.0350  -22.2320    7.5940 C   0  0  0  0  0
    1.4210  -22.4890    7.6450 C   0  0  0  0  0
    1.9430  -23.6260    6.9480 C   0  0  0  0  0
    1.0580  -24.4700    6.2400 C   0  0  0  0  0
   -0.2490  -24.1330    6.2550 C   0  0  0  0  0
   -9.4190  -30.0259    3.6509 H   0  0  0  0  0
   -8.7962  -28.3957    3.9263 H   0  0  0  0  0
  -11.0790  -26.6565    2.4350 H   0  0  0  0  0
  -11.1072  -27.3483    0.0710 H   0  0  0  0  0
   -9.3345  -27.2413    0.0264 H   0  0  0  0  0
  -10.8921  -24.9127    1.0417 H   0  0  0  0  0
  -10.8176  -25.2317   -0.7453 H   0  0  0  0  0
  -10.0205  -23.2573    0.4994 H   0  0  0  0  0
   -8.1041  -26.5222    1.9621 H   0  0  0  0  0
   -6.4587  -26.1711    3.1169 H   0  0  0  0  0
   -4.4753  -25.1153    4.1668 H   0  0  0  0  0
   -7.0300  -22.5988    6.4933 H   0  0  0  0  0
   -9.0046  -23.6371    5.4378 H   0  0  0  0  0
   -2.9104  -24.4059    5.0584 H   0  0  0  0  0
   -2.5522  -21.3753    8.4184 H   0  0  0  0  0
   -0.4058  -21.3831    8.1166 H   0  0  0  0  0
    2.0850  -21.8319    8.2066 H   0  0  0  0  0
    3.0120  -23.8382    6.9635 H   0  0  0  0  0
    1.4140  -25.3516    5.7069 H   0  0  0  0  0
   -0.9509  -24.7749    5.7227 H   0  0  0  0  0
  1  2  2  0  0  0
  2  3  1  0  0  0
  2  4  1  0  0  0
  4  5  1  0  0  0
  4 10  1  0  0  0
  5  6  1  0  0  0
  6  7  1  0  0  0
  7  8  1  0  0  0
  7  9  2  0  0  0
 10 11  1  0  0  0
 11 12  2  0  0  0
 11 13  1  0  0  0
 13 14  4  0  0  0
 13 18  4  0  0  0
 14 15  4  0  0  0
 15 16  4  0  0  0
 16 17  4  0  0  0
 16 19  1  0  0  0
 17 18  4  0  0  0
 19 20  4  0  0  0
 19 23  4  0  0  0
 20 21  4  0  0  0
 21 22  4  0  0  0
 21 24  1  0  0  0
 22 23  4  0  0  0
 24 25  4  0  0  0
 24 29  4  0  0  0
 25 26  4  0  0  0
 26 27  4  0  0  0
 27 28  4  0  0  0
 28 29  4  0  0  0
  3 30  1  0  0  0
  3 31  1  0  0  0
  4 32  1  0  0  0
  5 33  1  0  0  0
  5 34  1  0  0  0
  6 35  1  0  0  0
  6 36  1  0  0  0
  8 37  1  0  0  0
 10 38  1  0  0  0
 14 39  1  0  0  0
 15 40  1  0  0  0
 17 41  1  0  0  0
 18 42  1  0  0  0
 20 43  1  0  0  0
 22 44  1  0  0  0
 25 45  1  0  0  0
 26 46  1  0  0  0
 27 47  1  0  0  0
 28 48  1  0  0  0
 29 49  1  0  0  0
M  END
$$$$
