3neg_ligand
  -I-interpret- 

 35 37  0  0  0  0  0  0  0  0999 V2000
  -55.7370   40.4930  -22.2670 S   0  0  0  0  0
  -61.7500   40.8360  -24.2160 Br  0  0  0  0  0
  -59.9630   40.7450  -23.6310 C   0  0  0  0  0
  -55.6690   41.0840  -20.7950 N   0  0  0  0  0
  -54.8990   41.3180  -23.0830 O   0  0  0  0  0
  -59.2480   42.0050  -23.2920 C   0  0  0  0  0
  -57.8480   39.8750  -18.1490 N   0  0  0  0  0
  -55.3260   39.1220  -22.2990 O   0  0  0  0  0
  -57.8480   41.9170  -22.8570 C   0  0  0  0  0
  -57.2350   40.5820  -22.7680 C   0  0  0  0  0
  -57.9650   39.4440  -23.1160 C   0  0  0  0  0
  -59.2990   39.5220  -23.5410 C   0  0  0  0  0
  -57.1440   43.0570  -22.5270 C   0  0  0  0  0
  -57.7800   44.2900  -22.6210 C   0  0  0  0  0
  -59.1030   44.3860  -23.0380 C   0  0  0  0  0
  -59.8400   43.2530  -23.3710 C   0  0  0  0  0
  -55.9190   40.2280  -19.6570 C   0  0  0  0  0
  -57.2630   40.6230  -19.1020 C   0  0  0  0  0
  -59.0440   40.2090  -17.6570 C   0  0  0  0  0
  -59.7070   41.3400  -18.1050 C   0  0  0  0  0
  -59.1210   42.1300  -19.0700 C   0  0  0  0  0
  -57.8830   41.7680  -19.5740 C   0  0  0  0  0
  -55.4485   42.0695  -20.6519 H   0  0  0  0  0
  -57.4845   38.4675  -23.0556 H   0  0  0  0  0
  -59.8284   38.6070  -23.8067 H   0  0  0  0  0
  -56.1068   42.9921  -22.1982 H   0  0  0  0  0
  -57.2322   45.1965  -22.3635 H   0  0  0  0  0
  -59.5722   45.3676  -23.1055 H   0  0  0  0  0
  -60.8773   43.3485  -23.6921 H   0  0  0  0  0
  -55.1392   40.3460  -18.9046 H   0  0  0  0  0
  -55.9151   39.1789  -19.9529 H   0  0  0  0  0
  -59.5047   39.5832  -16.8926 H   0  0  0  0  0
  -60.6834   41.6025  -17.6978 H   0  0  0  0  0
  -59.6245   43.0267  -19.4313 H   0  0  0  0  0
  -57.4002   42.3795  -20.3363 H   0  0  0  0  0
  4  1  1  0  0  0
  1  5  2  0  0  0
  1  8  2  0  0  0
  1 10  1  0  0  0
  3  2  1  0  0  0
  6  3  4  0  0  0
 12  3  4  0  0  0
 17  4  1  0  0  0
  9  6  4  0  0  0
  6 16  4  0  0  0
 18  7  4  0  0  0
  7 19  4  0  0  0
 10  9  4  0  0  0
  9 13  4  0  0  0
 10 11  4  0  0  0
 11 12  4  0  0  0
 13 14  4  0  0  0
 14 15  4  0  0  0
 16 15  4  0  0  0
 17 18  1  0  0  0
 18 22  4  0  0  0
 19 20  4  0  0  0
 20 21  4  0  0  0
 21 22  4  0  0  0
  4 23  1  0  0  0
 11 24  1  0  0  0
 12 25  1  0  0  0
 13 26  1  0  0  0
 14 27  1  0  0  0
 15 28  1  0  0  0
 16 29  1  0  0  0
 17 30  1  0  0  0
 17 31  1  0  0  0
 19 32  1  0  0  0
 20 33  1  0  0  0
 21 34  1  0  0  0
 22 35  1  0  0  0
M  END
$$$$
