### 
### Created by X-TOOL on Mon Sep 10 21:13:31 2018
### 

@<TRIPOS>MOLECULE
5nhz_ligand
   36    36     1     0     0
SMALL
GAST_HUCK


@<TRIPOS>ATOM
      1 CAA        -8.3700    9.4870  -22.1380 C.3       1 8XZ         0.0201
      2 CAB        -8.6110   10.6270  -21.1560 C.2       1 8XZ         0.1611
      3 OAC        -7.7060   11.0090  -20.4480 O.2       1 8XZ        -0.3794
      4 SAD       -10.1970   11.4330  -21.1750 S.3       1 8XZ        -0.0488
      5 CAE       -10.9170   12.0760  -19.7240 C.3       1 8XZ         0.0312
      6 CAF       -12.0050   11.0630  -19.5100 C.3       1 8XZ         0.0424
      7 PAP       -13.3640   11.9000  -18.6410 P.3       1 8XZ         0.0618
      8 OAQ       -12.9910   13.0800  -17.8600 O.co2     1 8XZ        -0.5620
      9 OAR       -14.0360   11.0780  -17.6380 O.co2     1 8XZ        -0.5620
     10 OAS       -14.4550   12.3540  -19.5550 O.co2     1 8XZ        -0.5620
     11 CAG       -11.3880    9.8800  -18.7800 C.3       1 8XZ        -0.0325
     12 CAH       -11.0520    8.7170  -19.7050 C.3       1 8XZ        -0.0417
     13 CAI       -10.0730    7.8020  -19.0100 C.3       1 8XZ        -0.0191
     14 CAJ        -9.7250    6.6080  -19.8800 C.ar      1 8XZ        -0.0430
     15 CAK        -8.4130    6.1600  -19.9030 C.ar      1 8XZ        -0.0603
     16 CAL        -8.0530    5.0780  -20.6870 C.ar      1 8XZ        -0.0686
     17 CAM        -9.0080    4.4440  -21.4560 C.ar      1 8XZ        -0.0687
     18 CAN       -10.3160    4.8880  -21.4330 C.ar      1 8XZ        -0.0686
     19 CAO       -10.6800    5.9720  -20.6500 C.ar      1 8XZ        -0.0603
     20 H1         -7.3508    9.0960  -22.0029 H         1 8XZ         0.0467
     21 H2         -8.4868    9.8584  -23.1668 H         1 8XZ         0.0467
     22 H3         -9.0983    8.6837  -21.9532 H         1 8XZ         0.0467
     23 H4        -11.3233   13.0860  -19.8815 H         1 8XZ         0.0421
     24 H5        -10.2041   12.0940  -18.8865 H         1 8XZ         0.0421
     25 H6        -12.3832   10.7092  -20.4804 H         1 8XZ         0.0497
     26 H7        -12.1001    9.5278  -18.0192 H         1 8XZ         0.0283
     27 H8        -10.4627   10.2154  -18.2889 H         1 8XZ         0.0283
     28 H9        -10.6025    9.1016  -20.6324 H         1 8XZ         0.0288
     29 H10       -11.9697    8.1604  -19.9457 H         1 8XZ         0.0288
     30 H11       -10.5210    7.4436  -18.0715 H         1 8XZ         0.0426
     31 H12        -9.1537    8.3632  -18.7867 H         1 8XZ         0.0426
     32 H13        -7.6631    6.6615  -19.3019 H         1 8XZ         0.0557
     33 H14        -7.0264    4.7301  -20.6972 H         1 8XZ         0.0599
     34 H15        -8.7321    3.5993  -22.0768 H         1 8XZ         0.0559
     35 H16       -11.0647    4.3837  -22.0331 H         1 8XZ         0.0599
     36 H17       -11.7070    6.3186  -20.6417 H         1 8XZ         0.0557
@<TRIPOS>BOND
     1    1    2 1  
     2    2    3 2  
     3    2    4 1  
     4    4    5 1  
     5    5    6 1  
     6    6    7 1  
     7    6   11 1  
     8    7    8 ar 
     9    7    9 ar 
    10    7   10 ar 
    11   11   12 1  
    12   12   13 1  
    13   13   14 1  
    14   14   15 ar 
    15   14   19 ar 
    16   15   16 ar 
    17   16   17 ar 
    18   17   18 ar 
    19   18   19 ar 
    20    1   20 1  
    21    1   21 1  
    22    1   22 1  
    23    5   23 1  
    24    5   24 1  
    25    6   25 1  
    26   11   26 1  
    27   11   27 1  
    28   12   28 1  
    29   12   29 1  
    30   13   30 1  
    31   13   31 1  
    32   15   32 1  
    33   16   33 1  
    34   17   34 1  
    35   18   35 1  
    36   19   36 1  
@<TRIPOS>SUBSTRUCTURE
     1 8XZ         1

