5nhz_ligand
  -I-interpret- 

 38 38  0  0  0  0  0  0  0  0999 V2000
   -8.3700    9.4870  -22.1380 C   0  0  0  0  0
   -8.6110   10.6270  -21.1560 C   0  0  0  0  0
   -7.7060   11.0090  -20.4480 O   0  0  0  0  0
  -10.1970   11.4330  -21.1750 S   0  0  0  0  0
  -10.9170   12.0760  -19.7240 C   0  0  0  0  0
  -12.0050   11.0630  -19.5100 C   0  0  0  0  0
  -13.3640   11.9000  -18.6410 P   0  0  0  0  0
  -12.9910   13.0800  -17.8600 O   0  0  0  0  0
  -14.0360   11.0780  -17.6380 O   0  0  0  0  0
  -14.4550   12.3540  -19.5550 O   0  0  0  0  0
  -11.3880    9.8800  -18.7800 C   0  0  0  0  0
  -11.0520    8.7170  -19.7050 C   0  0  0  0  0
  -10.0730    7.8020  -19.0100 C   0  0  0  0  0
   -9.7250    6.6080  -19.8800 C   0  0  0  0  0
   -8.4130    6.1600  -19.9030 C   0  0  0  0  0
   -8.0530    5.0780  -20.6870 C   0  0  0  0  0
   -9.0080    4.4440  -21.4560 C   0  0  0  0  0
  -10.3160    4.8880  -21.4330 C   0  0  0  0  0
  -10.6800    5.9720  -20.6500 C   0  0  0  0  0
   -7.5846    9.7720  -22.8380 H   0  0  0  0  0
   -8.0643    8.5957  -21.5901 H   0  0  0  0  0
   -9.2894    9.2807  -22.6859 H   0  0  0  0  0
  -11.2666   13.1049  -19.8095 H   0  0  0  0  0
  -10.2281   12.1845  -18.8863 H   0  0  0  0  0
  -12.4350   10.6612  -20.4275 H   0  0  0  0  0
  -12.5323   13.7051  -18.4261 H   0  0  0  0  0
  -14.0825   12.9053  -20.2470 H   0  0  0  0  0
  -12.1160    9.5241  -18.0510 H   0  0  0  0  0
  -10.4582   10.2202  -18.3240 H   0  0  0  0  0
  -10.6097    9.0964  -20.6262 H   0  0  0  0  0
  -11.9608    8.1662  -19.9475 H   0  0  0  0  0
  -10.5291    7.4399  -18.0886 H   0  0  0  0  0
   -9.1599    8.3608  -18.8048 H   0  0  0  0  0
   -7.6590    6.6642  -19.2986 H   0  0  0  0  0
   -7.0207    4.7282  -20.6972 H   0  0  0  0  0
   -8.7306    3.5946  -22.0802 H   0  0  0  0  0
  -11.0689    4.3809  -22.0364 H   0  0  0  0  0
  -11.7127    6.3206  -20.6416 H   0  0  0  0  0
  1  2  1  0  0  0
  2  3  2  0  0  0
  2  4  1  0  0  0
  4  5  1  0  0  0
  5  6  1  0  0  0
  6  7  1  0  0  0
  6 11  1  0  0  0
  7  8  1  0  0  0
  7  9  2  0  0  0
  7 10  1  0  0  0
 11 12  1  0  0  0
 12 13  1  0  0  0
 13 14  1  0  0  0
 14 15  4  0  0  0
 14 19  4  0  0  0
 15 16  4  0  0  0
 16 17  4  0  0  0
 17 18  4  0  0  0
 18 19  4  0  0  0
  1 20  1  0  0  0
  1 21  1  0  0  0
  1 22  1  0  0  0
  5 23  1  0  0  0
  5 24  1  0  0  0
  6 25  1  0  0  0
  8 26  1  0  0  0
 10 27  1  0  0  0
 11 28  1  0  0  0
 11 29  1  0  0  0
 12 30  1  0  0  0
 12 31  1  0  0  0
 13 32  1  0  0  0
 13 33  1  0  0  0
 15 34  1  0  0  0
 16 35  1  0  0  0
 17 36  1  0  0  0
 18 37  1  0  0  0
 19 38  1  0  0  0
M  END
$$$$
