### 
### Created by X-TOOL on Mon Sep 10 21:12:52 2018
### 

@<TRIPOS>MOLECULE
1sz0_ligand
   27    27     1     0     0
SMALL
GAST_HUCK


@<TRIPOS>ATOM
      1 C1         31.7030  -14.0640   19.9670 C.3       1 M6P         0.1854
      2 C2         31.9870  -12.8300   19.0580 C.3       1 M6P         0.1339
      3 C3         31.7570  -11.4800   19.8390 C.3       1 M6P         0.1141
      4 C4         30.2920  -11.4500   20.3370 C.3       1 M6P         0.1122
      5 C5         30.0740  -12.6690   21.2810 C.3       1 M6P         0.1176
      6 C6         28.6550  -12.7760   21.8050 C.3       1 M6P         0.1071
      7 O1         32.6570  -14.1280   21.0660 O.3       1 M6P        -0.3649
      8 O2         31.0370  -12.8810   17.9900 O.3       1 M6P        -0.3841
      9 O3         32.0160  -10.3720   18.9780 O.3       1 M6P        -0.3864
     10 O4         30.0380  -10.2390   21.0600 O.3       1 M6P        -0.3865
     11 O5         30.3520  -13.9310   20.5510 O.3       1 M6P        -0.3404
     12 O6         28.5740  -13.9020   22.6660 O.3       1 M6P        -0.2734
     13 P          27.2110  -14.2900   23.3500 P.3       1 M6P         0.2008
     14 O1P        27.4150  -15.5850   24.2920 O.co2     1 M6P        -0.5537
     15 O2P        26.1980  -14.6920   22.1800 O.co2     1 M6P        -0.5537
     16 O3P        26.6090  -13.0570   24.1760 O.co2     1 M6P        -0.5537
     17 H1         31.7661  -14.9836   19.3668 H         1 M6P         0.0935
     18 H2         33.0160  -12.8710   18.6715 H         1 M6P         0.0671
     19 H3         32.4378  -11.4328   20.7017 H         1 M6P         0.0648
     20 H4         29.6074  -11.5147   19.4785 H         1 M6P         0.0647
     21 H5         30.7637  -12.5745   22.1327 H         1 M6P         0.0650
     22 H6         27.9577  -12.9020   20.9636 H         1 M6P         0.0639
     23 H7         28.3960  -11.8638   22.3625 H         1 M6P         0.0639
     24 H8         33.5360  -14.2139   20.7162 H         1 M6P         0.2126
     25 H9         31.1704  -12.1380   17.4133 H         1 M6P         0.2101
     26 H10        31.8676   -9.5624   19.4523 H         1 M6P         0.2100
     27 H11        30.1707   -9.4945   20.4851 H         1 M6P         0.2100
@<TRIPOS>BOND
     1    1    2 1  
     2    1    7 1  
     3    1   11 1  
     4    2    3 1  
     5    2    8 1  
     6    3    4 1  
     7    3    9 1  
     8    4    5 1  
     9    4   10 1  
    10    5    6 1  
    11    5   11 1  
    12    6   12 1  
    13   12   13 1  
    14   13   14 ar 
    15   13   15 ar 
    16   13   16 ar 
    17    1   17 1  
    18    2   18 1  
    19    3   19 1  
    20    4   20 1  
    21    5   21 1  
    22    6   22 1  
    23    6   23 1  
    24    7   24 1  
    25    8   25 1  
    26    9   26 1  
    27   10   27 1  
@<TRIPOS>SUBSTRUCTURE
     1 M6P         1

