1sz0_ligand
  -I-interpret- 

 29 29  0  0  0  0  0  0  0  0999 V2000
   31.7030  -14.0640   19.9670 C   0  0  0  0  0
   31.9870  -12.8300   19.0580 C   0  0  0  0  0
   31.7570  -11.4800   19.8390 C   0  0  0  0  0
   30.2920  -11.4500   20.3370 C   0  0  0  0  0
   30.0740  -12.6690   21.2810 C   0  0  0  0  0
   28.6550  -12.7760   21.8050 C   0  0  0  0  0
   32.6570  -14.1280   21.0660 O   0  0  0  0  0
   31.0370  -12.8810   17.9900 O   0  0  0  0  0
   32.0160  -10.3720   18.9780 O   0  0  0  0  0
   30.0380  -10.2390   21.0600 O   0  0  0  0  0
   30.3520  -13.9310   20.5510 O   0  0  0  0  0
   28.5740  -13.9020   22.6660 O   0  0  0  0  0
   27.2110  -14.2900   23.3500 P   0  0  0  0  0
   27.4150  -15.5850   24.2920 O   0  0  0  0  0
   26.1980  -14.6920   22.1800 O   0  0  0  0  0
   26.6090  -13.0570   24.1760 O   0  0  0  0  0
   31.7859  -14.9643   19.3582 H   0  0  0  0  0
   33.0203  -12.8602   18.7124 H   0  0  0  0  0
   32.4351  -11.4138   20.6899 H   0  0  0  0  0
   29.6129  -11.4962   19.4857 H   0  0  0  0  0
   30.7524  -12.5151   22.1201 H   0  0  0  0  0
   27.9601  -12.8938   20.9735 H   0  0  0  0  0
   28.3921  -11.8707   22.3521 H   0  0  0  0  0
   33.5453  -14.2148   20.7125 H   0  0  0  0  0
   31.1555  -13.6959   17.4965 H   0  0  0  0  0
   32.9277  -10.4066   18.6792 H   0  0  0  0  0
   30.1721   -9.4866   20.4790 H   0  0  0  0  0
   28.0210  -15.3688   25.0044 H   0  0  0  0  0
   27.2176  -12.8161   24.8783 H   0  0  0  0  0
  1  2  1  0  0  0
  1  7  1  0  0  0
  1 11  1  0  0  0
  2  3  1  0  0  0
  2  8  1  0  0  0
  3  4  1  0  0  0
  3  9  1  0  0  0
  4  5  1  0  0  0
  4 10  1  0  0  0
  5  6  1  0  0  0
  5 11  1  0  0  0
  6 12  1  0  0  0
 12 13  1  0  0  0
 13 14  1  0  0  0
 13 15  2  0  0  0
 13 16  1  0  0  0
  1 17  1  0  0  0
  2 18  1  0  0  0
  3 19  1  0  0  0
  4 20  1  0  0  0
  5 21  1  0  0  0
  6 22  1  0  0  0
  6 23  1  0  0  0
  7 24  1  0  0  0
  8 25  1  0  0  0
  9 26  1  0  0  0
 10 27  1  0  0  0
 14 28  1  0  0  0
 16 29  1  0  0  0
M  END
$$$$
