4e96_ligand
  -I-interpret- 

 41 43  0  0  0  0  0  0  0  0999 V2000
   27.3250   13.8220   -6.1070 C   0  0  0  0  0
   26.5780   14.0800   -4.8550 O   0  0  0  0  0
   26.2290   15.3730   -4.5680 C   0  0  0  0  0
   26.5080   16.3920   -5.4780 C   0  0  0  0  0
   26.1180   17.7040   -5.1820 C   0  0  0  0  0
   25.4880   18.0280   -4.0040 C   0  0  0  0  0
   25.2320   17.0330   -3.0790 C   0  0  0  0  0
   25.5520   15.7140   -3.3800 C   0  0  0  0  0
   25.2120   14.4980   -2.1690 S   0  0  0  0  0
   24.4250   13.3740   -2.7560 O   0  0  0  0  0
   24.5590   15.1630   -1.0130 O   0  0  0  0  0
   26.7170   13.9770   -1.7620 N   0  0  0  0  0
   27.7490   14.8060   -1.4870 C   0  0  0  0  0
   27.6820   15.7430   -0.4450 C   0  0  0  0  0
   28.7760   16.5630   -0.1280 C   0  0  0  0  0
   28.5820   17.5480    1.0110 C   0  0  0  0  0
   29.7430   18.4570    1.1770 N   0  0  0  0  0
   29.6700   19.5550    2.1940 C   0  0  0  0  0
   30.9100   18.3040    0.4400 C   0  0  0  0  0
   31.7930   19.1210    0.6420 O   0  0  0  0  0
   31.0500   17.2970   -0.5700 N   0  0  0  0  0
   29.9530   16.4520   -0.8690 C   0  0  0  0  0
   30.0230   15.5360   -1.9290 C   0  0  0  0  0
   28.9400   14.7020   -2.2170 C   0  0  0  0  0
   26.7289   14.1503   -6.9585 H   0  0  0  0  0
   28.2660   14.3718   -6.0870 H   0  0  0  0  0
   27.5281   12.7546   -6.1940 H   0  0  0  0  0
   27.0250   16.1693   -6.4114 H   0  0  0  0  0
   26.3201   18.4920   -5.9075 H   0  0  0  0  0
   25.1936   19.0578   -3.8015 H   0  0  0  0  0
   24.7813   17.2815   -2.1181 H   0  0  0  0  0
   26.8816   12.9715   -1.7142 H   0  0  0  0  0
   26.7610   15.8361    0.1304 H   0  0  0  0  0
   28.4652   16.9785    1.9330 H   0  0  0  0  0
   27.7067   18.1569    0.7847 H   0  0  0  0  0
   28.8377   20.2165    1.9535 H   0  0  0  0  0
   29.5182   19.1229    3.1831 H   0  0  0  0  0
   30.6011   20.1215    2.1826 H   0  0  0  0  0
   31.9327   17.1895   -1.0697 H   0  0  0  0  0
   30.9288   15.4745   -2.5322 H   0  0  0  0  0
   29.0223   13.9648   -3.0157 H   0  0  0  0  0
  1  2  1  0  0  0
  2  3  1  0  0  0
  3  4  4  0  0  0
  3  8  4  0  0  0
  4  5  4  0  0  0
  5  6  4  0  0  0
  6  7  4  0  0  0
  7  8  4  0  0  0
  8  9  1  0  0  0
  9 10  2  0  0  0
  9 11  2  0  0  0
  9 12  1  0  0  0
 12 13  1  0  0  0
 13 14  4  0  0  0
 13 24  4  0  0  0
 14 15  4  0  0  0
 15 16  1  0  0  0
 15 22  4  0  0  0
 16 17  1  0  0  0
 17 18  1  0  0  0
 17 19  1  0  0  0
 19 20  2  0  0  0
 19 21  1  0  0  0
 21 22  1  0  0  0
 22 23  4  0  0  0
 23 24  4  0  0  0
  1 25  1  0  0  0
  1 26  1  0  0  0
  1 27  1  0  0  0
  4 28  1  0  0  0
  5 29  1  0  0  0
  6 30  1  0  0  0
  7 31  1  0  0  0
 12 32  1  0  0  0
 14 33  1  0  0  0
 16 34  1  0  0  0
 16 35  1  0  0  0
 18 36  1  0  0  0
 18 37  1  0  0  0
 18 38  1  0  0  0
 21 39  1  0  0  0
 23 40  1  0  0  0
 24 41  1  0  0  0
M  END
$$$$
