### 
### Created by X-TOOL on Mon Sep 10 21:12:47 2018
### 

@<TRIPOS>MOLECULE
1dkd_ligand
  187   194     1     0     0
SMALL
GAST_HUCK


@<TRIPOS>ATOM
      1 N          28.7250   56.6320   27.7230 N.4       1 TRP         0.2388
      2 CA         29.8600   57.3380   27.0590 C.3       1 TRP         0.0691
      3 C          29.5060   57.7810   25.6460 C.2       1 TRP         0.2280
      4 O          28.9340   57.0170   24.8700 O.2       1 TRP        -0.3906
      5 CB         31.0940   56.4290   27.0120 C.3       1 TRP         0.0245
      6 CG         31.6700   56.1320   28.3620 C.2       1 TRP        -0.0386
      7 CD1        30.9940   55.6780   29.4590 C.2       1 TRP         0.0168
      8 CD2        33.0390   56.2670   28.7610 C.ar      1 TRP        -0.0213
      9 NE1        31.8590   55.5250   30.5180 N.pl3     1 TRP        -0.2890
     10 CE2        33.1200   55.8800   30.1170 C.ar      1 TRP         0.0603
     11 CE3        34.2070   56.6780   28.1050 C.ar      1 TRP        -0.0747
     12 CZ2        34.3220   55.8910   30.8310 C.ar      1 TRP        -0.0443
     13 CZ3        35.4060   56.6880   28.8160 C.ar      1 TRP        -0.0792
     14 CH2        35.4510   56.2960   30.1670 C.ar      1 TRP        -0.0768
     15 N          29.8570   59.0230   25.3230 N.am      1 MET        -0.2609
     16 CA         29.5960   59.5990   24.0060 C.3       1 MET         0.1318
     17 C          30.8850   59.6140   23.1970 C.2       1 MET         0.2040
     18 O          31.9570   59.3250   23.7230 O.2       1 MET        -0.3944
     19 CB         29.0980   61.0360   24.1450 C.3       1 MET        -0.0034
     20 CG         27.9020   61.2090   25.0490 C.3       1 MET        -0.0024
     21 SD         27.5440   62.9560   25.3030 S.3       1 MET        -0.1639
     22 CE         28.4710   63.2640   26.7930 C.3       1 MET        -0.0181
     23 N          30.7720   59.9730   21.9240 N.am      1 THR        -0.2613
     24 CA         31.9230   60.0390   21.0360 C.3       1 THR         0.1565
     25 C          31.9050   61.3330   20.2300 C.2       1 THR         0.2065
     26 O          31.0760   61.4990   19.3410 O.2       1 THR        -0.3943
     27 CB         31.9260   58.8660   20.0450 C.3       1 THR         0.0924
     28 OG1        31.9170   57.6290   20.7670 O.3       1 THR        -0.3874
     29 CG2        33.1670   58.9220   19.1620 C.3       1 THR        -0.0346
     30 N          32.8190   62.2480   20.5330 N.am      1 THR        -0.2613
     31 CA         32.8840   63.5100   19.8070 C.3       1 THR         0.1567
     32 C          32.9310   63.2180   18.3060 C.2       1 THR         0.2090
     33 O          33.2450   62.1010   17.8940 O.2       1 THR        -0.3941
     34 CB         34.1490   64.3080   20.1710 C.3       1 THR         0.0924
     35 OG1        35.3110   63.5810   19.7440 O.3       1 THR        -0.3874
     36 CG2        34.2200   64.5530   21.6720 C.3       1 THR        -0.0346
     37 N          32.6110   64.2180   17.4670 N.am      1 PRO        -0.2498
     38 CA         32.6450   63.9980   16.0190 C.3       1 PRO         0.1338
     39 C          34.0300   63.5240   15.5840 C.2       1 PRO         0.2042
     40 O          34.1700   62.8630   14.5560 O.2       1 PRO        -0.3944
     41 CB         32.3060   65.3730   15.4530 C.3       1 PRO        -0.0104
     42 CG         31.3800   65.9240   16.4790 C.3       1 PRO        -0.0281
     43 CD         32.0690   65.5520   17.7770 C.3       1 PRO         0.0369
     44 N          35.0540   63.8620   16.3640 N.am      1 TRP        -0.2627
     45 CA         36.3990   63.4340   16.0140 C.3       1 TRP         0.1352
     46 C          36.7960   62.1140   16.6720 C.2       1 TRP         0.2050
     47 O          37.9670   61.7380   16.6620 O.2       1 TRP        -0.3943
     48 CB         37.4300   64.5290   16.3140 C.3       1 TRP         0.0042
     49 CG         37.3820   65.1090   17.6920 C.2       1 TRP        -0.0418
     50 CD1        36.4480   65.9740   18.1880 C.2       1 TRP         0.0167
     51 CD2        38.3310   64.8980   18.7440 C.ar      1 TRP        -0.0214
     52 NE1        36.7580   66.3190   19.4840 N.pl3     1 TRP        -0.2890
     53 CE2        37.9090   65.6720   19.8500 C.ar      1 TRP         0.0603
     54 CE3        39.4990   64.1300   18.8610 C.ar      1 TRP        -0.0747
     55 CZ2        38.6130   65.7020   21.0540 C.ar      1 TRP        -0.0443
     56 CZ3        40.1970   64.1600   20.0560 C.ar      1 TRP        -0.0792
     57 CH2        39.7530   64.9410   21.1380 C.ar      1 TRP        -0.0768
     58 N          35.8120   61.4150   17.2400 N.am      1 GLY        -0.2663
     59 CA         36.0640   60.1080   17.8300 C.3       1 GLY         0.1201
     60 C          36.5290   59.9410   19.2640 C.2       1 GLY         0.2009
     61 O          36.9240   58.8370   19.6490 O.2       1 GLY        -0.3947
     62 N          36.4800   61.0000   20.0640 N.am      1 PHE        -0.2622
     63 CA         36.9150   60.9050   21.4520 C.3       1 PHE         0.1404
     64 C          35.7530   60.3610   22.2850 C.2       1 PHE         0.2060
     65 O          34.6840   60.9670   22.3510 O.2       1 PHE        -0.3942
     66 CB         37.3490   62.2870   21.9630 C.3       1 PHE         0.0214
     67 CG         38.1380   62.2490   23.2500 C.ar      1 PHE        -0.0386
     68 CD1        39.5310   62.2520   23.2300 C.ar      1 PHE        -0.0601
     69 CD2        37.4900   62.2160   24.4760 C.ar      1 PHE        -0.0601
     70 CE1        40.2700   62.2250   24.4130 C.ar      1 PHE        -0.0686
     71 CE2        38.2080   62.1860   25.6670 C.ar      1 PHE        -0.0686
     72 CZ         39.6090   62.1900   25.6380 C.ar      1 PHE        -0.0687
     73 N          35.9770   59.2110   22.9120 N.am      1 LEU        -0.2636
     74 CA         34.9720   58.5440   23.7360 C.3       1 LEU         0.1312
     75 C          35.0430   59.0430   25.1760 C.2       1 LEU         0.2040
     76 O          36.0790   58.9210   25.8190 O.2       1 LEU        -0.3944
     77 CB         35.2190   57.0350   23.6910 C.3       1 LEU        -0.0101
     78 CG         34.2480   56.0620   24.3570 C.3       1 LEU        -0.0425
     79 CD1        32.8730   56.1600   23.7050 C.3       1 LEU        -0.0625
     80 CD2        34.7990   54.6450   24.2150 C.3       1 LEU        -0.0625
     81 N          33.9440   59.5900   25.6900 N.am      1 HIS        -0.2619
     82 CA         33.9360   60.1140   27.0550 C.3       1 HIS         0.1423
     83 C          32.5560   60.0720   27.7130 C.2       1 HIS         0.2079
     84 O          31.5350   59.9740   27.0360 O.2       1 HIS        -0.3940
     85 CB         34.4360   61.5530   27.0460 C.3       1 HIS         0.0427
     86 CG         33.5020   62.5050   26.3690 C.2       1 HIS         0.0561
     87 ND1        32.4510   63.1090   27.0250 N.pl3     1 HIS        -0.2623
     88 CD2        33.4420   62.9360   25.0870 C.2       1 HIS        -0.0276
     89 CE1        31.7860   63.8740   26.1780 C.2       1 HIS         0.0875
     90 NE2        32.3670   63.7850   24.9950 N.2       1 HIS        -0.3437
     91 N          32.5160   60.1610   29.0510 N.am      1 PRO        -0.2554
     92 CA         31.2660   60.1340   29.8200 C.3       1 PRO         0.0972
     93 C          30.4320   61.4010   29.6130 C.2       1 PRO         0.0603
     94 O          30.9720   62.3870   29.0670 O.co2     1 PRO        -0.5666
     95 CB         31.7480   60.0110   31.2690 C.3       1 PRO        -0.0159
     96 CG         33.1300   59.4290   31.1480 C.3       1 PRO        -0.0288
     97 CD         33.6770   60.1620   29.9570 C.3       1 PRO         0.0362
     98 OXT        29.2500   61.3970   30.0190 O.co2     1 PRO        -0.5666
     99 H1         28.9989   56.3561   28.6530 H         1 TRP         0.2016
    100 H2         28.4795   55.8135   27.1883 H         1 TRP         0.2016
    101 H3         27.9301   57.2496   27.7762 H         1 TRP         0.2016
    102 H4         30.1026   58.2321   27.6521 H         1 TRP         0.1114
    103 H5         31.8670   56.9227   26.4048 H         1 TRP         0.0430
    104 H6         30.8079   55.4781   26.5389 H         1 TRP         0.0430
    105 H7         29.9259   55.4678   29.4906 H         1 TRP         0.0795
    106 H8         31.6005   55.1968   31.4595 H         1 TRP         0.2216
    107 H9         34.1787   56.9822   27.0649 H         1 TRP         0.0540
    108 H10        34.3599   55.5902   31.8718 H         1 TRP         0.0541
    109 H11        36.3176   57.0025   28.3208 H         1 TRP         0.0510
    110 H12        36.3983   56.3147   30.6936 H         1 TRP         0.0530
    111 H13        30.3182   59.5851   26.0096 H         1 MET         0.1885
    112 H14        28.8377   58.9946   23.4868 H         1 MET         0.0800
    113 H15        28.8255   61.4016   23.1440 H         1 MET         0.0320
    114 H16        29.9209   61.6456   24.5466 H         1 MET         0.0320
    115 H17        28.1127   60.7385   26.0207 H         1 MET         0.0378
    116 H18        27.0283   60.7245   24.5887 H         1 MET         0.0378
    117 H19        28.3522   64.3171   27.0876 H         1 MET         0.0340
    118 H20        29.5352   63.0514   26.6133 H         1 MET         0.0340
    119 H21        28.0980   62.6137   27.5980 H         1 MET         0.0340
    120 H22        29.8683   60.2052   21.5642 H         1 THR         0.1884
    121 H23        32.8392   60.0016   21.6436 H         1 THR         0.0826
    122 H24        31.0283   58.9258   19.4121 H         1 THR         0.0639
    123 H25        31.9189   56.9048   20.1522 H         1 THR         0.2101
    124 H26        33.1548   58.0765   18.4584 H         1 THR         0.0257
    125 H27        34.0675   58.8627   19.7909 H         1 THR         0.0257
    126 H28        33.1743   59.8671   18.5993 H         1 THR         0.0257
    127 H29        33.4714   62.0685   21.2693 H         1 THR         0.1884
    128 H30        31.9930   64.1096   20.0445 H         1 THR         0.0826
    129 H31        34.1201   65.2781   19.6533 H         1 THR         0.0639
    130 H32        36.0916   64.0736   19.9687 H         1 THR         0.2101
    131 H33        35.1303   65.1237   21.9077 H         1 THR         0.0257
    132 H34        34.2450   63.5885   22.2002 H         1 THR         0.0257
    133 H35        33.3361   65.1239   21.9926 H         1 THR         0.0257
    134 H36        31.8937   63.2548   15.7137 H         1 PRO         0.0802
    135 H37        31.8106   65.2890   14.4745 H         1 PRO         0.0313
    136 H38        33.2073   65.9960   15.3554 H         1 PRO         0.0313
    137 H39        30.3862   65.4578   16.4088 H         1 PRO         0.0287
    138 H40        31.2810   67.0151   16.3801 H         1 PRO         0.0287
    139 H41        32.8724   66.2628   18.0205 H         1 PRO         0.0524
    140 H42        31.3529   65.5082   18.6108 H         1 PRO         0.0524
    141 H43        34.8992   64.4080   17.1873 H         1 TRP         0.1884
    142 H44        36.4079   63.2660   14.9270 H         1 TRP         0.0815
    143 H45        37.2704   65.3482   15.5974 H         1 TRP         0.0397
    144 H46        38.4316   64.0999   16.1633 H         1 TRP         0.0397
    145 H47        35.5823   66.3384   17.6369 H         1 TRP         0.0795
    146 H48        36.2140   66.9585   20.0807 H         1 TRP         0.2216
    147 H49        39.8481   63.5250   18.0320 H         1 TRP         0.0540
    148 H50        38.2735   66.3024   21.8903 H         1 TRP         0.0541
    149 H51        41.1014   63.5714   20.1596 H         1 TRP         0.0510
    150 H52        40.3238   64.9423   22.0595 H         1 TRP         0.0530
    151 H53        34.8870   61.7945   17.2609 H         1 GLY         0.1881
    152 H54        36.8309   59.6312   17.2020 H         1 GLY         0.0763
    153 H55        35.1213   59.5474   17.7466 H         1 GLY         0.0763
    154 H56        36.1411   61.8718   19.7104 H         1 PHE         0.1885
    155 H57        37.7678   60.2137   21.5221 H         1 PHE         0.0823
    156 H58        36.4461   62.8930   22.1292 H         1 PHE         0.0474
    157 H59        37.9717   62.7611   21.1901 H         1 PHE         0.0474
    158 H60        40.0498   62.2757   22.2785 H         1 PHE         0.0557
    159 H61        36.4064   62.2136   24.5065 H         1 PHE         0.0557
    160 H62        41.3534   62.2312   24.3787 H         1 PHE         0.0599
    161 H63        37.6847   62.1596   26.6159 H         1 PHE         0.0599
    162 H64        40.1742   62.1660   26.5627 H         1 PHE         0.0559
    163 H65        36.8753   58.7823   22.8153 H         1 LEU         0.1883
    164 H66        33.9720   58.7604   23.3321 H         1 LEU         0.0800
    165 H67        36.2015   56.8642   24.1552 H         1 LEU         0.0315
    166 H68        35.2623   56.7560   22.6279 H         1 LEU         0.0315
    167 H69        34.1573   56.3119   25.4244 H         1 LEU         0.0298
    168 H70        32.1844   55.4549   24.1936 H         1 LEU         0.0232
    169 H71        32.9552   55.9113   22.6366 H         1 LEU         0.0232
    170 H72        32.4874   57.1844   23.8145 H         1 LEU         0.0232
    171 H73        35.7900   54.5878   24.6889 H         1 LEU         0.0232
    172 H74        34.8874   54.3911   23.1484 H         1 LEU         0.0232
    173 H75        34.1166   53.9353   24.7055 H         1 LEU         0.0232
    174 H76        33.1133   59.6433   25.1358 H         1 HIS         0.1885
    175 H77        34.6218   59.5018   27.6590 H         1 HIS         0.0824
    176 H78        35.4029   61.5824   26.5224 H         1 HIS         0.0491
    177 H79        34.5727   61.8806   28.0871 H         1 HIS         0.0491
    178 H80        32.2200   62.9834   28.0209 H         1 HIS         0.2386
    179 H81        34.1195   62.6608   24.2800 H         1 HIS         0.0324
    180 H82        30.9092   64.4750   26.4144 H         1 HIS         0.1149
    181 H83        30.6603   59.2601   29.5382 H         1 PRO         0.0728
    182 H84        31.0912   59.3412   31.8435 H         1 PRO         0.0306
    183 H85        31.7809   60.9974   31.7546 H         1 PRO         0.0306
    184 H86        33.0921   58.3447   30.9666 H         1 PRO         0.0286
    185 H87        33.7279   59.6294   32.0493 H         1 PRO         0.0286
    186 H88        33.9801   61.1861   30.2203 H         1 PRO         0.0524
    187 H89        34.5317   59.6288   29.5151 H         1 PRO         0.0524
@<TRIPOS>BOND
     1    1    2 1  
     2    2    3 1  
     3    2    5 1  
     4    3    4 2  
     5    3   15 am 
     6    5    6 1  
     7    6    7 2  
     8    6    8 1  
     9    7    9 1  
    10    8   10 ar 
    11    8   11 ar 
    12    9   10 1  
    13   10   12 ar 
    14   11   13 ar 
    15   12   14 ar 
    16   13   14 ar 
    17   15   16 1  
    18   16   17 1  
    19   16   19 1  
    20   17   18 2  
    21   17   23 am 
    22   19   20 1  
    23   20   21 1  
    24   21   22 1  
    25   23   24 1  
    26   24   25 1  
    27   24   27 1  
    28   25   26 2  
    29   25   30 am 
    30   27   28 1  
    31   27   29 1  
    32   30   31 1  
    33   31   32 1  
    34   31   34 1  
    35   32   33 2  
    36   32   37 am 
    37   34   35 1  
    38   34   36 1  
    39   37   38 1  
    40   37   43 1  
    41   38   39 1  
    42   38   41 1  
    43   39   40 2  
    44   39   44 am 
    45   41   42 1  
    46   42   43 1  
    47   44   45 1  
    48   45   46 1  
    49   45   48 1  
    50   46   47 2  
    51   46   58 am 
    52   48   49 1  
    53   49   50 2  
    54   49   51 1  
    55   50   52 1  
    56   51   53 ar 
    57   51   54 ar 
    58   52   53 1  
    59   53   55 ar 
    60   54   56 ar 
    61   55   57 ar 
    62   56   57 ar 
    63   58   59 1  
    64   59   60 1  
    65   60   61 2  
    66   60   62 am 
    67   62   63 1  
    68   63   64 1  
    69   63   66 1  
    70   64   65 2  
    71   64   73 am 
    72   66   67 1  
    73   67   68 ar 
    74   67   69 ar 
    75   68   70 ar 
    76   69   71 ar 
    77   70   72 ar 
    78   71   72 ar 
    79   73   74 1  
    80   74   75 1  
    81   74   77 1  
    82   75   76 2  
    83   75   81 am 
    84   77   78 1  
    85   78   79 1  
    86   78   80 1  
    87   81   82 1  
    88   82   83 1  
    89   82   85 1  
    90   83   84 2  
    91   83   91 am 
    92   85   86 1  
    93   86   87 1  
    94   86   88 2  
    95   87   89 1  
    96   88   90 1  
    97   89   90 2  
    98   91   92 1  
    99   91   97 1  
   100   92   93 1  
   101   92   95 1  
   102   93   94 ar 
   103   93   98 ar 
   104   95   96 1  
   105   96   97 1  
   106    1   99 1  
   107    1  100 1  
   108    1  101 1  
   109    2  102 1  
   110    5  103 1  
   111    5  104 1  
   112    7  105 1  
   113    9  106 1  
   114   11  107 1  
   115   12  108 1  
   116   13  109 1  
   117   14  110 1  
   118   15  111 1  
   119   16  112 1  
   120   19  113 1  
   121   19  114 1  
   122   20  115 1  
   123   20  116 1  
   124   22  117 1  
   125   22  118 1  
   126   22  119 1  
   127   23  120 1  
   128   24  121 1  
   129   27  122 1  
   130   28  123 1  
   131   29  124 1  
   132   29  125 1  
   133   29  126 1  
   134   30  127 1  
   135   31  128 1  
   136   34  129 1  
   137   35  130 1  
   138   36  131 1  
   139   36  132 1  
   140   36  133 1  
   141   38  134 1  
   142   41  135 1  
   143   41  136 1  
   144   42  137 1  
   145   42  138 1  
   146   43  139 1  
   147   43  140 1  
   148   44  141 1  
   149   45  142 1  
   150   48  143 1  
   151   48  144 1  
   152   50  145 1  
   153   52  146 1  
   154   54  147 1  
   155   55  148 1  
   156   56  149 1  
   157   57  150 1  
   158   58  151 1  
   159   59  152 1  
   160   59  153 1  
   161   62  154 1  
   162   63  155 1  
   163   66  156 1  
   164   66  157 1  
   165   68  158 1  
   166   69  159 1  
   167   70  160 1  
   168   71  161 1  
   169   72  162 1  
   170   73  163 1  
   171   74  164 1  
   172   77  165 1  
   173   77  166 1  
   174   78  167 1  
   175   79  168 1  
   176   79  169 1  
   177   79  170 1  
   178   80  171 1  
   179   80  172 1  
   180   80  173 1  
   181   81  174 1  
   182   82  175 1  
   183   85  176 1  
   184   85  177 1  
   185   87  178 1  
   186   88  179 1  
   187   89  180 1  
   188   92  181 1  
   189   95  182 1  
   190   95  183 1  
   191   96  184 1  
   192   96  185 1  
   193   97  186 1  
   194   97  187 1  
@<TRIPOS>SUBSTRUCTURE
     1 TRP         1

