5mqx_ligand
  -I-interpret- 

 59 62  0  0  0  0  0  0  0  0999 V2000
   18.4210   28.3930   16.9890 N   0  0  0  0  0
   19.4620   27.5560   16.8080 C   0  0  0  0  0
   20.7610   27.9060   16.7350 N   0  0  0  0  0
   21.0190   29.2180   16.8930 C   0  0  0  0  0
   20.0420   30.1540   17.0560 C   0  0  0  0  0
   18.7340   29.6800   17.1330 C   0  0  0  0  0
   17.6920   30.4670   17.4500 N   0  0  0  0  0
   20.5000   31.4200   17.1450 N   0  0  0  0  0
   21.8450   31.2160   17.1220 C   0  0  0  0  0
   22.1710   29.8830   16.9270 N   0  0  0  0  0
   23.4660   29.2590   16.7300 C   0  0  0  0  0
   24.3510   29.9290   15.6500 C   0  0  0  0  0
   24.5680   29.0690   14.5140 O   0  0  0  0  0
   25.7040   30.2050   16.3450 C   0  0  0  0  0
   26.6930   29.2630   15.8730 O   0  0  0  0  0
   24.2350   29.2220   17.9430 O   0  0  0  0  0
   25.4350   30.0250   17.8580 C   0  0  0  0  0
   25.1800   31.3720   18.5680 C   0  0  0  0  0
   24.7540   31.1060   19.9210 O   0  0  0  0  0
   23.8120   32.1390   20.7030 P   0  0  0  0  0
   22.5740   32.4240   19.9420 O   0  0  0  0  0
   24.5070   33.4130   20.9610 O   0  0  0  0  0
   23.5610   31.2240   21.9650 O   0  0  0  0  0
   23.1030   31.7070   23.3950 P   0  0  0  0  0
   21.9180   32.6010   23.3670 O   0  0  0  0  0
   22.6770   30.5750   24.2380 O   0  0  0  0  0
   24.4700   32.3880   23.9000 O   0  0  0  0  0
   24.3840   33.6640   24.5680 C   0  0  0  0  0
   25.9340   34.7930   23.0950 O   0  0  0  0  0
   24.1450   35.7640   22.0640 O   0  0  0  0  0
   25.3670   36.0550   22.7140 C   0  0  0  0  0
   26.0520   37.9890   24.1320 O   0  0  0  0  0
   25.1800   36.8620   24.0240 C   0  0  0  0  0
   26.7810   36.2600   25.8280 O   0  0  0  0  0
   25.5440   35.8770   25.1640 C   0  0  0  0  0
   25.6830   34.4880   24.4820 C   0  0  0  0  0
   19.2309   26.4952   16.7115 H   0  0  0  0  0
   16.7620   30.0625   17.5591 H   0  0  0  0  0
   17.8310   31.4689   17.5815 H   0  0  0  0  0
   22.5819   32.0100   17.2431 H   0  0  0  0  0
   23.2092   28.2554   16.3910 H   0  0  0  0  0
   23.8697   30.8302   15.2700 H   0  0  0  0  0
   25.1192   29.5221   13.8717 H   0  0  0  0  0
   26.0883   31.2026   16.1325 H   0  0  0  0  0
   27.5317   29.4372   16.3065 H   0  0  0  0  0
   26.2989   29.5687   18.3412 H   0  0  0  0  0
   24.4077   31.9301   18.0387 H   0  0  0  0  0
   26.0940   31.9658   18.5767 H   0  0  0  0  0
   22.1108   31.6015   19.7669 H   0  0  0  0  0
   22.1138   33.3734   22.8316 H   0  0  0  0  0
   24.1867   33.4704   25.6224 H   0  0  0  0  0
   23.5973   34.2386   24.0791 H   0  0  0  0  0
   23.7269   36.5834   21.7894 H   0  0  0  0  0
   25.9824   36.6443   22.0343 H   0  0  0  0  0
   25.8856   38.4426   24.9615 H   0  0  0  0  0
   24.1618   37.2495   24.0600 H   0  0  0  0  0
   26.9762   35.6307   26.5262 H   0  0  0  0  0
   24.7806   35.8720   25.9420 H   0  0  0  0  0
   26.4646   33.9000   24.9631 H   0  0  0  0  0
  2  1  4  0  0  0
  6  1  4  0  0  0
  3  2  4  0  0  0
  4  3  4  0  0  0
  4  5  4  0  0  0
 10  4  4  0  0  0
  5  6  4  0  0  0
  8  5  4  0  0  0
  6  7  1  0  0  0
  9  8  4  0  0  0
 10  9  4  0  0  0
 11 10  1  0  0  0
 11 12  1  0  0  0
 16 11  1  0  0  0
 12 13  1  0  0  0
 14 12  1  0  0  0
 14 15  1  0  0  0
 17 14  1  0  0  0
 17 16  1  0  0  0
 18 17  1  0  0  0
 19 18  1  0  0  0
 20 19  1  0  0  0
 20 21  1  0  0  0
 20 22  2  0  0  0
 23 20  1  0  0  0
 24 23  1  0  0  0
 24 25  1  0  0  0
 24 26  2  0  0  0
 27 24  1  0  0  0
 28 27  1  0  0  0
 36 28  1  0  0  0
 29 31  1  0  0  0
 29 36  1  0  0  0
 31 30  1  0  0  0
 31 33  1  0  0  0
 33 32  1  0  0  0
 33 35  1  0  0  0
 35 34  1  0  0  0
 35 36  1  0  0  0
  2 37  1  0  0  0
  7 38  1  0  0  0
  7 39  1  0  0  0
  9 40  1  0  0  0
 11 41  1  0  0  0
 12 42  1  0  0  0
 13 43  1  0  0  0
 14 44  1  0  0  0
 15 45  1  0  0  0
 17 46  1  0  0  0
 18 47  1  0  0  0
 18 48  1  0  0  0
 21 49  1  0  0  0
 25 50  1  0  0  0
 28 51  1  0  0  0
 28 52  1  0  0  0
 30 53  1  0  0  0
 31 54  1  0  0  0
 32 55  1  0  0  0
 33 56  1  0  0  0
 34 57  1  0  0  0
 35 58  1  0  0  0
 36 59  1  0  0  0
M  END
$$$$
