### 
### Created by X-TOOL on Mon Aug  2 16:12:09 2021
### 

@<TRIPOS>MOLECULE
5mqx_ligand
   57    60     1     0     0
SMALL
GAST_HUCK


@<TRIPOS>ATOM
      1 N1         18.4210   28.3930   16.9890 N.ar      1 APR        -0.2698
      2 C2         19.4620   27.5560   16.8080 C.ar      1 APR         0.0533
      3 N3         20.7610   27.9060   16.7350 N.ar      1 APR        -0.2714
      4 C4         21.0190   29.2180   16.8930 C.ar      1 APR         0.1613
      5 C5         20.0420   30.1540   17.0560 C.ar      1 APR         0.1045
      6 C6         18.7340   29.6800   17.1330 C.ar      1 APR         0.1298
      7 N6         17.6920   30.4670   17.4500 N.pl3     1 APR        -0.3152
      8 N7         20.5000   31.4200   17.1450 N.2       1 APR        -0.2958
      9 C8         21.8450   31.2160   17.1220 C.2       1 APR         0.1123
     10 N9         22.1710   29.8830   16.9270 N.pl3     1 APR        -0.1919
     11 C1'        23.4660   29.2590   16.7300 C.3       1 APR         0.2010
     12 C2'        24.3510   29.9290   15.6500 C.3       1 APR         0.1385
     13 O2'        24.5680   29.0690   14.5140 O.3       1 APR        -0.3836
     14 C3'        25.7040   30.2050   16.3450 C.3       1 APR         0.1149
     15 O3'        26.6930   29.2630   15.8730 O.3       1 APR        -0.3864
     16 O4'        24.2350   29.2220   17.9430 O.3       1 APR        -0.3364
     17 C4'        25.4350   30.0250   17.8580 C.3       1 APR         0.1189
     18 C5'        25.1800   31.3720   18.5680 C.3       1 APR         0.1128
     19 O5'        24.7540   31.1060   19.9210 O.3       1 APR        -0.2476
     20 PA         23.8120   32.1390   20.7030 P.3       1 APR         0.2972
     21 O1A        22.5740   32.4240   19.9420 O.co2     1 APR        -0.6127
     22 O2A        24.5070   33.4130   20.9610 O.co2     1 APR        -0.6127
     23 O3A        23.5610   31.2240   21.9650 O.3       1 APR        -0.1319
     24 PB         23.1030   31.7070   23.3950 P.3       1 APR         0.2972
     25 O1B        21.9180   32.6010   23.3670 O.co2     1 APR        -0.6127
     26 O2B        22.6770   30.5750   24.2380 O.co2     1 APR        -0.6127
     27 O5D        24.4700   32.3880   23.9000 O.3       1 APR        -0.2476
     28 C5D        24.3840   33.6640   24.5680 C.3       1 APR         0.1128
     29 O4D        25.9340   34.7930   23.0950 O.3       1 APR        -0.3403
     30 O1D        24.1450   35.7640   22.0640 O.3       1 APR        -0.3649
     31 C1D        25.3670   36.0550   22.7140 C.3       1 APR         0.1854
     32 O2D        26.0520   37.9890   24.1320 O.3       1 APR        -0.3841
     33 C2D        25.1800   36.8620   24.0240 C.3       1 APR         0.1339
     34 O3D        26.7810   36.2600   25.8280 O.3       1 APR        -0.3864
     35 C3D        25.5440   35.8770   25.1640 C.3       1 APR         0.1144
     36 C4D        25.6830   34.4880   24.4820 C.3       1 APR         0.1184
     37 H1         19.2322   26.5010   16.7121 H         1 APR         0.0996
     38 H2         17.8324   31.4787   17.5828 H         1 APR         0.1820
     39 H3         16.7529   30.0585   17.5602 H         1 APR         0.1820
     40 H4         22.5812   32.0093   17.2430 H         1 APR         0.1349
     41 H5         23.2746   28.2238   16.4111 H         1 APR         0.0996
     42 H6         23.8888   30.8683   15.3123 H         1 APR         0.0676
     43 H7         25.0010   28.2729   14.7990 H         1 APR         0.2101
     44 H8         26.0448   31.2300   16.1372 H         1 APR         0.0648
     45 H9         26.7954   29.3573   14.9332 H         1 APR         0.2100
     46 H10        26.2835   29.5130   18.3354 H         1 APR         0.0651
     47 H11        24.3952   31.9290   18.0352 H         1 APR         0.0648
     48 H12        26.1062   31.9652   18.5810 H         1 APR         0.0648
     49 H13        24.1526   33.4875   25.6288 H         1 APR         0.0648
     50 H14        23.5715   34.2449   24.1072 H         1 APR         0.0648
     51 H15        24.3140   35.2225   21.3020 H         1 APR         0.2126
     52 H16        26.0334   36.6011   22.0302 H         1 APR         0.0935
     53 H17        26.9544   37.6933   24.1070 H         1 APR         0.2101
     54 H18        24.1362   37.1984   24.1097 H         1 APR         0.0671
     55 H19        26.6832   37.1282   26.2009 H         1 APR         0.2100
     56 H20        24.7352   35.8512   25.9090 H         1 APR         0.0648
     57 H21        26.5147   33.9209   24.9254 H         1 APR         0.0651
@<TRIPOS>BOND
     1    2    1 ar 
     2    6    1 ar 
     3    3    2 ar 
     4    4    3 ar 
     5    4    5 ar 
     6   10    4 1  
     7    5    6 ar 
     8    8    5 1  
     9    6    7 1  
    10    9    8 2  
    11   10    9 1  
    12   11   10 1  
    13   11   12 1  
    14   16   11 1  
    15   12   13 1  
    16   14   12 1  
    17   14   15 1  
    18   17   14 1  
    19   17   16 1  
    20   18   17 1  
    21   19   18 1  
    22   20   19 1  
    23   20   21 ar 
    24   20   22 ar 
    25   23   20 1  
    26   24   23 1  
    27   24   25 ar 
    28   24   26 ar 
    29   27   24 1  
    30   28   27 1  
    31   36   28 1  
    32   29   31 1  
    33   29   36 1  
    34   31   30 1  
    35   31   33 1  
    36   33   32 1  
    37   33   35 1  
    38   35   34 1  
    39   35   36 1  
    40    2   37 1  
    41    7   38 1  
    42    7   39 1  
    43    9   40 1  
    44   11   41 1  
    45   12   42 1  
    46   13   43 1  
    47   14   44 1  
    48   15   45 1  
    49   17   46 1  
    50   18   47 1  
    51   18   48 1  
    52   28   49 1  
    53   28   50 1  
    54   30   51 1  
    55   31   52 1  
    56   32   53 1  
    57   33   54 1  
    58   34   55 1  
    59   35   56 1  
    60   36   57 1  
@<TRIPOS>SUBSTRUCTURE
     1 APR         1

