2az5_ligand
  -I-interpret- 

 74 78  0  0  0  0  0  0  0  0999 V2000
  -16.5600   70.3360   36.1580 F   0  0  0  0  0
  -15.8540   71.4690   36.2620 C   0  0  0  0  0
  -14.6290   71.0840   35.9370 F   0  0  0  0  0
  -15.8090   71.9650   37.4750 F   0  0  0  0  0
  -16.3390   72.4100   35.1830 C   0  0  0  0  0
  -17.6590   72.3880   34.7240 C   0  0  0  0  0
  -15.4290   73.2600   34.5740 C   0  0  0  0  0
  -15.8650   74.0760   33.5430 C   0  0  0  0  0
  -17.1950   74.0420   33.1310 C   0  0  0  0  0
  -18.1670   73.2040   33.6900 C   0  0  0  0  0
  -19.4480   73.2000   33.2410 N   0  0  0  0  0
  -19.8930   73.9820   32.2240 C   0  0  0  0  0
  -20.4260   72.4410   33.7610 C   0  0  0  0  0
  -20.6080   71.4650   34.8110 C   0  0  0  0  0
  -21.8750   70.8890   35.0210 C   0  0  0  0  0
  -22.9880   71.2370   34.2500 C   0  0  0  0  0
  -21.5420   72.7650   33.0240 C   0  0  0  0  0
  -22.8480   72.1890   33.2380 C   0  0  0  0  0
  -21.2710   73.7390   32.0880 C   0  0  0  0  0
  -22.3050   74.2100   31.0930 C   0  0  0  0  0
  -22.8040   75.5370   30.8910 N   0  3  0  0  0
  -23.6960   76.1190   31.8770 C   0  0  0  0  0
  -22.5030   76.1330   29.5960 C   0  0  0  0  0
  -22.0110   77.5610   29.7640 C   0  0  0  0  0
  -20.6990   77.5470   30.4010 N   0  3  0  0  0
  -19.6370   76.6140   30.0370 C   0  0  0  0  0
  -20.5150   78.5670   31.3990 C   0  0  0  0  0
  -19.7610   78.0520   32.5940 C   0  0  0  0  0
  -18.4910   78.4640   32.7370 C   0  0  0  0  0
  -17.8540   78.3100   34.0250 O   0  0  0  0  0
  -18.3170   77.3690   34.8990 C   0  0  0  0  0
  -19.5420   76.7720   34.6710 C   0  0  0  0  0
  -20.0470   75.8310   35.5590 C   0  0  0  0  0
  -20.3280   77.2140   33.4790 C   0  0  0  0  0
  -21.4920   76.8530   33.3840 O   0  0  0  0  0
  -17.5680   77.0260   36.0140 C   0  0  0  0  0
  -18.0570   76.0750   36.8950 C   0  0  0  0  0
  -17.1800   75.7460   38.0770 C   0  0  0  0  0
  -19.2940   75.4650   36.6610 C   0  0  0  0  0
  -19.8780   74.4240   37.5940 C   0  0  0  0  0
  -18.3471   71.6891   35.1996 H   0  0  0  0  0
  -14.3893   73.2858   34.9004 H   0  0  0  0  0
  -15.1627   74.7490   33.0511 H   0  0  0  0  0
  -17.4976   74.7089   32.3237 H   0  0  0  0  0
  -19.2944   74.6689   31.6257 H   0  0  0  0  0
  -19.7657   71.1754   35.4392 H   0  0  0  0  0
  -21.9922   70.1471   35.8109 H   0  0  0  0  0
  -23.9551   70.7701   34.4368 H   0  0  0  0  0
  -23.7000   72.4883   32.6276 H   0  0  0  0  0
  -23.1970   73.7086   31.4686 H   0  0  0  0  0
  -21.7795   74.0413   30.1531 H   0  0  0  0  0
  -22.3929   76.3421   31.3634 H   0  0  0  0  0
  -24.5913   75.5033   31.9634 H   0  0  0  0  0
  -23.1899   76.1639   32.8413 H   0  0  0  0  0
  -23.9744   77.1253   31.5641 H   0  0  0  0  0
  -23.4105   76.1414   28.9922 H   0  0  0  0  0
  -21.7232   75.5462   29.1105 H   0  0  0  0  0
  -22.7124   78.1179   30.3854 H   0  0  0  0  0
  -21.9372   78.0388   28.7871 H   0  0  0  0  0
  -20.2049   76.6586   30.3169 H   0  0  0  0  0
  -19.9812   75.5925   30.1991 H   0  0  0  0  0
  -19.3801   76.7498   28.9865 H   0  0  0  0  0
  -18.7595   76.8054   30.6546 H   0  0  0  0  0
  -21.4977   78.9005   31.7324 H   0  0  0  0  0
  -19.9394   79.3795   30.9555 H   0  0  0  0  0
  -17.9517   78.9055   31.8989 H   0  0  0  0  0
  -21.0270   75.3850   35.3896 H   0  0  0  0  0
  -16.6035   77.5000   36.1959 H   0  0  0  0  0
  -16.2230   75.3633   37.7224 H   0  0  0  0  0
  -17.0159   76.6470   38.6680 H   0  0  0  0  0
  -17.6695   74.9907   38.6919 H   0  0  0  0  0
  -20.8222   74.7890   37.9982 H   0  0  0  0  0
  -20.0505   73.4997   37.0426 H   0  0  0  0  0
  -19.1801   74.2370   38.4101 H   0  0  0  0  0
  1  2  1  0  0  0
  2  3  1  0  0  0
  2  4  1  0  0  0
  2  5  1  0  0  0
  5  6  4  0  0  0
  5  7  4  0  0  0
  6 10  4  0  0  0
  7  8  4  0  0  0
  8  9  4  0  0  0
  9 10  4  0  0  0
 10 11  1  0  0  0
 11 12  4  0  0  0
 11 13  4  0  0  0
 12 19  4  0  0  0
 13 14  4  0  0  0
 13 17  4  0  0  0
 14 15  4  0  0  0
 15 16  4  0  0  0
 16 18  4  0  0  0
 17 18  4  0  0  0
 17 19  4  0  0  0
 19 20  1  0  0  0
 20 21  1  0  0  0
 21 22  1  0  0  0
 21 23  1  0  0  0
 23 24  1  0  0  0
 24 25  1  0  0  0
 25 26  1  0  0  0
 25 27  1  0  0  0
 27 28  1  0  0  0
 28 29  2  0  0  0
 28 34  1  0  0  0
 29 30  1  0  0  0
 30 31  1  0  0  0
 31 32  4  0  0  0
 31 36  4  0  0  0
 32 33  4  0  0  0
 32 34  1  0  0  0
 33 39  4  0  0  0
 34 35  2  0  0  0
 36 37  4  0  0  0
 37 38  1  0  0  0
 37 39  4  0  0  0
 39 40  1  0  0  0
  6 41  1  0  0  0
  7 42  1  0  0  0
  8 43  1  0  0  0
  9 44  1  0  0  0
 12 45  1  0  0  0
 14 46  1  0  0  0
 15 47  1  0  0  0
 16 48  1  0  0  0
 18 49  1  0  0  0
 20 50  1  0  0  0
 20 51  1  0  0  0
 21 52  1  0  0  0
 22 53  1  0  0  0
 22 54  1  0  0  0
 22 55  1  0  0  0
 23 56  1  0  0  0
 23 57  1  0  0  0
 24 58  1  0  0  0
 24 59  1  0  0  0
 25 60  1  0  0  0
 26 61  1  0  0  0
 26 62  1  0  0  0
 26 63  1  0  0  0
 27 64  1  0  0  0
 27 65  1  0  0  0
 29 66  1  0  0  0
 33 67  1  0  0  0
 36 68  1  0  0  0
 38 69  1  0  0  0
 38 70  1  0  0  0
 38 71  1  0  0  0
 40 72  1  0  0  0
 40 73  1  0  0  0
 40 74  1  0  0  0
M  END
$$$$
