5zla_ligand
  -I-interpret- 

 42 44  0  0  0  0  0  0  0  0999 V2000
    5.6780    0.1300  -40.0890 C   0  0  0  0  0
    7.0970    0.7580  -39.9310 C   0  0  0  0  0
    5.2890   -0.2680  -38.6510 C   0  0  0  0  0
    6.6110   -3.1210  -41.9050 C   0  0  0  0  0
    8.0320   -1.1200  -41.1310 C   0  0  0  0  0
    6.2920    0.4780  -37.7260 C   0  0  0  0  0
    8.1630   -0.2240  -40.0390 O   0  0  0  0  0
    7.3890    1.8320  -40.9640 C   0  0  0  0  0
    6.4040    2.8650  -40.8140 O   0  0  0  0  0
    7.1720    1.2480  -38.6030 O   0  0  0  0  0
    7.0910   -0.4930  -36.8640 C   0  0  0  0  0
    7.8830    0.3260  -35.9450 O   0  0  0  0  0
    3.8950    0.0820  -38.3980 O   0  0  0  0  0
    5.6180   -1.0420  -40.9820 O   0  0  0  0  0
    6.8020   -1.9580  -40.9010 C   0  0  0  0  0
    6.9740   -2.6160  -39.6020 O   0  0  0  0  0
    6.4210   -3.9580  -39.7400 C   0  0  0  0  0
    6.8240   -4.9020  -38.6150 C   0  0  0  0  0
    8.2410   -4.8170  -38.4680 O   0  0  0  0  0
    6.9920   -4.3520  -41.0940 C   0  0  0  0  0
    6.3210   -5.4460  -41.6100 O   0  0  0  0  0
    7.4360   -3.1120  -43.0870 O   0  0  0  0  0
    5.0012    0.8435  -40.5590 H   0  0  0  0  0
    5.3526   -1.3411  -38.4706 H   0  0  0  0  0
    5.5940   -3.0661  -42.2933 H   0  0  0  0  0
    8.9135   -1.7571  -41.2030 H   0  0  0  0  0
    7.9401   -0.5648  -42.0645 H   0  0  0  0  0
    5.7610    1.1289  -37.0314 H   0  0  0  0  0
    7.3464    1.4118  -41.9689 H   0  0  0  0  0
    8.3892    2.2386  -40.8146 H   0  0  0  0  0
    6.5678    3.5577  -41.4581 H   0  0  0  0  0
    7.7333   -1.1240  -37.4783 H   0  0  0  0  0
    6.4302   -1.1661  -36.3178 H   0  0  0  0  0
    8.4061   -0.2458  -35.3784 H   0  0  0  0  0
    3.3290   -0.4092  -38.9979 H   0  0  0  0  0
    5.3336   -4.0024  -39.6796 H   0  0  0  0  0
    6.5266   -5.9238  -38.8508 H   0  0  0  0  0
    6.3276   -4.6208  -37.6862 H   0  0  0  0  0
    8.5242   -5.4039  -37.7630 H   0  0  0  0  0
    8.0496   -4.6154  -41.0790 H   0  0  0  0  0
    6.6965   -5.6773  -42.4627 H   0  0  0  0  0
    7.2271   -3.8774  -43.6275 H   0  0  0  0  0
  2  1  1  0  0  0
  1  3  1  0  0  0
  1 14  1  0  0  0
  7  2  1  0  0  0
  2  8  1  0  0  0
  2 10  1  0  0  0
  3  6  1  0  0  0
  3 13  1  0  0  0
 15  4  1  0  0  0
  4 20  1  0  0  0
  4 22  1  0  0  0
  5  7  1  0  0  0
  5 15  1  0  0  0
  6 10  1  0  0  0
  6 11  1  0  0  0
  8  9  1  0  0  0
 11 12  1  0  0  0
 14 15  1  0  0  0
 15 16  1  0  0  0
 16 17  1  0  0  0
 17 18  1  0  0  0
 17 20  1  0  0  0
 18 19  1  0  0  0
 20 21  1  0  0  0
  1 23  1  0  0  0
  3 24  1  0  0  0
  4 25  1  0  0  0
  5 26  1  0  0  0
  5 27  1  0  0  0
  6 28  1  0  0  0
  8 29  1  0  0  0
  8 30  1  0  0  0
  9 31  1  0  0  0
 11 32  1  0  0  0
 11 33  1  0  0  0
 12 34  1  0  0  0
 13 35  1  0  0  0
 17 36  1  0  0  0
 18 37  1  0  0  0
 18 38  1  0  0  0
 19 39  1  0  0  0
 20 40  1  0  0  0
 21 41  1  0  0  0
 22 42  1  0  0  0
M  END
$$$$
