1mq1_ligand
  -I-interpret- 

217218  0  0  0  0  0  0  0  0999 V2000
   -0.2290   11.9570   10.3760 N   0  3  0  0  0
   -0.0500   11.2090    9.1030 C   0  0  0  0  0
   -0.3720   12.0850    7.8970 C   0  0  0  0  0
    0.1580   11.8740    6.8060 O   0  0  0  0  0
   -0.9680    9.9840    9.1230 C   0  0  0  0  0
   -2.0860   10.2070    9.9650 O   0  0  0  0  0
   -0.2750    8.7260    9.6050 C   0  0  0  0  0
   -1.2450   13.0670    8.0980 N   0  0  0  0  0
   -1.6360   13.9710    7.0220 C   0  0  0  0  0
   -0.4230   14.6970    6.4500 C   0  0  0  0  0
    0.0060   14.4200    5.3300 O   0  0  0  0  0
   -2.6600   14.9870    7.5300 C   0  0  0  0  0
   -4.0250   14.3850    7.8210 C   0  0  0  0  0
   -4.9780   14.5730    6.6530 C   0  0  0  0  0
   -6.3630   14.7200    7.0940 N   0  0  0  0  0
   -7.1390   13.7000    7.4500 C   0  0  0  0  0
   -6.6720   12.4590    7.4210 N   0  0  0  0  0
   -8.3880   13.9230    7.8390 N   0  0  0  0  0
    0.1270   15.6260    7.2250 N   0  0  0  0  0
    1.2920   16.3890    6.7910 C   0  0  0  0  0
    2.5870   15.8200    7.3700 C   0  0  0  0  0
    3.6740   16.3200    7.0840 O   0  0  0  0  0
    1.1430   17.8580    7.1910 C   0  0  0  0  0
   -0.0670   18.3960    6.6880 O   0  0  0  0  0
    2.2750   18.7310    6.6930 C   0  0  0  0  0
    2.4690   14.7680    8.1760 N   0  0  0  0  0
    3.6320   14.1330    8.7760 C   0  0  0  0  0
    4.2270   13.0930    7.8310 C   0  0  0  0  0
    5.2090   12.4450    8.1670 O   0  0  0  0  0
    3.2560   13.4740   10.1050 C   0  0  0  0  0
    4.4520   12.9410   10.8780 C   0  0  0  0  0
    4.5180   11.4220   10.8280 C   0  0  0  0  0
    5.9480   10.9310   10.6530 C   0  0  0  0  0
    6.0540    9.4550   10.8260 N   0  3  0  0  0
    3.5910   12.9350    6.6640 N   0  0  0  0  0
    3.9900   11.9740    5.6250 C   0  0  0  0  0
    4.0430   10.5170    6.1140 C   0  0  0  0  0
    4.0430    9.5920    5.3040 O   0  0  0  0  0
    5.2880   12.3740    4.8710 C   0  0  0  0  0
    6.4200   12.7780    5.8130 C   0  0  0  0  0
    4.9930   13.5070    3.9000 C   0  0  0  0  0
    6.9060   11.6440    6.6650 C   0  0  0  0  0
    4.0180   10.3090    7.4290 N   0  0  0  0  0
    4.0000    8.9580    8.0050 C   0  0  0  0  0
    5.3040    8.1620    7.8230 C   0  0  0  0  0
    5.4510    7.0980    8.4250 O   0  0  0  0  0
    2.8370    8.1570    7.4150 C   0  0  0  0  0
    2.5570    6.8850    8.1920 C   0  0  0  0  0
    2.5690    6.9370    9.4390 O   0  0  0  0  0
    2.3260    5.8380    7.5530 O   0  0  0  0  0
    6.2480    8.6430    7.0090 N   0  0  0  0  0
    7.5020    7.9070    6.8090 C   0  0  0  0  0
    8.1110    7.5530    8.1680 C   0  0  0  0  0
    8.0800    6.3920    8.5740 O   0  0  0  0  0
    8.5160    8.7110    5.9750 C   0  0  0  0  0
    8.0270    9.1360    4.6110 C   0  0  0  0  0
    6.7540    9.4660    4.2530 C   0  0  0  0  0
    8.8190    9.2900    3.4230 C   0  0  0  0  0
    6.7070    9.8340    2.9320 N   0  0  0  0  0
    7.9620    9.7310    2.3990 C   0  0  0  0  0
   10.1680    9.1050    3.1290 C   0  0  0  0  0
    8.4170    9.9910    1.1070 C   0  0  0  0  0
   10.6200    9.3600    1.8520 C   0  0  0  0  0
    9.7470    9.8010    0.8540 C   0  0  0  0  0
    8.6130    8.5740    8.8840 N   0  0  0  0  0
    9.1870    8.4020   10.2330 C   0  0  0  0  0
   10.2870    9.4330   10.5370 C   0  0  0  0  0
    9.9930   10.5150   11.0360 O   0  0  0  0  0
    9.7180    6.9780   10.4700 C   0  0  0  0  0
    8.7940    6.1560   11.3470 C   0  0  0  0  0
    9.2420    5.4320   12.2350 O   0  0  0  0  0
    7.4930    6.2640   11.1010 N   0  0  0  0  0
   11.5520    9.0830   10.2840 N   0  0  0  0  0
   12.6740    9.9780   10.5840 C   0  0  0  0  0
   13.1580   10.7860    9.3750 C   0  0  0  0  0
   13.5670   11.9380    9.5210 O   0  0  0  0  0
   13.8400    9.1730   11.1570 C   0  0  0  0  0
   14.9630   10.0370   11.7070 C   0  0  0  0  0
   16.0460   10.2700   10.6660 C   0  0  0  0  0
   17.1870    9.2770   10.8160 C   0  0  0  0  0
   17.9550    9.5000   12.0720 N   0  3  0  0  0
   13.1480   10.1800    8.1900 N   0  0  0  0  0
   13.6280   10.8570    6.9820 C   0  0  0  0  0
   12.9460   12.2140    6.7930 C   0  0  0  0  0
   13.6110   13.2490    6.7800 O   0  0  0  0  0
   13.4070    9.9770    5.7280 C   0  0  0  0  0
   13.7560   10.7330    4.4370 C   0  0  0  0  0
   11.9740    9.4840    5.6790 C   0  0  0  0  0
   15.2160   10.6380    4.0530 C   0  0  0  0  0
   11.6250   12.2120    6.6660 N   0  0  0  0  0
   10.8800   13.4520    6.5030 C   0  0  0  0  0
   10.4060   13.9540    7.8600 C   0  0  0  0  0
   10.2490   15.1550    8.0760 O   0  0  0  0  0
    9.6840   13.2440    5.5740 C   0  0  0  0  0
    9.9550   12.4040    4.3220 C   0  0  0  0  0
    8.7590   12.4490    3.3830 C   0  0  0  0  0
   11.2130   12.8790    3.6050 C   0  0  0  0  0
   10.1830   13.0120    8.7720 N   0  0  0  0  0
    9.7290   13.3290   10.1160 C   0  0  0  0  0
    8.3530   13.9880   10.0860 C   0  0  0  0  0
    8.0370   14.7400   11.0330 O   0  0  0  0  0
   10.7360   14.2410   10.8210 C   0  0  0  0  0
   10.5010   15.6040   10.5050 O   0  0  0  0  0
    7.6030   13.7490    9.1160 O   0  0  0  0  0
    0.3779   12.7768   10.3755 H   0  0  0  0  0
   -1.2015   12.2525   10.4614 H   0  0  0  0  0
    0.0143   11.3529   11.1610 H   0  0  0  0  0
    0.9913   10.8990    9.0156 H   0  0  0  0  0
   -1.2767    9.8377    8.0879 H   0  0  0  0  0
   -2.5454   11.0008    9.6815 H   0  0  0  0  0
    0.0474    8.8631   10.6372 H   0  0  0  0  0
   -0.9678    7.8864    9.5478 H   0  0  0  0  0
    0.5923    8.5266    8.9756 H   0  0  0  0  0
   -1.6507   13.1912    9.0256 H   0  0  0  0  0
   -2.0863   13.3757    6.2277 H   0  0  0  0  0
   -2.7933   15.7344    6.7479 H   0  0  0  0  0
   -2.2776   15.3954    8.4655 H   0  0  0  0  0
   -4.4446   14.8870    8.6928 H   0  0  0  0  0
   -3.9005   13.3164    7.9960 H   0  0  0  0  0
   -4.9151   13.6903    6.0166 H   0  0  0  0  0
   -4.6914   15.4809    6.1223 H   0  0  0  0  0
   -6.7580   15.6597    7.1311 H   0  0  0  0  0
   -5.7123   12.2820    7.1244 H   0  0  0  0  0
   -8.9837   13.1420    8.1138 H   0  0  0  0  0
   -8.7523   14.8754    7.8632 H   0  0  0  0  0
   -0.2747   15.8097    8.1444 H   0  0  0  0  0
    1.3485   16.3138    5.7051 H   0  0  0  0  0
    1.1534   17.8624    8.2809 H   0  0  0  0  0
   -0.1399   19.3166    6.9502 H   0  0  0  0  0
    3.2178   18.3715    7.1053 H   0  0  0  0  0
    2.3132   18.6884    5.6045 H   0  0  0  0  0
    2.1062   19.7596    7.0119 H   0  0  0  0  0
    1.5403   14.3977    8.3781 H   0  0  0  0  0
    4.3798   14.9039    8.9623 H   0  0  0  0  0
    2.6084   12.6269    9.8788 H   0  0  0  0  0
    2.7784   14.2338   10.7237 H   0  0  0  0  0
    4.3539   13.2477   11.9193 H   0  0  0  0  0
    5.3601   13.3406   10.4266 H   0  0  0  0  0
    3.9287   11.0787    9.9777 H   0  0  0  0  0
    4.1305   11.0285   11.7678 H   0  0  0  0  0
    6.5686   11.4093   11.4108 H   0  0  0  0  0
    6.2739   11.1809    9.6433 H   0  0  0  0  0
    7.0248    9.1681   10.7012 H   0  0  0  0  0
    5.7407    9.2003   11.7627 H   0  0  0  0  0
    5.4688    8.9897   10.1322 H   0  0  0  0  0
    2.7753   13.5201    6.4833 H   0  0  0  0  0
    3.1809   12.0233    4.8963 H   0  0  0  0  0
    5.6260   11.4920    4.3270 H   0  0  0  0  0
    6.0382   13.5529    6.4778 H   0  0  0  0  0
    7.2565   13.1159    5.2012 H   0  0  0  0  0
    4.2435   13.1802    3.1792 H   0  0  0  0  0
    4.6168   14.3682    4.4521 H   0  0  0  0  0
    5.9081   13.7816    3.3753 H   0  0  0  0  0
    6.0834   11.2714    7.2755 H   0  0  0  0  0
    7.2768   10.8434    6.0250 H   0  0  0  0  0
    7.7098   11.9957    7.3117 H   0  0  0  0  0
    4.0111   11.1134    8.0562 H   0  0  0  0  0
    3.8803    9.1029    9.0787 H   0  0  0  0  0
    3.1032    7.8775    6.3957 H   0  0  0  0  0
    1.9437    8.7802    7.4557 H   0  0  0  0  0
    2.3664    6.0233    6.6119 H   0  0  0  0  0
    6.0963    9.5272    6.5236 H   0  0  0  0  0
    7.2700    6.9973    6.2552 H   0  0  0  0  0
    9.3754    8.0605    5.8124 H   0  0  0  0  0
    8.7275    9.6239    6.5317 H   0  0  0  0  0
    5.8940    9.4411    4.9222 H   0  0  0  0  0
   10.8583    8.7625    3.8999 H   0  0  0  0  0
    7.7370   10.3333    0.3269 H   0  0  0  0  0
   11.6745    9.2154    1.6171 H   0  0  0  0  0
   10.1340    9.9974   -0.1459 H   0  0  0  0  0
    8.5965    9.5091    8.4770 H   0  0  0  0  0
    8.3615    8.5727   10.9240 H   0  0  0  0  0
   10.6810    7.0565   10.9746 H   0  0  0  0  0
    9.7956    6.4814    9.5028 H   0  0  0  0  0
    6.8228    5.7345   11.6586 H   0  0  0  0  0
    7.1642    6.8764   10.3545 H   0  0  0  0  0
   11.7417    8.1696    9.8715 H   0  0  0  0  0
   12.3040   10.6978   11.3141 H   0  0  0  0  0
   14.2548    8.5752   10.3454 H   0  0  0  0  0
   13.4514    8.5771   11.9828 H   0  0  0  0  0
   15.4078    9.5241   12.5598 H   0  0  0  0  0
   14.5470   11.0024   11.9951 H   0  0  0  0  0
   16.4439   11.2757   10.8014 H   0  0  0  0  0
   15.6064   10.1435    9.6766 H   0  0  0  0  0
   17.8656    9.4059    9.9728 H   0  0  0  0  0
   16.7644    8.2727   10.8473 H   0  0  0  0  0
   18.7087    8.8156   12.1343 H   0  0  0  0  0
   18.3483   10.4411   12.0661 H   0  0  0  0  0
   17.3322    9.3955   12.8730 H   0  0  0  0  0
   12.7988    9.2241    8.1211 H   0  0  0  0  0
   14.6974   11.0249    7.1098 H   0  0  0  0  0
   14.0769    9.1203    5.8008 H   0  0  0  0  0
   13.5309   11.7862    4.6049 H   0  0  0  0  0
   13.1767   10.2847    3.6298 H   0  0  0  0  0
   11.7634    8.8939    6.5709 H   0  0  0  0  0
   11.2983   10.3384    5.6392 H   0  0  0  0  0
   11.8337    8.8666    4.7918 H   0  0  0  0  0
   15.8284   11.0574    4.8513 H   0  0  0  0  0
   15.4828    9.5923    3.8999 H   0  0  0  0  0
   15.3852   11.1961    3.1321 H   0  0  0  0  0
   11.1221   11.3247    6.6829 H   0  0  0  0  0
   11.5384   14.1966    6.0555 H   0  0  0  0  0
    9.3884   14.2332    5.2245 H   0  0  0  0  0
    8.9339   12.7042    6.1520 H   0  0  0  0  0
   10.1146   11.3724    4.6356 H   0  0  0  0  0
    7.8821   12.0519    3.8943 H   0  0  0  0  0
    8.5713   13.4805    3.0850 H   0  0  0  0  0
    8.9697   11.8467    2.4993 H   0  0  0  0  0
   11.0887   13.9201    3.3071 H   0  0  0  0  0
   12.0673   12.7913    4.2763 H   0  0  0  0  0
   11.3797   12.2641    2.7206 H   0  0  0  0  0
   10.3355   12.0354    8.5202 H   0  0  0  0  0
    9.6500   12.3957   10.6735 H   0  0  0  0  0
    8.7596   14.7792   11.6638 H   0  0  0  0  0
   11.7394   13.9744   10.4889 H   0  0  0  0  0
   10.6303   14.1099   11.8979 H   0  0  0  0  0
   11.1450   16.1523   10.9592 H   0  0  0  0  0
  1  2  1  0  0  0
  2  3  1  0  0  0
  2  5  1  0  0  0
  3  4  2  0  0  0
  3  8  1  0  0  0
  5  6  1  0  0  0
  5  7  1  0  0  0
  8  9  1  0  0  0
  9 10  1  0  0  0
  9 12  1  0  0  0
 10 11  2  0  0  0
 10 19  1  0  0  0
 12 13  1  0  0  0
 13 14  1  0  0  0
 14 15  1  0  0  0
 15 16  1  0  0  0
 16 17  2  0  0  0
 16 18  1  0  0  0
 19 20  1  0  0  0
 20 21  1  0  0  0
 20 23  1  0  0  0
 21 22  2  0  0  0
 21 26  1  0  0  0
 23 24  1  0  0  0
 23 25  1  0  0  0
 26 27  1  0  0  0
 27 28  1  0  0  0
 27 30  1  0  0  0
 28 29  2  0  0  0
 28 35  1  0  0  0
 30 31  1  0  0  0
 31 32  1  0  0  0
 32 33  1  0  0  0
 33 34  1  0  0  0
 35 36  1  0  0  0
 36 37  1  0  0  0
 36 39  1  0  0  0
 37 38  2  0  0  0
 37 43  1  0  0  0
 39 40  1  0  0  0
 39 41  1  0  0  0
 40 42  1  0  0  0
 43 44  1  0  0  0
 44 45  1  0  0  0
 44 47  1  0  0  0
 45 46  2  0  0  0
 45 51  1  0  0  0
 47 48  1  0  0  0
 48 49  2  0  0  0
 48 50  1  0  0  0
 51 52  1  0  0  0
 52 53  1  0  0  0
 52 55  1  0  0  0
 53 54  2  0  0  0
 53 65  1  0  0  0
 55 56  1  0  0  0
 56 57  4  0  0  0
 56 58  4  0  0  0
 57 59  4  0  0  0
 58 60  4  0  0  0
 58 61  4  0  0  0
 59 60  4  0  0  0
 60 62  4  0  0  0
 61 63  4  0  0  0
 62 64  4  0  0  0
 63 64  4  0  0  0
 65 66  1  0  0  0
 66 67  1  0  0  0
 66 69  1  0  0  0
 67 68  2  0  0  0
 67 73  1  0  0  0
 69 70  1  0  0  0
 70 71  2  0  0  0
 70 72  1  0  0  0
 73 74  1  0  0  0
 74 75  1  0  0  0
 74 77  1  0  0  0
 75 76  2  0  0  0
 75 82  1  0  0  0
 77 78  1  0  0  0
 78 79  1  0  0  0
 79 80  1  0  0  0
 80 81  1  0  0  0
 82 83  1  0  0  0
 83 84  1  0  0  0
 83 86  1  0  0  0
 84 85  2  0  0  0
 84 90  1  0  0  0
 86 87  1  0  0  0
 86 88  1  0  0  0
 87 89  1  0  0  0
 90 91  1  0  0  0
 91 92  1  0  0  0
 91 94  1  0  0  0
 92 93  2  0  0  0
 92 98  1  0  0  0
 94 95  1  0  0  0
 95 96  1  0  0  0
 95 97  1  0  0  0
 98 99  1  0  0  0
 99100  1  0  0  0
 99102  1  0  0  0
100101  1  0  0  0
100104  2  0  0  0
102103  1  0  0  0
  1105  1  0  0  0
  1106  1  0  0  0
  1107  1  0  0  0
  2108  1  0  0  0
  5109  1  0  0  0
  6110  1  0  0  0
  7111  1  0  0  0
  7112  1  0  0  0
  7113  1  0  0  0
  8114  1  0  0  0
  9115  1  0  0  0
 12116  1  0  0  0
 12117  1  0  0  0
 13118  1  0  0  0
 13119  1  0  0  0
 14120  1  0  0  0
 14121  1  0  0  0
 15122  1  0  0  0
 17123  1  0  0  0
 18124  1  0  0  0
 18125  1  0  0  0
 19126  1  0  0  0
 20127  1  0  0  0
 23128  1  0  0  0
 24129  1  0  0  0
 25130  1  0  0  0
 25131  1  0  0  0
 25132  1  0  0  0
 26133  1  0  0  0
 27134  1  0  0  0
 30135  1  0  0  0
 30136  1  0  0  0
 31137  1  0  0  0
 31138  1  0  0  0
 32139  1  0  0  0
 32140  1  0  0  0
 33141  1  0  0  0
 33142  1  0  0  0
 34143  1  0  0  0
 34144  1  0  0  0
 34145  1  0  0  0
 35146  1  0  0  0
 36147  1  0  0  0
 39148  1  0  0  0
 40149  1  0  0  0
 40150  1  0  0  0
 41151  1  0  0  0
 41152  1  0  0  0
 41153  1  0  0  0
 42154  1  0  0  0
 42155  1  0  0  0
 42156  1  0  0  0
 43157  1  0  0  0
 44158  1  0  0  0
 47159  1  0  0  0
 47160  1  0  0  0
 50161  1  0  0  0
 51162  1  0  0  0
 52163  1  0  0  0
 55164  1  0  0  0
 55165  1  0  0  0
 57166  1  0  0  0
 61167  1  0  0  0
 62168  1  0  0  0
 63169  1  0  0  0
 64170  1  0  0  0
 65171  1  0  0  0
 66172  1  0  0  0
 69173  1  0  0  0
 69174  1  0  0  0
 72175  1  0  0  0
 72176  1  0  0  0
 73177  1  0  0  0
 74178  1  0  0  0
 77179  1  0  0  0
 77180  1  0  0  0
 78181  1  0  0  0
 78182  1  0  0  0
 79183  1  0  0  0
 79184  1  0  0  0
 80185  1  0  0  0
 80186  1  0  0  0
 81187  1  0  0  0
 81188  1  0  0  0
 81189  1  0  0  0
 82190  1  0  0  0
 83191  1  0  0  0
 86192  1  0  0  0
 87193  1  0  0  0
 87194  1  0  0  0
 88195  1  0  0  0
 88196  1  0  0  0
 88197  1  0  0  0
 89198  1  0  0  0
 89199  1  0  0  0
 89200  1  0  0  0
 90201  1  0  0  0
 91202  1  0  0  0
 94203  1  0  0  0
 94204  1  0  0  0
 95205  1  0  0  0
 96206  1  0  0  0
 96207  1  0  0  0
 96208  1  0  0  0
 97209  1  0  0  0
 97210  1  0  0  0
 97211  1  0  0  0
 98212  1  0  0  0
 99213  1  0  0  0
101214  1  0  0  0
102215  1  0  0  0
102216  1  0  0  0
103217  1  0  0  0
M  END
$$$$
