### 
### Created by X-TOOL on Mon Sep 10 21:12:49 2018
### 

@<TRIPOS>MOLECULE
1mq1_ligand
  217   218     1     0     0
SMALL
GAST_HUCK


@<TRIPOS>ATOM
      1 N          -0.2290   11.9570   10.3760 N.4       1 THR         0.2398
      2 CA         -0.0500   11.2090    9.1030 C.3       1 THR         0.0910
      3 C          -0.3720   12.0850    7.8970 C.2       1 THR         0.2293
      4 O           0.1580   11.8740    6.8060 O.2       1 THR        -0.3906
      5 CB         -0.9680    9.9840    9.1230 C.3       1 THR         0.1120
      6 OG1        -2.0860   10.2070    9.9650 O.3       1 THR        -0.3840
      7 CG2        -0.2750    8.7260    9.6050 C.3       1 THR        -0.0314
      8 N          -1.2450   13.0670    8.0980 N.am      1 ARG        -0.2609
      9 CA         -1.6360   13.9710    7.0220 C.3       1 ARG         0.1312
     10 C          -0.4230   14.6970    6.4500 C.2       1 ARG         0.2040
     11 O           0.0060   14.4200    5.3300 O.2       1 ARG        -0.3944
     12 CB         -2.6600   14.9870    7.5300 C.3       1 ARG        -0.0092
     13 CG         -4.0250   14.3850    7.8210 C.3       1 ARG        -0.0156
     14 CD         -4.9780   14.5730    6.6530 C.3       1 ARG         0.0627
     15 NE         -6.3630   14.7200    7.0940 N.pl3     1 ARG        -0.2723
     16 CZ         -7.1390   13.7000    7.4500 C.cat     1 ARG         0.2882
     17 NH1        -6.6720   12.4590    7.4210 N.pl3     1 ARG        -0.2849
     18 NH2        -8.3880   13.9230    7.8390 N.pl3     1 ARG        -0.2849
     19 N           0.1270   15.6260    7.2250 N.am      1 THR        -0.2613
     20 CA          1.2920   16.3890    6.7910 C.3       1 THR         0.1565
     21 C           2.5870   15.8200    7.3700 C.2       1 THR         0.2065
     22 O           3.6740   16.3200    7.0840 O.2       1 THR        -0.3943
     23 CB          1.1430   17.8580    7.1910 C.3       1 THR         0.0924
     24 OG1        -0.0670   18.3960    6.6880 O.3       1 THR        -0.3874
     25 CG2         2.2750   18.7310    6.6930 C.3       1 THR        -0.0346
     26 N           2.4690   14.7680    8.1760 N.am      1 LYS        -0.2637
     27 CA          3.6320   14.1330    8.7760 C.3       1 LYS         0.1310
     28 C           4.2270   13.0930    7.8310 C.2       1 LYS         0.2039
     29 O           5.2090   12.4450    8.1670 O.2       1 LYS        -0.3944
     30 CB          3.2560   13.4740   10.1050 C.3       1 LYS        -0.0122
     31 CG          4.4520   12.9410   10.8780 C.3       1 LYS        -0.0440
     32 CD          4.5180   11.4220   10.8280 C.3       1 LYS        -0.0124
     33 CE          5.9480   10.9310   10.6530 C.3       1 LYS        -0.0354
     34 NZ          6.0540    9.4550   10.8260 N.4       1 LYS         0.2185
     35 N           3.5910   12.9350    6.6640 N.am      1 ILE        -0.2635
     36 CA          3.9900   11.9740    5.6250 C.3       1 ILE         0.1335
     37 C           4.0430   10.5170    6.1140 C.2       1 ILE         0.2042
     38 O           4.0430    9.5920    5.3040 O.2       1 ILE        -0.3944
     39 CB          5.2880   12.3740    4.8710 C.3       1 ILE        -0.0037
     40 CG1         6.4200   12.7780    5.8130 C.3       1 ILE        -0.0491
     41 CG2         4.9930   13.5070    3.9000 C.3       1 ILE        -0.0582
     42 CD1         6.9060   11.6440    6.6650 C.3       1 ILE        -0.0648
     43 N           4.0180   10.3090    7.4290 N.am      1 ASP        -0.2622
     44 CA          4.0000    8.9580    8.0050 C.3       1 ASP         0.1423
     45 C           5.3040    8.1620    7.8230 C.2       1 ASP         0.2057
     46 O           5.4510    7.0980    8.4250 O.2       1 ASP        -0.3943
     47 CB          2.8370    8.1570    7.4150 C.3       1 ASP         0.0406
     48 CG          2.5570    6.8850    8.1920 C.2       1 ASP         0.0393
     49 OD1         2.5690    6.9370    9.4390 O.co2     1 ASP        -0.5688
     50 OD2         2.3260    5.8380    7.5530 O.co2     1 ASP        -0.5688
     51 N           6.2480    8.6430    7.0090 N.am      1 TRP        -0.2626
     52 CA          7.5020    7.9070    6.8090 C.3       1 TRP         0.1352
     53 C           8.1110    7.5530    8.1680 C.2       1 TRP         0.2053
     54 O           8.0800    6.3920    8.5740 O.2       1 TRP        -0.3942
     55 CB          8.5160    8.7110    5.9750 C.3       1 TRP         0.0042
     56 CG          8.0270    9.1360    4.6110 C.2       1 TRP        -0.0418
     57 CD1         6.7540    9.4660    4.2530 C.2       1 TRP         0.0167
     58 CD2         8.8190    9.2900    3.4230 C.ar      1 TRP        -0.0214
     59 NE1         6.7070    9.8340    2.9320 N.pl3     1 TRP        -0.2890
     60 CE2         7.9620    9.7310    2.3990 C.ar      1 TRP         0.0603
     61 CE3        10.1680    9.1050    3.1290 C.ar      1 TRP        -0.0747
     62 CZ2         8.4170    9.9910    1.1070 C.ar      1 TRP        -0.0443
     63 CZ3        10.6200    9.3600    1.8520 C.ar      1 TRP        -0.0792
     64 CH2         9.7470    9.8010    0.8540 C.ar      1 TRP        -0.0768
     65 N           8.6130    8.5740    8.8840 N.am      1 ASN        -0.2615
     66 CA          9.1870    8.4020   10.2330 C.3       1 ASN         0.1476
     67 C          10.2870    9.4330   10.5370 C.2       1 ASN         0.2063
     68 O           9.9930   10.5150   11.0360 O.2       1 ASN        -0.3942
     69 CB          9.7180    6.9780   10.4700 C.3       1 ASN         0.0773
     70 CG          8.7940    6.1560   11.3470 C.2       1 ASN         0.1780
     71 OD1         9.2420    5.4320   12.2350 O.2       1 ASN        -0.3970
     72 ND2         7.4930    6.2640   11.1010 N.am      1 ASN        -0.3007
     73 N          11.5520    9.0830   10.2840 N.am      1 LYS        -0.2636
     74 CA         12.6740    9.9780   10.5840 C.3       1 LYS         0.1310
     75 C          13.1580   10.7860    9.3750 C.2       1 LYS         0.2039
     76 O          13.5670   11.9380    9.5210 O.2       1 LYS        -0.3944
     77 CB         13.8400    9.1730   11.1570 C.3       1 LYS        -0.0122
     78 CG         14.9630   10.0370   11.7070 C.3       1 LYS        -0.0440
     79 CD         16.0460   10.2700   10.6660 C.3       1 LYS        -0.0124
     80 CE         17.1870    9.2770   10.8160 C.3       1 LYS        -0.0354
     81 NZ         17.9550    9.5000   12.0720 N.4       1 LYS         0.2185
     82 N          13.1480   10.1800    8.1900 N.am      1 ILE        -0.2635
     83 CA         13.6280   10.8570    6.9820 C.3       1 ILE         0.1335
     84 C          12.9460   12.2140    6.7930 C.2       1 ILE         0.2042
     85 O          13.6110   13.2490    6.7800 O.2       1 ILE        -0.3944
     86 CB         13.4070    9.9770    5.7280 C.3       1 ILE        -0.0037
     87 CG1        13.7560   10.7330    4.4370 C.3       1 ILE        -0.0491
     88 CG2        11.9740    9.4840    5.6790 C.3       1 ILE        -0.0582
     89 CD1        15.2160   10.6380    4.0530 C.3       1 ILE        -0.0648
     90 N          11.6250   12.2120    6.6660 N.am      1 LEU        -0.2637
     91 CA         10.8800   13.4520    6.5030 C.3       1 LEU         0.1312
     92 C          10.4060   13.9540    7.8600 C.2       1 LEU         0.2034
     93 O          10.2490   15.1550    8.0760 O.2       1 LEU        -0.3944
     94 CB          9.6840   13.2440    5.5740 C.3       1 LEU        -0.0101
     95 CG          9.9550   12.4040    4.3220 C.3       1 LEU        -0.0425
     96 CD1         8.7590   12.4490    3.3830 C.3       1 LEU        -0.0625
     97 CD2        11.2130   12.8790    3.6050 C.3       1 LEU        -0.0625
     98 N          10.1830   13.0120    8.7720 N.am      1 SER        -0.2672
     99 CA          9.7290   13.3290   10.1160 C.3       1 SER         0.1173
    100 C           8.3530   13.9880   10.0860 C.2       1 SER         0.0623
    101 O           8.0370   14.7400   11.0330 O.co2     1 SER        -0.5665
    102 CB         10.7360   14.2410   10.8210 C.3       1 SER         0.0789
    103 OG         10.5010   15.6040   10.5050 O.3       1 SER        -0.3910
    104 OXT         7.6030   13.7490    9.1160 O.co2     1 SER        -0.5665
    105 H1          0.3704   12.7674   10.3766 H         1 THR         0.2016
    106 H2          0.0112   11.3610   11.1526 H         1 THR         0.2016
    107 H3         -1.1898   12.2496   10.4616 H         1 THR         0.2016
    108 H4          0.9958   10.8763    9.0277 H         1 THR         0.1125
    109 H5         -1.3234    9.8133    8.0961 H         1 THR         0.0674
    110 H6         -2.6414    9.4362    9.9629 H         1 THR         0.2102
    111 H7         -0.9876    7.8880    9.5948 H         1 THR         0.0258
    112 H8          0.0946    8.8805   10.6294 H         1 THR         0.0258
    113 H9          0.5710    8.4959    8.9407 H         1 THR         0.0258
    114 H10        -1.6427   13.1888    9.0074 H         1 ARG         0.1884
    115 H11        -2.0979   13.3773    6.2194 H         1 ARG         0.0800
    116 H12        -2.7812   15.7695    6.7665 H         1 ARG         0.0313
    117 H13        -2.2736   15.4358    8.4570 H         1 ARG         0.0313
    118 H14        -4.4490   14.8742    8.7103 H         1 ARG         0.0301
    119 H15        -3.9067   13.3089    8.0158 H         1 ARG         0.0301
    120 H16        -4.9070   13.6965    5.9922 H         1 ARG         0.0689
    121 H17        -4.6847   15.4758    6.0973 H         1 ARG         0.0689
    122 H18        -6.7619   15.6689    7.1314 H         1 ARG         0.2642
    123 H19        -7.2785   11.6739    7.6980 H         1 ARG         0.2615
    124 H20        -5.7028   12.2803    7.1215 H         1 ARG         0.2615
    125 H21        -8.7559   14.8848    7.8634 H         1 ARG         0.2615
    126 H22        -8.9896   13.1343    8.1165 H         1 ARG         0.2615
    127 H23        -0.2668   15.8061    8.1264 H         1 THR         0.1884
    128 H24         1.3508   16.3304    5.6941 H         1 THR         0.0826
    129 H25         1.1248   17.9067    8.2898 H         1 THR         0.0639
    130 H26        -0.1392   19.3070    6.9474 H         1 THR         0.2101
    131 H27         2.1058   19.7694    7.0142 H         1 THR         0.0257
    132 H28         2.3146   18.6889    5.5945 H         1 THR         0.0257
    133 H29         3.2271   18.3692    7.1084 H         1 THR         0.0257
    134 H30         1.5585   14.4050    8.3741 H         1 LYS         0.1883
    135 H31         4.3904   14.9060    8.9691 H         1 LYS         0.0800
    136 H32         2.5742   12.6361    9.8975 H         1 LYS         0.0312
    137 H33         2.7417   14.2191   10.7298 H         1 LYS         0.0312
    138 H34         4.3703   13.2606   11.9274 H         1 LYS         0.0269
    139 H35         5.3730   13.3531   10.4398 H         1 LYS         0.0269
    140 H36         3.9118   11.0656    9.9822 H         1 LYS         0.0317
    141 H37         4.1130   11.0156   11.7665 H         1 LYS         0.0317
    142 H38         6.5871   11.4234   11.4008 H         1 LYS         0.0813
    143 H39         6.2940   11.1963    9.6431 H         1 LYS         0.0813
    144 H40         7.0131    9.1703   10.7029 H         1 LYS         0.1994
    145 H41         5.4761    8.9940   10.1408 H         1 LYS         0.1994
    146 H42         5.7446    9.2021   11.7514 H         1 LYS         0.1994
    147 H43         2.7913   13.5086    6.4869 H         1 ILE         0.1883
    148 H44         3.1867   12.0072    4.8743 H         1 ILE         0.0803
    149 H45         5.6255   11.5005    4.2939 H         1 ILE         0.0345
    150 H46         6.0581   13.5812    6.4717 H         1 ILE         0.0267
    151 H47         7.2619   13.1494    5.2103 H         1 ILE         0.0267
    152 H48         4.1771   13.2085    3.2253 H         1 ILE         0.0235
    153 H49         5.8945   13.7281    3.3097 H         1 ILE         0.0235
    154 H50         4.6940   14.4036    4.4627 H         1 ILE         0.0235
    155 H51         7.7173   11.9977    7.3182 H         1 ILE         0.0230
    156 H52         7.2806   10.8353    6.0203 H         1 ILE         0.0230
    157 H53         6.0768   11.2671    7.2817 H         1 ILE         0.0230
    158 H54         4.0113   11.0976    8.0439 H         1 ASP         0.1884
    159 H55         3.8310    9.0676    9.0864 H         1 ASP         0.0819
    160 H56         3.0832    7.8896    6.3768 H         1 ASP         0.0478
    161 H57         1.9337    8.7845    7.4277 H         1 ASP         0.0478
    162 H58         6.0992    9.5098    6.5331 H         1 TRP         0.1884
    163 H59         7.2741    6.9755    6.2702 H         1 TRP         0.0815
    164 H60         9.4133    8.0898    5.8373 H         1 TRP         0.0397
    165 H61         8.7804    9.6170    6.5401 H         1 TRP         0.0397
    166 H62         5.8947    9.4411    4.9216 H         1 TRP         0.0795
    167 H63         5.8639   10.1382    2.4246 H         1 TRP         0.2216
    168 H64        10.8545    8.7644    3.8957 H         1 TRP         0.0540
    169 H65         7.7407   10.3314    0.3312 H         1 TRP         0.0541
    170 H66        11.6687    9.2162    1.6184 H         1 TRP         0.0510
    171 H67        10.1319    9.9963   -0.1404 H         1 TRP         0.0530
    172 H68         8.5969    9.4908    8.4850 H         1 ASN         0.1885
    173 H69         8.3712    8.5711   10.9512 H         1 ASN         0.0826
    174 H70        10.7017    7.0442   10.9577 H         1 ASN         0.0551
    175 H71         9.8237    6.4739    9.4981 H         1 ASN         0.0551
    176 H72         6.8360    5.7451   11.6479 H         1 ASN         0.1814
    177 H73         7.1707    6.8642   10.3690 H         1 ASN         0.1814
    178 H74        11.7380    8.1875    9.8796 H         1 LYS         0.1883
    179 H75        12.3347   10.6920   11.3488 H         1 LYS         0.0800
    180 H76        14.2496    8.5372   10.3583 H         1 LYS         0.0312
    181 H77        13.4584    8.5391   11.9709 H         1 LYS         0.0312
    182 H78        15.4071    9.5341   12.5787 H         1 LYS         0.0269
    183 H79        14.5488   11.0082   12.0156 H         1 LYS         0.0269
    184 H80        16.4418   11.2895   10.7842 H         1 LYS         0.0317
    185 H81        15.6071   10.1610    9.6633 H         1 LYS         0.0317
    186 H82        17.8678    9.3853    9.9588 H         1 LYS         0.0813
    187 H83        16.7725    8.2582   10.8287 H         1 LYS         0.0813
    188 H84        18.7002    8.8241   12.1346 H         1 LYS         0.1994
    189 H85        17.3405    9.3969   12.8644 H         1 LYS         0.1994
    190 H86        18.3442   10.4298   12.0673 H         1 LYS         0.1994
    191 H87        12.8057    9.2428    8.1225 H         1 ILE         0.1883
    192 H88        14.7084   11.0290    7.0962 H         1 ILE         0.0803
    193 H89        14.0714    9.1035    5.8022 H         1 ILE         0.0345
    194 H90        13.5019   11.7941    4.5763 H         1 ILE         0.0267
    195 H91        13.1533   10.3162    3.6166 H         1 ILE         0.0267
    196 H92        11.7395    8.9455    6.6091 H         1 ILE         0.0235
    197 H93        11.8484    8.8066    4.8215 H         1 ILE         0.0235
    198 H94        11.2944   10.3422    5.5710 H         1 ILE         0.0235
    199 H95        15.3881   11.2009    3.1237 H         1 ILE         0.0230
    200 H96        15.4865    9.5831    3.8981 H         1 ILE         0.0230
    201 H97        15.8351   11.0610    4.8578 H         1 ILE         0.0230
    202 H98        11.1320   11.3421    6.6826 H         1 LEU         0.1883
    203 H99        11.5446   14.2069    6.0577 H         1 LEU         0.0800
    204 H100        9.3332   14.2341    5.2475 H         1 LEU         0.0315
    205 H101        8.8907   12.7456    6.1504 H         1 LEU         0.0315
    206 H102       10.1106   11.3609    4.6347 H         1 LEU         0.0298
    207 H103        8.9704   11.8415    2.4907 H         1 LEU         0.0232
    208 H104        8.5685   13.4895    3.0814 H         1 LEU         0.0232
    209 H105        7.8733   12.0484    3.8978 H         1 LEU         0.0232
    210 H106       12.0666   12.8400    4.2977 H         1 LEU         0.0232
    211 H107       11.0692   13.9129    3.2582 H         1 LEU         0.0232
    212 H108       11.4113   12.2269    2.7416 H         1 LEU         0.0232
    213 H109       10.3325   12.0546    8.5251 H         1 SER         0.1876
    214 H110        9.6515   12.3906   10.6847 H         1 SER         0.0749
    215 H111       11.7525   13.9684   10.5011 H         1 SER         0.0599
    216 H112       10.6446   14.1037   11.9086 H         1 SER         0.0599
    217 H113       10.5826   15.7290    9.5668 H         1 SER         0.2096
@<TRIPOS>BOND
     1    1    2 1  
     2    2    3 1  
     3    2    5 1  
     4    3    4 2  
     5    3    8 am 
     6    5    6 1  
     7    5    7 1  
     8    8    9 1  
     9    9   10 1  
    10    9   12 1  
    11   10   11 2  
    12   10   19 am 
    13   12   13 1  
    14   13   14 1  
    15   14   15 1  
    16   15   16 ar 
    17   16   17 ar 
    18   16   18 ar 
    19   19   20 1  
    20   20   21 1  
    21   20   23 1  
    22   21   22 2  
    23   21   26 am 
    24   23   24 1  
    25   23   25 1  
    26   26   27 1  
    27   27   28 1  
    28   27   30 1  
    29   28   29 2  
    30   28   35 am 
    31   30   31 1  
    32   31   32 1  
    33   32   33 1  
    34   33   34 1  
    35   35   36 1  
    36   36   37 1  
    37   36   39 1  
    38   37   38 2  
    39   37   43 am 
    40   39   40 1  
    41   39   41 1  
    42   40   42 1  
    43   43   44 1  
    44   44   45 1  
    45   44   47 1  
    46   45   46 2  
    47   45   51 am 
    48   47   48 1  
    49   48   49 ar 
    50   48   50 ar 
    51   51   52 1  
    52   52   53 1  
    53   52   55 1  
    54   53   54 2  
    55   53   65 am 
    56   55   56 1  
    57   56   57 2  
    58   56   58 1  
    59   57   59 1  
    60   58   60 ar 
    61   58   61 ar 
    62   59   60 1  
    63   60   62 ar 
    64   61   63 ar 
    65   62   64 ar 
    66   63   64 ar 
    67   65   66 1  
    68   66   67 1  
    69   66   69 1  
    70   67   68 2  
    71   67   73 am 
    72   69   70 1  
    73   70   71 2  
    74   70   72 am 
    75   73   74 1  
    76   74   75 1  
    77   74   77 1  
    78   75   76 2  
    79   75   82 am 
    80   77   78 1  
    81   78   79 1  
    82   79   80 1  
    83   80   81 1  
    84   82   83 1  
    85   83   84 1  
    86   83   86 1  
    87   84   85 2  
    88   84   90 am 
    89   86   87 1  
    90   86   88 1  
    91   87   89 1  
    92   90   91 1  
    93   91   92 1  
    94   91   94 1  
    95   92   93 2  
    96   92   98 am 
    97   94   95 1  
    98   95   96 1  
    99   95   97 1  
   100   98   99 1  
   101   99  100 1  
   102   99  102 1  
   103  100  101 ar 
   104  100  104 ar 
   105  102  103 1  
   106    1  105 1  
   107    1  106 1  
   108    1  107 1  
   109    2  108 1  
   110    5  109 1  
   111    6  110 1  
   112    7  111 1  
   113    7  112 1  
   114    7  113 1  
   115    8  114 1  
   116    9  115 1  
   117   12  116 1  
   118   12  117 1  
   119   13  118 1  
   120   13  119 1  
   121   14  120 1  
   122   14  121 1  
   123   15  122 1  
   124   17  123 1  
   125   17  124 1  
   126   18  125 1  
   127   18  126 1  
   128   19  127 1  
   129   20  128 1  
   130   23  129 1  
   131   24  130 1  
   132   25  131 1  
   133   25  132 1  
   134   25  133 1  
   135   26  134 1  
   136   27  135 1  
   137   30  136 1  
   138   30  137 1  
   139   31  138 1  
   140   31  139 1  
   141   32  140 1  
   142   32  141 1  
   143   33  142 1  
   144   33  143 1  
   145   34  144 1  
   146   34  145 1  
   147   34  146 1  
   148   35  147 1  
   149   36  148 1  
   150   39  149 1  
   151   40  150 1  
   152   40  151 1  
   153   41  152 1  
   154   41  153 1  
   155   41  154 1  
   156   42  155 1  
   157   42  156 1  
   158   42  157 1  
   159   43  158 1  
   160   44  159 1  
   161   47  160 1  
   162   47  161 1  
   163   51  162 1  
   164   52  163 1  
   165   55  164 1  
   166   55  165 1  
   167   57  166 1  
   168   59  167 1  
   169   61  168 1  
   170   62  169 1  
   171   63  170 1  
   172   64  171 1  
   173   65  172 1  
   174   66  173 1  
   175   69  174 1  
   176   69  175 1  
   177   72  176 1  
   178   72  177 1  
   179   73  178 1  
   180   74  179 1  
   181   77  180 1  
   182   77  181 1  
   183   78  182 1  
   184   78  183 1  
   185   79  184 1  
   186   79  185 1  
   187   80  186 1  
   188   80  187 1  
   189   81  188 1  
   190   81  189 1  
   191   81  190 1  
   192   82  191 1  
   193   83  192 1  
   194   86  193 1  
   195   87  194 1  
   196   87  195 1  
   197   88  196 1  
   198   88  197 1  
   199   88  198 1  
   200   89  199 1  
   201   89  200 1  
   202   89  201 1  
   203   90  202 1  
   204   91  203 1  
   205   94  204 1  
   206   94  205 1  
   207   95  206 1  
   208   96  207 1  
   209   96  208 1  
   210   96  209 1  
   211   97  210 1  
   212   97  211 1  
   213   97  212 1  
   214   98  213 1  
   215   99  214 1  
   216  102  215 1  
   217  102  216 1  
   218  103  217 1  
@<TRIPOS>SUBSTRUCTURE
     1 THR         1

