4ybi_ligand
  -I-interpret- 

 36 38  0  0  0  0  0  0  0  0999 V2000
   23.5410   56.2190   86.5570 C   0  0  0  0  0
   25.9250   56.2330   86.1040 C   0  0  0  0  0
   23.3390   56.8050   85.3150 C   0  0  0  0  0
   24.3660   57.0860   84.4460 C   0  0  0  0  0
   25.6450   56.8010   84.8720 C   0  0  0  0  0
   26.6350   57.1000   84.0590 F   0  0  0  0  0
   22.1050   57.0900   84.9160 F   0  0  0  0  0
   24.8480   55.9400   86.9260 C   0  0  0  0  0
   22.3780   55.8930   87.4710 C   0  0  0  0  0
   21.3480   55.0390   86.7360 C   0  0  0  0  0
   21.6720   57.1430   87.9750 C   0  0  0  0  0
   22.5900   57.9800   88.8330 C   0  0  0  0  0
   23.0390   57.0270   90.3080 S   0  0  0  0  0
   22.9490   55.3570   89.7570 C   0  0  0  0  0
   22.6810   54.9670   88.5590 N   0  0  0  0  0
   23.1930   54.4560   90.7790 N   0  0  0  0  0
   27.2950   56.0170   86.5810 C   0  0  0  0  0
   27.7500   54.8650   87.1850 C   0  0  0  0  0
   28.9830   54.7060   87.6910 N   0  0  0  0  0
   29.7840   55.7750   87.6010 C   0  0  0  0  0
   29.4790   56.9460   87.0420 N   0  0  0  0  0
   28.2360   57.0290   86.5430 C   0  0  0  0  0
   24.1769   57.5157   83.4623 H   0  0  0  0  0
   25.0347   55.4751   87.8940 H   0  0  0  0  0
   20.5451   54.7697   87.4222 H   0  0  0  0  0
   20.9383   55.6056   85.8998 H   0  0  0  0  0
   21.8278   54.1341   86.3631 H   0  0  0  0  0
   20.8145   56.8400   88.5758 H   0  0  0  0  0
   21.3610   57.7373   87.1158 H   0  0  0  0  0
   22.0846   58.9000   89.1269 H   0  0  0  0  0
   23.4881   58.2374   88.2716 H   0  0  0  0  0
   22.6804   53.9663   88.3613 H   0  0  0  0  0
   23.3951   54.7944   91.7198 H   0  0  0  0  0
   27.0603   54.0240   87.2569 H   0  0  0  0  0
   30.7829   55.6783   88.0263 H   0  0  0  0  0
   27.9457   57.9676   86.0709 H   0  0  0  0  0
  1  3  4  0  0  0
  8  1  4  0  0  0
  1  9  1  0  0  0
  2  5  4  0  0  0
  2  8  4  0  0  0
  2 17  1  0  0  0
  3  4  4  0  0  0
  3  7  1  0  0  0
  4  5  4  0  0  0
  5  6  1  0  0  0
  9 10  1  0  0  0
  9 11  1  0  0  0
  9 15  1  0  0  0
 11 12  1  0  0  0
 12 13  1  0  0  0
 13 14  1  0  0  0
 14 15  1  0  0  0
 14 16  2  0  0  0
 17 18  4  0  0  0
 17 22  4  0  0  0
 18 19  4  0  0  0
 19 20  4  0  0  0
 20 21  4  0  0  0
 21 22  4  0  0  0
  4 23  1  0  0  0
  8 24  1  0  0  0
 10 25  1  0  0  0
 10 26  1  0  0  0
 10 27  1  0  0  0
 11 28  1  0  0  0
 11 29  1  0  0  0
 12 30  1  0  0  0
 12 31  1  0  0  0
 15 32  1  0  0  0
 16 33  1  0  0  0
 18 34  1  0  0  0
 20 35  1  0  0  0
 22 36  1  0  0  0
M  END
$$$$
