3zt1_ligand
  -I-interpret- 

 58 61  0  0  0  0  0  0  0  0999 V2000
  -11.3470   35.0940    5.8460 C   0  0  0  0  0
  -12.4430   34.7230    5.0920 C   0  0  0  0  0
  -10.2650   35.7270    5.2500 C   0  0  0  0  0
  -12.4470   34.9780    3.7310 C   0  0  0  0  0
   -9.3550   33.1610   -1.4380 C   0  0  0  0  0
   -5.8750   34.4380    1.7680 C   0  0  0  0  0
   -6.7990   36.2310    0.5030 C   0  0  0  0  0
   -9.3180   32.2300   -2.4700 C   0  0  0  0  0
   -5.6950   33.6950    0.6150 C   0  0  0  0  0
   -6.6250   35.5060   -0.6540 C   0  0  0  0  0
  -10.2760   35.9790    3.8840 C   0  0  0  0  0
  -10.5860   31.6370   -0.0180 C   0  0  0  0  0
   -6.4290   35.7020    1.7200 C   0  0  0  0  0
  -11.3740   35.5990    3.1290 C   0  0  0  0  0
   -9.9760   32.8820   -0.2220 C   0  0  0  0  0
   -9.9340   31.0150   -2.2570 C   0  0  0  0  0
  -10.5390   30.7240   -1.0670 C   0  0  0  0  0
   -6.0780   34.2390   -0.5970 C   0  0  0  0  0
   -9.1020   36.6510    3.2680 C   0  0  0  0  0
  -11.2660   31.2650    1.2650 C   0  0  0  0  0
  -10.5350   28.9280   -2.3310 C   0  0  0  0  0
   -5.5900   32.1990   -1.6480 C   0  0  0  0  0
   -6.6280   36.4890    2.9800 C   0  0  0  0  0
  -11.4570   35.8400    1.6540 C   0  0  0  0  0
   -9.9500   33.9800    0.8020 C   0  0  0  0  0
   -7.8860   36.0860    3.5800 N   0  0  0  0  0
  -11.3040   34.5930    0.8470 N   0  3  0  0  0
  -11.2110   30.0470    1.6240 O   0  0  0  0  0
   -9.2340   37.6360    2.5420 O   0  0  0  0  0
  -11.8280   32.1900    1.9190 O   0  0  0  0  0
  -10.0050   29.9760   -3.1650 O   0  0  0  0  0
  -11.0750   29.4530   -1.0910 O   0  0  0  0  0
   -5.9530   33.5750   -1.8080 O   0  0  0  0  0
  -11.3316   34.8883    6.9163 H   0  0  0  0  0
  -13.2959   34.2346    5.5633 H   0  0  0  0  0
   -9.4077   36.0260    5.8531 H   0  0  0  0  0
  -13.3075   34.6846    3.1297 H   0  0  0  0  0
   -8.8862   34.1342   -1.5838 H   0  0  0  0  0
   -5.5750   34.0194    2.7287 H   0  0  0  0  0
   -7.2323   37.2301    0.4560 H   0  0  0  0  0
   -8.8199   32.4527   -3.4136 H   0  0  0  0  0
   -5.2585   32.6973    0.6613 H   0  0  0  0  0
   -6.9185   35.9311   -1.6138 H   0  0  0  0  0
   -9.7263   28.2383   -2.0894 H   0  0  0  0  0
  -11.3391   28.4303   -2.8731 H   0  0  0  0  0
   -4.6328   32.1349   -1.1306 H   0  0  0  0  0
   -6.3553   31.6883   -1.0635 H   0  0  0  0  0
   -5.5066   31.7302   -2.6285 H   0  0  0  0  0
   -6.6481   37.5551    2.7538 H   0  0  0  0  0
   -5.8075   36.2980    3.6717 H   0  0  0  0  0
  -10.6433   36.5124    1.3820 H   0  0  0  0  0
  -12.4428   36.2534    1.4410 H   0  0  0  0  0
   -9.2046   34.7289    0.5344 H   0  0  0  0  0
   -9.6840   33.5787    1.7799 H   0  0  0  0  0
   -7.8684   35.3393    4.2746 H   0  0  0  0  0
  -11.5233   34.8546   -0.1142 H   0  0  0  0  0
  -11.9089   33.9000    1.2878 H   0  0  0  0  0
  -10.7332   29.5409    0.9628 H   0  0  0  0  0
  2  1  4  0  0  0
  3  1  4  0  0  0
  4  2  4  0  0  0
 11  3  4  0  0  0
 14  4  4  0  0  0
  5  8  4  0  0  0
 15  5  4  0  0  0
  6  9  4  0  0  0
 13  6  4  0  0  0
  7 10  4  0  0  0
 13  7  4  0  0  0
  8 16  4  0  0  0
  9 18  4  0  0  0
 10 18  4  0  0  0
 14 11  4  0  0  0
 11 19  1  0  0  0
 15 12  4  0  0  0
 12 17  4  0  0  0
 12 20  1  0  0  0
 23 13  1  0  0  0
 24 14  1  0  0  0
 25 15  1  0  0  0
 17 16  4  0  0  0
 16 31  1  0  0  0
 17 32  1  0  0  0
 18 33  1  0  0  0
 19 26  1  0  0  0
 19 29  2  0  0  0
 20 28  1  0  0  0
 20 30  2  0  0  0
 21 31  1  0  0  0
 32 21  1  0  0  0
 33 22  1  0  0  0
 26 23  1  0  0  0
 27 24  1  0  0  0
 25 27  1  0  0  0
  1 34  1  0  0  0
  2 35  1  0  0  0
  3 36  1  0  0  0
  4 37  1  0  0  0
  5 38  1  0  0  0
  6 39  1  0  0  0
  7 40  1  0  0  0
  8 41  1  0  0  0
  9 42  1  0  0  0
 10 43  1  0  0  0
 21 44  1  0  0  0
 21 45  1  0  0  0
 22 46  1  0  0  0
 22 47  1  0  0  0
 22 48  1  0  0  0
 23 49  1  0  0  0
 23 50  1  0  0  0
 24 51  1  0  0  0
 24 52  1  0  0  0
 25 53  1  0  0  0
 25 54  1  0  0  0
 26 55  1  0  0  0
 27 56  1  0  0  0
 27 57  1  0  0  0
 28 58  1  0  0  0
M  END
$$$$
