3zls_ligand
  -I-interpret- 

 20 21  0  0  0  0  0  0  0  0999 V2000
  -20.8130   26.5030   -3.0130 C   0  0  0  0  0
  -22.0960   27.0270   -2.9910 C   0  0  0  0  0
  -22.3640   28.3400   -2.8990 N   0  0  0  0  0
  -19.7350   27.3720   -2.9290 C   0  0  0  0  0
  -21.3460   30.5430   -2.7430 N   0  0  0  0  0
  -20.0550   30.9960   -2.7100 C   0  0  0  0  0
  -19.1760   29.9330   -2.7550 C   0  0  0  0  0
  -19.9890   28.7380   -2.8200 C   0  0  0  0  0
  -21.3130   29.1800   -2.8090 C   0  0  0  0  0
  -17.6920   29.9480   -2.7900 C   0  0  0  0  0
  -16.9990   28.9590   -2.8270 O   0  0  0  0  0
  -17.2110   31.1930   -2.8010 O   0  0  0  0  0
  -15.7750   31.3290   -2.6990 C   0  0  0  0  0
  -20.6540   25.4278   -3.0948 H   0  0  0  0  0
  -22.9353   26.3342   -3.0518 H   0  0  0  0  0
  -18.7124   26.9950   -2.9478 H   0  0  0  0  0
  -19.7632   32.0448   -2.6560 H   0  0  0  0  0
  -15.4348   30.8850   -1.7634 H   0  0  0  0  0
  -15.3024   30.8182   -3.5380 H   0  0  0  0  0
  -15.5091   32.3859   -2.7190 H   0  0  0  0  0
  2  1  4  0  0  0
  1  4  4  0  0  0
  3  2  4  0  0  0
  9  3  4  0  0  0
  4  8  4  0  0  0
  5  6  4  0  0  0
  5  9  4  0  0  0
  6  7  4  0  0  0
  7  8  4  0  0  0
  7 10  1  0  0  0
  8  9  4  0  0  0
 10 11  2  0  0  0
 10 12  1  0  0  0
 12 13  1  0  0  0
  1 14  1  0  0  0
  2 15  1  0  0  0
  4 16  1  0  0  0
  6 17  1  0  0  0
 13 18  1  0  0  0
 13 19  1  0  0  0
 13 20  1  0  0  0
M  END
$$$$
