1dis_ligand
  -I-interpret- 

 56 57  0  0  0  0  0  0  0  0999 V2000
   -4.5080   31.2890   21.0300 N   0  0  0  0  0
   -4.4730   30.0400   21.4670 C   0  0  0  0  0
   -5.6070   29.5150   21.9000 N   0  0  0  0  0
   -3.4020   29.2780   21.5780 N   0  0  0  0  0
   -2.2240   29.8070   21.2690 C   0  0  0  0  0
   -1.1440   29.0450   21.4230 N   0  0  0  0  0
   -2.1270   31.1620   20.8330 C   0  0  0  0  0
   -3.3520   31.8580   20.7010 C   0  0  0  0  0
   -0.7980   31.9000   20.6480 C   0  0  0  0  0
   -0.7870   33.4030   20.8140 C   0  0  0  0  0
   -1.2490   34.2080   21.8610 C   0  0  0  0  0
   -1.0620   35.6010   21.8120 C   0  0  0  0  0
   -1.4120   36.5100   22.7860 O   0  0  0  0  0
   -0.4520   36.1620   20.7000 C   0  0  0  0  0
   -0.3200   38.0710   20.5040 Br  0  0  0  0  0
    0.0870   35.3500   19.7160 C   0  0  0  0  0
    0.8040   35.9080   18.6860 O   0  0  0  0  0
   -0.0910   33.9750   19.7780 C   0  0  0  0  0
    2.2090   35.7000   18.8280 C   0  0  0  0  0
   -2.4040   36.3510   23.8110 C   0  0  0  0  0
   -2.8090   37.7880   24.1940 C   0  0  0  0  0
   -3.5080   37.9930   25.5490 C   0  0  0  0  0
   -3.7540   39.4970   25.8430 C   0  0  0  0  0
   -5.1780   39.8790   25.3960 C   0  0  0  0  0
   -5.3820   39.7020   23.8790 C   0  0  0  0  0
   -3.4930   39.9280   27.3040 C   0  0  0  0  0
   -3.2780   41.1390   27.5350 O   0  0  0  0  0
   -3.4890   39.0750   28.2180 O   0  0  0  0  0
   -6.7620   40.1370   23.3630 C   0  0  0  0  0
   -7.4450   39.3130   22.7160 O   0  0  0  0  0
   -7.1600   41.3030   23.5810 O   0  0  0  0  0
   -6.4630   30.0696   21.8884 H   0  0  0  0  0
   -5.6256   28.5555   22.2456 H   0  0  0  0  0
   -1.2388   28.0898   21.7679 H   0  0  0  0  0
   -0.2214   29.4161   21.1961 H   0  0  0  0  0
   -3.3480   32.8801   20.3224 H   0  0  0  0  0
   -0.5125   31.7229   19.6111 H   0  0  0  0  0
   -0.1455   31.5190   21.4336 H   0  0  0  0  0
   -1.7538   33.7555   22.7145 H   0  0  0  0  0
    0.3266   33.3419   18.9951 H   0  0  0  0  0
    2.5494   36.1512   19.7600 H   0  0  0  0  0
    2.4169   34.6301   18.8436 H   0  0  0  0  0
    2.7298   36.1604   17.9884 H   0  0  0  0  0
   -2.0180   35.7967   24.6665 H   0  0  0  0  0
   -3.2569   35.7683   23.4631 H   0  0  0  0  0
   -3.5330   38.0989   23.4409 H   0  0  0  0  0
   -1.8761   38.3481   24.2579 H   0  0  0  0  0
   -2.8663   37.5894   26.3322 H   0  0  0  0  0
   -4.4722   37.4856   25.5194 H   0  0  0  0  0
   -3.0119   40.0467   25.2640 H   0  0  0  0  0
   -5.3381   40.9296   25.6384 H   0  0  0  0  0
   -5.8811   39.2239   25.9104 H   0  0  0  0  0
   -5.2850   38.6371   23.6675 H   0  0  0  0  0
   -4.6442   40.3330   23.3835 H   0  0  0  0  0
   -3.3225   41.6332   26.7132 H   0  0  0  0  0
   -6.4979   41.7759   24.0904 H   0  0  0  0  0
  1  2  4  0  0  0
  8  1  4  0  0  0
  2  3  1  0  0  0
  4  2  4  0  0  0
  5  4  4  0  0  0
  5  6  1  0  0  0
  7  5  4  0  0  0
  7  8  4  0  0  0
  9  7  1  0  0  0
 10  9  1  0  0  0
 10 11  4  0  0  0
 10 18  4  0  0  0
 11 12  4  0  0  0
 12 13  1  0  0  0
 12 14  4  0  0  0
 13 20  1  0  0  0
 14 15  1  0  0  0
 14 16  4  0  0  0
 16 17  1  0  0  0
 16 18  4  0  0  0
 17 19  1  0  0  0
 20 21  1  0  0  0
 21 22  1  0  0  0
 22 23  1  0  0  0
 23 24  1  0  0  0
 23 26  1  0  0  0
 24 25  1  0  0  0
 25 29  1  0  0  0
 26 27  1  0  0  0
 26 28  2  0  0  0
 29 30  2  0  0  0
 29 31  1  0  0  0
  3 32  1  0  0  0
  3 33  1  0  0  0
  6 34  1  0  0  0
  6 35  1  0  0  0
  8 36  1  0  0  0
  9 37  1  0  0  0
  9 38  1  0  0  0
 11 39  1  0  0  0
 18 40  1  0  0  0
 19 41  1  0  0  0
 19 42  1  0  0  0
 19 43  1  0  0  0
 20 44  1  0  0  0
 20 45  1  0  0  0
 21 46  1  0  0  0
 21 47  1  0  0  0
 22 48  1  0  0  0
 22 49  1  0  0  0
 23 50  1  0  0  0
 24 51  1  0  0  0
 24 52  1  0  0  0
 25 53  1  0  0  0
 25 54  1  0  0  0
 27 55  1  0  0  0
 31 56  1  0  0  0
M  END
$$$$
