3pdc_ligand
  -I-interpret- 

 34 36  0  0  0  0  0  0  0  0999 V2000
   12.1640    5.0620   -1.9050 N   0  0  0  0  0
   11.0470    4.7220   -1.2900 C   0  0  0  0  0
   10.9360    5.2690   -0.0340 O   0  0  0  0  0
   12.0590    6.0030    0.1260 C   0  0  0  0  0
   12.4330    6.7600    1.2310 C   0  0  0  0  0
   13.6690    7.4360    1.1300 C   0  0  0  0  0
   14.4520    7.3280   -0.0080 C   0  0  0  0  0
   15.9870    8.1600   -0.1020 Cl  0  0  0  0  0
   14.0230    6.5460   -1.0930 C   0  0  0  0  0
   12.8070    5.8720   -1.0060 C   0  0  0  0  0
   10.0290    3.9040   -1.8050 N   0  0  0  0  0
   10.2710    2.6660   -2.4050 C   0  0  0  0  0
    9.1590    1.6780   -2.0570 C   0  0  0  0  0
    8.7960    0.7110   -3.1740 C   0  0  0  0  0
    8.2630    1.3940   -4.4350 C   0  0  0  0  0
    7.4320    0.3280   -5.1530 C   0  0  0  0  0
    7.0620   -0.7120   -4.1060 C   0  0  0  0  0
    7.6750   -0.2470   -2.7860 C   0  0  0  0  0
   11.2260    2.3720   -3.1240 O   0  0  0  0  0
   11.8092    6.8276    2.1223 H   0  0  0  0  0
   14.0124    8.0526    1.9607 H   0  0  0  0  0
   14.6341    6.4675   -1.9921 H   0  0  0  0  0
    9.0648    4.2298   -1.7377 H   0  0  0  0  0
    8.2666    2.2665   -1.8441 H   0  0  0  0  0
    9.5181    1.0773   -1.2213 H   0  0  0  0  0
    9.7425    0.2027   -3.3582 H   0  0  0  0  0
    9.0734    1.7615   -5.0645 H   0  0  0  0  0
    7.6647    2.2723   -4.1925 H   0  0  0  0  0
    7.9980   -0.1237   -5.9677 H   0  0  0  0  0
    6.5393    0.7656   -5.5998 H   0  0  0  0  0
    7.4420   -1.6948   -4.3848 H   0  0  0  0  0
    5.9796   -0.8060   -4.0188 H   0  0  0  0  0
    6.9349    0.2399   -2.1510 H   0  0  0  0  0
    8.0511   -1.0870   -2.2020 H   0  0  0  0  0
  1  2  4  0  0  0
  1 10  4  0  0  0
  2  3  4  0  0  0
  2 11  1  0  0  0
  3  4  4  0  0  0
  4  5  4  0  0  0
  4 10  4  0  0  0
  5  6  4  0  0  0
  6  7  4  0  0  0
  7  8  1  0  0  0
  7  9  4  0  0  0
  9 10  4  0  0  0
 11 12  1  0  0  0
 12 13  1  0  0  0
 12 19  2  0  0  0
 13 14  1  0  0  0
 14 15  1  0  0  0
 14 18  1  0  0  0
 15 16  1  0  0  0
 16 17  1  0  0  0
 17 18  1  0  0  0
  5 20  1  0  0  0
  6 21  1  0  0  0
  9 22  1  0  0  0
 11 23  1  0  0  0
 13 24  1  0  0  0
 13 25  1  0  0  0
 14 26  1  0  0  0
 15 27  1  0  0  0
 15 28  1  0  0  0
 16 29  1  0  0  0
 16 30  1  0  0  0
 17 31  1  0  0  0
 17 32  1  0  0  0
 18 33  1  0  0  0
 18 34  1  0  0  0
M  END
$$$$
