1him_ligand
  -I-interpret- 

124126  0  0  0  0  0  0  0  0999 V2000
   -9.0710   28.1080  -33.5750 N   0  3  0  0  0
  -10.4490   28.0310  -33.1360 C   0  0  0  0  0
  -10.2130   27.5100  -31.7190 C   0  0  0  0  0
   -9.2180   26.8230  -31.5070 O   0  0  0  0  0
  -11.1300   27.0790  -34.1570 C   0  0  0  0  0
  -12.5830   26.6380  -33.9680 C   0  0  0  0  0
  -13.5510   27.4600  -33.4030 C   0  0  0  0  0
  -12.9210   25.3540  -34.3640 C   0  0  0  0  0
  -14.8460   26.9910  -33.2360 C   0  0  0  0  0
  -14.2160   24.8800  -34.1950 C   0  0  0  0  0
  -15.1730   25.7040  -33.6310 C   0  0  0  0  0
  -16.4710   25.2530  -33.4680 O   0  0  0  0  0
  -11.0040   27.8860  -30.7240 N   0  0  0  0  0
  -10.7880   27.5170  -29.3330 C   0  0  0  0  0
  -12.1370   27.2420  -28.7690 C   0  0  0  0  0
  -12.9460   28.1480  -28.6740 O   0  0  0  0  0
  -10.1970   28.6390  -28.5130 C   0  0  0  0  0
   -9.9400   28.2310  -27.0780 C   0  0  0  0  0
   -9.8730   27.0400  -26.8080 O   0  0  0  0  0
   -9.7800   29.1000  -26.2300 O   0  0  0  0  0
  -12.3440   26.0210  -28.3640 N   0  0  0  0  0
  -13.6730   25.6250  -27.9490 C   0  0  0  0  0
  -13.8590   25.4290  -26.4420 C   0  0  0  0  0
  -12.8960   25.1820  -25.7080 O   0  0  0  0  0
  -14.0740   24.3260  -28.7820 C   0  0  0  0  0
  -14.3980   24.7940  -30.1920 C   0  0  0  0  0
  -12.9600   23.2720  -28.8700 C   0  0  0  0  0
  -15.0610   25.6500  -25.9210 N   0  0  0  0  0
  -15.4200   25.3330  -24.5450 C   0  0  0  0  0
  -15.3490   23.8430  -24.2230 C   0  0  0  0  0
  -15.4610   23.0150  -25.1250 O   0  0  0  0  0
  -16.8420   25.9310  -24.3920 C   0  0  0  0  0
  -17.4110   25.9120  -25.7930 C   0  0  0  0  0
  -16.1610   26.3410  -26.5780 C   0  0  0  0  0
  -15.2320   23.4260  -22.9750 N   0  0  0  0  0
  -15.2610   22.0030  -22.6920 C   0  0  0  0  0
  -16.6890   21.5000  -22.7960 C   0  0  0  0  0
  -17.6310   22.1940  -22.4260 O   0  0  0  0  0
  -14.7590   21.7400  -21.3050 C   0  0  0  0  0
  -14.4090   20.3020  -21.0710 C   0  0  0  0  0
  -13.3130   19.9640  -21.4610 O   0  0  0  0  0
  -15.1810   19.5580  -20.4880 O   0  0  0  0  0
  -16.9090   20.2620  -23.2120 N   0  0  0  0  0
  -18.2650   19.7260  -23.3430 C   0  0  0  0  0
  -18.9810   19.6340  -22.0090 C   0  0  0  0  0
  -20.2050   19.6530  -21.9180 O   0  0  0  0  0
  -18.2310   18.3140  -24.0360 C   0  0  0  0  0
  -17.2190   17.2170  -23.6080 C   0  0  0  0  0
  -15.8950   17.3040  -23.9690 C   0  0  0  0  0
  -17.6540   16.1640  -22.8380 C   0  0  0  0  0
  -15.0340   16.3610  -23.5420 C   0  0  0  0  0
  -16.7880   15.2110  -22.4210 C   0  0  0  0  0
  -15.4910   15.3180  -22.7700 C   0  0  0  0  0
  -14.5930   14.3580  -22.3350 O   0  0  0  0  0
  -18.1920   19.5270  -20.9580 N   0  0  0  0  0
  -18.7740   19.3680  -19.6570 C   0  0  0  0  0
  -18.9860   20.7570  -18.9540 C   0  0  0  0  0
  -19.3070   20.8710  -17.7600 O   0  0  0  0  0
  -17.7880   18.3710  -19.0120 C   0  0  0  0  0
  -18.7920   21.8890  -19.6310 N   0  0  0  0  0
  -18.9300   23.2320  -19.0590 C   0  0  0  0  0
  -20.4220   23.6040  -19.1410 C   0  0  0  0  0
  -21.1980   23.2690  -18.2330 O   0  0  0  0  0
  -18.0160   24.1420  -19.8950 C   0  0  0  0  0
  -18.2930   25.5220  -19.9700 O   0  0  0  0  0
  -20.8170   24.1860  -20.1490 N   0  0  0  0  0
   -8.5498   28.7219  -32.9490 H   0  0  0  0  0
   -8.6581   27.1754  -33.5602 H   0  0  0  0  0
   -9.0380   28.4807  -34.5239 H   0  0  0  0  0
  -11.0977   28.9064  -33.1038 H   0  0  0  0  0
  -10.5590   26.1538  -34.0800 H   0  0  0  0  0
  -11.1439   27.6503  -35.0852 H   0  0  0  0  0
  -13.2929   28.4721  -33.0914 H   0  0  0  0  0
  -12.1642   24.7101  -34.8121 H   0  0  0  0  0
  -15.6062   27.6351  -32.7940 H   0  0  0  0  0
  -14.4755   23.8675  -34.5042 H   0  0  0  0  0
  -16.5372   24.3499  -33.7868 H   0  0  0  0  0
  -11.8115   28.4682  -30.9464 H   0  0  0  0  0
  -10.0983   26.6737  -29.2979 H   0  0  0  0  0
  -10.9095   29.4639  -28.5068 H   0  0  0  0  0
   -9.2430   28.9177  -28.9606 H   0  0  0  0  0
   -9.8710   29.9642  -26.6379 H   0  0  0  0  0
  -11.5762   25.3500  -28.3396 H   0  0  0  0  0
  -14.3477   26.4532  -28.1658 H   0  0  0  0  0
  -14.9118   23.8473  -28.2750 H   0  0  0  0  0
  -15.2248   25.5035  -30.1570 H   0  0  0  0  0
  -13.5213   25.2768  -30.6236 H   0  0  0  0  0
  -14.6794   23.9360  -30.8026 H   0  0  0  0  0
  -12.0862   23.7083  -29.3539 H   0  0  0  0  0
  -12.6939   22.9417  -27.8659 H   0  0  0  0  0
  -13.3122   22.4207  -29.4525 H   0  0  0  0  0
  -14.7150   25.7542  -23.8283 H   0  0  0  0  0
  -16.8202   26.9369  -23.9726 H   0  0  0  0  0
  -17.4536   25.3593  -23.6940 H   0  0  0  0  0
  -18.2826   26.5499  -25.9397 H   0  0  0  0  0
  -17.8359   24.9562  -26.0995 H   0  0  0  0  0
  -16.2334   26.0810  -27.6341 H   0  0  0  0  0
  -16.0259   27.4226  -26.5705 H   0  0  0  0  0
  -15.1222   24.0989  -22.2163 H   0  0  0  0  0
  -14.6243   21.4883  -23.4116 H   0  0  0  0  0
  -15.5543   22.0055  -20.6085 H   0  0  0  0  0
  -13.8531   22.3293  -21.1627 H   0  0  0  0  0
  -15.9852   20.0368  -20.2743 H   0  0  0  0  0
  -16.1142   19.6674  -23.4469 H   0  0  0  0  0
  -18.8255   20.4234  -23.9655 H   0  0  0  0  0
  -17.9486   18.5383  -25.0646 H   0  0  0  0  0
  -19.2003   17.8816  -23.7880 H   0  0  0  0  0
  -15.5466   18.1267  -24.5935 H   0  0  0  0  0
  -18.7060   16.0961  -22.5609 H   0  0  0  0  0
  -13.9786   16.4237  -23.8071 H   0  0  0  0  0
  -17.1331   14.3734  -21.8148 H   0  0  0  0  0
  -15.0575   13.7008  -21.8116 H   0  0  0  0  0
  -17.1785   19.5570  -21.0691 H   0  0  0  0  0
  -19.7907   18.9780  -19.6102 H   0  0  0  0  0
  -17.7697   17.4508  -19.5960 H   0  0  0  0  0
  -16.7905   18.8100  -18.9919 H   0  0  0  0  0
  -18.1099   18.1505  -17.9942 H   0  0  0  0  0
  -18.5297   21.8158  -20.6140 H   0  0  0  0  0
  -18.6334   23.3191  -18.0138 H   0  0  0  0  0
  -18.1265   23.7813  -20.9176 H   0  0  0  0  0
  -17.0432   24.0809  -19.4072 H   0  0  0  0  0
  -17.6368   25.9492  -20.5254 H   0  0  0  0  0
  -21.8072   24.4062  -20.2557 H   0  0  0  0  0
  -20.1546   24.4488  -20.8788 H   0  0  0  0  0
  1  2  1  0  0  0
  2  3  1  0  0  0
  2  5  1  0  0  0
  3  4  2  0  0  0
  3 13  1  0  0  0
  5  6  1  0  0  0
  6  7  4  0  0  0
  6  8  4  0  0  0
  7  9  4  0  0  0
  8 10  4  0  0  0
  9 11  4  0  0  0
 10 11  4  0  0  0
 11 12  1  0  0  0
 13 14  1  0  0  0
 14 15  1  0  0  0
 14 17  1  0  0  0
 15 16  2  0  0  0
 15 21  1  0  0  0
 17 18  1  0  0  0
 18 19  2  0  0  0
 18 20  1  0  0  0
 21 22  1  0  0  0
 22 23  1  0  0  0
 22 25  1  0  0  0
 23 24  2  0  0  0
 23 28  1  0  0  0
 25 26  1  0  0  0
 25 27  1  0  0  0
 28 29  1  0  0  0
 28 34  1  0  0  0
 29 30  1  0  0  0
 29 32  1  0  0  0
 30 31  2  0  0  0
 30 35  1  0  0  0
 32 33  1  0  0  0
 33 34  1  0  0  0
 35 36  1  0  0  0
 36 37  1  0  0  0
 36 39  1  0  0  0
 37 38  2  0  0  0
 37 43  1  0  0  0
 39 40  1  0  0  0
 40 41  2  0  0  0
 40 42  1  0  0  0
 43 44  1  0  0  0
 44 45  1  0  0  0
 44 47  1  0  0  0
 45 46  2  0  0  0
 45 55  1  0  0  0
 47 48  1  0  0  0
 48 49  4  0  0  0
 48 50  4  0  0  0
 49 51  4  0  0  0
 50 52  4  0  0  0
 51 53  4  0  0  0
 52 53  4  0  0  0
 53 54  1  0  0  0
 55 56  1  0  0  0
 56 57  1  0  0  0
 56 59  1  0  0  0
 57 58  2  0  0  0
 57 60  1  0  0  0
 60 61  1  0  0  0
 61 62  1  0  0  0
 61 64  1  0  0  0
 62 63  2  0  0  0
 62 66  1  0  0  0
 64 65  1  0  0  0
  1 67  1  0  0  0
  1 68  1  0  0  0
  1 69  1  0  0  0
  2 70  1  0  0  0
  5 71  1  0  0  0
  5 72  1  0  0  0
  7 73  1  0  0  0
  8 74  1  0  0  0
  9 75  1  0  0  0
 10 76  1  0  0  0
 12 77  1  0  0  0
 13 78  1  0  0  0
 14 79  1  0  0  0
 17 80  1  0  0  0
 17 81  1  0  0  0
 20 82  1  0  0  0
 21 83  1  0  0  0
 22 84  1  0  0  0
 25 85  1  0  0  0
 26 86  1  0  0  0
 26 87  1  0  0  0
 26 88  1  0  0  0
 27 89  1  0  0  0
 27 90  1  0  0  0
 27 91  1  0  0  0
 29 92  1  0  0  0
 32 93  1  0  0  0
 32 94  1  0  0  0
 33 95  1  0  0  0
 33 96  1  0  0  0
 34 97  1  0  0  0
 34 98  1  0  0  0
 35 99  1  0  0  0
 36100  1  0  0  0
 39101  1  0  0  0
 39102  1  0  0  0
 42103  1  0  0  0
 43104  1  0  0  0
 44105  1  0  0  0
 47106  1  0  0  0
 47107  1  0  0  0
 49108  1  0  0  0
 50109  1  0  0  0
 51110  1  0  0  0
 52111  1  0  0  0
 54112  1  0  0  0
 55113  1  0  0  0
 56114  1  0  0  0
 59115  1  0  0  0
 59116  1  0  0  0
 59117  1  0  0  0
 60118  1  0  0  0
 61119  1  0  0  0
 64120  1  0  0  0
 64121  1  0  0  0
 65122  1  0  0  0
 66123  1  0  0  0
 66124  1  0  0  0
M  END
$$$$
