### 
### Created by X-TOOL on Mon Sep 10 21:12:45 2018
### 

@<TRIPOS>MOLECULE
1him_ligand
  122   124     1     0     0
SMALL
GAST_HUCK


@<TRIPOS>ATOM
      1 N          -9.0710   28.1080  -33.5750 N.4       1 TYR         0.2392
      2 CA        -10.4490   28.0310  -33.1360 C.3       1 TYR         0.0730
      3 C         -10.2130   27.5100  -31.7190 C.2       1 TYR         0.2286
      4 O          -9.2180   26.8230  -31.5070 O.2       1 TYR        -0.3905
      5 CB        -11.1300   27.0790  -34.1570 C.3       1 TYR         0.0365
      6 CG        -12.5830   26.6380  -33.9680 C.ar      1 TYR        -0.0460
      7 CD1       -13.5510   27.4600  -33.4030 C.ar      1 TYR        -0.0684
      8 CD2       -12.9210   25.3540  -34.3640 C.ar      1 TYR        -0.0684
      9 CE1       -14.8460   26.9910  -33.2360 C.ar      1 TYR        -0.0398
     10 CE2       -14.2160   24.8800  -34.1950 C.ar      1 TYR        -0.0398
     11 CZ        -15.1730   25.7040  -33.6310 C.ar      1 TYR         0.0805
     12 OH        -16.4710   25.2530  -33.4680 O.3       1 TYR        -0.3376
     13 N         -11.0040   27.8860  -30.7240 N.am      1 ASP        -0.2593
     14 CA        -10.7880   27.5170  -29.3330 C.3       1 ASP         0.1424
     15 C         -12.1370   27.2420  -28.7690 C.2       1 ASP         0.2056
     16 O         -12.9460   28.1480  -28.6740 O.2       1 ASP        -0.3943
     17 CB        -10.1970   28.6390  -28.5130 C.3       1 ASP         0.0406
     18 CG         -9.9400   28.2310  -27.0780 C.2       1 ASP         0.0393
     19 OD1        -9.8730   27.0400  -26.8080 O.co2     1 ASP        -0.5688
     20 OD2        -9.7800   29.1000  -26.2300 O.co2     1 ASP        -0.5688
     21 N         -12.3440   26.0210  -28.3640 N.am      1 VAL        -0.2634
     22 CA        -13.6730   25.6250  -27.9490 C.3       1 VAL         0.1334
     23 C         -13.8590   25.4290  -26.4420 C.2       1 VAL         0.2066
     24 O         -12.8960   25.1820  -25.7080 O.2       1 VAL        -0.3942
     25 CB        -14.0740   24.3260  -28.7820 C.3       1 VAL        -0.0062
     26 CG1       -14.3980   24.7940  -30.1920 C.3       1 VAL        -0.0584
     27 CG2       -12.9600   23.2720  -28.8700 C.3       1 VAL        -0.0584
     28 N         -15.0610   25.6500  -25.9210 N.am      1 PRO        -0.2498
     29 CA        -15.4200   25.3330  -24.5450 C.3       1 PRO         0.1338
     30 C         -15.3490   23.8430  -24.2230 C.2       1 PRO         0.2042
     31 O         -15.4610   23.0150  -25.1250 O.2       1 PRO        -0.3944
     32 CB        -16.8420   25.9310  -24.3920 C.3       1 PRO        -0.0104
     33 CG        -17.4110   25.9120  -25.7930 C.3       1 PRO        -0.0281
     34 CD        -16.1610   26.3410  -26.5780 C.3       1 PRO         0.0369
     35 N         -15.2320   23.4260  -22.9750 N.am      1 ASP        -0.2622
     36 CA        -15.2610   22.0030  -22.6920 C.3       1 ASP         0.1423
     37 C         -16.6890   21.5000  -22.7960 C.2       1 ASP         0.2057
     38 O         -17.6310   22.1940  -22.4260 O.2       1 ASP        -0.3943
     39 CB        -14.7590   21.7400  -21.3050 C.3       1 ASP         0.0406
     40 CG        -14.4090   20.3020  -21.0710 C.2       1 ASP         0.0393
     41 OD1       -13.3130   19.9640  -21.4610 O.co2     1 ASP        -0.5688
     42 OD2       -15.1810   19.5580  -20.4880 O.co2     1 ASP        -0.5688
     43 N         -16.9090   20.2620  -23.2120 N.am      1 TYR        -0.2620
     44 CA        -18.2650   19.7260  -23.3430 C.3       1 TYR         0.1390
     45 C         -18.9810   19.6340  -22.0090 C.2       1 TYR         0.2057
     46 O         -20.2050   19.6530  -21.9180 O.2       1 TYR        -0.3942
     47 CB        -18.2310   18.3140  -24.0360 C.3       1 TYR         0.0163
     48 CG        -17.2190   17.2170  -23.6080 C.ar      1 TYR        -0.0493
     49 CD1       -15.8950   17.3040  -23.9690 C.ar      1 TYR        -0.0685
     50 CD2       -17.6540   16.1640  -22.8380 C.ar      1 TYR        -0.0685
     51 CE1       -15.0340   16.3610  -23.5420 C.ar      1 TYR        -0.0398
     52 CE2       -16.7880   15.2110  -22.4210 C.ar      1 TYR        -0.0398
     53 CZ        -15.4910   15.3180  -22.7700 C.ar      1 TYR         0.0805
     54 OH        -14.5930   14.3580  -22.3350 O.3       1 TYR        -0.3376
     55 N         -18.1920   19.5270  -20.9580 N.am      1 ALA        -0.2639
     56 CA        -18.7740   19.3680  -19.6570 C.3       1 ALA         0.1282
     57 C         -18.9860   20.7570  -18.9540 C.2       1 ALA         0.2037
     58 O         -19.3070   20.8710  -17.7600 O.2       1 ALA        -0.3944
     59 CB        -17.7880   18.3710  -19.0120 C.3       1 ALA        -0.0244
     60 N         -18.7920   21.8890  -19.6310 N.am      1 SER        -0.2616
     61 CA        -18.9300   23.2320  -19.0590 C.3       1 SER         0.1536
     62 C         -20.4220   23.6040  -19.1410 C.2       1 SER         0.2015
     63 O         -21.1980   23.2690  -18.2330 O.2       1 SER        -0.3947
     64 CB        -18.0160   24.1420  -19.8950 C.3       1 SER         0.0843
     65 OG        -18.2930   25.5220  -19.9700 O.3       1 SER        -0.3903
     66 N         -20.8170   24.1860  -20.1490 N.am      1 NH2        -0.2989
     67 H1         -9.0391   28.4459  -34.5241 H         1 TYR         0.2017
     68 H2         -8.6524   27.1921  -33.5302 H         1 TYR         0.2017
     69 H3         -8.5624   28.7396  -32.9763 H         1 TYR         0.2017
     70 H4        -10.9687   29.0003  -33.1201 H         1 TYR         0.1120
     71 H5        -10.5243   26.1611  -34.1825 H         1 TYR         0.0486
     72 H6        -11.0787   27.5795  -35.1352 H         1 TYR         0.0486
     73 H7        -13.2944   28.4666  -33.0931 H         1 TYR         0.0530
     74 H8        -12.1684   24.7136  -34.8096 H         1 TYR         0.0530
     75 H9        -15.6020   27.6316  -32.7964 H         1 TYR         0.0525
     76 H10       -14.4741   23.8731  -34.5025 H         1 TYR         0.0525
     77 H11       -16.9953   25.9377  -33.0695 H         1 TYR         0.2458
     78 H12       -11.7957   28.4567  -30.9420 H         1 ASP         0.1886
     79 H13       -10.1412   26.6292  -29.2744 H         1 ASP         0.0819
     80 H14       -10.8968   29.4877  -28.5191 H         1 ASP         0.0478
     81 H15        -9.2443   28.9460  -28.9690 H         1 ASP         0.0478
     82 H16       -11.5912   25.3631  -28.3401 H         1 VAL         0.1883
     83 H17       -14.3580   26.4348  -28.2406 H         1 VAL         0.0803
     84 H18       -14.9605   23.8649  -28.3220 H         1 VAL         0.0343
     85 H19       -14.6822   23.9290  -30.8092 H         1 VAL         0.0234
     86 H20       -13.5139   25.2815  -30.6288 H         1 VAL         0.0234
     87 H21       -15.2323   25.5101  -30.1581 H         1 VAL         0.0234
     88 H22       -12.7090   22.9186  -27.8590 H         1 VAL         0.0234
     89 H23       -12.0684   23.7187  -29.3341 H         1 VAL         0.0234
     90 H24       -13.3049   22.4239  -29.4797 H         1 VAL         0.0234
     91 H25       -14.7316   25.8506  -23.8608 H         1 PRO         0.0802
     92 H26       -16.7921   26.9599  -24.0062 H         1 PRO         0.0313
     93 H27       -17.4526   25.3149  -23.7156 H         1 PRO         0.0313
     94 H28       -18.2363   26.6296  -25.9109 H         1 PRO         0.0287
     95 H29       -17.7538   24.9080  -26.0835 H         1 PRO         0.0287
     96 H30       -16.2392   26.0336  -27.6312 H         1 PRO         0.0524
     97 H31       -16.0231   27.4309  -26.5234 H         1 PRO         0.0524
     98 H32       -15.1243   24.0857  -22.2312 H         1 ASP         0.1884
     99 H33       -14.6274   21.4732  -23.4185 H         1 ASP         0.0819
    100 H34       -15.5409   22.0313  -20.5883 H         1 ASP         0.0478
    101 H35       -13.8603   22.3513  -21.1359 H         1 ASP         0.0478
    102 H36       -16.1298   19.6791  -23.4423 H         1 TYR         0.1885
    103 H37       -18.8367   20.4115  -23.9859 H         1 TYR         0.0821
    104 H38       -18.0521   18.4990  -25.1055 H         1 TYR         0.0453
    105 H39       -19.2326   17.8796  -23.9015 H         1 TYR         0.0453
    106 H40       -15.5485   18.1221  -24.5900 H         1 TYR         0.0530
    107 H41       -18.7002   16.0965  -22.5624 H         1 TYR         0.0530
    108 H42       -13.9844   16.4234  -23.8056 H         1 TYR         0.0525
    109 H43       -17.1312   14.3780  -21.8181 H         1 TYR         0.0525
    110 H44       -14.5826   14.3430  -21.3852 H         1 TYR         0.2458
    111 H45       -17.1984   19.5564  -21.0669 H         1 ALA         0.1883
    112 H46       -19.7627   18.8923  -19.7351 H         1 ALA         0.0797
    113 H47       -18.1119   18.1477  -17.9847 H         1 ALA         0.0277
    114 H48       -16.7809   18.8129  -18.9910 H         1 ALA         0.0277
    115 H49       -17.7686   17.4418  -19.6004 H         1 ALA         0.0277
    116 H50       -18.5348   21.8173  -20.5947 H         1 SER         0.1884
    117 H51       -18.6062   23.2487  -18.0079 H         1 SER         0.0823
    118 H52       -18.0344   23.7554  -20.9246 H         1 SER         0.0606
    119 H53       -17.0009   24.0412  -19.4836 H         1 SER         0.0606
    120 H54       -17.6436   25.9448  -20.5196 H         1 SER         0.2097
    121 H55       -21.7800   24.4417  -20.2337 H         1 NH2         0.1815
    122 H56       -20.1753   24.4038  -20.8844 H         1 NH2         0.1815
@<TRIPOS>BOND
     1    1    2 1  
     2    2    3 1  
     3    2    5 1  
     4    3    4 2  
     5    3   13 am 
     6    5    6 1  
     7    6    7 ar 
     8    6    8 ar 
     9    7    9 ar 
    10    8   10 ar 
    11    9   11 ar 
    12   10   11 ar 
    13   11   12 1  
    14   13   14 1  
    15   14   15 1  
    16   14   17 1  
    17   15   16 2  
    18   15   21 am 
    19   17   18 1  
    20   18   19 ar 
    21   18   20 ar 
    22   21   22 1  
    23   22   23 1  
    24   22   25 1  
    25   23   24 2  
    26   23   28 am 
    27   25   26 1  
    28   25   27 1  
    29   28   29 1  
    30   28   34 1  
    31   29   30 1  
    32   29   32 1  
    33   30   31 2  
    34   30   35 am 
    35   32   33 1  
    36   33   34 1  
    37   35   36 1  
    38   36   37 1  
    39   36   39 1  
    40   37   38 2  
    41   37   43 am 
    42   39   40 1  
    43   40   41 ar 
    44   40   42 ar 
    45   43   44 1  
    46   44   45 1  
    47   44   47 1  
    48   45   46 2  
    49   45   55 am 
    50   47   48 1  
    51   48   49 ar 
    52   48   50 ar 
    53   49   51 ar 
    54   50   52 ar 
    55   51   53 ar 
    56   52   53 ar 
    57   53   54 1  
    58   55   56 1  
    59   56   57 1  
    60   56   59 1  
    61   57   58 2  
    62   57   60 am 
    63   60   61 1  
    64   61   62 1  
    65   61   64 1  
    66   62   63 2  
    67   62   66 am 
    68   64   65 1  
    69    1   67 1  
    70    1   68 1  
    71    1   69 1  
    72    2   70 1  
    73    5   71 1  
    74    5   72 1  
    75    7   73 1  
    76    8   74 1  
    77    9   75 1  
    78   10   76 1  
    79   12   77 1  
    80   13   78 1  
    81   14   79 1  
    82   17   80 1  
    83   17   81 1  
    84   21   82 1  
    85   22   83 1  
    86   25   84 1  
    87   26   85 1  
    88   26   86 1  
    89   26   87 1  
    90   27   88 1  
    91   27   89 1  
    92   27   90 1  
    93   29   91 1  
    94   32   92 1  
    95   32   93 1  
    96   33   94 1  
    97   33   95 1  
    98   34   96 1  
    99   34   97 1  
   100   35   98 1  
   101   36   99 1  
   102   39  100 1  
   103   39  101 1  
   104   43  102 1  
   105   44  103 1  
   106   47  104 1  
   107   47  105 1  
   108   49  106 1  
   109   50  107 1  
   110   51  108 1  
   111   52  109 1  
   112   54  110 1  
   113   55  111 1  
   114   56  112 1  
   115   59  113 1  
   116   59  114 1  
   117   59  115 1  
   118   60  116 1  
   119   61  117 1  
   120   64  118 1  
   121   64  119 1  
   122   65  120 1  
   123   66  121 1  
   124   66  122 1  
@<TRIPOS>SUBSTRUCTURE
     1 TYR         1

