1v2m_ligand
  -I-interpret- 

 17 17  0  0  0  0  0  0  0  0999 V2000
   45.8770   19.4370   52.7480 C   0  0  0  0  0
   45.3820   19.1490   51.4270 C   0  0  0  0  0
   45.0350   20.2130   50.5380 C   0  0  0  0  0
   45.1770   21.5720   50.9610 C   0  0  0  0  0
   45.6660   21.8710   52.2680 C   0  0  0  0  0
   46.0150   20.8130   53.1610 C   0  0  0  0  0
   46.2480   18.3040   53.6970 C   0  0  0  0  0
   47.1550   18.5050   54.6200 N   0  0  0  0  0
   45.6580   17.1450   53.5760 N   0  0  0  0  0
   45.2713   18.1141   51.1032 H   0  0  0  0  0
   44.6624   19.9890   49.5384 H   0  0  0  0  0
   44.9107   22.3824   50.2825 H   0  0  0  0  0
   45.7732   22.9084   52.5849 H   0  0  0  0  0
   46.3872   21.0455   54.1588 H   0  0  0  0  0
   47.4099   17.7506   55.2574 H   0  0  0  0  0
   47.6066   19.4160   54.7015 H   0  0  0  0  0
   45.9017   16.3804   54.2057 H   0  0  0  0  0
  1  2  4  0  0  0
  1  6  4  0  0  0
  1  7  1  0  0  0
  2  3  4  0  0  0
  3  4  4  0  0  0
  4  5  4  0  0  0
  5  6  4  0  0  0
  7  8  1  0  0  0
  7  9  2  0  0  0
  2 10  1  0  0  0
  3 11  1  0  0  0
  4 12  1  0  0  0
  5 13  1  0  0  0
  6 14  1  0  0  0
  8 15  1  0  0  0
  8 16  1  0  0  0
  9 17  1  0  0  0
M  END
$$$$
