4jhq_ligand
  -I-interpret- 

 81 91  0  0  0  0  0  0  0  0999 V2000
    4.0260   -6.2680   -7.3020 C   0  0  0  0  0
   -0.3370  -12.0720    0.1430 N   0  0  0  0  0
    2.7090   -9.9120   -0.9120 S   0  0  0  0  0
    1.7210  -10.5000   -2.3300 C   0  0  0  0  0
    0.6500  -12.7710   -1.6510 N   0  0  0  0  0
   -0.0360  -13.1630   -0.5580 C   0  0  0  0  0
    3.5140    0.5330   -7.1270 N   0  0  0  0  0
   -0.3500  -14.3160   -0.2180 O   0  0  0  0  0
    0.5510  -11.3230   -1.7860 C   0  0  0  0  0
    0.2950  -10.8860   -0.3690 C   0  0  0  0  0
    1.5990  -10.5590    0.2930 C   0  0  0  0  0
    2.3560  -11.1950   -3.5240 C   0  0  0  0  0
    3.3600  -10.2550   -4.1410 C   0  0  0  0  0
    4.0600  -10.7730   -5.4000 C   0  0  0  0  0
    5.0270   -9.7990   -6.0580 C   0  0  0  0  0
    4.2660   -8.5750   -6.5480 C   0  0  0  0  0
    3.0600   -8.6490   -6.6460 O   0  0  0  0  0
    4.6020   -4.8620   -7.3670 C   0  0  0  0  0
    4.2920   -4.0710   -8.6770 C   0  0  0  0  0
    3.1990   -2.9750   -8.6460 C   0  0  0  0  0
    3.3900   -1.8480   -7.6230 C   0  0  0  0  0
    2.9990   -0.4130   -7.9580 C   0  0  0  0  0
    2.2500   -0.1580   -8.9090 O   0  0  0  0  0
    3.2930    1.9740   -7.2310 C   0  0  0  0  0
    3.3640    2.5160   -8.6680 C   0  0  0  0  0
    2.0120    2.4420   -9.4040 C   0  0  0  0  0
    1.7020    3.6090  -10.3460 C   0  0  0  0  0
    2.8410    3.9090  -11.3450 C   0  0  0  0  0
    2.6750    3.2990  -12.7390 C   0  0  0  0  0
    1.5730    3.0600  -13.1890 O   0  0  0  0  0
    3.8860    2.9920  -13.5700 C   0  0  0  0  0
    4.0070    1.9560  -14.4910 C   0  0  0  0  0
    5.2670    2.0160  -15.0580 C   0  0  0  0  0
    5.9240    3.0880  -14.4940 C   0  0  0  0  0
    5.0800    3.6910  -13.5800 C   0  0  0  0  0
    5.5170   -0.1690  -12.6480 C   0  0  0  0  0
    4.7340    0.4960  -11.7270 C   0  0  0  0  0
    5.5220    1.4520  -11.1180 C   0  0  0  0  0
    6.7770    1.3650  -11.6690 C   0  0  0  0  0
    4.9230   -7.3710   -6.8600 N   0  0  0  0  0
    6.7760    0.3690  -12.6150 C   0  0  0  0  0
    5.4230    1.7790  -13.0850 Fe  0  0  0  0  0
    3.7481   -6.5143   -8.3268 H   0  0  0  0  0
    3.2343   -6.2219   -6.5542 H   0  0  0  0  0
   -0.9511  -12.0768    0.9574 H   0  0  0  0  0
    1.4499   -9.5617   -2.8139 H   0  0  0  0  0
    1.1578  -13.3899   -2.2831 H   0  0  0  0  0
    4.1071    0.2077   -6.3635 H   0  0  0  0  0
   -0.1989  -11.1359   -2.5546 H   0  0  0  0  0
   -0.3063   -9.9884   -0.2250 H   0  0  0  0  0
    1.4373   -9.8199    1.0776 H   0  0  0  0  0
    2.0224  -11.4607    0.7356 H   0  0  0  0  0
    1.5906  -11.4562   -4.2548 H   0  0  0  0  0
    2.8507  -12.1117   -3.2030 H   0  0  0  0  0
    4.1388  -10.0989   -3.3946 H   0  0  0  0  0
    2.8087   -9.3625   -4.4371 H   0  0  0  0  0
    3.2766  -10.9747   -6.1306 H   0  0  0  0  0
    4.6493  -11.6376   -5.0947 H   0  0  0  0  0
    5.5117  -10.2863   -6.9040 H   0  0  0  0  0
    5.7796   -9.4906   -5.3324 H   0  0  0  0  0
    5.6857   -4.9670   -7.3160 H   0  0  0  0  0
    4.1475   -4.3015   -6.5501 H   0  0  0  0  0
    3.9216   -4.8193   -9.3777 H   0  0  0  0  0
    5.2155   -3.5421   -8.9127 H   0  0  0  0  0
    2.2729   -3.4795   -8.3704 H   0  0  0  0  0
    3.2198   -2.4997   -9.6267 H   0  0  0  0  0
    4.4692   -1.8019   -7.4773 H   0  0  0  0  0
    2.7260   -2.1193   -6.8022 H   0  0  0  0  0
    4.0827    2.4640   -6.6615 H   0  0  0  0  0
    2.2881    2.1745   -6.8593 H   0  0  0  0  0
    4.0775    1.9041   -9.2199 H   0  0  0  0  0
    3.6570    3.5645   -8.6144 H   0  0  0  0  0
    1.2409    2.4546   -8.6338 H   0  0  0  0  0
    2.0476    1.5464  -10.0243 H   0  0  0  0  0
    1.5603    4.4985   -9.7321 H   0  0  0  0  0
    0.8192    3.3384  -10.9253 H   0  0  0  0  0
    3.7464    3.4737  -10.9222 H   0  0  0  0  0
    2.8576    4.9905  -11.4801 H   0  0  0  0  0
    5.1257    4.7558  -13.3514 H   0  0  0  0  0
    5.9347   -7.2621   -6.7890 H   0  0  0  0  0
    7.6675   -0.2100  -12.8562 H   0  0  0  0  0
 18  1  1  0  0  0
  1 40  1  0  0  0
  2  6  1  0  0  0
 10  2  1  0  0  0
  4  3  1  0  0  0
  3 11  1  0  0  0
  4  9  1  0  0  0
 12  4  1  0  0  0
  5  6  1  0  0  0
  9  5  1  0  0  0
  6  8  2  0  0  0
  7 22  1  0  0  0
 24  7  1  0  0  0
  9 10  1  0  0  0
 10 11  1  0  0  0
 13 12  1  0  0  0
 14 13  1  0  0  0
 15 14  1  0  0  0
 16 15  1  0  0  0
 16 17  2  0  0  0
 40 16  1  0  0  0
 19 18  1  0  0  0
 20 19  1  0  0  0
 21 20  1  0  0  0
 22 21  1  0  0  0
 22 23  2  0  0  0
 25 24  1  0  0  0
 26 25  1  0  0  0
 27 26  1  0  0  0
 28 27  1  0  0  0
 29 28  1  0  0  0
 29 30  2  0  0  0
 31 29  1  0  0  0
 32 31  2  0  0  0
 35 31  1  0  0  0
 33 32  1  0  0  0
 34 33  2  0  0  0
 35 34  1  0  0  0
 36 37  2  0  0  0
 36 41  1  0  0  0
 37 38  1  0  0  0
 39 38  2  0  0  0
 41 39  1  0  0  0
 42 32  1  0  0  0
 42 33  1  0  0  0
 42 34  1  0  0  0
 42 35  1  0  0  0
 42 36  1  0  0  0
 42 37  1  0  0  0
 42 38  1  0  0  0
 42 39  1  0  0  0
 42 41  1  0  0  0
  1 43  1  0  0  0
  1 44  1  0  0  0
  2 45  1  0  0  0
  4 46  1  0  0  0
  5 47  1  0  0  0
  7 48  1  0  0  0
  9 49  1  0  0  0
 10 50  1  0  0  0
 11 51  1  0  0  0
 11 52  1  0  0  0
 12 53  1  0  0  0
 12 54  1  0  0  0
 13 55  1  0  0  0
 13 56  1  0  0  0
 14 57  1  0  0  0
 14 58  1  0  0  0
 15 59  1  0  0  0
 15 60  1  0  0  0
 18 61  1  0  0  0
 18 62  1  0  0  0
 19 63  1  0  0  0
 19 64  1  0  0  0
 20 65  1  0  0  0
 20 66  1  0  0  0
 21 67  1  0  0  0
 21 68  1  0  0  0
 24 69  1  0  0  0
 24 70  1  0  0  0
 25 71  1  0  0  0
 25 72  1  0  0  0
 26 73  1  0  0  0
 26 74  1  0  0  0
 27 75  1  0  0  0
 27 76  1  0  0  0
 28 77  1  0  0  0
 28 78  1  0  0  0
 35 79  1  0  0  0
 40 80  1  0  0  0
 41 81  1  0  0  0
M  END
$$$$
