### 
### Created by X-TOOL on Mon Sep 10 21:13:12 2018
### 

@<TRIPOS>MOLECULE
4jhq_ligand
   81    91     1     0     0
SMALL
GAST_HUCK


@<TRIPOS>ATOM
      1 C1          4.0260   -6.2680   -7.3020 C.3       1 B6F         0.0309
      2 N1         -0.3370  -12.0720    0.1430 N.am      1 B6F        -0.2671
      3 S1          2.7090   -9.9120   -0.9120 S.3       1 B6F        -0.1527
      4 C2          1.7210  -10.5000   -2.3300 C.3       1 B6F         0.0302
      5 N2          0.6500  -12.7710   -1.6510 N.am      1 B6F        -0.2668
      6 C3         -0.0360  -13.1630   -0.5580 C.2       1 B6F         0.2580
      7 N3          3.5140    0.5330   -7.1270 N.am      1 B6F        -0.2870
      8 O3         -0.3500  -14.3160   -0.2180 O.2       1 B6F        -0.4008
      9 C4          0.5510  -11.3230   -1.7860 C.3       1 B6F         0.0775
     10 C5          0.2950  -10.8860   -0.3690 C.3       1 B6F         0.0750
     11 C6          1.5990  -10.5590    0.2930 C.3       1 B6F         0.0190
     12 C7          2.3560  -11.1950   -3.5240 C.3       1 B6F        -0.0388
     13 C8          3.3600  -10.2550   -4.1410 C.3       1 B6F        -0.0499
     14 C9          4.0600  -10.7730   -5.4000 C.3       1 B6F        -0.0360
     15 C10         5.0270   -9.7990   -6.0580 C.3       1 B6F         0.0372
     16 C11         4.2660   -8.5750   -6.5480 C.2       1 B6F         0.1760
     17 O11         3.0600   -8.6490   -6.6460 O.2       1 B6F        -0.3971
     18 C12         4.6020   -4.8620   -7.3670 C.3       1 B6F        -0.0326
     19 C13         4.2920   -4.0710   -8.6770 C.3       1 B6F        -0.0492
     20 C14         3.1990   -2.9750   -8.6460 C.3       1 B6F        -0.0360
     21 C15         3.3900   -1.8480   -7.6230 C.3       1 B6F         0.0372
     22 C16         2.9990   -0.4130   -7.9580 C.2       1 B6F         0.1760
     23 O16         2.2500   -0.1580   -8.9090 O.2       1 B6F        -0.3971
     24 C17         3.2930    1.9740   -7.2310 C.3       1 B6F         0.0309
     25 C18         3.3640    2.5160   -8.6680 C.3       1 B6F        -0.0326
     26 C19         2.0120    2.4420   -9.4040 C.3       1 B6F        -0.0493
     27 C20         1.7020    3.6090  -10.3460 C.3       1 B6F        -0.0381
     28 C21         2.8410    3.9090  -11.3450 C.3       1 B6F         0.0201
     29 C22         2.6750    3.2990  -12.7390 C.2       1 B6F         0.1248
     30 O22         1.5730    3.0600  -13.1890 O.2       1 B6F        -0.3869
     31 C23         3.8860    2.9920  -13.5700 C.2       1 B6F         0.0326
     32 C24         4.0070    1.9560  -14.4910 C.2       1 B6F        -0.0244
     33 C25         5.2670    2.0160  -15.0580 C.2       1 B6F        -0.0286
     34 C26         5.9240    3.0880  -14.4940 C.2       1 B6F        -0.0017
     35 C27         5.0800    3.6910  -13.5800 C.3       1 B6F         0.0627
     36 C28         5.5170   -0.1690  -12.6480 C.2       1 B6F        -0.0183
     37 C29         4.7340    0.4960  -11.7270 C.2       1 B6F        -0.0482
     38 C30         5.5220    1.4520  -11.1180 C.2       1 B6F        -0.0482
     39 C31         6.7770    1.3650  -11.6690 C.2       1 B6F        -0.0183
     40 N31         4.9230   -7.3710   -6.8600 N.am      1 B6F        -0.2870
     41 C32         6.7760    0.3690  -12.6150 C.3       1 B6F         0.0501
     42 FE          5.4230    1.7790  -13.0850 Fe        1 B6F         3.0000
     43 H1          3.6681   -6.5218   -8.3107 H         1 B6F         0.0520
     44 H2          3.1741   -6.2407   -6.6067 H         1 B6F         0.0520
     45 H3         -0.9391  -12.0767    0.9414 H         1 B6F         0.1849
     46 H4          1.2885   -9.5838   -2.7584 H         1 B6F         0.0435
     47 H5          1.1478  -13.3777   -2.2707 H         1 B6F         0.1849
     48 H6          4.0954    0.2141   -6.3785 H         1 B6F         0.1850
     49 H7         -0.3180  -11.1015   -2.4229 H         1 B6F         0.0587
     50 H8         -0.3760  -10.0162   -0.3127 H         1 B6F         0.0584
     51 H9          1.4343   -9.8105    1.0820 H         1 B6F         0.0399
     52 H10         2.0263  -11.4707    0.7359 H         1 B6F         0.0399
     53 H11         1.5809  -11.4480   -4.2624 H         1 B6F         0.0277
     54 H12         2.8616  -12.1143   -3.1935 H         1 B6F         0.0277
     55 H13         4.1323  -10.0415   -3.3873 H         1 B6F         0.0267
     56 H14         2.8362   -9.3240   -4.4032 H         1 B6F         0.0267
     57 H15         3.2853  -11.0316   -6.1368 H         1 B6F         0.0290
     58 H16         4.6231  -11.6777   -5.1271 H         1 B6F         0.0290
     59 H17         5.5176  -10.2905   -6.9111 H         1 B6F         0.0502
     60 H18         5.7877   -9.4883   -5.3267 H         1 B6F         0.0502
     61 H19         5.6948   -4.9380   -7.2671 H         1 B6F         0.0285
     62 H20         4.1954   -4.2892   -6.5205 H         1 B6F         0.0285
     63 H21         3.9893   -4.8079   -9.4356 H         1 B6F         0.0267
     64 H22         5.2279   -3.5853   -8.9904 H         1 B6F         0.0267
     65 H23         2.2392   -3.4659   -8.4273 H         1 B6F         0.0290
     66 H24         3.1570   -2.5163   -9.6449 H         1 B6F         0.0290
     67 H25         4.4609   -1.8305   -7.3722 H         1 B6F         0.0502
     68 H26         2.8094   -2.1312   -6.7327 H         1 B6F         0.0502
     69 H27         4.0594    2.4856   -6.6303 H         1 B6F         0.0520
     70 H28         2.2964    2.2012   -6.8246 H         1 B6F         0.0520
     71 H29         4.1023    1.9252   -9.2300 H         1 B6F         0.0285
     72 H30         3.6866    3.5670   -8.6313 H         1 B6F         0.0285
     73 H31         1.2165    2.4000   -8.6455 H         1 B6F         0.0267
     74 H32         2.0013    1.5164   -9.9983 H         1 B6F         0.0267
     75 H33         1.5240    4.5092   -9.7394 H         1 B6F         0.0289
     76 H34         0.7933    3.3653  -10.9160 H         1 B6F         0.0289
     77 H35         3.7777    3.5235  -10.9162 H         1 B6F         0.0480
     78 H36         2.9121    5.0007  -11.4595 H         1 B6F         0.0480
     79 H37         5.2351    4.6831  -13.1308 H         1 B6F         0.0837
     80 H38         5.9149   -7.2643   -6.7904 H         1 B6F         0.1850
     81 H39         7.6720   -0.0776  -13.0707 H         1 B6F         0.0829
@<TRIPOS>BOND
     1   18    1 1  
     2    1   40 1  
     3    2    6 am 
     4   10    2 1  
     5    4    3 1  
     6    3   11 1  
     7    4    9 1  
     8   12    4 1  
     9    5    6 am 
    10    9    5 1  
    11    6    8 2  
    12    7   22 am 
    13   24    7 1  
    14    9   10 1  
    15   10   11 1  
    16   13   12 1  
    17   14   13 1  
    18   15   14 1  
    19   16   15 1  
    20   16   17 2  
    21   40   16 am 
    22   19   18 1  
    23   20   19 1  
    24   21   20 1  
    25   22   21 1  
    26   22   23 2  
    27   25   24 1  
    28   26   25 1  
    29   27   26 1  
    30   28   27 1  
    31   29   28 1  
    32   29   30 2  
    33   31   29 1  
    34   32   31 2  
    35   35   31 1  
    36   33   32 1  
    37   34   33 2  
    38   35   34 1  
    39   36   37 2  
    40   36   41 1  
    41   37   38 1  
    42   39   38 2  
    43   41   39 1  
    44   42   32 1  
    45   42   33 1  
    46   42   34 1  
    47   42   35 1  
    48   42   36 1  
    49   42   37 1  
    50   42   38 1  
    51   42   39 1  
    52   42   41 1  
    53    1   43 1  
    54    1   44 1  
    55    2   45 1  
    56    4   46 1  
    57    5   47 1  
    58    7   48 1  
    59    9   49 1  
    60   10   50 1  
    61   11   51 1  
    62   11   52 1  
    63   12   53 1  
    64   12   54 1  
    65   13   55 1  
    66   13   56 1  
    67   14   57 1  
    68   14   58 1  
    69   15   59 1  
    70   15   60 1  
    71   18   61 1  
    72   18   62 1  
    73   19   63 1  
    74   19   64 1  
    75   20   65 1  
    76   20   66 1  
    77   21   67 1  
    78   21   68 1  
    79   24   69 1  
    80   24   70 1  
    81   25   71 1  
    82   25   72 1  
    83   26   73 1  
    84   26   74 1  
    85   27   75 1  
    86   27   76 1  
    87   28   77 1  
    88   28   78 1  
    89   35   79 1  
    90   40   80 1  
    91   41   81 1  
@<TRIPOS>SUBSTRUCTURE
     1 B6F         1

