4kww_ligand
  -I-interpret- 

 18 18  0  0  0  0  0  0  0  0999 V2000
  -83.1330  -20.5950   -0.6260 O   0  0  0  0  0
  -83.8060  -20.5620   -2.6870 O   0  0  0  0  0
  -82.2470  -23.2800    0.1290 C   0  0  0  0  0
  -82.3280  -23.2370    1.3990 O   0  0  0  0  0
  -81.2200  -23.0430   -0.5560 O   0  0  0  0  0
  -83.6490  -21.1860   -1.6110 C   0  0  0  0  0
  -83.9070  -24.9820   -0.6110 C   0  0  0  0  0
  -83.4480  -23.6480   -0.6600 C   0  0  0  0  0
  -84.1170  -22.6160   -1.5160 C   0  0  0  0  0
  -85.2320  -23.0480   -2.2560 C   0  0  0  0  0
  -85.6950  -24.4000   -2.1750 C   0  0  0  0  0
  -85.0290  -25.3680   -1.3850 C   0  0  0  0  0
  -83.0804  -21.2003    0.1173 H   0  0  0  0  0
  -83.2218  -23.4598    1.6692 H   0  0  0  0  0
  -83.4001  -25.7122    0.0199 H   0  0  0  0  0
  -85.7525  -22.3413   -2.9023 H   0  0  0  0  0
  -86.5830  -24.6918   -2.7358 H   0  0  0  0  0
  -85.3765  -26.4011   -1.3725 H   0  0  0  0  0
  6  1  1  0  0  0
  6  2  2  0  0  0
  3  4  1  0  0  0
  3  5  2  0  0  0
  8  3  1  0  0  0
  9  6  1  0  0  0
  8  7  4  0  0  0
  7 12  4  0  0  0
  8  9  4  0  0  0
  9 10  4  0  0  0
 10 11  4  0  0  0
 11 12  4  0  0  0
  1 13  1  0  0  0
  4 14  1  0  0  0
  7 15  1  0  0  0
 10 16  1  0  0  0
 11 17  1  0  0  0
 12 18  1  0  0  0
M  END
$$$$
