4umq_ligand
  -I-interpret- 

 56 58  0  0  0  0  0  0  0  0999 V2000
   34.4160   20.4290   19.4130 C   0  0  0  0  0
   33.5690   19.5210   18.7170 O   0  0  0  0  0
   32.2810   19.9140   18.4620 C   0  0  0  0  0
   31.7770   21.1780   18.7300 C   0  0  0  0  0
   30.4530   21.4700   18.4320 C   0  0  0  0  0
   29.9460   22.7110   18.6920 O   0  0  0  0  0
   29.6350   20.4990   17.8660 C   0  0  0  0  0
   30.1290   19.2250   17.5920 C   0  0  0  0  0
   29.2540   18.2700   17.0150 N   0  0  0  0  0
   29.4540   17.0980   16.2500 C   0  0  0  0  0
   30.6600   16.7930   15.6230 C   0  0  0  0  0
   30.7960   15.6300   14.8860 C   0  0  0  0  0
   29.7270   14.7420   14.7560 C   0  0  0  0  0
   29.9360   13.4940   13.9410 C   0  0  0  0  0
   31.0200   13.2620   13.4020 O   0  0  0  0  0
   28.8580   12.6650   13.8510 N   0  0  0  0  0
   28.6150   11.5290   13.0380 C   0  0  0  0  0
   27.3940   10.8900   13.2270 C   0  0  0  0  0
   27.0670    9.7770   12.4820 C   0  0  0  0  0
   27.9460    9.2900   11.5470 C   0  0  0  0  0
   29.1600    9.9120   11.3480 C   0  0  0  0  0
   29.5000   11.0290   12.0890 C   0  0  0  0  0
   28.5100   15.0500   15.3880 C   0  0  0  0  0
   27.5080   14.1280   15.2130 O   0  0  0  0  0
   26.1490   14.5160   15.4830 C   0  0  0  0  0
   25.8100   14.1530   16.9200 C   0  0  0  0  0
   25.1090   15.2670   17.6850 C   0  0  0  0  0
   23.9670   15.8260   16.9190 N   0  3  0  0  0
   28.3860   16.2170   16.1230 C   0  0  0  0  0
   31.4600   18.9460   17.8960 C   0  0  0  0  0
   34.5074   21.3512   18.8392 H   0  0  0  0  0
   33.9860   20.6487   20.3902 H   0  0  0  0  0
   35.4009   19.9799   19.5407 H   0  0  0  0  0
   32.4185   21.9397   19.1732 H   0  0  0  0  0
   29.0238   22.7407   18.4269 H   0  0  0  0  0
   28.5967   20.7364   17.6342 H   0  0  0  0  0
   28.2694   18.4718   17.1891 H   0  0  0  0  0
   31.5040   17.4767   15.7138 H   0  0  0  0  0
   31.7467   15.4052   14.4025 H   0  0  0  0  0
   28.0908   12.9039   14.4792 H   0  0  0  0  0
   26.6918   11.2714   13.9683 H   0  0  0  0  0
   26.1079    9.2825   12.6359 H   0  0  0  0  0
   27.6835    8.4095   10.9606 H   0  0  0  0  0
   29.8545    9.5220   10.6039 H   0  0  0  0  0
   30.4613   11.5173   11.9293 H   0  0  0  0  0
   25.4749   13.9957   14.8025 H   0  0  0  0  0
   26.0366   15.5904   15.3378 H   0  0  0  0  0
   26.7489   13.9464   17.4336 H   0  0  0  0  0
   25.1299   13.3017   16.8888 H   0  0  0  0  0
   25.8280   16.0670   17.8617 H   0  0  0  0  0
   24.7267   14.8542   18.6185 H   0  0  0  0  0
   23.5246   16.5670   17.4627 H   0  0  0  0  0
   24.3057   16.2068   16.0354 H   0  0  0  0  0
   23.2887   15.0869   16.7343 H   0  0  0  0  0
   27.4380   16.4481   16.6087 H   0  0  0  0  0
   31.8627   17.9549   17.6870 H   0  0  0  0  0
  1  2  1  0  0  0
  2  3  1  0  0  0
  3  4  4  0  0  0
  3 30  4  0  0  0
  4  5  4  0  0  0
  5  6  1  0  0  0
  5  7  4  0  0  0
  7  8  4  0  0  0
  8  9  1  0  0  0
  8 30  4  0  0  0
  9 10  1  0  0  0
 10 11  4  0  0  0
 10 29  4  0  0  0
 11 12  4  0  0  0
 12 13  4  0  0  0
 13 14  1  0  0  0
 13 23  4  0  0  0
 14 15  2  0  0  0
 14 16  1  0  0  0
 16 17  1  0  0  0
 17 18  4  0  0  0
 17 22  4  0  0  0
 18 19  4  0  0  0
 19 20  4  0  0  0
 20 21  4  0  0  0
 21 22  4  0  0  0
 23 24  1  0  0  0
 23 29  4  0  0  0
 24 25  1  0  0  0
 25 26  1  0  0  0
 26 27  1  0  0  0
 27 28  1  0  0  0
  1 31  1  0  0  0
  1 32  1  0  0  0
  1 33  1  0  0  0
  4 34  1  0  0  0
  6 35  1  0  0  0
  7 36  1  0  0  0
  9 37  1  0  0  0
 11 38  1  0  0  0
 12 39  1  0  0  0
 16 40  1  0  0  0
 18 41  1  0  0  0
 19 42  1  0  0  0
 20 43  1  0  0  0
 21 44  1  0  0  0
 22 45  1  0  0  0
 25 46  1  0  0  0
 25 47  1  0  0  0
 26 48  1  0  0  0
 26 49  1  0  0  0
 27 50  1  0  0  0
 27 51  1  0  0  0
 28 52  1  0  0  0
 28 53  1  0  0  0
 28 54  1  0  0  0
 29 55  1  0  0  0
 30 56  1  0  0  0
M  END
$$$$
