3qg6_ligand
  -I-interpret- 

114116  0  0  0  0  0  0  0  0999 V2000
    9.9890  -12.0320  -46.1550 N   0  3  0  0  0
   10.4590  -12.3480  -44.8160 C   0  0  0  0  0
   11.0390  -11.1600  -44.0830 C   0  0  0  0  0
   12.1260  -10.7080  -44.4010 O   0  0  0  0  0
   11.4730  -13.4790  -44.9020 C   0  0  0  0  0
   11.4920  -14.1650  -43.6480 O   0  0  0  0  0
   10.3120  -10.6420  -43.0860 N   0  0  0  0  0
   10.7180   -9.4910  -42.2780 C   0  0  0  0  0
   12.0490   -9.6360  -41.5770 C   0  0  0  0  0
   12.8490   -8.7210  -41.6220 O   0  0  0  0  0
    9.6400   -9.1860  -41.2420 C   0  0  0  0  0
    9.3010  -10.3590  -40.4890 O   0  0  0  0  0
    8.4000   -8.6320  -41.9300 C   0  0  0  0  0
   12.2640  -10.7760  -40.9210 N   0  0  0  0  0
   13.4820  -11.1050  -40.2050 C   0  0  0  0  0
   14.2150  -12.1470  -41.0080 C   0  0  0  0  0
   13.7420  -13.2680  -41.1290 O   0  0  0  0  0
   13.0610  -11.5740  -38.8220 C   0  0  0  0  0
   14.4170  -12.0090  -37.7790 S   0  0  0  0  0
   15.3580  -11.7550  -41.5910 N   0  0  0  0  0
   16.1550  -12.6020  -42.4710 C   0  0  0  0  0
   17.0340  -13.6650  -41.8650 C   0  0  0  0  0
   17.1230  -14.7570  -42.4220 O   0  0  0  0  0
   17.0170  -11.6570  -43.3110 C   0  0  0  0  0
   17.7050  -12.3220  -44.4860 C   0  0  0  0  0
   16.9840  -12.9720  -45.4820 C   0  0  0  0  0
   19.0900  -12.2670  -44.5660 C   0  0  0  0  0
   17.6590  -13.5660  -46.5550 C   0  0  0  0  0
   19.7710  -12.8520  -45.6240 C   0  0  0  0  0
   19.0600  -13.5060  -46.6260 C   0  0  0  0  0
   19.7440  -14.0610  -47.6740 O   0  0  0  0  0
   17.7010  -13.3420  -40.7510 N   0  0  0  0  0
   18.6330  -14.2370  -40.0800 C   0  0  0  0  0
   18.1120  -14.7200  -38.7580 C   0  0  0  0  0
   17.4880  -15.7680  -38.7400 O   0  0  0  0  0
   19.9560  -13.4680  -40.0350 C   0  0  0  0  0
   21.0650  -14.1540  -39.2680 C   0  0  0  0  0
   21.4040  -15.4780  -39.5440 C   0  0  0  0  0
   21.7540  -13.4510  -38.2740 C   0  0  0  0  0
   22.4380  -16.0950  -38.8310 C   0  0  0  0  0
   22.7860  -14.0720  -37.5640 C   0  0  0  0  0
   23.1280  -15.3990  -37.8400 C   0  0  0  0  0
   18.3660  -13.9990  -37.6670 N   0  0  0  0  0
   17.8780  -14.3710  -36.3410 C   0  0  0  0  0
   16.9600  -13.3220  -35.7600 C   0  0  0  0  0
   16.2300  -13.6310  -34.8400 O   0  0  0  0  0
   18.9800  -14.7820  -35.3690 C   0  0  0  0  0
   19.9020  -13.6350  -34.9570 C   0  0  0  0  0
   19.7390  -15.9620  -35.9530 C   0  0  0  0  0
   20.9810  -14.1290  -34.0130 C   0  0  0  0  0
   16.9560  -12.0990  -36.2840 N   0  0  0  0  0
   16.0350  -11.0810  -35.8070 C   0  0  0  0  0
   15.0620  -10.7250  -36.9220 C   0  0  0  0  0
   14.7310   -9.5750  -37.1880 O   0  0  0  0  0
   16.7580   -9.9080  -35.1640 C   0  0  0  0  0
   17.4310  -10.3790  -33.8790 C   0  0  0  0  0
   18.1900   -8.9790  -33.1140 S   0  0  0  0  0
   19.3350   -9.5230  -31.8810 C   0  0  0  0  0
    9.3083  -11.2740  -46.1051 H   0  0  0  0  0
   10.7791  -11.7437  -46.7321 H   0  0  0  0  0
    9.5510  -12.8574  -46.5639 H   0  0  0  0  0
    9.5938  -12.6573  -44.2296 H   0  0  0  0  0
   12.4620  -13.0770  -45.1220 H   0  0  0  0  0
   11.1960  -14.1682  -45.6998 H   0  0  0  0  0
   12.1283  -14.8828  -43.6868 H   0  0  0  0  0
    9.4146  -11.0786  -42.8750 H   0  0  0  0  0
   10.8417   -8.6722  -42.9868 H   0  0  0  0  0
   10.0328   -8.4403  -40.5508 H   0  0  0  0  0
    8.6225  -10.1401  -39.8460 H   0  0  0  0  0
    7.9925   -9.3858  -42.6036 H   0  0  0  0  0
    7.6541   -8.3731  -41.1785 H   0  0  0  0  0
    8.6687   -7.7418  -42.4987 H   0  0  0  0  0
   11.5159  -11.4693  -40.9225 H   0  0  0  0  0
   14.1655  -10.2654  -40.0782 H   0  0  0  0  0
   12.4496  -12.4670  -38.9521 H   0  0  0  0  0
   12.5331  -10.7488  -38.3441 H   0  0  0  0  0
   15.6894  -10.8079  -41.4078 H   0  0  0  0  0
   15.4288  -13.1982  -43.0235 H   0  0  0  0  0
   17.7990  -11.2695  -42.6580 H   0  0  0  0  0
   16.3541  -10.8930  -43.7171 H   0  0  0  0  0
   15.8964  -13.0188  -45.4273 H   0  0  0  0  0
   19.6519  -11.7556  -43.7844 H   0  0  0  0  0
   17.0960  -14.0760  -47.3367 H   0  0  0  0  0
   20.8588  -12.7996  -45.6702 H   0  0  0  0  0
   20.6857  -13.9215  -47.5498 H   0  0  0  0  0
   17.5480  -12.4170  -40.3493 H   0  0  0  0  0
   18.7786  -15.1774  -40.6115 H   0  0  0  0  0
   19.7561  -12.5253  -39.5256 H   0  0  0  0  0
   20.2988  -13.3689  -41.0649 H   0  0  0  0  0
   20.8650  -16.0311  -40.3132 H   0  0  0  0  0
   21.4860  -12.4179  -38.0528 H   0  0  0  0  0
   22.7059  -17.1281  -39.0524 H   0  0  0  0  0
   23.3249  -13.5203  -36.7937 H   0  0  0  0  0
   23.9289  -15.8862  -37.2839 H   0  0  0  0  0
   18.9250  -13.1511  -37.7614 H   0  0  0  0  0
   17.2837  -15.2721  -36.4924 H   0  0  0  0  0
   18.5071  -15.0846  -34.4347 H   0  0  0  0  0
   19.3113  -12.8724  -34.4495 H   0  0  0  0  0
   20.3747  -13.2244  -35.8492 H   0  0  0  0  0
   19.0523  -16.7948  -36.1050 H   0  0  0  0  0
   20.1786  -15.6730  -36.9076 H   0  0  0  0  0
   20.5285  -16.2616  -35.2638 H   0  0  0  0  0
   20.5169  -14.5475  -33.1200 H   0  0  0  0  0
   21.5732  -14.8972  -34.5103 H   0  0  0  0  0
   21.6258  -13.2961  -33.7326 H   0  0  0  0  0
   17.6102  -11.8721  -37.0330 H   0  0  0  0  0
   15.4316  -11.4724  -34.9880 H   0  0  0  0  0
   16.0428   -9.1181  -34.9346 H   0  0  0  0  0
   17.5105   -9.5205  -35.8508 H   0  0  0  0  0
   18.1808  -11.1377  -34.1033 H   0  0  0  0  0
   16.6939  -10.8207  -33.2083 H   0  0  0  0  0
   18.8055  -10.1053  -31.1269 H   0  0  0  0  0
   20.1021  -10.1415  -32.3470 H   0  0  0  0  0
   19.8007   -8.6563  -31.4118 H   0  0  0  0  0
  1  2  1  0  0  0
  2  3  1  0  0  0
  2  5  1  0  0  0
  3  4  2  0  0  0
  3  7  1  0  0  0
  5  6  1  0  0  0
  7  8  1  0  0  0
  8  9  1  0  0  0
  8 11  1  0  0  0
  9 10  2  0  0  0
  9 14  1  0  0  0
 11 12  1  0  0  0
 11 13  1  0  0  0
 14 15  1  0  0  0
 15 16  1  0  0  0
 15 18  1  0  0  0
 16 17  2  0  0  0
 16 20  1  0  0  0
 18 19  1  0  0  0
 19 53  1  0  0  0
 20 21  1  0  0  0
 21 22  1  0  0  0
 21 24  1  0  0  0
 22 23  2  0  0  0
 22 32  1  0  0  0
 24 25  1  0  0  0
 25 26  4  0  0  0
 25 27  4  0  0  0
 26 28  4  0  0  0
 27 29  4  0  0  0
 28 30  4  0  0  0
 29 30  4  0  0  0
 30 31  1  0  0  0
 32 33  1  0  0  0
 33 34  1  0  0  0
 33 36  1  0  0  0
 34 35  2  0  0  0
 34 43  1  0  0  0
 36 37  1  0  0  0
 37 38  4  0  0  0
 37 39  4  0  0  0
 38 40  4  0  0  0
 39 41  4  0  0  0
 40 42  4  0  0  0
 41 42  4  0  0  0
 43 44  1  0  0  0
 44 45  1  0  0  0
 44 47  1  0  0  0
 45 46  2  0  0  0
 45 51  1  0  0  0
 47 48  1  0  0  0
 47 49  1  0  0  0
 48 50  1  0  0  0
 51 52  1  0  0  0
 52 53  1  0  0  0
 52 55  1  0  0  0
 53 54  2  0  0  0
 55 56  1  0  0  0
 56 57  1  0  0  0
 57 58  1  0  0  0
  1 59  1  0  0  0
  1 60  1  0  0  0
  1 61  1  0  0  0
  2 62  1  0  0  0
  5 63  1  0  0  0
  5 64  1  0  0  0
  6 65  1  0  0  0
  7 66  1  0  0  0
  8 67  1  0  0  0
 11 68  1  0  0  0
 12 69  1  0  0  0
 13 70  1  0  0  0
 13 71  1  0  0  0
 13 72  1  0  0  0
 14 73  1  0  0  0
 15 74  1  0  0  0
 18 75  1  0  0  0
 18 76  1  0  0  0
 20 77  1  0  0  0
 21 78  1  0  0  0
 24 79  1  0  0  0
 24 80  1  0  0  0
 26 81  1  0  0  0
 27 82  1  0  0  0
 28 83  1  0  0  0
 29 84  1  0  0  0
 31 85  1  0  0  0
 32 86  1  0  0  0
 33 87  1  0  0  0
 36 88  1  0  0  0
 36 89  1  0  0  0
 38 90  1  0  0  0
 39 91  1  0  0  0
 40 92  1  0  0  0
 41 93  1  0  0  0
 42 94  1  0  0  0
 43 95  1  0  0  0
 44 96  1  0  0  0
 47 97  1  0  0  0
 48 98  1  0  0  0
 48 99  1  0  0  0
 49100  1  0  0  0
 49101  1  0  0  0
 49102  1  0  0  0
 50103  1  0  0  0
 50104  1  0  0  0
 50105  1  0  0  0
 51106  1  0  0  0
 52107  1  0  0  0
 55108  1  0  0  0
 55109  1  0  0  0
 56110  1  0  0  0
 56111  1  0  0  0
 58112  1  0  0  0
 58113  1  0  0  0
 58114  1  0  0  0
M  END
$$$$
