4old_ligand
  -I-interpret- 

 25 25  0  0  0  0  0  0  0  0999 V2000
   23.6970    7.0070   15.0090 O   0  0  0  0  0
   22.4610    6.8400   15.2050 C   0  0  0  0  0
   21.8130    7.4530   16.0360 O   0  0  0  0  0
   21.6410    5.7810   14.4070 C   0  0  0  0  0
   20.2190    5.9210   14.9460 N   0  3  0  0  0
   22.0070    5.8030   12.8140 C   0  0  0  0  0
   20.9240    5.1840   11.9980 N   0  0  0  0  0
   23.6310    5.1910   12.2890 S   0  0  0  0  0
   23.4730    5.4950   10.4760 C   0  0  0  0  0
   22.3150    4.9200    9.9840 C   0  0  0  0  0
   21.1210    4.8120   10.7210 C   0  0  0  0  0
   20.0800    4.0780   10.1230 C   0  0  0  0  0
   20.1410    3.8050    8.8650 O   0  0  0  0  0
   19.1810    3.5600   10.8520 O   0  0  0  0  0
   23.9913    6.4189   14.3096 H   0  0  0  0  0
   21.8842    4.7287   14.5542 H   0  0  0  0  0
   20.2372    5.8783   15.9649 H   0  0  0  0  0
   19.8307    6.8162   14.6489 H   0  0  0  0  0
   19.6428    5.1617   14.5829 H   0  0  0  0  0
   22.0835    6.8732   12.6219 H   0  0  0  0  0
   24.3299    5.0525    9.9681 H   0  0  0  0  0
   23.4352    6.5701   10.3005 H   0  0  0  0  0
   22.6045    3.8793    9.8383 H   0  0  0  0  0
   22.0379    5.5913    9.1712 H   0  0  0  0  0
   20.8762    4.2801    8.4709 H   0  0  0  0  0
  1  2  1  0  0  0
  2  3  2  0  0  0
  2  4  1  0  0  0
  4  5  1  0  0  0
  4  6  1  0  0  0
  6  7  1  0  0  0
  6  8  1  0  0  0
  7 11  2  0  0  0
  8  9  1  0  0  0
  9 10  1  0  0  0
 10 11  1  0  0  0
 11 12  1  0  0  0
 12 13  1  0  0  0
 12 14  2  0  0  0
  1 15  1  0  0  0
  4 16  1  0  0  0
  5 17  1  0  0  0
  5 18  1  0  0  0
  5 19  1  0  0  0
  6 20  1  0  0  0
  9 21  1  0  0  0
  9 22  1  0  0  0
 10 23  1  0  0  0
 10 24  1  0  0  0
 13 25  1  0  0  0
M  END
$$$$
