4kne_ligand
  -I-interpret- 

 31 32  0  0  0  0  0  0  0  0999 V2000
    3.2000  -16.3100   -1.3330 N   0  0  0  0  0
    3.1980  -15.0260   -0.8980 C   0  0  0  0  0
    2.6400  -14.6860    0.2780 N   0  0  0  0  0
    2.0340  -15.6070    1.0600 C   0  0  0  0  0
    1.9840  -16.9550    0.6750 N   0  0  0  0  0
    2.5230  -17.3750   -0.6150 C   0  0  0  0  0
    3.7780  -14.0690   -1.6440 N   0  0  0  0  0
    1.4790  -15.2410    2.2370 N   0  0  0  0  0
    3.3100  -18.6850   -0.6130 C   0  0  0  0  0
    1.2570  -17.5810   -1.4300 C   0  0  0  0  0
    1.3780  -17.8720    1.5590 C   0  0  0  0  0
    2.2500  -18.5650    2.4080 C   0  0  0  0  0
    1.7750  -19.4890    3.3300 C   0  0  0  0  0
    0.4020  -19.6810    3.4000 C   0  0  0  0  0
   -0.4720  -18.9930    2.5690 C   0  0  0  0  0
    0.0130  -18.0730    1.6550 C   0  0  0  0  0
   -0.2450  -20.8510    4.5750 Cl  0  0  0  0  0
    3.6949  -16.5360   -2.1958 H   0  0  0  0  0
    2.6749  -13.7141    0.5855 H   0  0  0  0  0
    3.7899  -13.1034   -1.3155 H   0  0  0  0  0
    1.0327  -15.9408    2.8299 H   0  0  0  0  0
    2.7017  -19.4722   -0.1676 H   0  0  0  0  0
    3.5641  -18.9563   -1.6377 H   0  0  0  0  0
    4.2236  -18.5576   -0.0323 H   0  0  0  0  0
    1.5240  -17.8592   -2.4495 H   0  0  0  0  0
    0.6616  -18.3751   -0.9794 H   0  0  0  0  0
    0.6806  -16.6560   -1.4435 H   0  0  0  0  0
    3.3215  -18.3757    2.3441 H   0  0  0  0  0
    2.4561  -20.0435    3.9755 H   0  0  0  0  0
   -1.5441  -19.1779    2.6364 H   0  0  0  0  0
   -0.6728  -17.5138    1.0186 H   0  0  0  0  0
  1  2  1  0  0  0
  1  6  1  0  0  0
  2  3  1  0  0  0
  2  7  2  0  0  0
  3  4  1  0  0  0
  4  5  1  0  0  0
  4  8  2  0  0  0
  5  6  1  0  0  0
  5 11  1  0  0  0
  6  9  1  0  0  0
  6 10  1  0  0  0
 11 12  4  0  0  0
 11 16  4  0  0  0
 12 13  4  0  0  0
 13 14  4  0  0  0
 14 15  4  0  0  0
 14 17  1  0  0  0
 15 16  4  0  0  0
  1 18  1  0  0  0
  3 19  1  0  0  0
  7 20  1  0  0  0
  8 21  1  0  0  0
  9 22  1  0  0  0
  9 23  1  0  0  0
  9 24  1  0  0  0
 10 25  1  0  0  0
 10 26  1  0  0  0
 10 27  1  0  0  0
 12 28  1  0  0  0
 13 29  1  0  0  0
 15 30  1  0  0  0
 16 31  1  0  0  0
M  END
$$$$
