### 
### Created by X-TOOL on Mon Sep 10 21:13:31 2018
### 

@<TRIPOS>MOLECULE
5gp7_ligand
  139   139     1     0     0
SMALL
GAST_HUCK


@<TRIPOS>ATOM
      1 N          22.5880   45.0940   18.2260 N.4       1 SER         0.2377
      2 CA         21.5270   45.8400   17.5510 C.3       1 SER         0.0621
      3 C          20.7450   46.7050   18.5360 C.2       1 SER         0.2264
      4 O          21.0800   46.7710   19.7210 O.2       1 SER        -0.3907
      5 CB         20.5770   44.8910   16.8160 C.3       1 SER        -0.0040
      6 N          19.6910   47.3560   18.0330 N.am      1 LEU        -0.2613
      7 CA         18.9790   48.3560   18.8240 C.3       1 LEU         0.1283
      8 C          18.1320   47.7260   19.9250 C.2       1 LEU         0.2037
      9 O          17.9910   48.3130   21.0050 O.2       1 LEU        -0.3944
     10 CB         18.1030   49.2170   17.9120 C.3       1 LEU        -0.0244
     11 N          17.5540   46.5470   19.6800 N.am      1 SER        -0.2616
     12 CA         16.7060   45.9380   20.6990 C.3       1 SER         0.1539
     13 C          17.4980   45.3740   21.8710 C.2       1 SER         0.2062
     14 O          16.8880   45.0210   22.8870 O.2       1 SER        -0.3943
     15 CB         15.8380   44.8280   20.0900 C.3       1 SER         0.0843
     16 OG         14.7600   45.3600   19.3340 O.3       1 SER        -0.3903
     17 N          18.8230   45.2890   21.7680 N.am      1 ARG        -0.2637
     18 CA         19.6140   44.6690   22.8270 C.3       1 ARG         0.1311
     19 C          19.5740   45.5320   24.0850 C.2       1 ARG         0.2040
     20 O          19.8680   46.7290   24.0370 O.2       1 ARG        -0.3944
     21 CB         21.0560   44.4590   22.3600 C.3       1 ARG        -0.0092
     22 CG         21.8520   43.4590   23.2070 C.3       1 ARG        -0.0156
     23 CD         23.1460   43.0070   22.5110 C.3       1 ARG         0.0627
     24 NE         23.7960   41.9290   23.2540 N.pl3     1 ARG        -0.2723
     25 CZ         24.6570   42.1140   24.2470 C.cat     1 ARG         0.2882
     26 NH1        25.0100   43.3340   24.6080 N.pl3     1 ARG        -0.2849
     27 NH2        25.1730   41.0730   24.8750 N.pl3     1 ARG        -0.2849
     28 N          19.2000   44.9290   25.2100 N.am      1 THR        -0.2613
     29 CA         19.0650   45.6190   26.4840 C.3       1 THR         0.1567
     30 C          20.0520   45.0550   27.5100 C.2       1 THR         0.2090
     31 O          20.6200   43.9760   27.3030 O.2       1 THR        -0.3941
     32 CB         17.6240   45.5060   27.0060 C.3       1 THR         0.0924
     33 OG1        17.2340   44.1310   27.0610 O.3       1 THR        -0.3874
     34 CG2        16.6650   46.2710   26.0960 C.3       1 THR        -0.0346
     35 N          20.3040   45.7720   28.6090 N.am      1 PRO        -0.2498
     36 CA         21.3900   45.3700   29.5180 C.3       1 PRO         0.1338
     37 C          21.1300   44.0600   30.2460 C.2       1 PRO         0.2041
     38 O          19.9960   43.7260   30.6030 O.2       1 PRO        -0.3944
     39 CB         21.4640   46.5330   30.5130 C.3       1 PRO        -0.0104
     40 CG         20.9160   47.6980   29.7600 C.3       1 PRO        -0.0281
     41 CD         19.8150   47.1260   28.9310 C.3       1 PRO         0.0369
     42 N          22.2220   43.3250   30.4680 N.am      1 ALA        -0.2640
     43 CA         22.2020   42.1380   31.3120 C.3       1 ALA         0.1282
     44 C          21.7730   42.4820   32.7340 C.2       1 ALA         0.2037
     45 O          22.0320   43.5780   33.2330 O.2       1 ALA        -0.3944
     46 CB         23.5890   41.5100   31.3590 C.3       1 ALA        -0.0244
     47 N          21.1350   41.5240   33.4090 N.am      1 ASP        -0.2622
     48 CA         20.8790   41.6980   34.8360 C.3       1 ASP         0.1423
     49 C          22.1930   41.7570   35.5980 C.2       1 ASP         0.2054
     50 O          23.0770   40.9220   35.4010 O.2       1 ASP        -0.3943
     51 CB         20.0160   40.5590   35.3770 C.3       1 ASP         0.0406
     52 CG         18.5450   40.7260   35.0250 C.2       1 ASP         0.0393
     53 OD1        18.1280   41.8610   34.7130 O.co2     1 ASP        -0.5688
     54 OD2        17.8160   39.7190   35.0410 O.co2     1 ASP        -0.5688
     55 N          22.3270   42.7610   36.4580 N.am      1 GLY        -0.2663
     56 CA         23.4900   42.8690   37.3070 C.3       1 GLY         0.1201
     57 C          23.7870   44.3160   37.6420 C.2       1 GLY         0.2002
     58 O          22.9940   45.2120   37.3780 O.2       1 GLY        -0.3947
     59 N          24.9590   44.5110   38.2290 N.am      1 ARG        -0.2697
     60 CA         25.4180   45.8290   38.6680 C.3       1 ARG         0.0945
     61 C          26.9310   45.7920   38.7880 C.2       1 ARG         0.0601
     62 O          27.4820   44.7670   39.1920 O.co2     1 ARG        -0.5666
     63 CB         24.7650   46.2010   40.0110 C.3       1 ARG        -0.0148
     64 CG         25.3510   47.4010   40.7180 C.3       1 ARG        -0.0162
     65 CD         24.8740   47.4510   42.1700 C.3       1 ARG         0.0627
     66 NE         23.4150   47.4650   42.2880 N.pl3     1 ARG        -0.2723
     67 CZ         22.7020   46.5550   42.9490 C.cat     1 ARG         0.2882
     68 NH1        23.3090   45.5460   43.5680 N.pl3     1 ARG        -0.2849
     69 NH2        21.3760   46.6560   43.0010 N.pl3     1 ARG        -0.2849
     70 OXT        27.6650   46.7520   38.4760 O.co2     1 ARG        -0.5666
     71 H1         23.0857   44.5335   17.5520 H         1 SER         0.2015
     72 H2         22.1830   44.4946   18.9280 H         1 SER         0.2015
     73 H3         23.2268   45.7396   18.6633 H         1 SER         0.2015
     74 H4         21.9956   46.5027   16.8086 H         1 SER         0.1095
     75 H5         19.7892   45.4746   16.3172 H         1 SER         0.0310
     76 H6         20.1191   44.1988   17.5379 H         1 SER         0.0310
     77 H7         21.1400   44.3178   16.0647 H         1 SER         0.0310
     78 H8         19.3860   47.1553   17.1020 H         1 LEU         0.1884
     79 H9         19.7266   49.0062   19.3018 H         1 LEU         0.0797
     80 H10        17.5709   49.9668   18.5159 H         1 LEU         0.0277
     81 H11        17.3726   48.5775   17.3947 H         1 LEU         0.0277
     82 H12        18.7355   49.7258   17.1697 H         1 LEU         0.0277
     83 H13        17.7013   46.0855   18.8052 H         1 SER         0.1884
     84 H14        16.0400   46.7220   21.0887 H         1 SER         0.0823
     85 H15        15.4317   44.2070   20.9020 H         1 SER         0.0606
     86 H16        16.4632   44.2073   19.4314 H         1 SER         0.0606
     87 H17        14.2123   45.8935   19.8977 H         1 SER         0.2097
     88 H18        19.2808   45.6535   20.9571 H         1 ARG         0.1883
     89 H19        19.1773   43.6873   23.0625 H         1 ARG         0.0800
     90 H20        21.5742   45.4287   22.3937 H         1 ARG         0.0313
     91 H21        21.0328   44.0914   21.3235 H         1 ARG         0.0313
     92 H22        21.2241   42.5756   23.3950 H         1 ARG         0.0301
     93 H23        22.1124   43.9343   24.1642 H         1 ARG         0.0301
     94 H24        23.8346   43.8621   22.4431 H         1 ARG         0.0689
     95 H25        22.9036   42.6501   21.4992 H         1 ARG         0.0689
     96 H26        23.5704   40.9596   22.9888 H         1 ARG         0.2642
     97 H27        25.6787   43.4696   25.3796 H         1 ARG         0.2615
     98 H28        24.6166   44.1502   24.1180 H         1 ARG         0.2615
     99 H29        24.9020   40.1185   24.5985 H         1 ARG         0.2615
    100 H30        25.8464   41.2156   25.6412 H         1 ARG         0.2615
    101 H31        19.0010   43.9495   25.1786 H         1 THR         0.1884
    102 H32        19.2960   46.6832   26.3287 H         1 THR         0.0826
    103 H33        17.5764   45.9349   28.0178 H         1 THR         0.0639
    104 H34        16.3429   44.0684   27.3843 H         1 THR         0.2101
    105 H35        15.6398   46.1795   26.4841 H         1 THR         0.0257
    106 H36        16.7111   45.8523   25.0799 H         1 THR         0.0257
    107 H37        16.9533   47.3322   26.0688 H         1 THR         0.0257
    108 H38        22.3327   45.2779   28.9587 H         1 PRO         0.0802
    109 H39        22.5045   46.7201   30.8169 H         1 PRO         0.0313
    110 H40        20.8538   46.3230   31.4038 H         1 PRO         0.0313
    111 H41        21.6907   48.1464   29.1207 H         1 PRO         0.0287
    112 H42        20.5259   48.4590   30.4519 H         1 PRO         0.0287
    113 H43        18.8751   47.0808   29.5006 H         1 PRO         0.0524
    114 H44        19.6616   47.7178   28.0166 H         1 PRO         0.0524
    115 H45        23.0834   43.5987   30.0402 H         1 ALA         0.1883
    116 H46        21.4904   41.4142   30.8881 H         1 ALA         0.0797
    117 H47        23.5648   40.6150   31.9980 H         1 ALA         0.0277
    118 H48        24.3061   42.2353   31.7709 H         1 ALA         0.0277
    119 H49        23.8977   41.2262   30.3421 H         1 ALA         0.0277
    120 H50        20.8344   40.6930   32.9410 H         1 ASP         0.1884
    121 H51        20.3414   42.6464   34.9828 H         1 ASP         0.0819
    122 H52        20.1157   40.5300   36.4721 H         1 ASP         0.0478
    123 H53        20.3754   39.6107   34.9508 H         1 ASP         0.0478
    124 H54        21.6092   43.4546   36.5184 H         1 GLY         0.1881
    125 H55        24.3566   42.4355   36.7864 H         1 GLY         0.0763
    126 H56        23.3072   42.3145   38.2393 H         1 GLY         0.0763
    127 H57        25.5559   43.7227   38.3785 H         1 ARG         0.1875
    128 H58        25.1344   46.5811   37.9171 H         1 ARG         0.0726
    129 H59        24.8582   45.3350   40.6828 H         1 ARG         0.0307
    130 H60        23.7008   46.4066   39.8232 H         1 ARG         0.0307
    131 H61        25.0324   48.3178   40.2003 H         1 ARG         0.0301
    132 H62        26.4487   47.3320   40.6995 H         1 ARG         0.0301
    133 H63        25.2732   48.3619   42.6399 H         1 ARG         0.0689
    134 H64        25.2607   46.5666   42.6976 H         1 ARG         0.0689
    135 H65        22.9044   48.2320   41.8278 H         1 ARG         0.2642
    136 H66        22.7526   44.8450   44.0778 H         1 ARG         0.2615
    137 H67        24.3354   45.4658   43.5375 H         1 ARG         0.2615
    138 H68        20.8997   47.4348   42.5239 H         1 ARG         0.2615
    139 H69        20.8260   45.9554   43.5183 H         1 ARG         0.2615
@<TRIPOS>BOND
     1    1    2 1  
     2    2    3 1  
     3    2    5 1  
     4    3    4 2  
     5    3    6 am 
     6    6    7 1  
     7    7    8 1  
     8    7   10 1  
     9    8    9 2  
    10    8   11 am 
    11   11   12 1  
    12   12   13 1  
    13   12   15 1  
    14   13   14 2  
    15   13   17 am 
    16   15   16 1  
    17   17   18 1  
    18   18   19 1  
    19   18   21 1  
    20   19   20 2  
    21   19   28 am 
    22   21   22 1  
    23   22   23 1  
    24   23   24 1  
    25   24   25 ar 
    26   25   26 ar 
    27   25   27 ar 
    28   28   29 1  
    29   29   30 1  
    30   29   32 1  
    31   30   31 2  
    32   30   35 am 
    33   32   33 1  
    34   32   34 1  
    35   35   36 1  
    36   35   41 1  
    37   36   37 1  
    38   36   39 1  
    39   37   38 2  
    40   37   42 am 
    41   39   40 1  
    42   40   41 1  
    43   42   43 1  
    44   43   44 1  
    45   43   46 1  
    46   44   45 2  
    47   44   47 am 
    48   47   48 1  
    49   48   49 1  
    50   48   51 1  
    51   49   50 2  
    52   49   55 am 
    53   51   52 1  
    54   52   53 ar 
    55   52   54 ar 
    56   55   56 1  
    57   56   57 1  
    58   57   58 2  
    59   57   59 am 
    60   59   60 1  
    61   60   61 1  
    62   60   63 1  
    63   61   62 ar 
    64   61   70 ar 
    65   63   64 1  
    66   64   65 1  
    67   65   66 1  
    68   66   67 ar 
    69   67   68 ar 
    70   67   69 ar 
    71    1   71 1  
    72    1   72 1  
    73    1   73 1  
    74    2   74 1  
    75    5   75 1  
    76    5   76 1  
    77    5   77 1  
    78    6   78 1  
    79    7   79 1  
    80   10   80 1  
    81   10   81 1  
    82   10   82 1  
    83   11   83 1  
    84   12   84 1  
    85   15   85 1  
    86   15   86 1  
    87   16   87 1  
    88   17   88 1  
    89   18   89 1  
    90   21   90 1  
    91   21   91 1  
    92   22   92 1  
    93   22   93 1  
    94   23   94 1  
    95   23   95 1  
    96   24   96 1  
    97   26   97 1  
    98   26   98 1  
    99   27   99 1  
   100   27  100 1  
   101   28  101 1  
   102   29  102 1  
   103   32  103 1  
   104   33  104 1  
   105   34  105 1  
   106   34  106 1  
   107   34  107 1  
   108   36  108 1  
   109   39  109 1  
   110   39  110 1  
   111   40  111 1  
   112   40  112 1  
   113   41  113 1  
   114   41  114 1  
   115   42  115 1  
   116   43  116 1  
   117   46  117 1  
   118   46  118 1  
   119   46  119 1  
   120   47  120 1  
   121   48  121 1  
   122   51  122 1  
   123   51  123 1  
   124   55  124 1  
   125   56  125 1  
   126   56  126 1  
   127   59  127 1  
   128   60  128 1  
   129   63  129 1  
   130   63  130 1  
   131   64  131 1  
   132   64  132 1  
   133   65  133 1  
   134   65  134 1  
   135   66  135 1  
   136   68  136 1  
   137   68  137 1  
   138   69  138 1  
   139   69  139 1  
@<TRIPOS>SUBSTRUCTURE
     1 SER         1

