5gp7_ligand
  -I-interpret- 

139139  0  0  0  0  0  0  0  0999 V2000
   22.5880   45.0940   18.2260 N   0  3  0  0  0
   21.5270   45.8400   17.5510 C   0  0  0  0  0
   20.7450   46.7050   18.5360 C   0  0  0  0  0
   21.0800   46.7710   19.7210 O   0  0  0  0  0
   20.5770   44.8910   16.8160 C   0  0  0  0  0
   19.6910   47.3560   18.0330 N   0  0  0  0  0
   18.9790   48.3560   18.8240 C   0  0  0  0  0
   18.1320   47.7260   19.9250 C   0  0  0  0  0
   17.9910   48.3130   21.0050 O   0  0  0  0  0
   18.1030   49.2170   17.9120 C   0  0  0  0  0
   17.5540   46.5470   19.6800 N   0  0  0  0  0
   16.7060   45.9380   20.6990 C   0  0  0  0  0
   17.4980   45.3740   21.8710 C   0  0  0  0  0
   16.8880   45.0210   22.8870 O   0  0  0  0  0
   15.8380   44.8280   20.0900 C   0  0  0  0  0
   14.7600   45.3600   19.3340 O   0  0  0  0  0
   18.8230   45.2890   21.7680 N   0  0  0  0  0
   19.6140   44.6690   22.8270 C   0  0  0  0  0
   19.5740   45.5320   24.0850 C   0  0  0  0  0
   19.8680   46.7290   24.0370 O   0  0  0  0  0
   21.0560   44.4590   22.3600 C   0  0  0  0  0
   21.8520   43.4590   23.2070 C   0  0  0  0  0
   23.1460   43.0070   22.5110 C   0  0  0  0  0
   23.7960   41.9290   23.2540 N   0  0  0  0  0
   24.6570   42.1140   24.2470 C   0  0  0  0  0
   25.0100   43.3340   24.6080 N   0  0  0  0  0
   25.1730   41.0730   24.8750 N   0  0  0  0  0
   19.2000   44.9290   25.2100 N   0  0  0  0  0
   19.0650   45.6190   26.4840 C   0  0  0  0  0
   20.0520   45.0550   27.5100 C   0  0  0  0  0
   20.6200   43.9760   27.3030 O   0  0  0  0  0
   17.6240   45.5060   27.0060 C   0  0  0  0  0
   17.2340   44.1310   27.0610 O   0  0  0  0  0
   16.6650   46.2710   26.0960 C   0  0  0  0  0
   20.3040   45.7720   28.6090 N   0  0  0  0  0
   21.3900   45.3700   29.5180 C   0  0  0  0  0
   21.1300   44.0600   30.2460 C   0  0  0  0  0
   19.9960   43.7260   30.6030 O   0  0  0  0  0
   21.4640   46.5330   30.5130 C   0  0  0  0  0
   20.9160   47.6980   29.7600 C   0  0  0  0  0
   19.8150   47.1260   28.9310 C   0  0  0  0  0
   22.2220   43.3250   30.4680 N   0  0  0  0  0
   22.2020   42.1380   31.3120 C   0  0  0  0  0
   21.7730   42.4820   32.7340 C   0  0  0  0  0
   22.0320   43.5780   33.2330 O   0  0  0  0  0
   23.5890   41.5100   31.3590 C   0  0  0  0  0
   21.1350   41.5240   33.4090 N   0  0  0  0  0
   20.8790   41.6980   34.8360 C   0  0  0  0  0
   22.1930   41.7570   35.5980 C   0  0  0  0  0
   23.0770   40.9220   35.4010 O   0  0  0  0  0
   20.0160   40.5590   35.3770 C   0  0  0  0  0
   18.5450   40.7260   35.0250 C   0  0  0  0  0
   18.1280   41.8610   34.7130 O   0  0  0  0  0
   17.8160   39.7190   35.0410 O   0  0  0  0  0
   22.3270   42.7610   36.4580 N   0  0  0  0  0
   23.4900   42.8690   37.3070 C   0  0  0  0  0
   23.7870   44.3160   37.6420 C   0  0  0  0  0
   22.9940   45.2120   37.3780 O   0  0  0  0  0
   24.9590   44.5110   38.2290 N   0  0  0  0  0
   25.4180   45.8290   38.6680 C   0  0  0  0  0
   26.9310   45.7920   38.7880 C   0  0  0  0  0
   27.4820   44.7670   39.1920 O   0  0  0  0  0
   24.7650   46.2010   40.0110 C   0  0  0  0  0
   25.3510   47.4010   40.7180 C   0  0  0  0  0
   24.8740   47.4510   42.1700 C   0  0  0  0  0
   23.4150   47.4650   42.2880 N   0  0  0  0  0
   22.7020   46.5550   42.9490 C   0  0  0  0  0
   23.3090   45.5460   43.5680 N   0  0  0  0  0
   21.3760   46.6560   43.0010 N   0  0  0  0  0
   27.6650   46.7520   38.4760 O   0  0  0  0  0
   23.2070   45.7461   18.7076 H   0  0  0  0  0
   22.1737   44.4534   18.9031 H   0  0  0  0  0
   23.1208   44.5638   17.5365 H   0  0  0  0  0
   22.0012   46.4961   16.8211 H   0  0  0  0  0
   20.0766   44.2474   17.5396 H   0  0  0  0  0
   19.8341   45.4730   16.2707 H   0  0  0  0  0
   21.1462   44.2792   16.1162 H   0  0  0  0  0
   19.3799   47.1513   17.0834 H   0  0  0  0  0
   19.7276   48.9815   19.3103 H   0  0  0  0  0
   17.3317   48.5948   17.4581 H   0  0  0  0  0
   17.6352   50.0069   18.4997 H   0  0  0  0  0
   18.7201   49.6606   17.1307 H   0  0  0  0  0
   17.7043   46.0763   18.7877 H   0  0  0  0  0
   16.0725   46.7371   21.0839 H   0  0  0  0  0
   15.4256   44.2296   20.9024 H   0  0  0  0  0
   16.4615   44.2299   19.4255 H   0  0  0  0  0
   14.2403   44.6399   18.9694 H   0  0  0  0  0
   19.2900   45.6608   20.9409 H   0  0  0  0  0
   19.1863   43.6945   23.0626 H   0  0  0  0  0
   21.5625   45.4210   22.4379 H   0  0  0  0  0
   21.0108   44.0583   21.3473 H   0  0  0  0  0
   21.2286   42.5793   23.3673 H   0  0  0  0  0
   22.1237   43.9483   24.1423 H   0  0  0  0  0
   23.8285   43.8554   22.4597 H   0  0  0  0  0
   22.8964   42.6420   21.5147 H   0  0  0  0  0
   23.5726   40.9690   22.9914 H   0  0  0  0  0
   24.6205   44.1422   24.1228 H   0  0  0  0  0
   25.8398   41.2143   25.6338 H   0  0  0  0  0
   24.9047   40.1278   24.6012 H   0  0  0  0  0
   18.9971   43.9299   25.1780 H   0  0  0  0  0
   19.2955   46.6731   26.3296 H   0  0  0  0  0
   17.5826   45.9375   28.0061 H   0  0  0  0  0
   16.3335   44.0678   27.3877 H   0  0  0  0  0
   16.9518   47.3223   26.0698 H   0  0  0  0  0
   16.7117   45.8552   25.0895 H   0  0  0  0  0
   15.6496   46.1796   26.4815 H   0  0  0  0  0
   22.3140   45.1865   28.9697 H   0  0  0  0  0
   22.4815   46.7112   30.8608 H   0  0  0  0  0
   20.8996   46.3307   31.4233 H   0  0  0  0  0
   21.6771   48.1825   29.1484 H   0  0  0  0  0
   20.5586   48.4827   30.4268 H   0  0  0  0  0
   18.8582   47.1144   29.4530 H   0  0  0  0  0
   19.6063   47.7203   28.0414 H   0  0  0  0  0
   23.1006   43.6042   30.0316 H   0  0  0  0  0
   21.4851   41.4374   30.8837 H   0  0  0  0  0
   23.8937   41.2293   30.3508 H   0  0  0  0  0
   24.2986   42.2296   31.7673 H   0  0  0  0  0
   23.5637   40.6233   31.9924 H   0  0  0  0  0
   20.8284   40.6763   32.9317 H   0  0  0  0  0
   20.3400   42.6352   34.9744 H   0  0  0  0  0
   20.1040   40.5567   36.4634 H   0  0  0  0  0
   20.3660   39.6292   34.9286 H   0  0  0  0  0
   18.8499   42.4916   34.7660 H   0  0  0  0  0
   21.5948   43.4685   36.5196 H   0  0  0  0  0
   24.3471   42.4496   36.7801 H   0  0  0  0  0
   23.2971   42.3286   38.2337 H   0  0  0  0  0
   25.5678   43.7069   38.3814 H   0  0  0  0  0
   25.1302   46.5899   37.9426 H   0  0  0  0  0
   24.9174   45.3490   40.6735 H   0  0  0  0  0
   23.7274   46.4509   39.7897 H   0  0  0  0  0
   25.0265   48.3073   40.2067 H   0  0  0  0  0
   26.4382   47.3247   40.7043 H   0  0  0  0  0
   25.2535   48.3711   42.6144 H   0  0  0  0  0
   25.2408   46.5561   42.6727 H   0  0  0  0  0
   22.9093   48.2246   41.8322 H   0  0  0  0  0
   24.3255   45.4665   43.5378 H   0  0  0  0  0
   20.8314   45.9622   43.5133 H   0  0  0  0  0
   20.9043   47.4272   42.5286 H   0  0  0  0  0
   27.1216   47.4855   38.1790 H   0  0  0  0  0
  1  2  1  0  0  0
  2  3  1  0  0  0
  2  5  1  0  0  0
  3  4  2  0  0  0
  3  6  1  0  0  0
  6  7  1  0  0  0
  7  8  1  0  0  0
  7 10  1  0  0  0
  8  9  2  0  0  0
  8 11  1  0  0  0
 11 12  1  0  0  0
 12 13  1  0  0  0
 12 15  1  0  0  0
 13 14  2  0  0  0
 13 17  1  0  0  0
 15 16  1  0  0  0
 17 18  1  0  0  0
 18 19  1  0  0  0
 18 21  1  0  0  0
 19 20  2  0  0  0
 19 28  1  0  0  0
 21 22  1  0  0  0
 22 23  1  0  0  0
 23 24  1  0  0  0
 24 25  1  0  0  0
 25 26  2  0  0  0
 25 27  1  0  0  0
 28 29  1  0  0  0
 29 30  1  0  0  0
 29 32  1  0  0  0
 30 31  2  0  0  0
 30 35  1  0  0  0
 32 33  1  0  0  0
 32 34  1  0  0  0
 35 36  1  0  0  0
 35 41  1  0  0  0
 36 37  1  0  0  0
 36 39  1  0  0  0
 37 38  2  0  0  0
 37 42  1  0  0  0
 39 40  1  0  0  0
 40 41  1  0  0  0
 42 43  1  0  0  0
 43 44  1  0  0  0
 43 46  1  0  0  0
 44 45  2  0  0  0
 44 47  1  0  0  0
 47 48  1  0  0  0
 48 49  1  0  0  0
 48 51  1  0  0  0
 49 50  2  0  0  0
 49 55  1  0  0  0
 51 52  1  0  0  0
 52 53  1  0  0  0
 52 54  2  0  0  0
 55 56  1  0  0  0
 56 57  1  0  0  0
 57 58  2  0  0  0
 57 59  1  0  0  0
 59 60  1  0  0  0
 60 61  1  0  0  0
 60 63  1  0  0  0
 61 62  2  0  0  0
 61 70  1  0  0  0
 63 64  1  0  0  0
 64 65  1  0  0  0
 65 66  1  0  0  0
 66 67  1  0  0  0
 67 68  2  0  0  0
 67 69  1  0  0  0
  1 71  1  0  0  0
  1 72  1  0  0  0
  1 73  1  0  0  0
  2 74  1  0  0  0
  5 75  1  0  0  0
  5 76  1  0  0  0
  5 77  1  0  0  0
  6 78  1  0  0  0
  7 79  1  0  0  0
 10 80  1  0  0  0
 10 81  1  0  0  0
 10 82  1  0  0  0
 11 83  1  0  0  0
 12 84  1  0  0  0
 15 85  1  0  0  0
 15 86  1  0  0  0
 16 87  1  0  0  0
 17 88  1  0  0  0
 18 89  1  0  0  0
 21 90  1  0  0  0
 21 91  1  0  0  0
 22 92  1  0  0  0
 22 93  1  0  0  0
 23 94  1  0  0  0
 23 95  1  0  0  0
 24 96  1  0  0  0
 26 97  1  0  0  0
 27 98  1  0  0  0
 27 99  1  0  0  0
 28100  1  0  0  0
 29101  1  0  0  0
 32102  1  0  0  0
 33103  1  0  0  0
 34104  1  0  0  0
 34105  1  0  0  0
 34106  1  0  0  0
 36107  1  0  0  0
 39108  1  0  0  0
 39109  1  0  0  0
 40110  1  0  0  0
 40111  1  0  0  0
 41112  1  0  0  0
 41113  1  0  0  0
 42114  1  0  0  0
 43115  1  0  0  0
 46116  1  0  0  0
 46117  1  0  0  0
 46118  1  0  0  0
 47119  1  0  0  0
 48120  1  0  0  0
 51121  1  0  0  0
 51122  1  0  0  0
 53123  1  0  0  0
 55124  1  0  0  0
 56125  1  0  0  0
 56126  1  0  0  0
 59127  1  0  0  0
 60128  1  0  0  0
 63129  1  0  0  0
 63130  1  0  0  0
 64131  1  0  0  0
 64132  1  0  0  0
 65133  1  0  0  0
 65134  1  0  0  0
 66135  1  0  0  0
 68136  1  0  0  0
 69137  1  0  0  0
 69138  1  0  0  0
 70139  1  0  0  0
M  END
$$$$
