5jsj_ligand
  -I-interpret- 

113119  0  0  0  0  0  0  0  0999 V2000
   12.7910   -6.2160    3.2750 C   0  0  0  0  0
   12.2500   -4.6120    1.3840 C   0  0  0  0  0
   13.1810   -7.5710    5.3280 C   0  0  0  0  0
   14.5930  -10.7380    4.1170 C   0  0  0  0  0
   13.8220  -11.0820    5.3620 C   0  0  0  0  0
   12.7580   -9.9850    5.5140 C   0  0  0  0  0
   12.4080    0.0150    4.1390 C   0  0  0  0  0
   11.5590    1.4120    5.7100 C   0  0  0  0  0
   12.6780    1.4890   -1.8150 O   0  0  0  0  0
   11.9680    1.5980   -0.8170 C   0  0  0  0  0
   11.5030    0.3590   -0.1510 C   0  0  0  0  0
   11.9350   -0.0830    1.1020 C   0  0  0  0  0
   11.3830   -1.3180    1.6150 C   0  0  0  0  0
   10.4730   -2.1180    0.9720 C   0  0  0  0  0
   10.0740   -1.6740   -0.2880 C   0  0  0  0  0
   10.5930   -0.4720   -0.8030 C   0  0  0  0  0
   10.0450   -3.3960    1.6700 C   0  0  0  0  0
   10.8780   -4.4820    1.8530 N   0  0  0  0  0
   10.4060   -5.6610    2.5960 C   0  0  0  0  0
   11.3610   -5.9480    3.7820 C   0  0  0  0  0
   13.2450   -5.0450    2.4490 C   0  0  0  0  0
   13.8030   -6.5510    4.3940 C   0  0  0  0  0
   13.0440   -8.8850    4.5690 N   0  3  0  0  0
   14.2830   -9.2810    3.8180 C   0  0  0  0  0
    8.9330   -3.4980    2.1760 O   0  0  0  0  0
   12.8250    0.6370    1.9050 N   0  0  0  0  0
   12.4680    0.9560    3.1770 C   0  0  0  0  0
   11.9530    0.2310    5.3870 C   0  0  0  0  0
   11.5980    2.3750    4.7640 C   0  0  0  0  0
   12.0240    2.1240    3.5100 C   0  0  0  0  0
   11.1180    1.6030    6.9290 O   0  0  0  0  0
    9.6360    1.3420    6.8710 C   0  0  0  0  0
    8.8150    2.7050    6.6440 N   0  3  0  0  0
    8.7320    3.2370    5.2300 C   0  0  0  0  0
    7.6880    4.3800    5.2520 C   0  0  0  0  0
    6.6880    3.9010    6.3080 C   0  0  0  0  0
    7.3630    2.6720    7.0150 C   0  0  0  0  0
   11.7150    2.9120   -0.3950 N   0  0  0  0  0
   12.2540    4.0700   -1.1070 C   0  0  0  0  0
   13.2480    4.8230   -0.2220 C   0  0  0  0  0
   12.7940    5.0450    1.2330 C   0  0  0  0  0
   11.3390    4.6270    1.4360 C   0  0  0  0  0
   10.9310    3.3200    0.7540 C   0  0  0  0  0
   12.8950    6.4730    1.6450 C   0  0  0  0  0
   13.0940    6.6190    3.1400 C   0  0  0  0  0
   14.1810    7.6680    3.3930 N   0  3  0  0  0
   14.6590    8.4460    2.2250 C   0  0  0  0  0
   15.5640    9.5390    2.8360 C   0  0  0  0  0
   15.0080    9.7510    4.2480 C   0  0  0  0  0
   13.9040    8.6780    4.4420 C   0  0  0  0  0
   12.7560   -7.1152    2.6599 H   0  0  0  0  0
   12.5627   -3.6266    1.0385 H   0  0  0  0  0
   12.2513   -5.3843    0.6148 H   0  0  0  0  0
   12.2026   -7.2266    5.6630 H   0  0  0  0  0
   13.8103   -7.7086    6.2073 H   0  0  0  0  0
   14.3046  -11.3806    3.2852 H   0  0  0  0  0
   15.6625  -10.8914    4.2612 H   0  0  0  0  0
   14.4754  -11.1232    6.2335 H   0  0  0  0  0
   13.3651  -12.0686    5.2848 H   0  0  0  0  0
   12.7759   -9.6010    6.5340 H   0  0  0  0  0
   11.7740  -10.4016    5.2988 H   0  0  0  0  0
   12.7511   -0.9891    3.8898 H   0  0  0  0  0
   11.7201   -1.6414    2.5998 H   0  0  0  0  0
    9.3619   -2.2566   -0.8725 H   0  0  0  0  0
   10.2559   -0.1652   -1.7931 H   0  0  0  0  0
   10.3874   -6.5239    1.9303 H   0  0  0  0  0
    9.4032   -5.4697    2.9779 H   0  0  0  0  0
   11.3769   -5.0795    4.4405 H   0  0  0  0  0
   11.0052   -6.8288    4.3165 H   0  0  0  0  0
   14.1565   -5.3483    1.9339 H   0  0  0  0  0
   13.3761   -4.2030    3.1287 H   0  0  0  0  0
   14.0522   -5.6465    4.9489 H   0  0  0  0  0
   14.7146   -6.9586    3.9570 H   0  0  0  0  0
   12.2883   -8.7326    3.9011 H   0  0  0  0  0
   14.1237   -9.1496    2.7477 H   0  0  0  0  0
   15.1190   -8.6545    4.1287 H   0  0  0  0  0
   13.7341    0.9203    1.5394 H   0  0  0  0  0
   11.9189   -0.5818    6.1124 H   0  0  0  0  0
   11.2758    3.3839    5.0218 H   0  0  0  0  0
   11.9937    2.9186    2.7644 H   0  0  0  0  0
    9.3229    0.9004    7.8171 H   0  0  0  0  0
    9.4331    0.6703    6.0369 H   0  0  0  0  0
    9.3892    3.2856    7.2553 H   0  0  0  0  0
    8.4369    2.4518    4.5339 H   0  0  0  0  0
    9.7023    3.6007    4.8919 H   0  0  0  0  0
    7.2284    4.5553    4.2793 H   0  0  0  0  0
    8.1244    5.3504    5.4885 H   0  0  0  0  0
    5.7368    3.6227    5.8543 H   0  0  0  0  0
    6.4588    4.6914    7.0227 H   0  0  0  0  0
    7.2372    2.7289    8.0962 H   0  0  0  0  0
    6.9015    1.7380    6.6943 H   0  0  0  0  0
   11.4344    4.7388   -1.3697 H   0  0  0  0  0
   12.7668    3.7276   -2.0058 H   0  0  0  0  0
   13.3745    5.8111   -0.6644 H   0  0  0  0  0
   14.1513    4.2145   -0.1784 H   0  0  0  0  0
   13.4620    4.4328    1.8389 H   0  0  0  0  0
   10.7250    5.4127    0.9959 H   0  0  0  0  0
   11.2054    4.4743    2.5070 H   0  0  0  0  0
   11.0641    2.5376    1.5011 H   0  0  0  0  0
    9.9176    3.4779    0.3849 H   0  0  0  0  0
   11.9649    6.9727    1.3743 H   0  0  0  0  0
   13.7559    6.9131    1.1417 H   0  0  0  0  0
   13.3965    5.6631    3.5675 H   0  0  0  0  0
   12.1611    6.9335    3.6079 H   0  0  0  0  0
   14.9010    7.0143    3.7007 H   0  0  0  0  0
   13.8354    8.8701    1.6506 H   0  0  0  0  0
   15.1955    7.8228    1.5096 H   0  0  0  0  0
   15.5496   10.4572    2.2488 H   0  0  0  0  0
   16.6124    9.2411    2.8499 H   0  0  0  0  0
   14.6044   10.7567    4.3653 H   0  0  0  0  0
   15.7916    9.6498    4.9989 H   0  0  0  0  0
   13.9256    8.2452    5.4422 H   0  0  0  0  0
   12.9032    9.0997    4.3495 H   0  0  0  0  0
 20  1  1  0  0  0
 21  1  1  0  0  0
  1 22  1  0  0  0
 18  2  1  0  0  0
  2 21  1  0  0  0
 22  3  1  0  0  0
  3 23  1  0  0  0
  4  5  1  0  0  0
 24  4  1  0  0  0
  6  5  1  0  0  0
 23  6  1  0  0  0
 27  7  4  0  0  0
  7 28  4  0  0  0
 28  8  4  0  0  0
  8 29  4  0  0  0
  8 31  1  0  0  0
 10  9  2  0  0  0
 11 10  1  0  0  0
 10 38  1  0  0  0
 12 11  4  0  0  0
 11 16  4  0  0  0
 12 13  4  0  0  0
 26 12  1  0  0  0
 13 14  4  0  0  0
 14 15  4  0  0  0
 14 17  1  0  0  0
 16 15  4  0  0  0
 17 18  1  0  0  0
 17 25  2  0  0  0
 18 19  1  0  0  0
 19 20  1  0  0  0
 23 24  1  0  0  0
 26 27  1  0  0  0
 27 30  4  0  0  0
 29 30  4  0  0  0
 31 32  1  0  0  0
 32 33  1  0  0  0
 33 34  1  0  0  0
 33 37  1  0  0  0
 34 35  1  0  0  0
 35 36  1  0  0  0
 36 37  1  0  0  0
 38 39  1  0  0  0
 38 43  1  0  0  0
 39 40  1  0  0  0
 40 41  1  0  0  0
 41 42  1  0  0  0
 41 44  1  0  0  0
 42 43  1  0  0  0
 44 45  1  0  0  0
 45 46  1  0  0  0
 46 47  1  0  0  0
 46 50  1  0  0  0
 47 48  1  0  0  0
 48 49  1  0  0  0
 49 50  1  0  0  0
  1 51  1  0  0  0
  2 52  1  0  0  0
  2 53  1  0  0  0
  3 54  1  0  0  0
  3 55  1  0  0  0
  4 56  1  0  0  0
  4 57  1  0  0  0
  5 58  1  0  0  0
  5 59  1  0  0  0
  6 60  1  0  0  0
  6 61  1  0  0  0
  7 62  1  0  0  0
 13 63  1  0  0  0
 15 64  1  0  0  0
 16 65  1  0  0  0
 19 66  1  0  0  0
 19 67  1  0  0  0
 20 68  1  0  0  0
 20 69  1  0  0  0
 21 70  1  0  0  0
 21 71  1  0  0  0
 22 72  1  0  0  0
 22 73  1  0  0  0
 23 74  1  0  0  0
 24 75  1  0  0  0
 24 76  1  0  0  0
 26 77  1  0  0  0
 28 78  1  0  0  0
 29 79  1  0  0  0
 30 80  1  0  0  0
 32 81  1  0  0  0
 32 82  1  0  0  0
 33 83  1  0  0  0
 34 84  1  0  0  0
 34 85  1  0  0  0
 35 86  1  0  0  0
 35 87  1  0  0  0
 36 88  1  0  0  0
 36 89  1  0  0  0
 37 90  1  0  0  0
 37 91  1  0  0  0
 39 92  1  0  0  0
 39 93  1  0  0  0
 40 94  1  0  0  0
 40 95  1  0  0  0
 41 96  1  0  0  0
 42 97  1  0  0  0
 42 98  1  0  0  0
 43 99  1  0  0  0
 43100  1  0  0  0
 44101  1  0  0  0
 44102  1  0  0  0
 45103  1  0  0  0
 45104  1  0  0  0
 46105  1  0  0  0
 47106  1  0  0  0
 47107  1  0  0  0
 48108  1  0  0  0
 48109  1  0  0  0
 49110  1  0  0  0
 49111  1  0  0  0
 50112  1  0  0  0
 50113  1  0  0  0
M  END
$$$$
