4zz2_ligand
  -I-interpret- 

 50 52  0  0  0  0  0  0  0  0999 V2000
   49.8180   11.0110   26.6430 N   0  0  0  0  0
   50.8700   11.1690   25.8560 C   0  0  0  0  0
   51.5040   12.3520   25.7390 N   0  0  0  0  0
   51.0970   13.4490   26.4030 C   0  0  0  0  0
   48.1930   13.3620   28.6800 C   0  0  0  0  0
   49.9580   13.3290   27.2620 C   0  0  0  0  0
   48.3070   12.1170   28.1980 N   0  0  0  0  0
   49.2070   14.1820   28.1260 C   0  0  0  0  0
   49.3320   12.0560   27.3510 C   0  0  0  0  0
   51.6990   14.5170   26.2720 O   0  0  0  0  0
   51.3530   10.0700   25.1370 N   0  0  0  0  0
   49.2810   11.3710   32.9680 C   0  0  0  0  0
   50.0990   10.8740   34.0160 C   0  0  0  0  0
   51.1130   11.6870   34.4210 C   0  0  0  0  0
   50.9840   13.0760   33.4410 S   0  0  0  0  0
   49.6340   12.6090   32.5180 C   0  0  0  0  0
   49.8830    9.5870   34.6240 C   0  0  0  0  0
   50.7560    9.0760   35.3600 O   0  0  0  0  0
   48.6570    8.8760   34.3830 N   0  0  0  0  0
   48.4340    7.5890   34.9810 C   0  0  0  0  0
   47.1980    7.6060   35.8030 C   0  0  0  0  0
   47.1960    8.7440   36.8140 C   0  0  0  0  0
   45.8930    8.7750   37.6510 C   0  0  0  0  0
   45.3810    7.6770   38.0730 O   0  0  0  0  0
   45.3110    9.9160   37.9230 O   0  0  0  0  0
   48.2720    6.5320   33.8830 C   0  0  0  0  0
   48.5640    5.2920   34.1480 O   0  0  0  0  0
   47.8480    6.8720   32.7190 O   0  0  0  0  0
   47.1190   13.7740   29.7200 C   0  0  0  0  0
   47.5410   13.0970   31.0850 C   0  0  0  0  0
   49.0060   13.4150   31.4180 C   0  0  0  0  0
   49.3715   10.0968   26.7161 H   0  0  0  0  0
   49.3777   15.2411   28.3189 H   0  0  0  0  0
   52.1716   10.1728   24.5373 H   0  0  0  0  0
   48.4413   10.8103   32.5574 H   0  0  0  0  0
   51.8478   11.4922   35.2022 H   0  0  0  0  0
   47.9414    9.2877   33.7840 H   0  0  0  0  0
   49.2894    7.3512   35.6134 H   0  0  0  0  0
   47.1419    6.6653   36.3508 H   0  0  0  0  0
   46.3480    7.7443   35.1348 H   0  0  0  0  0
   47.2729    9.6845   36.2684 H   0  0  0  0  0
   48.0346    8.5966   37.4945 H   0  0  0  0  0
   45.8190   10.6332   37.5367 H   0  0  0  0  0
   48.8625    5.2221   35.0577 H   0  0  0  0  0
   46.1268   13.4463   29.4099 H   0  0  0  0  0
   47.0654   14.8581   29.8200 H   0  0  0  0  0
   47.4269   12.0169   30.9929 H   0  0  0  0  0
   46.9062   13.4846   31.8818 H   0  0  0  0  0
   49.5758   13.1901   30.5164 H   0  0  0  0  0
   49.0201   14.4507   31.7573 H   0  0  0  0  0
  1  2  1  0  0  0
  9  1  1  0  0  0
  3  2  4  0  0  0
  2 11  2  0  0  0
  4  3  1  0  0  0
  6  4  1  0  0  0
  4 10  2  0  0  0
  5  7  4  0  0  0
  5  8  4  0  0  0
 29  5  1  0  0  0
  8  6  4  0  0  0
  6  9  4  0  0  0
  7  9  4  0  0  0
 12 13  4  0  0  0
 16 12  4  0  0  0
 14 13  4  0  0  0
 13 17  1  0  0  0
 15 14  4  0  0  0
 16 15  4  0  0  0
 31 16  1  0  0  0
 17 18  2  0  0  0
 17 19  1  0  0  0
 19 20  1  0  0  0
 20 21  1  0  0  0
 20 26  1  0  0  0
 21 22  1  0  0  0
 22 23  1  0  0  0
 23 24  2  0  0  0
 23 25  1  0  0  0
 26 27  1  0  0  0
 26 28  2  0  0  0
 30 29  1  0  0  0
 30 31  1  0  0  0
  1 32  1  0  0  0
  8 33  1  0  0  0
 11 34  1  0  0  0
 12 35  1  0  0  0
 14 36  1  0  0  0
 19 37  1  0  0  0
 20 38  1  0  0  0
 21 39  1  0  0  0
 21 40  1  0  0  0
 22 41  1  0  0  0
 22 42  1  0  0  0
 25 43  1  0  0  0
 27 44  1  0  0  0
 29 45  1  0  0  0
 29 46  1  0  0  0
 30 47  1  0  0  0
 30 48  1  0  0  0
 31 49  1  0  0  0
 31 50  1  0  0  0
M  END
$$$$
