1hvs_ligand
  -I-interpret- 

116119  0  0  0  0  0  0  0  0999 V2000
    3.5100    3.4800   10.9120 C   0  0  0  0  0
    3.4010    4.2200   11.8740 O   0  0  0  0  0
    3.9770    3.9480    9.7340 N   0  0  0  0  0
    4.2570    3.0870    8.5790 C   0  0  0  0  0
    4.2450    5.3400    9.5550 C   0  0  0  0  0
    5.7260    5.5540    9.5920 C   0  0  0  0  0
    6.4710    5.6040    8.4260 C   0  0  0  0  0
    6.2330    5.7210   10.7900 N   0  0  0  0  0
    7.8180    5.8620    8.5190 C   0  0  0  0  0
    7.5300    5.9550   10.8530 C   0  0  0  0  0
    8.3670    6.0450    9.7650 C   0  0  0  0  0
    3.1750    2.1870   10.9770 N   0  0  0  0  0
    2.7630    1.4930   12.1580 C   0  0  0  0  0
    3.9020    0.5570   12.5420 C   0  0  0  0  0
    3.9500   -0.6130   12.1900 O   0  0  0  0  0
    1.4450    0.7500   11.9050 C   0  0  0  0  0
    0.9350   -0.0520   13.1280 C   0  0  0  0  0
    0.3580    1.6990   11.3980 C   0  0  0  0  0
    4.8410    1.1180   13.2860 N   0  0  0  0  0
    6.0420    0.4140   13.6900 C   0  0  0  0  0
    7.2750    1.2580   13.3490 C   0  0  0  0  0
    7.6120    1.2130   11.8990 C   0  0  0  0  0
    7.2320    2.2390   11.0570 C   0  0  0  0  0
    7.5100    2.1640    9.7190 C   0  0  0  0  0
    8.1600    1.0600    9.2310 C   0  0  0  0  0
    8.5580    0.0400   10.0740 C   0  0  0  0  0
    8.2890    0.1150   11.4130 C   0  0  0  0  0
    6.0140    0.2880   15.1650 C   0  0  0  0  0
    7.2100   -0.3640   15.5460 O   0  0  0  0  0
    5.1780   -0.2200   17.1760 O   0  0  0  0  0
    4.8230   -0.3660   15.8340 C   0  0  0  0  0
    5.7220   -2.6330   16.3070 N   0  0  0  0  0
    4.6460   -1.8620   15.6430 C   0  0  0  0  0
    3.2800   -2.2330   16.2470 C   0  0  0  0  0
    2.9310   -3.7210   16.1860 C   0  0  0  0  0
    2.9960   -4.5160   17.3310 C   0  0  0  0  0
    2.6860   -5.8610   17.2760 C   0  0  0  0  0
    2.3100   -6.4490   16.0970 C   0  0  0  0  0
    2.2310   -5.6780   14.9520 C   0  0  0  0  0
    2.5380   -4.3230   14.9950 C   0  0  0  0  0
    6.8350   -5.7600   16.7550 N   0  0  0  0  0
    7.3860   -4.4340   16.5220 C   0  0  0  0  0
    6.3750   -3.6460   15.7030 C   0  0  0  0  0
    6.1900   -3.9220   14.5280 O   0  0  0  0  0
    8.7230   -4.6000   15.8120 C   0  0  0  0  0
    9.3520   -3.2450   15.4470 C   0  0  0  0  0
    9.6830   -5.4520   16.6680 C   0  0  0  0  0
    6.6040   -6.2540   17.9820 C   0  0  0  0  0
    7.0510   -5.7360   18.9890 O   0  0  0  0  0
    5.8920   -7.3630   18.0710 N   0  0  0  0  0
    5.3520   -7.9890   16.8560 C   0  0  0  0  0
    5.6690   -7.9730   19.3750 C   0  0  0  0  0
    4.2440   -7.8210   19.8470 C   0  0  0  0  0
    3.3400   -8.8480   19.5810 C   0  0  0  0  0
    3.9180   -6.6890   20.4580 N   0  0  0  0  0
    2.0170   -8.7120   19.9230 C   0  0  0  0  0
    2.6310   -6.5680   20.7440 C   0  0  0  0  0
    1.6530   -7.5280   20.5140 C   0  0  0  0  0
    3.6491    3.4073    7.7328 H   0  0  0  0  0
    5.3128    3.1623    8.3187 H   0  0  0  0  0
    4.0163    2.0541    8.8306 H   0  0  0  0  0
    3.7687    5.9134   10.3503 H   0  0  0  0  0
    3.8473    5.6727    8.5962 H   0  0  0  0  0
    6.0001    5.4424    7.4563 H   0  0  0  0  0
    8.4370    5.9201    7.6237 H   0  0  0  0  0
    7.9712    6.0868   11.8409 H   0  0  0  0  0
    9.4297    6.2544    9.8873 H   0  0  0  0  0
    3.2168    1.6500   10.1108 H   0  0  0  0  0
    2.5659    2.1781   12.9826 H   0  0  0  0  0
    1.6702    0.0186   11.1288 H   0  0  0  0  0
    1.6791   -0.7977   13.4078 H   0  0  0  0  0
    0.7686    0.6283   13.9632 H   0  0  0  0  0
   -0.0003   -0.5490   12.8706 H   0  0  0  0  0
    0.1805    2.4763   12.1413 H   0  0  0  0  0
    0.6833    2.1558   10.4633 H   0  0  0  0  0
   -0.5618    1.1389   11.2294 H   0  0  0  0  0
    4.7149    2.0843   13.5873 H   0  0  0  0  0
    6.0856   -0.5522   13.1873 H   0  0  0  0  0
    8.1224    0.8560   13.9044 H   0  0  0  0  0
    7.0579    2.2932   13.6123 H   0  0  0  0  0
    6.7108    3.1084   11.4577 H   0  0  0  0  0
    7.2180    2.9727    9.0491 H   0  0  0  0  0
    8.3657    0.9858    8.1632 H   0  0  0  0  0
    9.0864   -0.8244    9.6719 H   0  0  0  0  0
    8.6054   -0.6819   12.0860 H   0  0  0  0  0
    5.9151    1.3116   15.5263 H   0  0  0  0  0
    7.2283   -0.4643   16.5006 H   0  0  0  0  0
    4.4932   -0.6014   17.7303 H   0  0  0  0  0
    3.9075    0.0786   15.4437 H   0  0  0  0  0
    5.9802   -2.3870   17.2626 H   0  0  0  0  0
    4.6948   -2.1073   14.5821 H   0  0  0  0  0
    2.5240   -1.7076   15.6635 H   0  0  0  0  0
    3.3172   -1.9608   17.3018 H   0  0  0  0  0
    3.2949   -4.0705   18.2798 H   0  0  0  0  0
    2.7413   -6.4628   18.1831 H   0  0  0  0  0
    2.0757   -7.5129   16.0621 H   0  0  0  0  0
    1.9263   -6.1352   14.0106 H   0  0  0  0  0
    2.4701   -3.7257   14.0858 H   0  0  0  0  0
    6.6135   -6.3425   15.9475 H   0  0  0  0  0
    7.5670   -3.8844   17.4457 H   0  0  0  0  0
    8.5395   -5.1241   14.8740 H   0  0  0  0  0
    8.6791   -2.7001   14.7849 H   0  0  0  0  0
    9.5174   -2.6661   16.3556 H   0  0  0  0  0
   10.3038   -3.4118   14.9426 H   0  0  0  0  0
    9.8475   -4.9594   17.6263 H   0  0  0  0  0
    9.2437   -6.4356   16.8343 H   0  0  0  0  0
   10.6337   -5.5608   16.1460 H   0  0  0  0  0
    4.6867   -7.2877   16.3524 H   0  0  0  0  0
    6.1730   -8.2549   16.1902 H   0  0  0  0  0
    4.7972   -8.8871   17.1274 H   0  0  0  0  0
    6.3172   -7.4740   20.0953 H   0  0  0  0  0
    5.8834   -9.0383   19.2894 H   0  0  0  0  0
    3.6847   -9.7631   19.0994 H   0  0  0  0  0
    1.2926   -9.5043   19.7346 H   0  0  0  0  0
    2.3099   -5.6318   21.2006 H   0  0  0  0  0
    0.6167   -7.3442   20.7975 H   0  0  0  0  0
  1  2  2  0  0  0
  1  3  1  0  0  0
 12  1  1  0  0  0
  3  4  1  0  0  0
  3  5  1  0  0  0
  5  6  1  0  0  0
  6  7  4  0  0  0
  6  8  4  0  0  0
  7  9  4  0  0  0
  8 10  4  0  0  0
  9 11  4  0  0  0
 10 11  4  0  0  0
 13 12  1  0  0  0
 14 13  1  0  0  0
 13 16  1  0  0  0
 14 15  2  0  0  0
 19 14  1  0  0  0
 16 17  1  0  0  0
 16 18  1  0  0  0
 20 19  1  0  0  0
 20 21  1  0  0  0
 28 20  1  0  0  0
 21 22  1  0  0  0
 22 23  4  0  0  0
 22 27  4  0  0  0
 23 24  4  0  0  0
 24 25  4  0  0  0
 26 25  4  0  0  0
 27 26  4  0  0  0
 28 29  1  0  0  0
 31 28  1  0  0  0
 33 31  1  0  0  0
 33 34  1  0  0  0
 34 35  1  0  0  0
 35 36  4  0  0  0
 35 40  4  0  0  0
 36 37  4  0  0  0
 37 38  4  0  0  0
 39 38  4  0  0  0
 40 39  4  0  0  0
 42 41  1  0  0  0
 41 48  1  0  0  0
 43 42  1  0  0  0
 42 45  1  0  0  0
 43 44  2  0  0  0
 45 46  1  0  0  0
 45 47  1  0  0  0
 48 49  2  0  0  0
 48 50  1  0  0  0
 50 51  1  0  0  0
 50 52  1  0  0  0
 52 53  1  0  0  0
 53 54  4  0  0  0
 53 55  4  0  0  0
 54 56  4  0  0  0
 55 57  4  0  0  0
 56 58  4  0  0  0
 57 58  4  0  0  0
 32 43  1  0  0  0
 33 32  1  0  0  0
 31 30  1  0  0  0
  4 59  1  0  0  0
  4 60  1  0  0  0
  4 61  1  0  0  0
  5 62  1  0  0  0
  5 63  1  0  0  0
  7 64  1  0  0  0
  9 65  1  0  0  0
 10 66  1  0  0  0
 11 67  1  0  0  0
 12 68  1  0  0  0
 13 69  1  0  0  0
 16 70  1  0  0  0
 17 71  1  0  0  0
 17 72  1  0  0  0
 17 73  1  0  0  0
 18 74  1  0  0  0
 18 75  1  0  0  0
 18 76  1  0  0  0
 19 77  1  0  0  0
 20 78  1  0  0  0
 21 79  1  0  0  0
 21 80  1  0  0  0
 23 81  1  0  0  0
 24 82  1  0  0  0
 25 83  1  0  0  0
 26 84  1  0  0  0
 27 85  1  0  0  0
 28 86  1  0  0  0
 29 87  1  0  0  0
 30 88  1  0  0  0
 31 89  1  0  0  0
 32 90  1  0  0  0
 33 91  1  0  0  0
 34 92  1  0  0  0
 34 93  1  0  0  0
 36 94  1  0  0  0
 37 95  1  0  0  0
 38 96  1  0  0  0
 39 97  1  0  0  0
 40 98  1  0  0  0
 41 99  1  0  0  0
 42100  1  0  0  0
 45101  1  0  0  0
 46102  1  0  0  0
 46103  1  0  0  0
 46104  1  0  0  0
 47105  1  0  0  0
 47106  1  0  0  0
 47107  1  0  0  0
 51108  1  0  0  0
 51109  1  0  0  0
 51110  1  0  0  0
 52111  1  0  0  0
 52112  1  0  0  0
 54113  1  0  0  0
 56114  1  0  0  0
 57115  1  0  0  0
 58116  1  0  0  0
M  END
$$$$
