### 
### Created by X-TOOL on Mon Sep 10 21:13:08 2018
### 

@<TRIPOS>MOLECULE
3tf7_ligand
  149   152     1     0     0
SMALL
GAST_HUCK


@<TRIPOS>ATOM
      1 N         -11.6560  -38.3080  -35.4320 N.4       1 GLN         0.2380
      2 CA        -12.7930  -37.4640  -34.9700 C.3       1 GLN         0.0671
      3 C         -14.1270  -38.2010  -35.0010 C.2       1 GLN         0.2269
      4 O         -14.3370  -39.1250  -35.7940 O.2       1 GLN        -0.3907
      5 CB        -12.8880  -36.1680  -35.7790 C.3       1 GLN         0.0247
      6 CG        -11.7890  -35.1610  -35.4870 C.3       1 GLN         0.0443
      7 CD        -11.6630  -34.8300  -34.0170 C.2       1 GLN         0.1738
      8 OE1       -12.4860  -34.1030  -33.4620 O.2       1 GLN        -0.3973
      9 NE2       -10.6220  -35.3520  -33.3780 N.am      1 GLN        -0.3009
     10 N         -15.0240  -37.7640  -34.1260 N.am      1 LEU        -0.2610
     11 CA        -16.3110  -38.4020  -33.9320 C.3       1 LEU         0.1313
     12 C         -17.3760  -37.7330  -34.7900 C.2       1 LEU         0.2040
     13 O         -17.1410  -36.6590  -35.3500 O.2       1 LEU        -0.3944
     14 CB        -16.6770  -38.3460  -32.4460 C.3       1 LEU        -0.0101
     15 CG        -15.7970  -39.1240  -31.4520 C.3       1 LEU        -0.0425
     16 CD1       -16.1460  -38.8980  -29.9800 C.3       1 LEU        -0.0625
     17 CD2       -15.7720  -40.6080  -31.7730 C.3       1 LEU        -0.0625
     18 N         -18.5360  -38.3790  -34.9110 N.am      1 SER        -0.2616
     19 CA        -19.6600  -37.8160  -35.6610 C.3       1 SER         0.1541
     20 C         -20.1910  -36.5540  -34.9730 C.2       1 SER         0.2087
     21 O         -19.9780  -36.3690  -33.7670 O.2       1 SER        -0.3941
     22 CB        -20.7810  -38.8500  -35.8310 C.3       1 SER         0.0843
     23 OG        -21.3790  -39.1750  -34.5910 O.3       1 SER        -0.3903
     24 N         -20.8730  -35.6750  -35.7350 N.am      1 PRO        -0.2498
     25 CA        -21.4700  -34.4960  -35.1170 C.3       1 PRO         0.1338
     26 C         -22.5130  -34.9020  -34.0830 C.2       1 PRO         0.2042
     27 O         -22.9480  -36.0600  -34.0650 O.2       1 PRO        -0.3944
     28 CB        -22.1400  -33.7850  -36.2970 C.3       1 PRO        -0.0104
     29 CG        -22.3380  -34.8530  -37.3250 C.3       1 PRO        -0.0281
     30 CD        -21.1410  -35.7220  -37.1830 C.3       1 PRO         0.0369
     31 N         -22.8890  -33.9570  -33.2260 N.am      1 PHE        -0.2619
     32 CA        -23.9080  -34.1780  -32.2100 C.3       1 PHE         0.1406
     33 C         -25.1710  -34.7240  -32.8840 C.2       1 PHE         0.2085
     34 O         -25.6980  -34.0980  -33.8080 O.2       1 PHE        -0.3940
     35 CB        -24.1950  -32.8650  -31.4860 C.3       1 PHE         0.0214
     36 CG        -24.9740  -33.0200  -30.2150 C.ar      1 PHE        -0.0386
     37 CD1       -24.3240  -33.2860  -29.0140 C.ar      1 PHE        -0.0601
     38 CD2       -26.3570  -32.8710  -30.2110 C.ar      1 PHE        -0.0601
     39 CE1       -25.0400  -33.4190  -27.8310 C.ar      1 PHE        -0.0686
     40 CE2       -27.0860  -33.0010  -29.0350 C.ar      1 PHE        -0.0686
     41 CZ        -26.4270  -33.2730  -27.8400 C.ar      1 PHE        -0.0687
     42 N         -25.6420  -35.9090  -32.4460 N.am      1 PRO        -0.2497
     43 CA        -26.7690  -36.5610  -33.1200 C.3       1 PRO         0.1338
     44 C         -28.0860  -35.8050  -32.9790 C.2       1 PRO         0.2042
     45 O         -28.2590  -35.0190  -32.0460 O.2       1 PRO        -0.3944
     46 CB        -26.8590  -37.9300  -32.4280 C.3       1 PRO        -0.0104
     47 CG        -26.1740  -37.7580  -31.1290 C.3       1 PRO        -0.0281
     48 CD        -25.1090  -36.7290  -31.3410 C.3       1 PRO         0.0369
     49 N         -28.9920  -36.0480  -33.9220 N.am      1 PHE        -0.2619
     50 CA        -30.3460  -35.5100  -33.8880 C.3       1 PHE         0.1404
     51 C         -31.1040  -36.0150  -32.6570 C.2       1 PHE         0.2060
     52 O         -30.7280  -37.0240  -32.0620 O.2       1 PHE        -0.3942
     53 CB        -31.0880  -35.9350  -35.1520 C.3       1 PHE         0.0214
     54 CG        -31.1720  -34.8720  -36.2090 C.ar      1 PHE        -0.0386
     55 CD1       -32.4100  -34.3380  -36.5660 C.ar      1 PHE        -0.0601
     56 CD2       -30.0320  -34.4220  -36.8660 C.ar      1 PHE        -0.0601
     57 CE1       -32.5110  -33.3650  -37.5520 C.ar      1 PHE        -0.0686
     58 CE2       -30.1190  -33.4470  -37.8490 C.ar      1 PHE        -0.0686
     59 CZ        -31.3620  -32.9140  -38.1940 C.ar      1 PHE        -0.0687
     60 N         -32.1690  -35.3140  -32.2780 N.am      1 ASP        -0.2620
     61 CA        -33.0100  -35.7410  -31.1630 C.3       1 ASP         0.1423
     62 C         -34.0080  -36.8050  -31.6070 C.2       1 ASP         0.2050
     63 O         -34.5730  -36.7190  -32.6980 O.2       1 ASP        -0.3943
     64 CB        -33.7490  -34.5500  -30.5500 C.3       1 ASP         0.0406
     65 CG        -32.9240  -33.8140  -29.5060 C.2       1 ASP         0.0393
     66 OD1       -31.8740  -34.3330  -29.0730 O.co2     1 ASP        -0.5688
     67 OD2       -33.3360  -32.7070  -29.1050 O.co2     1 ASP        -0.5688
     68 N         -34.2210  -37.7990  -30.7480 N.am      1 LEU        -0.2694
     69 CA        -35.1270  -38.9110  -31.0220 C.3       1 LEU         0.0946
     70 C         -36.6030  -38.5100  -31.0910 C.2       1 LEU         0.0601
     71 O         -36.9590  -37.3470  -30.9010 O.co2     1 LEU        -0.5666
     72 CB        -34.9290  -40.0070  -29.9730 C.3       1 LEU        -0.0156
     73 CG        -33.5950  -40.7580  -29.8930 C.3       1 LEU        -0.0431
     74 CD1       -33.5030  -41.7110  -28.7120 C.3       1 LEU        -0.0625
     75 CD2       -33.3410  -41.4940  -31.1940 C.3       1 LEU        -0.0625
     76 H         -11.6196  -39.1617  -34.8750 H         1 GLN         0.2015
     77 H         -11.7889  -38.5471  -36.4146 H         1 GLN         0.2015
     78 H         -10.7836  -37.7911  -35.3216 H         1 GLN         0.2015
     79 H         -12.5824  -37.2175  -33.9293 H         1 GLN         0.1100
     80 H         -13.8332  -35.6946  -35.5131 H         1 GLN         0.0370
     81 H         -12.7991  -36.4411  -36.8305 H         1 GLN         0.0370
     82 H         -12.0357  -34.2393  -36.0140 H         1 GLN         0.0506
     83 H         -10.8444  -35.5986  -35.8101 H         1 GLN         0.0506
     84 H         -10.4806  -35.1549  -32.3873 H         1 GLN         0.1814
     85 H          -9.9641  -35.9499  -33.8781 H         1 GLN         0.1814
     86 H         -14.7977  -36.9427  -33.5651 H         1 LEU         0.1884
     87 H         -16.2534  -39.4452  -34.2428 H         1 LEU         0.0800
     88 H         -17.6642  -38.8026  -32.3752 H         1 LEU         0.0315
     89 H         -16.5737  -37.2984  -32.1633 H         1 LEU         0.0315
     90 H         -14.7973  -38.7108  -31.5859 H         1 LEU         0.0298
     91 H         -16.0357  -37.8405  -29.7400 H         1 LEU         0.0232
     92 H         -17.1757  -39.2072  -29.8004 H         1 LEU         0.0232
     93 H         -15.4744  -39.4859  -29.3543 H         1 LEU         0.0232
     94 H         -16.7853  -41.0065  -31.7224 H         1 LEU         0.0232
     95 H         -15.3722  -40.7547  -32.7764 H         1 LEU         0.0232
     96 H         -15.1406  -41.1243  -31.0498 H         1 LEU         0.0232
     97 H         -18.6433  -39.2916  -34.4683 H         1 SER         0.1884
     98 H         -19.2995  -37.5422  -36.6526 H         1 SER         0.0823
     99 H         -20.3520  -39.7575  -36.2558 H         1 SER         0.0606
    100 H         -21.5454  -38.4265  -36.4825 H         1 SER         0.0606
    101 H         -22.0740  -39.8221  -34.7320 H         1 SER         0.2097
    102 H         -20.7444  -33.8744  -34.5923 H         1 PRO         0.0802
    103 H         -21.5296  -32.9654  -36.6761 H         1 PRO         0.0313
    104 H         -23.0828  -33.3204  -36.0082 H         1 PRO         0.0313
    105 H         -22.4320  -34.4435  -38.3308 H         1 PRO         0.0287
    106 H         -23.2663  -35.4035  -37.1727 H         1 PRO         0.0287
    107 H         -21.3059  -36.7346  -37.5512 H         1 PRO         0.0524
    108 H         -20.2963  -35.3816  -37.7819 H         1 PRO         0.0524
    109 H         -22.4454  -33.0403  -33.2829 H         1 PHE         0.1885
    110 H         -23.5618  -34.9044  -31.4747 H         1 PHE         0.0823
    111 H         -24.7959  -32.2525  -32.1582 H         1 PHE         0.0474
    112 H         -23.2325  -32.4273  -31.2213 H         1 PHE         0.0474
    113 H         -23.2392  -33.3914  -29.0011 H         1 PHE         0.0557
    114 H         -26.8762  -32.6492  -31.1433 H         1 PHE         0.0557
    115 H         -24.5193  -33.6368  -26.8985 H         1 PHE         0.0599
    116 H         -28.1703  -32.8903  -29.0487 H         1 PHE         0.0599
    117 H         -26.9931  -33.3717  -26.9138 H         1 PHE         0.0559
    118 H         -26.6043  -36.6141  -34.1962 H         1 PRO         0.0802
    119 H         -26.3927  -38.7128  -33.0263 H         1 PRO         0.0313
    120 H         -27.8941  -38.2451  -32.2965 H         1 PRO         0.0313
    121 H         -25.7435  -38.6995  -30.7880 H         1 PRO         0.0287
    122 H         -26.8755  -37.4394  -30.3579 H         1 PRO         0.0287
    123 H         -24.9077  -36.1434  -30.4440 H         1 PRO         0.0524
    124 H         -24.1406  -37.1706  -31.5763 H         1 PRO         0.0524
    125 H         -28.7258  -36.6406  -34.7084 H         1 PHE         0.1885
    126 H         -30.2880  -34.4228  -33.8349 H         1 PHE         0.0823
    127 H         -32.1097  -36.1749  -34.8577 H         1 PHE         0.0474
    128 H         -30.5353  -36.7704  -35.5817 H         1 PHE         0.0474
    129 H         -33.3114  -34.6894  -36.0639 H         1 PHE         0.0557
    130 H         -29.0595  -34.8399  -36.6058 H         1 PHE         0.0557
    131 H         -33.4852  -32.9569  -37.8214 H         1 PHE         0.0599
    132 H         -29.2172  -33.0974  -38.3516 H         1 PHE         0.0599
    133 H         -31.4324  -32.1463  -38.9645 H         1 PHE         0.0559
    134 H         -32.4041  -34.4569  -32.7785 H         1 ASP         0.1884
    135 H         -32.3582  -36.1740  -30.4042 H         1 ASP         0.0819
    136 H         -34.6440  -34.9312  -30.0583 H         1 ASP         0.0478
    137 H         -33.9719  -33.8477  -31.3533 H         1 ASP         0.0478
    138 H         -33.7277  -37.7833  -29.8554 H         1 LEU         0.1875
    139 H         -34.8701  -39.2792  -32.0152 H         1 LEU         0.0726
    140 O1        -37.4702  -39.3875  -31.3472 O.co2     1 LEU        -0.5666
    141 H         -35.6579  -40.7730  -30.2377 H         1 LEU         0.0308
    142 H         -35.0076  -39.4879  -29.0178 H         1 LEU         0.0308
    143 H         -32.8208  -40.0077  -29.7321 H         1 LEU         0.0297
    144 H         -33.6177  -41.1502  -27.7844 H         1 LEU         0.0232
    145 H         -34.2936  -42.4576  -28.7868 H         1 LEU         0.0232
    146 H         -32.5320  -42.2061  -28.7211 H         1 LEU         0.0232
    147 H         -34.1466  -42.2069  -31.3699 H         1 LEU         0.0232
    148 H         -33.3030  -40.7770  -32.0141 H         1 LEU         0.0232
    149 H         -32.3914  -42.0254  -31.1300 H         1 LEU         0.0232
@<TRIPOS>BOND
     1    1    2 1  
     2    2    3 1  
     3    2    5 1  
     4    3    4 2  
     5    3   10 am 
     6    5    6 1  
     7    6    7 1  
     8    7    8 2  
     9    7    9 am 
    10   10   11 1  
    11   11   12 1  
    12   11   14 1  
    13   12   13 2  
    14   12   18 am 
    15   14   15 1  
    16   15   16 1  
    17   15   17 1  
    18   18   19 1  
    19   19   20 1  
    20   19   22 1  
    21   20   21 2  
    22   20   24 am 
    23   22   23 1  
    24   24   25 1  
    25   24   30 1  
    26   25   26 1  
    27   25   28 1  
    28   26   27 2  
    29   26   31 am 
    30   28   29 1  
    31   29   30 1  
    32   31   32 1  
    33   32   33 1  
    34   32   35 1  
    35   33   34 2  
    36   33   42 am 
    37   35   36 1  
    38   36   37 ar 
    39   36   38 ar 
    40   37   39 ar 
    41   38   40 ar 
    42   39   41 ar 
    43   40   41 ar 
    44   42   43 1  
    45   42   48 1  
    46   43   44 1  
    47   43   46 1  
    48   44   45 2  
    49   44   49 am 
    50   46   47 1  
    51   47   48 1  
    52   49   50 1  
    53   50   51 1  
    54   50   53 1  
    55   51   52 2  
    56   51   60 am 
    57   53   54 1  
    58   54   55 ar 
    59   54   56 ar 
    60   55   57 ar 
    61   56   58 ar 
    62   57   59 ar 
    63   58   59 ar 
    64   60   61 1  
    65   61   62 1  
    66   61   64 1  
    67   62   63 2  
    68   62   68 am 
    69   64   65 1  
    70   65   66 ar 
    71   65   67 ar 
    72   68   69 1  
    73   69   70 1  
    74   69   72 1  
    75   70   71 ar 
    76   72   73 1  
    77   73   74 1  
    78   73   75 1  
    79    1   76 1  
    80    1   77 1  
    81    1   78 1  
    82    2   79 1  
    83    5   80 1  
    84    5   81 1  
    85    6   82 1  
    86    6   83 1  
    87    9   84 1  
    88    9   85 1  
    89   10   86 1  
    90   11   87 1  
    91   14   88 1  
    92   14   89 1  
    93   15   90 1  
    94   16   91 1  
    95   16   92 1  
    96   16   93 1  
    97   17   94 1  
    98   17   95 1  
    99   17   96 1  
   100   18   97 1  
   101   19   98 1  
   102   22   99 1  
   103   22  100 1  
   104   23  101 1  
   105   25  102 1  
   106   28  103 1  
   107   28  104 1  
   108   29  105 1  
   109   29  106 1  
   110   30  107 1  
   111   30  108 1  
   112   31  109 1  
   113   32  110 1  
   114   35  111 1  
   115   35  112 1  
   116   37  113 1  
   117   38  114 1  
   118   39  115 1  
   119   40  116 1  
   120   41  117 1  
   121   43  118 1  
   122   46  119 1  
   123   46  120 1  
   124   47  121 1  
   125   47  122 1  
   126   48  123 1  
   127   48  124 1  
   128   49  125 1  
   129   50  126 1  
   130   53  127 1  
   131   53  128 1  
   132   55  129 1  
   133   56  130 1  
   134   57  131 1  
   135   58  132 1  
   136   59  133 1  
   137   60  134 1  
   138   61  135 1  
   139   64  136 1  
   140   64  137 1  
   141   68  138 1  
   142   69  139 1  
   143   70  140 ar 
   144   72  141 1  
   145   72  142 1  
   146   73  143 1  
   147   74  144 1  
   148   74  145 1  
   149   74  146 1  
   150   75  147 1  
   151   75  148 1  
   152   75  149 1  
@<TRIPOS>SUBSTRUCTURE
     1 GLN         1

