5gty_ligand
  -I-interpret- 

 64 68  0  0  0  0  0  0  0  0999 V2000
  -37.2840   18.5910  -61.3840 C   0  0  0  0  0
  -36.3240   18.0560  -62.1030 C   0  0  0  0  0
  -36.5300   17.7450  -63.3740 C   0  0  0  0  0
  -37.7050   17.9480  -63.9650 N   0  0  0  0  0
  -38.4820   18.8240  -61.9190 N   0  0  0  0  0
  -38.7340   18.5030  -63.2410 C   0  0  0  0  0
  -30.8950   11.9380  -63.5030 C   0  0  0  0  0
  -29.4850   12.1330  -60.1420 C   0  0  0  0  0
  -30.0060   11.5950  -61.3070 C   0  0  0  0  0
  -29.3490   13.5080  -60.0310 C   0  0  0  0  0
  -33.4740   16.7040  -60.5290 C   0  0  0  0  0
  -32.1760   16.2450  -60.7250 C   0  0  0  0  0
  -33.3800   17.9140  -62.5920 C   0  0  0  0  0
  -36.7480   21.6840  -59.4410 C   0  0  0  0  0
  -39.0580   19.1550  -56.3350 C   0  0  0  0  0
  -37.9890   19.7280  -55.4210 C   0  0  0  0  0
  -37.9740   20.7930  -59.4270 C   0  0  0  0  0
  -36.2500   21.8200  -58.0310 C   0  0  0  0  0
  -29.6140   15.6840  -61.0000 C   0  0  0  0  0
  -36.8010   19.3770  -57.8110 C   0  0  0  0  0
  -37.4140   20.9600  -56.0810 C   0  0  0  0  0
  -30.3740   12.4500  -62.3310 C   0  0  0  0  0
  -32.0920   17.4550  -62.7860 C   0  0  0  0  0
  -29.7340   14.3160  -61.0840 C   0  0  0  0  0
  -34.0840   17.5270  -61.4630 C   0  0  0  0  0
  -31.4950   16.6340  -61.8640 C   0  0  0  0  0
  -35.3170   17.9750  -61.2500 C   0  0  0  0  0
  -37.5790   19.3700  -59.0920 C   0  0  0  0  0
  -35.5100   17.2170  -64.0310 N   0  0  0  0  0
  -30.2290   13.7720  -62.1970 N   0  0  0  0  0
  -35.7210   18.4650  -60.0880 N   0  0  0  0  0
  -36.8280   20.7280  -57.2510 N   0  0  0  0  0
  -36.7960   18.7960  -60.1670 N   0  0  0  0  0
  -37.4980   22.0630  -55.5500 O   0  0  0  0  0
  -30.2320   16.2440  -62.1490 O   0  0  0  0  0
  -31.2670   17.8750  -64.0750 Cl  0  0  0  0  0
  -39.7102   18.6830  -63.6912 H   0  0  0  0  0
  -30.1648   11.2724  -63.9634 H   0  0  0  0  0
  -31.8063   11.3824  -63.2818 H   0  0  0  0  0
  -31.1236   12.7565  -64.1856 H   0  0  0  0  0
  -29.1850   11.4819  -59.3209 H   0  0  0  0  0
  -30.1241   10.5169  -61.4154 H   0  0  0  0  0
  -28.9418   13.9483  -59.1208 H   0  0  0  0  0
  -34.0182   16.4132  -59.6304 H   0  0  0  0  0
  -31.7034   15.5897  -59.9933 H   0  0  0  0  0
  -33.8407   18.5777  -63.3237 H   0  0  0  0  0
  -37.0020   22.6641  -59.8446 H   0  0  0  0  0
  -35.9738   21.2459  -60.0710 H   0  0  0  0  0
  -39.8403   19.8985  -56.4877 H   0  0  0  0  0
  -38.6117   18.8930  -57.2943 H   0  0  0  0  0
  -39.4865   18.2637  -55.8766 H   0  0  0  0  0
  -37.2035   18.9907  -55.2550 H   0  0  0  0  0
  -38.4220   19.9879  -54.4550 H   0  0  0  0  0
  -38.4416   20.8122  -60.4114 H   0  0  0  0  0
  -38.6725   21.1573  -58.6736 H   0  0  0  0  0
  -36.5459   22.7828  -57.6145 H   0  0  0  0  0
  -35.1614   21.7705  -58.0058 H   0  0  0  0  0
  -28.5631   15.9703  -60.9576 H   0  0  0  0  0
  -30.0954   16.0516  -60.0938 H   0  0  0  0  0
  -35.7708   19.0770  -58.0027 H   0  0  0  0  0
  -37.2453   18.6754  -57.1050 H   0  0  0  0  0
  -38.4722   18.7572  -58.9705 H   0  0  0  0  0
  -34.6197   17.0680  -63.5561 H   0  0  0  0  0
  -35.6141   16.9590  -65.0123 H   0  0  0  0  0
  1  2  4  0  0  0
  1  5  4  0  0  0
 33  1  4  0  0  0
  2  3  4  0  0  0
  2 27  4  0  0  0
  3  4  4  0  0  0
  3 29  1  0  0  0
  6  4  4  0  0  0
  5  6  4  0  0  0
 22  7  1  0  0  0
  8  9  4  0  0  0
 10  8  4  0  0  0
 22  9  4  0  0  0
 24 10  4  0  0  0
 11 12  4  0  0  0
 25 11  4  0  0  0
 12 26  4  0  0  0
 13 23  4  0  0  0
 25 13  4  0  0  0
 17 14  1  0  0  0
 14 18  1  0  0  0
 16 15  1  0  0  0
 21 16  1  0  0  0
 28 17  1  0  0  0
 32 18  1  0  0  0
 19 24  1  0  0  0
 35 19  1  0  0  0
 28 20  1  0  0  0
 20 32  1  0  0  0
 32 21  1  0  0  0
 21 34  2  0  0  0
 30 22  4  0  0  0
 23 26  4  0  0  0
 23 36  1  0  0  0
 24 30  4  0  0  0
 27 25  1  0  0  0
 26 35  1  0  0  0
 27 31  4  0  0  0
 28 33  1  0  0  0
 31 33  4  0  0  0
  6 37  1  0  0  0
  7 38  1  0  0  0
  7 39  1  0  0  0
  7 40  1  0  0  0
  8 41  1  0  0  0
  9 42  1  0  0  0
 10 43  1  0  0  0
 11 44  1  0  0  0
 12 45  1  0  0  0
 13 46  1  0  0  0
 14 47  1  0  0  0
 14 48  1  0  0  0
 15 49  1  0  0  0
 15 50  1  0  0  0
 15 51  1  0  0  0
 16 52  1  0  0  0
 16 53  1  0  0  0
 17 54  1  0  0  0
 17 55  1  0  0  0
 18 56  1  0  0  0
 18 57  1  0  0  0
 19 58  1  0  0  0
 19 59  1  0  0  0
 20 60  1  0  0  0
 20 61  1  0  0  0
 28 62  1  0  0  0
 29 63  1  0  0  0
 29 64  1  0  0  0
M  END
$$$$
