5lj0_ligand
  -I-interpret- 

 74 78  0  0  0  0  0  0  0  0999 V2000
  -32.5520   41.7310   13.5920 C   0  0  0  0  0
  -31.4070   42.5400    9.3150 C   0  0  0  0  0
  -30.0250   43.1740    9.1930 C   0  0  0  0  0
  -29.1150   42.7730   17.3260 C   0  0  0  0  0
  -29.6630   43.3770   16.1550 O   0  0  0  0  0
  -30.3360   42.4630   15.2830 C   0  0  0  0  0
  -31.7160   42.1090   15.8280 C   0  0  0  0  0
  -32.3780   41.1650   14.9290 N   0  3  0  0  0
  -31.2050   42.1210   12.9980 C   0  0  0  0  0
  -31.3860   42.7310   11.7180 O   0  0  0  0  0
  -31.5520   41.8180   10.6300 C   0  0  0  0  0
  -29.8370   43.8780    7.8490 C   0  0  0  0  0
  -30.0930   42.9120    6.7330 C   0  0  0  0  0
  -29.9640   43.5580    5.5300 F   0  0  0  0  0
  -29.1040   41.9590    6.7160 F   0  0  0  0  0
  -31.4300   42.2400    6.7970 C   0  0  0  0  0
  -31.6250   41.5680    8.1570 C   0  0  0  0  0
  -30.4560   43.0820   13.9030 C   0  0  0  0  0
  -29.1290   43.3260   13.3730 N   0  0  0  0  0
  -28.7740   44.3440   12.5660 C   0  0  0  0  0
  -29.7020   45.3000   12.3220 N   0  0  0  0  0
  -29.3940   46.3370   11.5340 C   0  0  0  0  0
  -28.1770   46.5320   10.9010 C   0  0  0  0  0
  -27.9490   47.7540   10.0770 C   0  0  0  0  0
  -26.9070   48.6260   10.3690 C   0  0  0  0  0
  -26.6560   49.7440    9.6810 N   0  0  0  0  0
  -27.4760   50.0460    8.6690 C   0  0  0  0  0
  -28.5590   49.2690    8.2940 C   0  0  0  0  0
  -29.4520   49.6650    7.1430 C   0  0  0  0  0
  -28.7880   48.1140    9.0270 C   0  0  0  0  0
  -27.1760   45.5740   11.1350 C   0  0  0  0  0
  -25.8540   45.6170   10.5650 C   0  0  0  0  0
  -24.9320   44.6620   10.8160 C   0  0  0  0  0
  -23.5560   44.7280   10.2020 C   0  0  0  0  0
  -25.2630   43.5440   11.6840 C   0  0  0  0  0
  -24.4950   42.6280   11.9730 O   0  0  0  0  0
  -26.5170   43.5300   12.1840 N   0  0  0  0  0
  -27.4930   44.4870   11.9680 C   0  0  0  0  0
  -33.1784   42.6202   13.6628 H   0  0  0  0  0
  -33.0193   40.9846   12.9497 H   0  0  0  0  0
  -32.1586   43.3284    9.2762 H   0  0  0  0  0
  -29.2784   42.3838    9.2721 H   0  0  0  0  0
  -29.9181   43.9153    9.9849 H   0  0  0  0  0
  -29.9155   42.3102   17.9031 H   0  0  0  0  0
  -28.3889   42.0137   17.0357 H   0  0  0  0  0
  -28.6235   43.5354   17.9304 H   0  0  0  0  0
  -29.7556   41.5426   15.2186 H   0  0  0  0  0
  -32.3165   43.0156   15.9034 H   0  0  0  0  0
  -31.6081   41.6533   16.8123 H   0  0  0  0  0
  -31.7978   40.3295   14.8533 H   0  0  0  0  0
  -33.2987   40.9471   15.3101 H   0  0  0  0  0
  -30.6175   41.2087   12.8949 H   0  0  0  0  0
  -30.7889   41.0426   10.6964 H   0  0  0  0  0
  -32.5465   41.3754   10.6853 H   0  0  0  0  0
  -28.8156   44.2515    7.7765 H   0  0  0  0  0
  -30.5381   44.7093    7.7753 H   0  0  0  0  0
  -31.4839   41.4819    6.0157 H   0  0  0  0  0
  -32.2102   42.9880    6.6557 H   0  0  0  0  0
  -32.6496   41.1999    8.2105 H   0  0  0  0  0
  -30.8950   40.7636    8.2464 H   0  0  0  0  0
  -30.9979   44.0261   13.9596 H   0  0  0  0  0
  -28.3969   42.6660   13.6354 H   0  0  0  0  0
  -30.1651   47.0913   11.3771 H   0  0  0  0  0
  -26.2559   48.3838   11.2089 H   0  0  0  0  0
  -27.2802   50.9583    8.1056 H   0  0  0  0  0
  -29.9016   50.6359    7.3510 H   0  0  0  0  0
  -28.8601   49.7254    6.2297 H   0  0  0  0  0
  -30.2368   48.9186    7.0202 H   0  0  0  0  0
  -29.6378   47.4789    8.7768 H   0  0  0  0  0
  -25.5888   46.4469    9.9099 H   0  0  0  0  0
  -23.6434   44.7166    9.1156 H   0  0  0  0  0
  -23.0620   45.6467   10.5185 H   0  0  0  0  0
  -22.9716   43.8682   10.5298 H   0  0  0  0  0
  -26.7689   42.7393   12.7771 H   0  0  0  0  0
  1  8  1  0  0  0
  9  1  1  0  0  0
  2  3  1  0  0  0
 11  2  1  0  0  0
  2 17  1  0  0  0
  3 12  1  0  0  0
  5  4  1  0  0  0
  6  5  1  0  0  0
  6  7  1  0  0  0
 18  6  1  0  0  0
  8  7  1  0  0  0
 10  9  1  0  0  0
  9 18  1  0  0  0
 10 11  1  0  0  0
 12 13  1  0  0  0
 13 14  1  0  0  0
 13 15  1  0  0  0
 13 16  1  0  0  0
 16 17  1  0  0  0
 18 19  1  0  0  0
 19 20  1  0  0  0
 20 21  4  0  0  0
 20 38  4  0  0  0
 21 22  4  0  0  0
 22 23  4  0  0  0
 23 24  1  0  0  0
 23 31  4  0  0  0
 24 25  4  0  0  0
 24 30  4  0  0  0
 25 26  4  0  0  0
 26 27  4  0  0  0
 27 28  4  0  0  0
 28 29  1  0  0  0
 28 30  4  0  0  0
 31 32  1  0  0  0
 31 38  4  0  0  0
 32 33  2  0  0  0
 33 34  1  0  0  0
 33 35  1  0  0  0
 35 36  2  0  0  0
 35 37  1  0  0  0
 37 38  1  0  0  0
  1 39  1  0  0  0
  1 40  1  0  0  0
  2 41  1  0  0  0
  3 42  1  0  0  0
  3 43  1  0  0  0
  4 44  1  0  0  0
  4 45  1  0  0  0
  4 46  1  0  0  0
  6 47  1  0  0  0
  7 48  1  0  0  0
  7 49  1  0  0  0
  8 50  1  0  0  0
  8 51  1  0  0  0
  9 52  1  0  0  0
 11 53  1  0  0  0
 11 54  1  0  0  0
 12 55  1  0  0  0
 12 56  1  0  0  0
 16 57  1  0  0  0
 16 58  1  0  0  0
 17 59  1  0  0  0
 17 60  1  0  0  0
 18 61  1  0  0  0
 19 62  1  0  0  0
 22 63  1  0  0  0
 25 64  1  0  0  0
 27 65  1  0  0  0
 29 66  1  0  0  0
 29 67  1  0  0  0
 29 68  1  0  0  0
 30 69  1  0  0  0
 32 70  1  0  0  0
 34 71  1  0  0  0
 34 72  1  0  0  0
 34 73  1  0  0  0
 37 74  1  0  0  0
M  END
$$$$
