3iqq_ligand
  -I-interpret- 

160161  0  0  0  0  0  0  0  0999 V2000
   -0.7460    7.7710   13.2860 N   0  3  0  0  0
    0.1980    7.6100   14.4350 C   0  0  0  0  0
    1.4900    8.3880   14.1580 C   0  0  0  0  0
    2.2740    8.0020   13.2920 O   0  0  0  0  0
    0.5180    6.1100   14.6860 C   0  0  0  0  0
    1.2450    5.9570   15.9150 O   0  0  0  0  0
    1.3450    5.4950   13.5280 C   0  0  0  0  0
    1.7140    9.4860   14.8790 N   0  0  0  0  0
    2.8590   10.3420   14.5640 C   0  0  0  0  0
    4.1770    9.6520   14.8640 C   0  0  0  0  0
    4.4690    9.2860   15.9870 O   0  0  0  0  0
    2.7540   11.7250   15.1900 C   0  0  0  0  0
    1.6810   12.5430   14.5130 C   0  0  0  0  0
    2.1140   13.9490   14.1440 C   0  0  0  0  0
    1.0660   14.6250   13.2370 C   0  0  0  0  0
    0.0290   15.3650   14.0060 N   0  3  0  0  0
    4.9680    9.5310   13.8110 N   0  0  0  0  0
    6.0030    8.5170   13.6420 C   0  0  0  0  0
    7.3210    9.2160   13.4890 C   0  0  0  0  0
    8.2990    8.6360   12.9810 O   0  0  0  0  0
    5.7780    7.8710   12.2800 C   0  0  0  0  0
    5.8990    6.3620   12.3280 C   0  0  0  0  0
    6.7190    8.4730   11.2280 C   0  0  0  0  0
    5.9770    5.7930   10.9560 C   0  0  0  0  0
    7.3310   10.4470   13.9860 N   0  0  0  0  0
    7.9390   11.5860   13.3190 C   0  0  0  0  0
    9.2850   11.9810   13.9900 C   0  0  0  0  0
    9.8620   11.1160   14.6320 O   0  0  0  0  0
    6.8880   12.6910   13.4740 C   0  0  0  0  0
    6.7940   13.5920   12.2760 C   0  0  0  0  0
    7.5450   13.3780   11.3090 O   0  0  0  0  0
    5.9680   14.5190   12.2910 O   0  0  0  0  0
    9.9010   13.1580   13.7610 N   0  0  0  0  0
   10.3610   13.6660   12.4640 C   0  0  0  0  0
   11.8640   13.4340   12.5040 C   0  0  0  0  0
   12.5100   13.3520   11.4710 O   0  0  0  0  0
   10.1480   15.1800   12.2820 C   0  0  0  0  0
    9.1060   15.5730   11.2420 C   0  0  0  0  0
    8.0630   16.4470   11.4150 C   0  0  0  0  0
    9.0060   15.1020    9.8860 C   0  0  0  0  0
    7.3210   16.5430   10.2600 N   0  0  0  0  0
    7.8730   15.7280    9.3090 C   0  0  0  0  0
    9.7500   14.2070    9.1120 C   0  0  0  0  0
    7.4740   15.4890    7.9930 C   0  0  0  0  0
    9.3540   13.9710    7.8060 C   0  0  0  0  0
    8.2250   14.6140    7.2570 C   0  0  0  0  0
   12.4170   13.3450   13.7140 N   0  0  0  0  0
   13.8560   13.1480   13.9190 C   0  0  0  0  0
   14.2130   11.6900   13.6830 C   0  0  0  0  0
   15.3840   11.3060   13.7080 O   0  0  0  0  0
   14.2580   13.5440   15.3470 C   0  0  0  0  0
   13.3720   14.6410   15.9330 C   0  0  0  0  0
   12.2530   14.3810   16.3920 O   0  0  0  0  0
   13.8760   15.8710   15.9260 N   0  0  0  0  0
   13.1790   10.8930   13.4170 N   0  0  0  0  0
   13.2430    9.4440   13.5510 C   0  0  0  0  0
   13.8440    8.5690   12.4270 C   0  0  0  0  0
   14.6850    7.7370   12.7730 O   0  0  0  0  0
   11.8910    8.8760   14.0290 C   0  0  0  0  0
   11.9610    7.5060   14.7170 C   0  0  0  0  0
   10.6110    7.1380   15.3450 C   0  0  0  0  0
   10.5320    5.6560   15.7440 C   0  0  0  0  0
    9.1090    5.2050   15.9590 N   0  3  0  0  0
   13.5290    8.6810   11.1200 N   0  0  0  0  0
   13.1580    9.8390   10.2380 C   0  0  0  0  0
   14.3390   10.7770    9.8470 C   0  0  0  0  0
   15.3560   10.2900    9.3260 O   0  0  0  0  0
   11.7210   10.4650   10.4490 C   0  0  0  0  0
   10.6530    9.3700   10.5370 C   0  0  0  0  0
   11.3500   11.3380    9.2550 C   0  0  0  0  0
   10.3600    8.6350    9.2000 C   0  0  0  0  0
   14.1770   12.0920   10.0570 N   0  0  0  0  0
   15.1910   13.1490    9.8210 C   0  0  0  0  0
   14.7760   14.1370    8.7190 C   0  0  0  0  0
   13.8080   14.9000    8.8650 O   0  0  0  0  0
   16.5940   12.5840    9.5550 C   0  0  0  0  0
   15.3950   14.2060    7.6450 O   0  0  0  0  0
   -0.9392    8.7622   13.1426 H   0  0  0  0  0
   -0.3241    7.3803   12.4436 H   0  0  0  0  0
   -1.6162    7.2799   13.4911 H   0  0  0  0  0
   -0.2771    8.0086   15.3313 H   0  0  0  0  0
   -0.4340    5.5826   14.7462 H   0  0  0  0  0
    0.7367    6.3365   16.6355 H   0  0  0  0  0
    2.3032    6.0093   13.4545 H   0  0  0  0  0
    1.5135    4.4364   13.7259 H   0  0  0  0  0
    0.7977    5.6084   12.5922 H   0  0  0  0  0
    1.0896    9.7293   15.6480 H   0  0  0  0  0
    2.8364   10.5125   13.4877 H   0  0  0  0  0
    3.7098   12.2358   15.0736 H   0  0  0  0  0
    2.4977   11.6142   16.2436 H   0  0  0  0  0
    0.8535   12.6347   15.2165 H   0  0  0  0  0
    1.4225   12.0315   13.5858 H   0  0  0  0  0
    3.0610   13.8954   13.6070 H   0  0  0  0  0
    2.2189   14.5352   15.0569 H   0  0  0  0  0
    0.5642   13.8433   12.6668 H   0  0  0  0  0
    1.5866   15.3425   12.6028 H   0  0  0  0  0
   -0.6345   15.7898   13.3581 H   0  0  0  0  0
   -0.4626   14.7174   14.6219 H   0  0  0  0  0
    0.4757   16.0933   14.5632 H   0  0  0  0  0
    4.8440   10.2029   13.0537 H   0  0  0  0  0
    5.9824    7.8170   14.4772 H   0  0  0  0  0
    4.7513    8.0910   11.9873 H   0  0  0  0  0
    5.0196    5.9551   12.8272 H   0  0  0  0  0
    6.8083    6.0999   12.8688 H   0  0  0  0  0
    6.5314    9.5435   11.1447 H   0  0  0  0  0
    7.7531    8.3064   11.5296 H   0  0  0  0  0
    6.5386    7.9952   10.2651 H   0  0  0  0  0
    5.0751    6.0558   10.4032 H   0  0  0  0  0
    6.8495    6.1994   10.4446 H   0  0  0  0  0
    6.0633    4.7082   11.0183 H   0  0  0  0  0
    6.8852   10.6027   14.8901 H   0  0  0  0  0
    8.1895   11.3852   12.2773 H   0  0  0  0  0
    7.1782   13.3050   14.3266 H   0  0  0  0  0
    5.9187   12.2089   13.6010 H   0  0  0  0  0
    8.1024   12.6200   11.4997 H   0  0  0  0  0
   10.0637   13.7557   14.5714 H   0  0  0  0  0
    9.8161   13.1735   11.6586 H   0  0  0  0  0
   11.0987   15.5892   11.9402 H   0  0  0  0  0
    9.7919   15.5615   13.2390 H   0  0  0  0  0
    7.8518   16.9888   12.3369 H   0  0  0  0  0
   10.6238   13.7052    9.5277 H   0  0  0  0  0
    6.5985   15.9802    7.5685 H   0  0  0  0  0
    9.9253   13.2756    7.1911 H   0  0  0  0  0
    7.9448   14.4092    6.2237 H   0  0  0  0  0
   11.8130   13.4170   14.5328 H   0  0  0  0  0
   14.3949   13.7793   13.2125 H   0  0  0  0  0
   15.2787   13.9248   15.3114 H   0  0  0  0  0
   14.1551   12.6612   15.9781 H   0  0  0  0  0
   13.3350   16.6460   16.3096 H   0  0  0  0  0
   14.8037   16.0398   15.5371 H   0  0  0  0  0
   12.3045   11.3159   13.1060 H   0  0  0  0  0
   14.0277    9.3546   14.3023 H   0  0  0  0  0
   11.2748    8.7471   13.1392 H   0  0  0  0  0
   11.5021    9.5766   14.7679 H   0  0  0  0  0
   12.7136    7.5477   15.5043 H   0  0  0  0  0
   12.2175    6.7528   13.9720 H   0  0  0  0  0
    9.8330    7.3292   14.6059 H   0  0  0  0  0
   10.4856    7.7364   16.2474 H   0  0  0  0  0
   11.0765    5.5249   16.6791 H   0  0  0  0  0
   10.9599    5.0619   14.9365 H   0  0  0  0  0
    9.1019    4.2193   16.2213 H   0  0  0  0  0
    8.6868    5.7593   16.7039 H   0  0  0  0  0
    8.5793    5.3324   15.0967 H   0  0  0  0  0
   13.5465    7.7892   10.6252 H   0  0  0  0  0
   12.9599    9.3726    9.2730 H   0  0  0  0  0
   11.7552   11.0433   11.3723 H   0  0  0  0  0
    9.7258    9.8565   10.8400 H   0  0  0  0  0
   11.0259    8.6202   11.2347 H   0  0  0  0  0
   12.0797   12.1413    9.1532 H   0  0  0  0  0
   11.3473   10.7310    8.3496 H   0  0  0  0  0
   10.3588   11.7635    9.4117 H   0  0  0  0  0
   10.0116    9.3552    8.4597 H   0  0  0  0  0
   11.2719    8.1567    8.8424 H   0  0  0  0  0
    9.5917    7.8792    9.3632 H   0  0  0  0  0
   13.2701   12.3940   10.4129 H   0  0  0  0  0
   15.2419   13.7082   10.7552 H   0  0  0  0  0
   16.9180   11.9991   10.4158 H   0  0  0  0  0
   16.5662   11.9470    8.6710 H   0  0  0  0  0
   17.2902   13.4063    9.3901 H   0  0  0  0  0
   16.1161   13.5723    7.6513 H   0  0  0  0  0
  1  2  1  0  0  0
  2  3  1  0  0  0
  2  5  1  0  0  0
  3  4  2  0  0  0
  3  8  1  0  0  0
  5  6  1  0  0  0
  5  7  1  0  0  0
  8  9  1  0  0  0
  9 10  1  0  0  0
  9 12  1  0  0  0
 10 11  2  0  0  0
 10 17  1  0  0  0
 12 13  1  0  0  0
 13 14  1  0  0  0
 14 15  1  0  0  0
 15 16  1  0  0  0
 17 18  1  0  0  0
 18 19  1  0  0  0
 18 21  1  0  0  0
 19 20  2  0  0  0
 19 25  1  0  0  0
 21 22  1  0  0  0
 21 23  1  0  0  0
 22 24  1  0  0  0
 25 26  1  0  0  0
 26 27  1  0  0  0
 26 29  1  0  0  0
 27 28  2  0  0  0
 27 33  1  0  0  0
 29 30  1  0  0  0
 30 31  1  0  0  0
 30 32  2  0  0  0
 33 34  1  0  0  0
 34 35  1  0  0  0
 34 37  1  0  0  0
 35 36  2  0  0  0
 35 47  1  0  0  0
 37 38  1  0  0  0
 38 39  4  0  0  0
 38 40  4  0  0  0
 39 41  4  0  0  0
 40 42  4  0  0  0
 40 43  4  0  0  0
 41 42  4  0  0  0
 42 44  4  0  0  0
 43 45  4  0  0  0
 44 46  4  0  0  0
 45 46  4  0  0  0
 47 48  1  0  0  0
 48 49  1  0  0  0
 48 51  1  0  0  0
 49 50  2  0  0  0
 49 55  1  0  0  0
 51 52  1  0  0  0
 52 53  2  0  0  0
 52 54  1  0  0  0
 55 56  1  0  0  0
 56 57  1  0  0  0
 56 59  1  0  0  0
 57 58  2  0  0  0
 57 64  1  0  0  0
 59 60  1  0  0  0
 60 61  1  0  0  0
 61 62  1  0  0  0
 62 63  1  0  0  0
 64 65  1  0  0  0
 65 66  1  0  0  0
 65 68  1  0  0  0
 66 67  2  0  0  0
 66 72  1  0  0  0
 68 69  1  0  0  0
 68 70  1  0  0  0
 69 71  1  0  0  0
 72 73  1  0  0  0
 73 74  1  0  0  0
 73 76  1  0  0  0
 74 75  2  0  0  0
 74 77  1  0  0  0
  1 78  1  0  0  0
  1 79  1  0  0  0
  1 80  1  0  0  0
  2 81  1  0  0  0
  5 82  1  0  0  0
  6 83  1  0  0  0
  7 84  1  0  0  0
  7 85  1  0  0  0
  7 86  1  0  0  0
  8 87  1  0  0  0
  9 88  1  0  0  0
 12 89  1  0  0  0
 12 90  1  0  0  0
 13 91  1  0  0  0
 13 92  1  0  0  0
 14 93  1  0  0  0
 14 94  1  0  0  0
 15 95  1  0  0  0
 15 96  1  0  0  0
 16 97  1  0  0  0
 16 98  1  0  0  0
 16 99  1  0  0  0
 17100  1  0  0  0
 18101  1  0  0  0
 21102  1  0  0  0
 22103  1  0  0  0
 22104  1  0  0  0
 23105  1  0  0  0
 23106  1  0  0  0
 23107  1  0  0  0
 24108  1  0  0  0
 24109  1  0  0  0
 24110  1  0  0  0
 25111  1  0  0  0
 26112  1  0  0  0
 29113  1  0  0  0
 29114  1  0  0  0
 31115  1  0  0  0
 33116  1  0  0  0
 34117  1  0  0  0
 37118  1  0  0  0
 37119  1  0  0  0
 39120  1  0  0  0
 43121  1  0  0  0
 44122  1  0  0  0
 45123  1  0  0  0
 46124  1  0  0  0
 47125  1  0  0  0
 48126  1  0  0  0
 51127  1  0  0  0
 51128  1  0  0  0
 54129  1  0  0  0
 54130  1  0  0  0
 55131  1  0  0  0
 56132  1  0  0  0
 59133  1  0  0  0
 59134  1  0  0  0
 60135  1  0  0  0
 60136  1  0  0  0
 61137  1  0  0  0
 61138  1  0  0  0
 62139  1  0  0  0
 62140  1  0  0  0
 63141  1  0  0  0
 63142  1  0  0  0
 63143  1  0  0  0
 64144  1  0  0  0
 65145  1  0  0  0
 68146  1  0  0  0
 69147  1  0  0  0
 69148  1  0  0  0
 70149  1  0  0  0
 70150  1  0  0  0
 70151  1  0  0  0
 71152  1  0  0  0
 71153  1  0  0  0
 71154  1  0  0  0
 72155  1  0  0  0
 73156  1  0  0  0
 76157  1  0  0  0
 76158  1  0  0  0
 76159  1  0  0  0
 77160  1  0  0  0
M  END
$$$$
