### 
### Created by X-TOOL on Mon Sep 10 21:13:04 2018
### 

@<TRIPOS>MOLECULE
3iqq_ligand
  159   160     1     0     0
SMALL
GAST_HUCK


@<TRIPOS>ATOM
      1 N          -0.7460    7.7710   13.2860 N.4       1 THR         0.2398
      2 CA          0.1980    7.6100   14.4350 C.3       1 THR         0.0910
      3 C           1.4900    8.3880   14.1580 C.2       1 THR         0.2293
      4 O           2.2740    8.0020   13.2920 O.2       1 THR        -0.3906
      5 CB          0.5180    6.1100   14.6860 C.3       1 THR         0.1120
      6 OG1         1.2450    5.9570   15.9150 O.3       1 THR        -0.3840
      7 CG2         1.3450    5.4950   13.5280 C.3       1 THR        -0.0314
      8 N           1.7140    9.4860   14.8790 N.am      1 LYS        -0.2609
      9 CA          2.8590   10.3420   14.5640 C.3       1 LYS         0.1311
     10 C           4.1770    9.6520   14.8640 C.2       1 LYS         0.2039
     11 O           4.4690    9.2860   15.9870 O.2       1 LYS        -0.3944
     12 CB          2.7540   11.7250   15.1900 C.3       1 LYS        -0.0122
     13 CG          1.6810   12.5430   14.5130 C.3       1 LYS        -0.0440
     14 CD          2.1140   13.9490   14.1440 C.3       1 LYS        -0.0124
     15 CE          1.0660   14.6250   13.2370 C.3       1 LYS        -0.0354
     16 NZ          0.0290   15.3650   14.0060 N.4       1 LYS         0.2185
     17 N           4.9680    9.5310   13.8110 N.am      1 ILE        -0.2635
     18 CA          6.0030    8.5170   13.6420 C.3       1 ILE         0.1335
     19 C           7.3210    9.2160   13.4890 C.2       1 ILE         0.2042
     20 O           8.2990    8.6360   12.9810 O.2       1 ILE        -0.3944
     21 CB          5.7780    7.8710   12.2800 C.3       1 ILE        -0.0037
     22 CG1         5.8990    6.3620   12.3280 C.3       1 ILE        -0.0491
     23 CG2         6.7190    8.4730   11.2280 C.3       1 ILE        -0.0582
     24 CD1         5.9770    5.7930   10.9560 C.3       1 ILE        -0.0648
     25 N           7.3310   10.4470   13.9860 N.am      1 ASP        -0.2622
     26 CA          7.9390   11.5860   13.3190 C.3       1 ASP         0.1423
     27 C           9.2850   11.9810   13.9900 C.2       1 ASP         0.2057
     28 O           9.8620   11.1160   14.6320 O.2       1 ASP        -0.3943
     29 CB          6.8880   12.6910   13.4740 C.3       1 ASP         0.0406
     30 CG          6.7940   13.5920   12.2760 C.2       1 ASP         0.0393
     31 OD1         7.5450   13.3780   11.3090 O.co2     1 ASP        -0.5688
     32 OD2         5.9680   14.5190   12.2910 O.co2     1 ASP        -0.5688
     33 N           9.9010   13.1580   13.7610 N.am      1 TRP        -0.2626
     34 CA         10.3610   13.6660   12.4640 C.3       1 TRP         0.1352
     35 C          11.8640   13.4340   12.5040 C.2       1 TRP         0.2053
     36 O          12.5100   13.3520   11.4710 O.2       1 TRP        -0.3942
     37 CB         10.1480   15.1800   12.2820 C.3       1 TRP         0.0042
     38 CG          9.1060   15.5730   11.2420 C.2       1 TRP        -0.0418
     39 CD1         8.0630   16.4470   11.4150 C.2       1 TRP         0.0167
     40 CD2         9.0060   15.1020    9.8860 C.ar      1 TRP        -0.0214
     41 NE1         7.3210   16.5430   10.2600 N.pl3     1 TRP        -0.2890
     42 CE2         7.8730   15.7280    9.3090 C.ar      1 TRP         0.0603
     43 CE3         9.7500   14.2070    9.1120 C.ar      1 TRP        -0.0747
     44 CZ2         7.4740   15.4890    7.9930 C.ar      1 TRP        -0.0443
     45 CZ3         9.3540   13.9710    7.8060 C.ar      1 TRP        -0.0792
     46 CH2         8.2250   14.6140    7.2570 C.ar      1 TRP        -0.0768
     47 N          12.4170   13.3450   13.7140 N.am      1 ASN        -0.2615
     48 CA         13.8560   13.1480   13.9190 C.3       1 ASN         0.1476
     49 C          14.2130   11.6900   13.6830 C.2       1 ASN         0.2063
     50 O          15.3840   11.3060   13.7080 O.2       1 ASN        -0.3942
     51 CB         14.2580   13.5440   15.3470 C.3       1 ASN         0.0773
     52 CG         13.3720   14.6410   15.9330 C.2       1 ASN         0.1780
     53 OD1        12.2530   14.3810   16.3920 O.2       1 ASN        -0.3970
     54 ND2        13.8760   15.8710   15.9260 N.am      1 ASN        -0.3007
     55 N          13.1790   10.8930   13.4170 N.am      1 LYS        -0.2636
     56 CA         13.2430    9.4440   13.5510 C.3       1 LYS         0.1310
     57 C          13.8440    8.5690   12.4270 C.2       1 LYS         0.2039
     58 O          14.6850    7.7370   12.7730 O.2       1 LYS        -0.3944
     59 CB         11.8910    8.8760   14.0290 C.3       1 LYS        -0.0122
     60 CG         11.9610    7.5060   14.7170 C.3       1 LYS        -0.0440
     61 CD         10.6110    7.1380   15.3450 C.3       1 LYS        -0.0124
     62 CE         10.5320    5.6560   15.7440 C.3       1 LYS        -0.0354
     63 NZ          9.1090    5.2050   15.9590 N.4       1 LYS         0.2185
     64 N          13.5290    8.6810   11.1200 N.am      1 ILE        -0.2635
     65 CA         13.1580    9.8390   10.2380 C.3       1 ILE         0.1335
     66 C          14.3390   10.7770    9.8470 C.2       1 ILE         0.2036
     67 O          15.3560   10.2900    9.3260 O.2       1 ILE        -0.3944
     68 CB         11.7210   10.4650   10.4490 C.3       1 ILE        -0.0037
     69 CG1        10.6530    9.3700   10.5370 C.3       1 ILE        -0.0491
     70 CG2        11.3500   11.3380    9.2550 C.3       1 ILE        -0.0582
     71 CD1        10.3600    8.6350    9.2000 C.3       1 ILE        -0.0648
     72 N          14.1770   12.0920   10.0570 N.am      1 LEU        -0.2697
     73 CA         15.1910   13.1490    9.8210 C.3       1 LEU         0.0916
     74 C          14.7760   14.1370    8.7190 C.2       1 LEU         0.0598
     75 O          13.8080   14.9000    8.8650 O.co2     1 LEU        -0.5666
     76 CB         16.5940   12.5840    9.5550 C.3       1 LEU        -0.0300
     77 OXT        15.3950   14.2060    7.6450 O.co2     1 LEU        -0.5666
     78 H1         -0.9377    8.7503   13.1434 H         1 THR         0.2016
     79 H2         -1.6064    7.2861   13.4875 H         1 THR         0.2016
     80 H3         -0.3301    7.3852   12.4528 H         1 THR         0.2016
     81 H4         -0.2757    8.0217   15.3384 H         1 THR         0.1125
     82 H5         -0.4328    5.5626   14.7651 H         1 THR         0.0674
     83 H6          1.4344    5.0370   16.0571 H         1 THR         0.2102
     84 H7          1.5489    4.4361   13.7451 H         1 THR         0.0258
     85 H8          2.2961    6.0384   13.4278 H         1 THR         0.0258
     86 H9          0.7769    5.5740   12.5894 H         1 THR         0.0258
     87 H10         1.1018    9.7245   15.6329 H         1 LYS         0.1884
     88 H11         2.8355   10.4994   13.4756 H         1 LYS         0.0800
     89 H12         3.7197   12.2415   15.0863 H         1 LYS         0.0312
     90 H13         2.5071   11.6196   16.2567 H         1 LYS         0.0312
     91 H14         0.8199   12.6143   15.1938 H         1 LYS         0.0269
     92 H15         1.3786   12.0220   13.5926 H         1 LYS         0.0269
     93 H16         3.0752   13.9021   13.6113 H         1 LYS         0.0317
     94 H17         2.2324   14.5426   15.0625 H         1 LYS         0.0317
     95 H18         0.5702   13.8497   12.6346 H         1 LYS         0.0813
     96 H19         1.5816   15.3328   12.5713 H         1 LYS         0.0813
     97 H20        -0.6273   15.7853   13.3667 H         1 LYS         0.1994
     98 H21         0.4693   16.0851   14.5571 H         1 LYS         0.1994
     99 H22        -0.4575   14.7260   14.6151 H         1 LYS         0.1994
    100 H23         4.8464   10.1898   13.0685 H         1 ILE         0.1883
    101 H24         6.0033    7.7882   14.4659 H         1 ILE         0.0803
    102 H25         4.7475    8.1046   11.9741 H         1 ILE         0.0345
    103 H26         5.0194    5.9461   12.8411 H         1 ILE         0.0267
    104 H27         6.8093    6.0909   12.8828 H         1 ILE         0.0267
    105 H28         6.6067    9.5672   11.2189 H         1 ILE         0.0235
    106 H29         6.4659    8.0702   10.2362 H         1 ILE         0.0235
    107 H30         7.7590    8.2133   11.4748 H         1 ILE         0.0235
    108 H31         6.0642    4.6982   11.0175 H         1 ILE         0.0230
    109 H32         6.8572    6.2024   10.4387 H         1 ILE         0.0230
    110 H33         5.0673    6.0575   10.3971 H         1 ILE         0.0230
    111 H34         6.8940   10.5996   14.8724 H         1 ASP         0.1884
    112 H35         8.1170   11.3654   12.2562 H         1 ASP         0.0819
    113 H36         7.1497   13.3017   14.3507 H         1 ASP         0.0478
    114 H37         5.9070   12.2201   13.6348 H         1 ASP         0.0478
    115 H38        10.0605   13.7440   14.5555 H         1 TRP         0.1884
    116 H39         9.8803   13.1174   11.6406 H         1 TRP         0.0815
    117 H40        11.1091   15.6246   11.9842 H         1 TRP         0.0397
    118 H41         9.8352   15.5976   13.2504 H         1 TRP         0.0397
    119 H42         7.8520   16.9883   12.3361 H         1 TRP         0.0795
    120 H43         6.4860   17.1323   10.1320 H         1 TRP         0.2216
    121 H44        10.6190   13.7079    9.5254 H         1 TRP         0.0540
    122 H45         6.6033   15.9775    7.5708 H         1 TRP         0.0541
    123 H46         9.9222   13.2794    7.1945 H         1 TRP         0.0510
    124 H47         7.9464   14.4103    6.2294 H         1 TRP         0.0530
    125 H48        11.8249   13.4156   14.5168 H         1 ASN         0.1885
    126 H49        14.4078   13.7759   13.2040 H         1 ASN         0.0826
    127 H50        15.2974   13.9036   15.3317 H         1 ASN         0.0551
    128 H51        14.1870   12.6548   15.9906 H         1 ASN         0.0551
    129 H52        13.3431   16.6318   16.2963 H         1 ASN         0.1814
    130 H53        14.7881   16.0355   15.5505 H         1 ASN         0.1814
    131 H54        12.3216   11.3077   13.1121 H         1 LYS         0.1883
    132 H55        13.9371    9.2944   14.3911 H         1 LYS         0.0800
    133 H56        11.2327    8.7828   13.1527 H         1 LYS         0.0312
    134 H57        11.4544    9.5918   14.7411 H         1 LYS         0.0312
    135 H58        12.7278    7.5377   15.5050 H         1 LYS         0.0269
    136 H59        12.2316    6.7428   13.9725 H         1 LYS         0.0269
    137 H60         9.8138    7.3504   14.6174 H         1 LYS         0.0317
    138 H61        10.4605    7.7538   16.2440 H         1 LYS         0.0317
    139 H62        11.0962    5.5085   16.6767 H         1 LYS         0.0813
    140 H63        10.9803    5.0483   14.9442 H         1 LYS         0.0813
    141 H64         9.1008    4.2310   16.2183 H         1 LYS         0.1994
    142 H65         8.5845    5.3304   15.1074 H         1 LYS         0.1994
    143 H66         8.6907    5.7521   16.6950 H         1 LYS         0.1994
    144 H67        13.5461    7.8067   10.6349 H         1 ILE         0.1883
    145 H68        12.9978    9.3203    9.2813 H         1 ILE         0.0803
    146 H69        11.7193   11.0650   11.3709 H         1 ILE         0.0345
    147 H70         9.7175    9.8320   10.8854 H         1 ILE         0.0267
    148 H71        10.9888    8.6230   11.2714 H         1 ILE         0.0267
    149 H72        12.0898   12.1448    9.1468 H         1 ILE         0.0235
    150 H73        10.3529   11.7739    9.4152 H         1 ILE         0.0235
    151 H74        11.3398   10.7250    8.3417 H         1 ILE         0.0235
    152 H75         9.5847    7.8719    9.3634 H         1 ILE         0.0230
    153 H76        11.2795    8.1518    8.8380 H         1 ILE         0.0230
    154 H77        10.0082    9.3608    8.4520 H         1 ILE         0.0230
    155 H78        13.2879   12.3881   10.4059 H         1 LEU         0.1875
    156 H79        15.2565   13.7273   10.7544 H         1 LEU         0.0723
    157 H80        17.2976   13.4130    9.3884 H         1 LEU         0.0270
    158 H81        16.5673   11.9409    8.6630 H         1 LEU         0.0270
    159 H82        16.9222   11.9935   10.4231 H         1 LEU         0.0270
@<TRIPOS>BOND
     1    1    2 1  
     2    2    3 1  
     3    2    5 1  
     4    3    4 2  
     5    3    8 am 
     6    5    6 1  
     7    5    7 1  
     8    8    9 1  
     9    9   10 1  
    10    9   12 1  
    11   10   11 2  
    12   10   17 am 
    13   12   13 1  
    14   13   14 1  
    15   14   15 1  
    16   15   16 1  
    17   17   18 1  
    18   18   19 1  
    19   18   21 1  
    20   19   20 2  
    21   19   25 am 
    22   21   22 1  
    23   21   23 1  
    24   22   24 1  
    25   25   26 1  
    26   26   27 1  
    27   26   29 1  
    28   27   28 2  
    29   27   33 am 
    30   29   30 1  
    31   30   31 ar 
    32   30   32 ar 
    33   33   34 1  
    34   34   35 1  
    35   34   37 1  
    36   35   36 2  
    37   35   47 am 
    38   37   38 1  
    39   38   39 2  
    40   38   40 1  
    41   39   41 1  
    42   40   42 ar 
    43   40   43 ar 
    44   41   42 1  
    45   42   44 ar 
    46   43   45 ar 
    47   44   46 ar 
    48   45   46 ar 
    49   47   48 1  
    50   48   49 1  
    51   48   51 1  
    52   49   50 2  
    53   49   55 am 
    54   51   52 1  
    55   52   53 2  
    56   52   54 am 
    57   55   56 1  
    58   56   57 1  
    59   56   59 1  
    60   57   58 2  
    61   57   64 am 
    62   59   60 1  
    63   60   61 1  
    64   61   62 1  
    65   62   63 1  
    66   64   65 1  
    67   65   66 1  
    68   65   68 1  
    69   66   67 2  
    70   66   72 am 
    71   68   69 1  
    72   68   70 1  
    73   69   71 1  
    74   72   73 1  
    75   73   74 1  
    76   73   76 1  
    77   74   75 ar 
    78   74   77 ar 
    79    1   78 1  
    80    1   79 1  
    81    1   80 1  
    82    2   81 1  
    83    5   82 1  
    84    6   83 1  
    85    7   84 1  
    86    7   85 1  
    87    7   86 1  
    88    8   87 1  
    89    9   88 1  
    90   12   89 1  
    91   12   90 1  
    92   13   91 1  
    93   13   92 1  
    94   14   93 1  
    95   14   94 1  
    96   15   95 1  
    97   15   96 1  
    98   16   97 1  
    99   16   98 1  
   100   16   99 1  
   101   17  100 1  
   102   18  101 1  
   103   21  102 1  
   104   22  103 1  
   105   22  104 1  
   106   23  105 1  
   107   23  106 1  
   108   23  107 1  
   109   24  108 1  
   110   24  109 1  
   111   24  110 1  
   112   25  111 1  
   113   26  112 1  
   114   29  113 1  
   115   29  114 1  
   116   33  115 1  
   117   34  116 1  
   118   37  117 1  
   119   37  118 1  
   120   39  119 1  
   121   41  120 1  
   122   43  121 1  
   123   44  122 1  
   124   45  123 1  
   125   46  124 1  
   126   47  125 1  
   127   48  126 1  
   128   51  127 1  
   129   51  128 1  
   130   54  129 1  
   131   54  130 1  
   132   55  131 1  
   133   56  132 1  
   134   59  133 1  
   135   59  134 1  
   136   60  135 1  
   137   60  136 1  
   138   61  137 1  
   139   61  138 1  
   140   62  139 1  
   141   62  140 1  
   142   63  141 1  
   143   63  142 1  
   144   63  143 1  
   145   64  144 1  
   146   65  145 1  
   147   68  146 1  
   148   69  147 1  
   149   69  148 1  
   150   70  149 1  
   151   70  150 1  
   152   70  151 1  
   153   71  152 1  
   154   71  153 1  
   155   71  154 1  
   156   72  155 1  
   157   73  156 1  
   158   76  157 1  
   159   76  158 1  
   160   76  159 1  
@<TRIPOS>SUBSTRUCTURE
     1 THR         1

