5q0d_ligand
  -I-interpret- 

 66 70  0  0  0  0  0  0  0  0999 V2000
   37.7100  -17.0670   27.9770 C   0  0  0  0  0
   39.3210  -22.0690   27.7680 C   0  0  0  0  0
   39.7410  -20.9110   28.6950 C   0  0  0  0  0
   39.0270  -18.7060   29.4130 C   0  0  0  0  0
   40.1100  -23.3990   28.0280 C   0  0  0  0  0
   40.1920  -23.8910   29.5030 C   0  0  0  0  0
   41.2350  -20.7630   28.6700 C   0  0  0  0  0
   43.2680  -20.6740   27.8740 C   0  0  0  0  0
   48.7380  -22.0780   32.8530 C   0  0  0  0  0
   44.3760  -21.4180   30.1090 C   0  0  0  0  0
   33.8220  -14.0500   29.5580 Cl  0  0  0  0  0
   36.7570  -13.5610   26.8840 C   0  0  0  0  0
   35.6410  -13.3410   27.6810 C   0  0  0  0  0
   35.2190  -14.3340   28.5420 C   0  0  0  0  0
   35.8760  -15.5490   28.6220 C   0  0  0  0  0
   36.9970  -15.7910   27.8070 C   0  0  0  0  0
   37.4290  -14.7810   26.9310 C   0  0  0  0  0
   38.5330  -14.9950   26.0480 N   0  0  0  0  0
   38.6330  -14.9600   24.7140 C   0  0  0  0  0
   39.8520  -15.2550   24.3570 N   0  0  0  0  0
   40.5280  -15.4720   25.5120 N   0  0  0  0  0
   39.7500  -15.3240   26.5380 N   0  0  0  0  0
   38.2700  -17.4680   29.1170 C   0  0  0  0  0
   39.6830  -18.8360   30.4560 O   0  0  0  0  0
   39.0200  -19.6590   28.4530 N   0  0  0  0  0
   41.9530  -20.5340   27.5510 N   0  0  0  0  0
   43.2990  -20.9920   29.2030 C   0  0  0  0  0
   42.0150  -21.0220   29.6990 N   0  0  0  0  0
   45.5470  -20.6550   30.1600 C   0  0  0  0  0
   46.5710  -20.9810   31.0310 C   0  0  0  0  0
   46.4410  -22.0720   31.8910 C   0  0  0  0  0
   45.2920  -22.8600   31.8270 C   0  0  0  0  0
   44.2620  -22.5550   30.9470 C   0  0  0  0  0
   47.4450  -22.4970   32.8000 N   0  0  0  0  0
   49.2970  -21.3810   32.0330 O   0  0  0  0  0
   49.3250  -22.5590   33.9660 O   0  0  0  0  0
   50.7520  -22.3200   34.0890 C   0  0  0  0  0
   41.3990  -24.7810   29.8350 C   0  0  0  0  0
   42.7350  -24.0660   29.7410 C   0  0  0  0  0
   43.1160  -23.4020   30.8580 N   0  0  0  0  0
   43.3890  -24.0490   28.7000 O   0  0  0  0  0
   37.7848  -17.7275   27.1131 H   0  0  0  0  0
   39.5298  -21.7600   26.7438 H   0  0  0  0  0
   38.2668  -22.2723   27.9561 H   0  0  0  0  0
   39.4424  -21.1729   29.7101 H   0  0  0  0  0
   41.1372  -23.2021   27.7211 H   0  0  0  0  0
   39.5738  -24.1760   27.4831 H   0  0  0  0  0
   39.3021  -24.4953   29.6793 H   0  0  0  0  0
   40.2827  -22.9996   30.1237 H   0  0  0  0  0
   44.1228  -20.5564   27.2080 H   0  0  0  0  0
   37.1096  -12.7741   26.2172 H   0  0  0  0  0
   35.1039  -12.3940   27.6272 H   0  0  0  0  0
   35.5265  -16.3156   29.3136 H   0  0  0  0  0
   37.8190  -14.7211   24.0296 H   0  0  0  0  0
   38.1539  -16.7832   29.9570 H   0  0  0  0  0
   38.5214  -19.5085   27.5760 H   0  0  0  0  0
   45.6543  -19.7911   29.5040 H   0  0  0  0  0
   47.4826  -20.3835   31.0455 H   0  0  0  0  0
   45.2011  -23.7293   32.4783 H   0  0  0  0  0
   47.1658  -23.1942   33.4902 H   0  0  0  0  0
   51.2703  -22.7829   33.2493 H   0  0  0  0  0
   50.9408  -21.2465   34.0870 H   0  0  0  0  0
   51.1123  -22.7519   35.0227 H   0  0  0  0  0
   41.4136  -25.5922   29.1071 H   0  0  0  0  0
   41.2818  -25.1147   30.8660 H   0  0  0  0  0
   42.5439  -23.5149   31.6949 H   0  0  0  0  0
  1 16  1  0  0  0
 23  1  2  0  0  0
  3  2  1  0  0  0
  2  5  1  0  0  0
  7  3  1  0  0  0
  3 25  1  0  0  0
  4 23  1  0  0  0
  4 24  2  0  0  0
 25  4  1  0  0  0
  5  6  1  0  0  0
  6 38  1  0  0  0
  7 26  4  0  0  0
 28  7  4  0  0  0
  8 26  4  0  0  0
 27  8  4  0  0  0
 34  9  1  0  0  0
  9 35  2  0  0  0
  9 36  1  0  0  0
 10 27  1  0  0  0
 29 10  4  0  0  0
 10 33  4  0  0  0
 14 11  1  0  0  0
 12 13  4  0  0  0
 17 12  4  0  0  0
 14 13  4  0  0  0
 15 14  4  0  0  0
 16 15  4  0  0  0
 16 17  4  0  0  0
 17 18  1  0  0  0
 18 19  4  0  0  0
 18 22  4  0  0  0
 19 20  4  0  0  0
 21 20  4  0  0  0
 22 21  4  0  0  0
 27 28  4  0  0  0
 30 29  4  0  0  0
 31 30  4  0  0  0
 31 32  4  0  0  0
 31 34  1  0  0  0
 32 33  4  0  0  0
 33 40  1  0  0  0
 36 37  1  0  0  0
 38 39  1  0  0  0
 39 40  1  0  0  0
 39 41  2  0  0  0
  1 42  1  0  0  0
  2 43  1  0  0  0
  2 44  1  0  0  0
  3 45  1  0  0  0
  5 46  1  0  0  0
  5 47  1  0  0  0
  6 48  1  0  0  0
  6 49  1  0  0  0
  8 50  1  0  0  0
 12 51  1  0  0  0
 13 52  1  0  0  0
 15 53  1  0  0  0
 19 54  1  0  0  0
 23 55  1  0  0  0
 25 56  1  0  0  0
 29 57  1  0  0  0
 30 58  1  0  0  0
 32 59  1  0  0  0
 34 60  1  0  0  0
 37 61  1  0  0  0
 37 62  1  0  0  0
 37 63  1  0  0  0
 38 64  1  0  0  0
 38 65  1  0  0  0
 40 66  1  0  0  0
M  END
$$$$
