6mqc_ligand
  -I-interpret- 

109109  0  0  0  0  0  0  0  0999 V2000
   85.9480 -118.2990 -145.1360 N   0  3  0  0  0
   84.5750 -118.3150 -145.6280 C   0  0  0  0  0
   83.7930 -119.4650 -145.0060 C   0  0  0  0  0
   84.3630 -120.4970 -144.6600 O   0  0  0  0  0
   84.5590 -118.4220 -147.1430 C   0  0  0  0  0
   82.4810 -119.2800 -144.8570 N   0  0  0  0  0
   81.6130 -120.2980 -144.2850 C   0  0  0  0  0
   80.4490 -120.5420 -145.2370 C   0  0  0  0  0
   80.1730 -119.7460 -146.1390 O   0  0  0  0  0
   81.0970 -119.9150 -142.8780 C   0  0  0  0  0
   82.2670 -119.6830 -141.9290 C   0  0  0  0  0
   80.2040 -118.6800 -142.9450 C   0  0  0  0  0
   79.7960 -121.6880 -145.0510 N   0  0  0  0  0
   78.6000 -122.0020 -145.8100 C   0  0  0  0  0
   78.8190 -122.2420 -147.2860 C   0  0  0  0  0
   77.8970 -122.0410 -148.0830 O   0  0  0  0  0
   80.0140 -122.6720 -147.6740 N   0  0  0  0  0
   80.3350 -122.9070 -149.0760 C   0  0  0  0  0
   81.3270 -124.0600 -149.1460 C   0  0  0  0  0
   82.2640 -124.1430 -148.3450 O   0  0  0  0  0
   80.8890 -121.6270 -149.7440 C   0  0  0  0  0
   81.3130 -121.8970 -151.1930 C   0  0  0  0  0
   82.0460 -121.0510 -148.9410 C   0  0  0  0  0
   81.2410 -120.6690 -152.0900 C   0  0  0  0  0
   81.1160 -124.9560 -150.1070 N   0  0  0  0  0
   81.9570 -126.1210 -150.2690 C   0  0  0  0  0
   83.1710 -125.8360 -151.1290 C   0  0  0  0  0
   83.5110 -124.6890 -151.4260 O   0  0  0  0  0
   83.8400 -126.9200 -151.5260 N   0  0  0  0  0
   85.0380 -126.8490 -152.3600 C   0  0  0  0  0
   85.1540 -128.1470 -153.1430 C   0  0  0  0  0
   85.2110 -129.2250 -152.5410 O   0  0  0  0  0
   86.2920 -126.6190 -151.5130 C   0  0  0  0  0
   85.2020 -128.0500 -154.4730 N   0  0  0  0  0
   85.3270 -129.2120 -155.3460 C   0  0  0  0  0
   86.5950 -129.0690 -156.1780 C   0  0  0  0  0
   86.9350 -127.9690 -156.6300 O   0  0  0  0  0
   84.0860 -129.4110 -156.2450 C   0  0  0  0  0
   82.8210 -129.4360 -155.3980 C   0  0  0  0  0
   83.9950 -128.3330 -157.3070 C   0  0  0  0  0
   87.2960 -130.1850 -156.3720 N   0  0  0  0  0
   88.5830 -130.1850 -157.0710 C   0  0  0  0  0
   88.6370 -131.2690 -158.1450 C   0  0  0  0  0
   87.8390 -132.2100 -158.1360 O   0  0  0  0  0
   89.7430 -130.4090 -156.0890 C   0  0  0  0  0
   89.7040 -129.5350 -154.8610 C   0  0  0  0  0
   90.4890 -128.3970 -154.7840 C   0  0  0  0  0
   88.9170 -129.8750 -153.7710 C   0  0  0  0  0
   90.4730 -127.5990 -153.6500 C   0  0  0  0  0
   88.8940 -129.0800 -152.6360 C   0  0  0  0  0
   89.6700 -127.9410 -152.5770 C   0  0  0  0  0
   89.4800 -131.2270 -159.0450 O   0  0  0  0  0
   85.9425 -118.2269 -144.1186 H   0  0  0  0  0
   86.4178 -119.1605 -145.4145 H   0  0  0  0  0
   86.4405 -117.4984 -145.5321 H   0  0  0  0  0
   84.0956 -117.3798 -145.3388 H   0  0  0  0  0
   85.0142 -119.3655 -147.4442 H   0  0  0  0  0
   83.5290 -118.3845 -147.4977 H   0  0  0  0  0
   85.1223 -117.5925 -147.5705 H   0  0  0  0  0
   82.0717 -118.3943 -145.1543 H   0  0  0  0  0
   82.1945 -121.2113 -144.1592 H   0  0  0  0  0
   80.4996 -120.7422 -142.4947 H   0  0  0  0  0
   82.8594 -120.5950 -141.8548 H   0  0  0  0  0
   82.8892 -118.8743 -142.3123 H   0  0  0  0  0
   81.8862 -119.4144 -140.9436 H   0  0  0  0  0
   80.7729 -117.8434 -143.3506 H   0  0  0  0  0
   79.3491 -118.8859 -143.5890 H   0  0  0  0  0
   79.8542 -118.4314 -141.9430 H   0  0  0  0  0
   80.1428 -122.3564 -144.3630 H   0  0  0  0  0
   77.9413 -121.1374 -145.7279 H   0  0  0  0  0
   78.2023 -122.9294 -145.3978 H   0  0  0  0  0
   80.7301 -122.8433 -146.9682 H   0  0  0  0  0
   79.4336 -123.1716 -149.6287 H   0  0  0  0  0
   80.0875 -120.8885 -149.7616 H   0  0  0  0  0
   80.6268 -122.6393 -151.6007 H   0  0  0  0  0
   82.3521 -122.2257 -151.1729 H   0  0  0  0  0
   81.7015 -120.8016 -147.9374 H   0  0  0  0  0
   82.8463 -121.7885 -148.8790 H   0  0  0  0  0
   82.4162 -120.1518 -149.4334 H   0  0  0  0  0
   80.2163 -120.2981 -152.1145 H   0  0  0  0  0
   81.8998 -119.8945 -151.6971 H   0  0  0  0  0
   81.5555 -120.9382 -153.0983 H   0  0  0  0  0
   80.3363 -124.8165 -150.7497 H   0  0  0  0  0
   81.3695 -126.8976 -150.7587 H   0  0  0  0  0
   82.3049 -126.4277 -149.2826 H   0  0  0  0  0
   83.5010 -127.8370 -151.2351 H   0  0  0  0  0
   84.9529 -126.0045 -153.0439 H   0  0  0  0  0
   86.1928 -125.6811 -150.9666 H   0  0  0  0  0
   86.4081 -127.4415 -150.8073 H   0  0  0  0  0
   87.1649 -126.5712 -152.1640 H   0  0  0  0  0
   85.1490 -127.1239 -154.8973 H   0  0  0  0  0
   85.3931 -130.1053 -154.7250 H   0  0  0  0  0
   84.1881 -130.3693 -156.7542 H   0  0  0  0  0
   82.8798 -130.2571 -154.6835 H   0  0  0  0  0
   82.7258 -128.4919 -154.8615 H   0  0  0  0  0
   81.9550 -129.5768 -156.0447 H   0  0  0  0  0
   83.9227 -127.3571 -156.8270 H   0  0  0  0  0
   84.8862 -128.3660 -157.9337 H   0  0  0  0  0
   83.1108 -128.5036 -157.9212 H   0  0  0  0  0
   86.9244 -131.0682 -156.0224 H   0  0  0  0  0
   88.6839 -129.2076 -157.5428 H   0  0  0  0  0
   90.6623 -130.1672 -156.6223 H   0  0  0  0  0
   89.6749 -131.4416 -155.7467 H   0  0  0  0  0
   91.1272 -128.1251 -155.6248 H   0  0  0  0  0
   88.3089 -130.7788 -153.8074 H   0  0  0  0  0
   91.0925 -126.7033 -153.6043 H   0  0  0  0  0
   88.2632 -129.3545 -151.7905 H   0  0  0  0  0
   89.6504 -127.3121 -151.6870 H   0  0  0  0  0
   90.0304 -130.4488 -158.9304 H   0  0  0  0  0
  1  2  1  0  0  0
  2  3  1  0  0  0
  2  5  1  0  0  0
  3  4  2  0  0  0
  3  6  1  0  0  0
  6  7  1  0  0  0
  7  8  1  0  0  0
  7 10  1  0  0  0
  8  9  2  0  0  0
  8 13  1  0  0  0
 10 11  1  0  0  0
 10 12  1  0  0  0
 13 14  1  0  0  0
 14 15  1  0  0  0
 15 16  2  0  0  0
 15 17  1  0  0  0
 17 18  1  0  0  0
 18 19  1  0  0  0
 18 21  1  0  0  0
 19 20  2  0  0  0
 19 25  1  0  0  0
 21 22  1  0  0  0
 21 23  1  0  0  0
 22 24  1  0  0  0
 25 26  1  0  0  0
 26 27  1  0  0  0
 27 28  2  0  0  0
 27 29  1  0  0  0
 29 30  1  0  0  0
 30 31  1  0  0  0
 30 33  1  0  0  0
 31 32  2  0  0  0
 31 34  1  0  0  0
 34 35  1  0  0  0
 35 36  1  0  0  0
 35 38  1  0  0  0
 36 37  2  0  0  0
 36 41  1  0  0  0
 38 39  1  0  0  0
 38 40  1  0  0  0
 41 42  1  0  0  0
 42 43  1  0  0  0
 42 45  1  0  0  0
 43 44  2  0  0  0
 43 52  1  0  0  0
 45 46  1  0  0  0
 46 47  4  0  0  0
 46 48  4  0  0  0
 47 49  4  0  0  0
 48 50  4  0  0  0
 49 51  4  0  0  0
 50 51  4  0  0  0
  1 53  1  0  0  0
  1 54  1  0  0  0
  1 55  1  0  0  0
  2 56  1  0  0  0
  5 57  1  0  0  0
  5 58  1  0  0  0
  5 59  1  0  0  0
  6 60  1  0  0  0
  7 61  1  0  0  0
 10 62  1  0  0  0
 11 63  1  0  0  0
 11 64  1  0  0  0
 11 65  1  0  0  0
 12 66  1  0  0  0
 12 67  1  0  0  0
 12 68  1  0  0  0
 13 69  1  0  0  0
 14 70  1  0  0  0
 14 71  1  0  0  0
 17 72  1  0  0  0
 18 73  1  0  0  0
 21 74  1  0  0  0
 22 75  1  0  0  0
 22 76  1  0  0  0
 23 77  1  0  0  0
 23 78  1  0  0  0
 23 79  1  0  0  0
 24 80  1  0  0  0
 24 81  1  0  0  0
 24 82  1  0  0  0
 25 83  1  0  0  0
 26 84  1  0  0  0
 26 85  1  0  0  0
 29 86  1  0  0  0
 30 87  1  0  0  0
 33 88  1  0  0  0
 33 89  1  0  0  0
 33 90  1  0  0  0
 34 91  1  0  0  0
 35 92  1  0  0  0
 38 93  1  0  0  0
 39 94  1  0  0  0
 39 95  1  0  0  0
 39 96  1  0  0  0
 40 97  1  0  0  0
 40 98  1  0  0  0
 40 99  1  0  0  0
 41100  1  0  0  0
 42101  1  0  0  0
 45102  1  0  0  0
 45103  1  0  0  0
 47104  1  0  0  0
 48105  1  0  0  0
 49106  1  0  0  0
 50107  1  0  0  0
 51108  1  0  0  0
 52109  1  0  0  0
M  END
$$$$
