### 
### Created by X-TOOL on Mon Sep 10 21:12:52 2018
### 

@<TRIPOS>MOLECULE
1t1r_ligand
   28    29     1     0     0
SMALL
GAST_HUCK


@<TRIPOS>ATOM
      1 N1         21.1250   18.9600   28.8630 N.ar      1 IMB        -0.2914
      2 C2         21.4060   19.0740   27.4890 C.ar      1 IMB         0.1271
      3 C3         22.1520   20.2440   27.0570 C.ar      1 IMB         0.0338
      4 C4         22.5520   21.1990   28.0340 C.ar      1 IMB        -0.0141
      5 C5         22.2490   21.0360   29.3830 C.ar      1 IMB        -0.0498
      6 C6         21.5360   19.9190   29.7980 C.ar      1 IMB        -0.0144
      7 C9         22.4720   20.4930   25.6770 C.ar      1 IMB        -0.0461
      8 C10        23.1720   21.6750   25.3050 C.ar      1 IMB        -0.0583
      9 C11        23.5640   22.6180   26.2960 C.ar      1 IMB        -0.0593
     10 C12        23.2560   22.3830   27.6630 C.ar      1 IMB        -0.0523
     11 N17        20.9270   18.0180   26.6970 N.pl3     1 IMB        -0.2702
     12 C18        21.0790   17.8270   25.2590 C.3       1 IMB         0.1811
     13 P20        19.4650   17.6200   24.4510 P.3       1 IMB         0.1033
     14 P21        22.1200   16.3900   24.9500 P.3       1 IMB         0.1033
     15 O23        22.2950   16.1870   23.4280 O.co2     1 IMB        -0.5597
     16 O25        21.5510   15.2210   25.5620 O.co2     1 IMB        -0.5597
     17 O26        23.4990   16.5410   25.6490 O.co2     1 IMB        -0.5597
     18 O28        19.6510   17.4060   22.9270 O.co2     1 IMB        -0.5597
     19 O30        18.6180   18.7710   24.6980 O.co2     1 IMB        -0.5597
     20 O31        18.6810   16.4380   25.0830 O.co2     1 IMB        -0.5597
     21 H1         22.5682   21.7777   30.1062 H         1 IMB         0.0557
     22 H2         21.2970   19.7888   30.8473 H         1 IMB         0.0720
     23 H3         22.1788   19.7775   24.9173 H         1 IMB         0.0663
     24 H4         23.4075   21.8576   24.2628 H         1 IMB         0.0611
     25 H5         24.0980   23.5163   26.0078 H         1 IMB         0.0647
     26 H6         23.5543   23.0994   28.4198 H         1 IMB         0.0616
     27 H7         20.4015   17.2852   27.1948 H         1 IMB         0.1888
     28 H8         21.5687   18.7167   24.8364 H         1 IMB         0.0955
@<TRIPOS>BOND
     1    1    2 ar 
     2    1    6 ar 
     3    2    3 ar 
     4    2   11 1  
     5    3    4 ar 
     6    3    7 ar 
     7    4    5 ar 
     8    4   10 ar 
     9    5    6 ar 
    10    7    8 ar 
    11    8    9 ar 
    12    9   10 ar 
    13   11   12 1  
    14   12   13 1  
    15   12   14 1  
    16   13   18 ar 
    17   13   19 ar 
    18   13   20 ar 
    19   14   15 ar 
    20   14   16 ar 
    21   14   17 ar 
    22    5   21 1  
    23    6   22 1  
    24    7   23 1  
    25    8   24 1  
    26    9   25 1  
    27   10   26 1  
    28   11   27 1  
    29   12   28 1  
@<TRIPOS>SUBSTRUCTURE
     1 IMB         1

