5o1f_ligand
  -I-interpret- 

 37 38  0  0  0  0  0  0  0  0999 V2000
   91.0980   89.1200  -48.3160 C   0  0  0  0  0
   92.4890   89.6730  -41.6380 C   0  0  0  0  0
   89.9850   89.6740  -49.1880 C   0  0  0  0  0
   90.9280   93.7520  -45.4870 C   0  0  0  0  0
   91.4240   92.5910  -44.8810 C   0  0  0  0  0
   91.7520   92.6550  -43.5170 C   0  0  0  0  0
   91.5880   93.8490  -42.7910 C   0  0  0  0  0
   91.0900   94.9980  -43.4190 C   0  0  0  0  0
   90.7540   94.9520  -44.7720 C   0  0  0  0  0
   90.2230   96.1560  -45.4930 C   0  0  0  0  0
   90.9410   91.0990  -46.7480 C   0  0  0  0  0
   91.8510   90.2590  -47.6420 C   0  0  0  0  0
   93.6120   91.4230  -42.4650 C   0  0  0  0  0
   93.7680   90.2620  -41.7420 C   0  0  0  0  0
   91.5900   90.4860  -42.2940 C   0  0  0  0  0
   92.0590   93.9650  -40.7250 I   0  0  0  0  0
   92.2790   91.5570  -42.8110 N   0  0  0  0  0
   90.9250   96.1660  -42.7140 O   0  0  0  0  0
   90.1710   97.2350  -44.8280 O   0  0  0  0  0
   89.8900   95.9810  -46.7080 O   0  0  0  0  0
   91.6110   91.3900  -45.5130 O   0  0  0  0  0
   91.7902   88.5520  -48.9375 H   0  0  0  0  0
   90.6656   88.4750  -47.5510 H   0  0  0  0  0
   92.2538   88.7388  -41.1281 H   0  0  0  0  0
   89.2921   90.2458  -48.5708 H   0  0  0  0  0
   90.4128   90.3226  -49.9525 H   0  0  0  0  0
   89.4540   88.8499  -49.6644 H   0  0  0  0  0
   90.6686   93.7256  -46.5454 H   0  0  0  0  0
   90.0261   90.5440  -46.5406 H   0  0  0  0  0
   90.6975   92.0324  -47.2556 H   0  0  0  0  0
   92.2556   90.9066  -48.4198 H   0  0  0  0  0
   92.6349   89.8273  -47.0197 H   0  0  0  0  0
   94.4078   92.1219  -42.7226 H   0  0  0  0  0
   94.6988   89.8727  -41.3296 H   0  0  0  0  0
   90.5183   90.3101  -42.3867 H   0  0  0  0  0
   90.5770   96.8442  -43.2975 H   0  0  0  0  0
   90.0343   95.0631  -46.9492 H   0  0  0  0  0
  1  3  1  0  0  0
 12  1  1  0  0  0
 14  2  4  0  0  0
  2 15  4  0  0  0
  5  4  4  0  0  0
  4  9  4  0  0  0
  6  5  4  0  0  0
  5 21  1  0  0  0
  6  7  4  0  0  0
 17  6  1  0  0  0
  7  8  4  0  0  0
  7 16  1  0  0  0
  8  9  4  0  0  0
  8 18  1  0  0  0
  9 10  1  0  0  0
 10 19  2  0  0  0
 10 20  1  0  0  0
 11 12  1  0  0  0
 21 11  1  0  0  0
 13 14  4  0  0  0
 13 17  4  0  0  0
 15 17  4  0  0  0
  1 22  1  0  0  0
  1 23  1  0  0  0
  2 24  1  0  0  0
  3 25  1  0  0  0
  3 26  1  0  0  0
  3 27  1  0  0  0
  4 28  1  0  0  0
 11 29  1  0  0  0
 11 30  1  0  0  0
 12 31  1  0  0  0
 12 32  1  0  0  0
 13 33  1  0  0  0
 14 34  1  0  0  0
 15 35  1  0  0  0
 18 36  1  0  0  0
 20 37  1  0  0  0
M  END
$$$$
