2np8_ligand
  -I-interpret- 

 48 51  0  0  0  0  0  0  0  0999 V2000
   -0.9040   34.5510   -1.7140 O   0  0  0  0  0
   -0.8280   35.3640   -2.6320 C   0  0  0  0  0
    0.0680   36.5680   -2.4840 C   0  0  0  0  0
   -0.7350   37.8680   -2.5400 C   0  0  0  0  0
   -0.2580   37.3210   -1.1990 C   0  0  0  0  0
   -1.4820   35.2480   -3.7990 N   0  0  0  0  0
   -2.2700   34.2020   -4.1850 C   0  0  0  0  0
   -2.4740   34.0020   -5.5470 C   0  0  0  0  0
   -2.9030   33.3450   -3.2800 C   0  0  0  0  0
   -3.7110   32.3040   -3.7290 C   0  0  0  0  0
   -3.9020   32.1200   -5.1000 C   0  0  0  0  0
   -3.2850   32.9700   -6.0170 C   0  0  0  0  0
   -3.4200   32.8550   -7.3630 N   0  0  0  0  0
   -4.0990   31.9260   -8.0810 C   0  0  0  0  0
   -4.0400   32.0200   -9.4300 N   0  0  0  0  0
   -4.6800   31.1470  -10.2170 C   0  0  0  0  0
   -5.4290   30.1220   -9.6510 C   0  0  0  0  0
   -4.8220   30.9330   -7.5060 N   0  0  0  0  0
   -5.4950   30.0260   -8.2620 C   0  0  0  0  0
   -6.2360   29.0230   -7.7240 N   0  0  0  0  0
   -6.5000   28.8060   -6.4070 C   0  0  0  0  0
   -7.2420   27.6750   -6.0750 C   0  0  0  0  0
   -7.5480   27.3850   -4.7440 C   0  0  0  0  0
   -8.3450   26.1460   -4.4140 C   0  0  0  0  0
   -9.1930   25.8600   -5.3980 F   0  0  0  0  0
   -7.4890   25.1440   -4.2830 F   0  0  0  0  0
   -9.0250   26.3110   -3.2820 F   0  0  0  0  0
   -7.1010   28.2380   -3.7280 C   0  0  0  0  0
   -6.3590   29.3710   -4.0500 C   0  0  0  0  0
   -6.0650   29.6490   -5.3820 C   0  0  0  0  0
    0.9733   36.1974   -2.9648 H   0  0  0  0  0
   -1.6538   38.2436   -2.9905 H   0  0  0  0  0
   -0.7297   38.8102   -3.0881 H   0  0  0  0  0
    0.2600   37.6792   -0.3094 H   0  0  0  0  0
   -0.6681   37.1101   -0.2114 H   0  0  0  0  0
   -1.3801   36.0165   -4.4619 H   0  0  0  0  0
   -1.9891   34.6667   -6.2619 H   0  0  0  0  0
   -2.7622   33.4937   -2.2094 H   0  0  0  0  0
   -4.1919   31.6362   -3.0143 H   0  0  0  0  0
   -4.5365   31.3079   -5.4550 H   0  0  0  0  0
   -2.9426   33.5693   -7.9128 H   0  0  0  0  0
   -4.6139   31.2397  -11.3010 H   0  0  0  0  0
   -5.9554   29.4060  -10.2821 H   0  0  0  0  0
   -6.6405   28.3568   -8.3819 H   0  0  0  0  0
   -7.5882   27.0078   -6.8644 H   0  0  0  0  0
   -7.3335   28.0154   -2.6866 H   0  0  0  0  0
   -6.0095   30.0381   -3.2620 H   0  0  0  0  0
   -5.4860   30.5389   -5.6289 H   0  0  0  0  0
  1  2  2  0  0  0
  2  3  1  0  0  0
  2  6  1  0  0  0
  3  4  1  0  0  0
  3  5  1  0  0  0
  4  5  1  0  0  0
  6  7  1  0  0  0
  7  8  4  0  0  0
  7  9  4  0  0  0
  8 12  4  0  0  0
  9 10  4  0  0  0
 10 11  4  0  0  0
 11 12  4  0  0  0
 12 13  1  0  0  0
 13 14  1  0  0  0
 14 15  4  0  0  0
 14 18  4  0  0  0
 15 16  4  0  0  0
 16 17  4  0  0  0
 17 19  4  0  0  0
 18 19  4  0  0  0
 19 20  1  0  0  0
 20 21  1  0  0  0
 21 22  4  0  0  0
 21 30  4  0  0  0
 22 23  4  0  0  0
 23 24  1  0  0  0
 23 28  4  0  0  0
 24 25  1  0  0  0
 24 26  1  0  0  0
 24 27  1  0  0  0
 28 29  4  0  0  0
 29 30  4  0  0  0
  3 31  1  0  0  0
  4 32  1  0  0  0
  4 33  1  0  0  0
  5 34  1  0  0  0
  5 35  1  0  0  0
  6 36  1  0  0  0
  8 37  1  0  0  0
  9 38  1  0  0  0
 10 39  1  0  0  0
 11 40  1  0  0  0
 13 41  1  0  0  0
 16 42  1  0  0  0
 17 43  1  0  0  0
 20 44  1  0  0  0
 22 45  1  0  0  0
 28 46  1  0  0  0
 29 47  1  0  0  0
 30 48  1  0  0  0
M  END
$$$$
