### 
### Created by X-TOOL on Mon Sep 10 21:13:12 2018
### 

@<TRIPOS>MOLECULE
2llo_ligand
  324   327     1     0     0
SMALL
GAST_HUCK


@<TRIPOS>ATOM
      1 N           3.6020   15.5960    0.4230 N.4       1 ARG         0.2379
      2 CA          3.6360   14.9000   -0.8790 C.3       1 ARG         0.0651
      3 C           3.0660   13.4930   -0.7410 C.2       1 ARG         0.2267
      4 O           3.1370   12.8910    0.3280 O.2       1 ARG        -0.3907
      5 CB          5.0680   14.8240   -1.4120 C.3       1 ARG         0.0110
      6 CG          5.1580   14.5450   -2.9110 C.3       1 ARG        -0.0125
      7 CD          5.6940   15.7490   -3.6770 C.3       1 ARG         0.0629
      8 NE          4.6150   16.5710   -4.2140 N.pl3     1 ARG        -0.2723
      9 CZ          4.5090   16.9180   -5.4980 C.cat     1 ARG         0.2882
     10 NH1         5.4620   16.5960   -6.3710 N.pl3     1 ARG        -0.2849
     11 NH2         3.4430   17.5900   -5.9080 N.pl3     1 ARG        -0.2849
     12 N           2.4960   12.9720   -1.8260 N.am      1 ALA        -0.2613
     13 CA          1.9230   11.6330   -1.8300 C.3       1 ALA         0.1283
     14 C           2.9710   10.6030   -1.4990 C.2       1 ALA         0.2036
     15 O           2.6740    9.5800   -0.8900 O.2       1 ALA        -0.3944
     16 CB          1.3020   11.3200   -3.1760 C.3       1 ALA        -0.0244
     17 N           4.2030   10.8720   -1.8770 N.am      1 ALA        -0.2640
     18 CA          5.2860    9.9450   -1.6000 C.3       1 ALA         0.1282
     19 C           5.5870    9.8730   -0.1190 C.2       1 ALA         0.2037
     20 O           6.4040    9.0740    0.2900 O.2       1 ALA        -0.3944
     21 CB          6.5280   10.2900   -2.3870 C.3       1 ALA        -0.0244
     22 N           5.0710   10.8180    0.6460 N.am      1 ASN        -0.2616
     23 CA          5.1980   10.8030    2.1020 C.3       1 ASN         0.1476
     24 C           3.8780   10.3350    2.7200 C.2       1 ASN         0.2063
     25 O           3.8440    9.5980    3.7030 O.2       1 ASN        -0.3942
     26 CB          5.5790   12.1890    2.6110 C.3       1 ASN         0.0773
     27 CG          6.8170   12.7510    1.9370 C.2       1 ASN         0.1780
     28 OD1         6.8650   12.8780    0.7120 O.2       1 ASN        -0.3970
     29 ND2         7.8100   13.1210    2.7260 N.am      1 ASN        -0.3007
     30 N           2.7610   10.7840    2.1280 N.am      1 LEU        -0.2636
     31 CA          1.4340   10.4200    2.6190 C.3       1 LEU         0.1312
     32 C           1.0990    8.9750    2.2770 C.2       1 LEU         0.2040
     33 O           0.0930    8.4480    2.7340 O.2       1 LEU        -0.3944
     34 CB          0.3740   11.3650    2.0550 C.3       1 LEU        -0.0101
     35 CG         -0.2850   12.2950    3.0860 C.3       1 LEU        -0.0425
     36 CD1         0.6690   13.3990    3.5010 C.3       1 LEU        -0.0625
     37 CD2        -1.5720   12.8880    2.5310 C.3       1 LEU        -0.0625
     38 N           1.9230    8.3640    1.4390 N.am      1 TRP        -0.2627
     39 CA          1.7740    6.9530    1.0930 C.3       1 TRP         0.1354
     40 C           2.5350    6.1290    2.1450 C.2       1 TRP         0.2077
     41 O           1.9930    5.1830    2.7100 O.2       1 TRP        -0.3940
     42 CB          2.2620    6.6710   -0.3410 C.3       1 TRP         0.0042
     43 CG          1.1640    6.7030   -1.3670 C.2       1 TRP        -0.0418
     44 CD1         0.1580    7.6260   -1.4850 C.2       1 TRP         0.0167
     45 CD2         0.9790    5.7870   -2.4420 C.ar      1 TRP        -0.0214
     46 NE1        -0.6320    7.3310   -2.5570 N.pl3     1 TRP        -0.2890
     47 CE2        -0.1480    6.2150   -3.1650 C.ar      1 TRP         0.0603
     48 CE3         1.6600    4.6460   -2.8660 C.ar      1 TRP        -0.0747
     49 CZ2        -0.6030    5.5520   -4.2890 C.ar      1 TRP        -0.0443
     50 CZ3         1.2040    3.9860   -3.9850 C.ar      1 TRP        -0.0792
     51 CH2         0.0840    4.4440   -4.6870 C.ar      1 TRP        -0.0768
     52 N           3.8300    6.4480    2.3870 N.am      1 PRO        -0.2497
     53 CA          4.6370    5.8180    3.4450 C.3       1 PRO         0.1338
     54 C           3.9550    5.8470    4.8080 C.2       1 PRO         0.2042
     55 O           4.1170    4.9220    5.6030 O.2       1 PRO        -0.3944
     56 CB          5.8900    6.6960    3.4530 C.3       1 PRO        -0.0104
     57 CG          6.0560    6.9970    2.0380 C.3       1 PRO        -0.0281
     58 CD          4.6660    7.3230    1.5680 C.3       1 PRO         0.0369
     59 N           3.1980    6.9070    5.0760 N.am      1 SER        -0.2616
     60 CA          2.4950    7.0310    6.3480 C.3       1 SER         0.1541
     61 C           1.5420    5.8330    6.5710 C.2       1 SER         0.2087
     62 O           1.6960    5.1190    7.5630 O.2       1 SER        -0.3941
     63 CB          1.7840    8.3920    6.4520 C.3       1 SER         0.0843
     64 OG          0.8750    8.4270    7.5440 O.3       1 SER        -0.3903
     65 N           0.5350    5.5870    5.6910 N.am      1 PRO        -0.2498
     66 CA         -0.3460    4.4130    5.8200 C.3       1 PRO         0.1338
     67 C           0.4460    3.1090    5.8600 C.2       1 PRO         0.2041
     68 O           0.0620    2.1580    6.5400 O.2       1 PRO        -0.3944
     69 CB         -1.1940    4.4780    4.5510 C.3       1 PRO        -0.0104
     70 CG         -1.2380    5.9190    4.2090 C.3       1 PRO        -0.0281
     71 CD          0.1180    6.4430    4.5780 C.3       1 PRO         0.0369
     72 N           1.5520    3.0650    5.1240 N.am      1 LEU        -0.2637
     73 CA          2.4010    1.8810    5.1060 C.3       1 LEU         0.1312
     74 C           3.0160    1.6670    6.4850 C.2       1 LEU         0.2039
     75 O           3.2240    0.5360    6.9210 O.2       1 LEU        -0.3944
     76 CB          3.4940    2.0020    4.0510 C.3       1 LEU        -0.0101
     77 CG          4.1060    0.6660    3.6170 C.3       1 LEU        -0.0425
     78 CD1         3.1800   -0.0510    2.6410 C.3       1 LEU        -0.0625
     79 CD2         5.4760    0.8860    3.0010 C.3       1 LEU        -0.0625
     80 N           3.2940    2.7740    7.1670 N.am      1 MET        -0.2637
     81 CA          3.8430    2.7380    8.5160 C.3       1 MET         0.1317
     82 C           2.7790    2.1810    9.4560 C.2       1 MET         0.2039
     83 O           3.0770    1.4830   10.4300 O.2       1 MET        -0.3944
     84 CB          4.2920    4.1500    8.9270 C.3       1 MET        -0.0034
     85 CG          4.1170    4.4810   10.4000 C.3       1 MET        -0.0024
     86 SD          4.4220    6.2260   10.7480 S.3       1 MET        -0.1639
     87 CE          3.8710    6.3390   12.4490 C.3       1 MET        -0.0181
     88 N           1.5290    2.4840    9.1340 N.am      1 ILE        -0.2635
     89 CA          0.3970    1.9800    9.8970 C.3       1 ILE         0.1335
     90 C           0.2770    0.4800    9.6440 C.2       1 ILE         0.2042
     91 O          -0.0250   -0.3020   10.5490 O.2       1 ILE        -0.3944
     92 CB         -0.9250    2.6990    9.5030 C.3       1 ILE        -0.0037
     93 CG1        -0.8070    4.2180    9.7290 C.3       1 ILE        -0.0491
     94 CG2        -2.1060    2.1350   10.2900 C.3       1 ILE        -0.0582
     95 CD1        -0.4390    4.6040   11.1500 C.3       1 ILE        -0.0648
     96 N           0.5540    0.0920    8.4030 N.am      1 LYS        -0.2637
     97 CA          0.5280   -1.3070    8.0020 C.3       1 LYS         0.1310
     98 C           1.5960   -2.0710    8.7740 C.2       1 LYS         0.2039
     99 O           1.3640   -3.1860    9.2340 O.2       1 LYS        -0.3944
    100 CB          0.7700   -1.4490    6.4880 C.3       1 LYS        -0.0122
    101 CG          0.2330   -2.7510    5.8980 C.3       1 LYS        -0.0440
    102 CD          1.3360   -3.5950    5.2560 C.3       1 LYS        -0.0124
    103 CE          2.4140   -3.9860    6.2470 C.3       1 LYS        -0.0354
    104 NZ          3.7840   -3.6860    5.7390 N.4       1 LYS         0.2185
    105 N           2.7720   -1.4610    8.9040 N.am      1 ARG        -0.2637
    106 CA          3.8770   -2.0660    9.6380 C.3       1 ARG         0.1311
    107 C           3.4640   -2.2690   11.0910 C.2       1 ARG         0.2040
    108 O           3.7680   -3.2940   11.6960 O.2       1 ARG        -0.3944
    109 CB          5.1240   -1.1760    9.5640 C.3       1 ARG        -0.0092
    110 CG          6.4330   -1.9390    9.3580 C.3       1 ARG        -0.0156
    111 CD          6.7320   -2.8970   10.5080 C.3       1 ARG         0.0627
    112 NE          8.1690   -3.1280   10.6840 N.pl3     1 ARG        -0.2723
    113 CZ          8.8750   -4.0360   10.0100 C.cat     1 ARG         0.2882
    114 NH1         8.2900   -4.8000    9.0950 N.pl3     1 ARG        -0.2849
    115 NH2        10.1740   -4.1760   10.2480 N.pl3     1 ARG        -0.2849
    116 N           2.7600   -1.2840   11.6320 N.am      1 SER        -0.2616
    117 CA          2.2830   -1.3480   13.0040 C.3       1 SER         0.1539
    118 C           1.2750   -2.4870   13.1550 C.2       1 SER         0.2062
    119 O           1.2810   -3.2060   14.1550 O.2       1 SER        -0.3943
    120 CB          1.6620   -0.0030   13.4010 C.3       1 SER         0.0843
    121 OG          2.6220    1.0410   13.3020 O.3       1 SER        -0.3903
    122 N           0.4290   -2.6560   12.1450 N.am      1 LYS        -0.2637
    123 CA         -0.5710   -3.7190   12.1520 C.3       1 LYS         0.1310
    124 C           0.1130   -5.0770   12.0050 C.2       1 LYS         0.2039
    125 O          -0.3270   -6.0730   12.5760 O.2       1 LYS        -0.3944
    126 CB         -1.5890   -3.5170   11.0200 C.3       1 LYS        -0.0122
    127 CG         -2.5820   -4.6660   10.8700 C.3       1 LYS        -0.0440
    128 CD         -3.4380   -4.8360   12.1150 C.3       1 LYS        -0.0124
    129 CE         -3.9820   -6.2530   12.2360 C.3       1 LYS        -0.0354
    130 NZ         -2.9340   -7.2200   12.6820 N.4       1 LYS         0.2185
    131 N           1.1930   -5.1040   11.2370 N.am      1 LYS        -0.2637
    132 CA          1.9560   -6.3290   11.0180 C.3       1 LYS         0.1310
    133 C           2.6100   -6.7640   12.3290 C.2       1 LYS         0.2040
    134 O           2.8540   -7.9490   12.5700 O.2       1 LYS        -0.3944
    135 CB          3.0180   -6.0900    9.9340 C.3       1 LYS        -0.0122
    136 CG          3.1860   -7.2520    8.9660 C.3       1 LYS        -0.0440
    137 CD          4.2710   -8.2120    9.4260 C.3       1 LYS        -0.0124
    138 CE          4.3440   -9.4370    8.5320 C.3       1 LYS        -0.0354
    139 NZ          4.6010   -9.0950    7.1080 N.4       1 LYS         0.2185
    140 N           2.8870   -5.7780   13.1700 N.am      1 ASN        -0.2616
    141 CA          3.4870   -6.0130   14.4740 C.3       1 ASN         0.1475
    142 C           2.4040   -6.3330   15.4950 C.2       1 ASN         0.2058
    143 O           2.5960   -7.1600   16.3820 O.2       1 ASN        -0.3942
    144 CB          4.3200   -4.7940   14.9000 C.3       1 ASN         0.0773
    145 CG          4.7130   -4.8270   16.3680 C.2       1 ASN         0.1780
    146 OD1         4.1730   -4.0760   17.1780 O.2       1 ASN        -0.3970
    147 ND2         5.6450   -5.7080   16.7250 N.am      1 ASN        -0.3007
    148 N           1.2670   -5.6740   15.3590 N.am      1 SER        -0.2671
    149 CA          0.1360   -5.8860   16.2440 C.3       1 SER         0.1173
    150 C          -0.8050   -6.9370   15.6500 C.2       1 SER         0.0623
    151 O          -0.5170   -8.1510   15.7820 O.co2     1 SER        -0.5665
    152 CB         -0.5960   -4.5670   16.4630 C.3       1 SER         0.0789
    153 OG          0.3120   -3.5250   16.8130 O.3       1 SER        -0.3910
    154 OXT        -1.8280   -6.5480   15.0400 O.co2     1 SER        -0.5665
    155 H           2.6404   15.6361    0.7607 H         1 ARG         0.2015
    156 H           4.1783   15.0879    1.0939 H         1 ARG         0.2015
    157 H           3.9639   16.5430    0.3105 H         1 ARG         0.2015
    158 H           3.0271   15.4664   -1.5836 H         1 ARG         0.1098
    159 H           5.5609   13.9982   -0.8989 H         1 ARG         0.0347
    160 H           5.5311   15.7947   -1.2351 H         1 ARG         0.0347
    161 H           4.1569   14.3212   -3.2795 H         1 ARG         0.0302
    162 H           5.8401   13.7087   -3.0645 H         1 ARG         0.0302
    163 H           6.2961   15.3858   -4.5099 H         1 ARG         0.0689
    164 H           6.2813   16.3589   -2.9906 H         1 ARG         0.0689
    165 H           3.8976   16.9007   -3.5682 H         1 ARG         0.2642
    166 H           6.2843   16.0785   -6.0606 H         1 ARG         0.2615
    167 H           5.3695   16.8669   -7.3500 H         1 ARG         0.2615
    168 H           2.7102   17.8387   -5.2435 H         1 ARG         0.2615
    169 H           3.3553   17.8586   -6.8881 H         1 ARG         0.2615
    170 H           2.4596   13.5278   -2.6805 H         1 ALA         0.1884
    171 H           1.1450   11.5999   -1.0673 H         1 ALA         0.0797
    172 H           0.5132   12.0419   -3.3875 H         1 ALA         0.0277
    173 H           2.0671   11.3787   -3.9501 H         1 ALA         0.0277
    174 H           0.8805   10.3150   -3.1554 H         1 ALA         0.0277
    175 H           4.3994   11.7427   -2.3707 H         1 ALA         0.1883
    176 H           4.9540    8.9579   -1.9217 H         1 ALA         0.0797
    177 H           6.3040   10.2498   -3.4530 H         1 ALA         0.0277
    178 H           6.8576   11.2944   -2.1213 H         1 ALA         0.0277
    179 H           7.3157    9.5739   -2.1527 H         1 ALA         0.0277
    180 H           4.5655   11.5862    0.2046 H         1 ASN         0.1885
    181 H           5.9875   10.1105    2.3940 H         1 ASN         0.0826
    182 H           5.7919   12.1036    3.6766 H         1 ASN         0.0551
    183 H           4.7492   12.8615    2.3934 H         1 ASN         0.0551
    184 H           8.6550   13.5284    2.3255 H         1 ASN         0.1814
    185 H           7.7317   12.9992    3.7357 H         1 ASN         0.1814
    186 H           2.8401   11.3947    1.3149 H         1 LEU         0.1883
    187 H           1.4404   10.5153    3.7048 H         1 LEU         0.0800
    188 H          -0.4186   10.7389    1.6452 H         1 LEU         0.0315
    189 H           0.8778   12.0057    1.3312 H         1 LEU         0.0315
    190 H          -0.5302   11.7024    3.9673 H         1 LEU         0.0298
    191 H           1.5621   12.9582    3.9440 H         1 LEU         0.0232
    192 H           0.9476   13.9849    2.6251 H         1 LEU         0.0232
    193 H           0.1804   14.0443    4.2310 H         1 LEU         0.0232
    194 H          -1.3481   13.4611    1.6313 H         1 LEU         0.0232
    195 H          -2.2658   12.0834    2.2875 H         1 LEU         0.0232
    196 H          -2.0207   13.5427    3.2781 H         1 LEU         0.0232
    197 H           2.6865    8.8963    1.0217 H         1 TRP         0.1884
    198 H           0.7219    6.6682    1.1041 H         1 TRP         0.0815
    199 H           2.6887    5.6680   -0.3499 H         1 TRP         0.0397
    200 H           2.9768    7.4513   -0.6025 H         1 TRP         0.0397
    201 H           0.0102    8.4748   -0.8174 H         1 TRP         0.0795
    202 H          -1.4515    7.8607   -2.8540 H         1 TRP         0.2216
    203 H           2.5337    4.2849   -2.3235 H         1 TRP         0.0540
    204 H          -1.4781    5.9019   -4.8365 H         1 TRP         0.0541
    205 H           1.7241    3.0922   -4.3295 H         1 TRP         0.0510
    206 H          -0.2471    3.9022   -5.5730 H         1 TRP         0.0530
    207 H           4.8200    4.7599    3.2577 H         1 PRO         0.0802
    208 H           6.7577    6.2068    3.8956 H         1 PRO         0.0313
    209 H           5.7907    7.5853    4.0753 H         1 PRO         0.0313
    210 H           6.4927    6.1637    1.4875 H         1 PRO         0.0287
    211 H           6.7516    7.8192    1.8701 H         1 PRO         0.0287
    212 H           4.4163    8.3775    1.6852 H         1 PRO         0.0524
    213 H           4.5313    7.1576    0.4991 H         1 PRO         0.0524
    214 H           3.1073    7.6466    4.3795 H         1 SER         0.1884
    215 H           3.2251    7.0005    7.1568 H         1 SER         0.0823
    216 H           1.2231    8.5580    5.5323 H         1 SER         0.0606
    217 H           2.5385    9.1630    6.6079 H         1 SER         0.0606
    218 H           0.4510    9.2876    7.5785 H         1 SER         0.2097
    219 H          -0.9268    4.4286    6.7423 H         1 PRO         0.0802
    220 H          -2.1904    4.0632    4.7033 H         1 PRO         0.0313
    221 H          -0.7703    3.8791    3.7449 H         1 PRO         0.0313
    222 H          -2.0328    6.4386    4.7442 H         1 PRO         0.0287
    223 H          -1.4610    6.0787    3.1541 H         1 PRO         0.0287
    224 H           0.8175    6.4064    3.7428 H         1 PRO         0.0524
    225 H           0.0937    7.4974    4.8531 H         1 PRO         0.0524
    226 H           1.8112    3.8753    4.5613 H         1 LEU         0.1883
    227 H           1.7846    1.0195    4.8489 H         1 LEU         0.0800
    228 H           4.2973    2.5943    4.4893 H         1 LEU         0.0315
    229 H           3.0372    2.4466    3.1669 H         1 LEU         0.0315
    230 H           4.2265    0.0350    4.4976 H         1 LEU         0.0298
    231 H           2.2210   -0.2394    3.1237 H         1 LEU         0.0232
    232 H           3.0286    0.5734    1.7605 H         1 LEU         0.0232
    233 H           3.6307   -0.9978    2.3435 H         1 LEU         0.0232
    234 H           5.3813    1.5334    2.1292 H         1 LEU         0.0232
    235 H           6.1315    1.3556    3.7344 H         1 LEU         0.0232
    236 H           5.8954   -0.0736    2.6987 H         1 LEU         0.0232
    237 H           3.1169    3.6790    6.7310 H         1 MET         0.1883
    238 H           4.7190    2.0911    8.5634 H         1 MET         0.0800
    239 H           3.6681    4.8508    8.3723 H         1 MET         0.0320
    240 H           5.3597    4.2127    8.7167 H         1 MET         0.0320
    241 H           4.8366    3.8912   10.9679 H         1 MET         0.0378
    242 H           3.0878    4.2546   10.6784 H         1 MET         0.0378
    243 H           2.8186    6.0612   12.5079 H         1 MET         0.0340
    244 H           4.4618    5.6626   13.0666 H         1 MET         0.0340
    245 H           3.9985    7.3618   12.8037 H         1 MET         0.0340
    246 H           1.3561    3.0868    8.3295 H         1 ILE         0.1883
    247 H           0.5660    2.1758   10.9559 H         1 ILE         0.0803
    248 H          -1.1024    2.5198    8.4426 H         1 ILE         0.0345
    249 H          -1.7840    4.6531    9.5185 H         1 ILE         0.0267
    250 H          -0.0108    4.5807    9.0789 H         1 ILE         0.0267
    251 H          -2.2078    1.0708   10.0772 H         1 ILE         0.0235
    252 H          -1.9321    2.2786   11.3564 H         1 ILE         0.0235
    253 H          -3.0181    2.6544    9.9961 H         1 ILE         0.0235
    254 H          -1.2024    4.2346   11.8348 H         1 ILE         0.0230
    255 H           0.5247    4.1641   11.4066 H         1 ILE         0.0230
    256 H          -0.3760    5.6896   11.2255 H         1 ILE         0.0230
    257 H           0.7930    0.7991    7.7078 H         1 LYS         0.1883
    258 H          -0.4555   -1.7193    8.2276 H         1 LYS         0.0800
    259 H           1.8483   -1.4402    6.3288 H         1 LYS         0.0312
    260 H           0.2464   -0.6290    5.9966 H         1 LYS         0.0312
    261 H          -0.4930   -2.4983    5.1252 H         1 LYS         0.0269
    262 H          -0.2101   -3.3318    6.7070 H         1 LYS         0.0269
    263 H           1.8005   -3.0011    4.4689 H         1 LYS         0.0317
    264 H           0.8820   -4.5090    4.8731 H         1 LYS         0.0317
    265 H           2.3438   -5.0603    6.4174 H         1 LYS         0.0813
    266 H           2.2584   -3.4121    7.1605 H         1 LYS         0.0813
    267 H           4.4730   -3.9652    6.4374 H         1 LYS         0.1994
    268 H           3.9456   -4.2029    4.8746 H         1 LYS         0.1994
    269 H           3.8670   -2.6855    5.5588 H         1 LYS         0.1994
    270 H           2.9039   -0.5438    8.4778 H         1 ARG         0.1883
    271 H           4.1183   -3.0295    9.1891 H         1 ARG         0.0800
    272 H           5.2034   -0.6564   10.5189 H         1 ARG         0.0313
    273 H           4.9977   -0.5192    8.7033 H         1 ARG         0.0313
    274 H           7.2434   -1.2120    9.3040 H         1 ARG         0.0301
    275 H           6.3422   -2.5257    8.4439 H         1 ARG         0.0301
    276 H           6.2621   -3.8538   10.2806 H         1 ARG         0.0689
    277 H           6.3471   -2.4526   11.4258 H         1 ARG         0.0689
    278 H           8.6622   -2.5550   11.3687 H         1 ARG         0.2642
    279 H           7.2937   -4.6944    8.9037 H         1 ARG         0.2615
    280 H           8.8369   -5.4925    8.5835 H         1 ARG         0.2615
    281 H          10.6308   -3.5890   10.9460 H         1 ARG         0.2615
    282 H          10.7149   -4.8705    9.7328 H         1 ARG         0.2615
    283 H           2.5474   -0.4594   11.0706 H         1 SER         0.1884
    284 H           3.1214   -1.5481   13.6712 H         1 SER         0.0823
    285 H           1.3139   -0.0657   14.4320 H         1 SER         0.0606
    286 H           0.8328    0.2152   12.7280 H         1 SER         0.0606
    287 H           2.9379    1.0990   12.3974 H         1 SER         0.2097
    288 H           0.4795   -2.0266   11.3439 H         1 LYS         0.1883
    289 H          -1.1040   -3.6860   13.1022 H         1 LYS         0.0800
    290 H          -1.0283   -3.4490   10.0878 H         1 LYS         0.0312
    291 H          -2.1630   -2.6209   11.2559 H         1 LYS         0.0312
    292 H          -2.0204   -5.5866   10.7112 H         1 LYS         0.0269
    293 H          -3.2392   -4.4442   10.0292 H         1 LYS         0.0269
    294 H          -4.2816   -4.1491   12.0479 H         1 LYS         0.0317
    295 H          -2.8186   -4.6304   12.9880 H         1 LYS         0.0317
    296 H          -4.3382   -6.5658   11.2545 H         1 LYS         0.0813
    297 H          -4.7798   -6.2491   12.9787 H         1 LYS         0.0813
    298 H          -3.3406   -8.1531   12.7493 H         1 LYS         0.1994
    299 H          -2.1708   -7.2284   12.0054 H         1 LYS         0.1994
    300 H          -2.5777   -6.9364   13.5947 H         1 LYS         0.1994
    301 H           1.5003   -4.2426   10.7853 H         1 LYS         0.1883
    302 H           1.2894   -7.1225   10.6803 H         1 LYS         0.0800
    303 H           3.9726   -5.9510   10.4414 H         1 LYS         0.0312
    304 H           2.6965   -5.2270    9.3509 H         1 LYS         0.0312
    305 H           3.4710   -6.8511    7.9933 H         1 LYS         0.0269
    306 H           2.2433   -7.7968    8.9155 H         1 LYS         0.0269
    307 H           4.0376   -8.5373   10.4398 H         1 LYS         0.0317
    308 H           5.2300   -7.6956    9.3839 H         1 LYS         0.0317
    309 H           3.3823   -9.9472    8.5849 H         1 LYS         0.0813
    310 H           5.1698  -10.0569    8.8812 H         1 LYS         0.0813
    311 H           4.6400   -9.9516    6.5556 H         1 LYS         0.1994
    312 H           3.8489   -8.4995    6.7615 H         1 LYS         0.1994
    313 H           5.4898   -8.6002    7.0335 H         1 LYS         0.1994
    314 H           2.6718   -4.8202   12.8930 H         1 ASN         0.1885
    315 H           4.1571   -6.8707   14.4148 H         1 ASN         0.0826
    316 H           3.7121   -3.9037   14.7389 H         1 ASN         0.0551
    317 H           5.2369   -4.7960   14.3106 H         1 ASN         0.0551
    318 H           5.9345   -5.7771   17.7006 H         1 ASN         0.1814
    319 H           6.0696   -6.3139   16.0229 H         1 ASN         0.1814
    320 H           1.1808   -4.9920   14.6054 H         1 SER         0.1876
    321 H           0.4921   -6.2521   17.2069 H         1 SER         0.0749
    322 H          -1.3084   -4.6957   17.2778 H         1 SER         0.0599
    323 H          -1.1012   -4.2917   15.5372 H         1 SER         0.0599
    324 H           0.9506   -3.4076   16.1058 H         1 SER         0.2096
@<TRIPOS>BOND
     1    1    2 1  
     2    2    3 1  
     3    2    5 1  
     4    3    4 2  
     5    3   12 am 
     6    5    6 1  
     7    6    7 1  
     8    7    8 1  
     9    8    9 ar 
    10    9   10 ar 
    11    9   11 ar 
    12   12   13 1  
    13   13   14 1  
    14   13   16 1  
    15   14   15 2  
    16   14   17 am 
    17   17   18 1  
    18   18   19 1  
    19   18   21 1  
    20   19   20 2  
    21   19   22 am 
    22   22   23 1  
    23   23   24 1  
    24   23   26 1  
    25   24   25 2  
    26   24   30 am 
    27   26   27 1  
    28   27   28 2  
    29   27   29 am 
    30   30   31 1  
    31   31   32 1  
    32   31   34 1  
    33   32   33 2  
    34   32   38 am 
    35   34   35 1  
    36   35   36 1  
    37   35   37 1  
    38   38   39 1  
    39   39   40 1  
    40   39   42 1  
    41   40   41 2  
    42   40   52 am 
    43   42   43 1  
    44   43   44 2  
    45   43   45 1  
    46   44   46 1  
    47   45   47 ar 
    48   45   48 ar 
    49   46   47 1  
    50   47   49 ar 
    51   48   50 ar 
    52   49   51 ar 
    53   50   51 ar 
    54   52   53 1  
    55   52   58 1  
    56   53   54 1  
    57   53   56 1  
    58   54   55 2  
    59   54   59 am 
    60   56   57 1  
    61   57   58 1  
    62   59   60 1  
    63   60   61 1  
    64   60   63 1  
    65   61   62 2  
    66   61   65 am 
    67   63   64 1  
    68   65   66 1  
    69   65   71 1  
    70   66   67 1  
    71   66   69 1  
    72   67   68 2  
    73   67   72 am 
    74   69   70 1  
    75   70   71 1  
    76   72   73 1  
    77   73   74 1  
    78   73   76 1  
    79   74   75 2  
    80   74   80 am 
    81   76   77 1  
    82   77   78 1  
    83   77   79 1  
    84   80   81 1  
    85   81   82 1  
    86   81   84 1  
    87   82   83 2  
    88   82   88 am 
    89   84   85 1  
    90   85   86 1  
    91   86   87 1  
    92   88   89 1  
    93   89   90 1  
    94   89   92 1  
    95   90   91 2  
    96   90   96 am 
    97   92   93 1  
    98   92   94 1  
    99   93   95 1  
   100   96   97 1  
   101   97   98 1  
   102   97  100 1  
   103   98   99 2  
   104   98  105 am 
   105  100  101 1  
   106  101  102 1  
   107  102  103 1  
   108  103  104 1  
   109  105  106 1  
   110  106  107 1  
   111  106  109 1  
   112  107  108 2  
   113  107  116 am 
   114  109  110 1  
   115  110  111 1  
   116  111  112 1  
   117  112  113 ar 
   118  113  114 ar 
   119  113  115 ar 
   120  116  117 1  
   121  117  118 1  
   122  117  120 1  
   123  118  119 2  
   124  118  122 am 
   125  120  121 1  
   126  122  123 1  
   127  123  124 1  
   128  123  126 1  
   129  124  125 2  
   130  124  131 am 
   131  126  127 1  
   132  127  128 1  
   133  128  129 1  
   134  129  130 1  
   135  131  132 1  
   136  132  133 1  
   137  132  135 1  
   138  133  134 2  
   139  133  140 am 
   140  135  136 1  
   141  136  137 1  
   142  137  138 1  
   143  138  139 1  
   144  140  141 1  
   145  141  142 1  
   146  141  144 1  
   147  142  143 2  
   148  142  148 am 
   149  144  145 1  
   150  145  146 2  
   151  145  147 am 
   152  148  149 1  
   153  149  150 1  
   154  149  152 1  
   155  150  151 ar 
   156  150  154 ar 
   157  152  153 1  
   158    1  155 1  
   159    1  156 1  
   160    1  157 1  
   161    2  158 1  
   162    5  159 1  
   163    5  160 1  
   164    6  161 1  
   165    6  162 1  
   166    7  163 1  
   167    7  164 1  
   168    8  165 1  
   169   10  166 1  
   170   10  167 1  
   171   11  168 1  
   172   11  169 1  
   173   12  170 1  
   174   13  171 1  
   175   16  172 1  
   176   16  173 1  
   177   16  174 1  
   178   17  175 1  
   179   18  176 1  
   180   21  177 1  
   181   21  178 1  
   182   21  179 1  
   183   22  180 1  
   184   23  181 1  
   185   26  182 1  
   186   26  183 1  
   187   29  184 1  
   188   29  185 1  
   189   30  186 1  
   190   31  187 1  
   191   34  188 1  
   192   34  189 1  
   193   35  190 1  
   194   36  191 1  
   195   36  192 1  
   196   36  193 1  
   197   37  194 1  
   198   37  195 1  
   199   37  196 1  
   200   38  197 1  
   201   39  198 1  
   202   42  199 1  
   203   42  200 1  
   204   44  201 1  
   205   46  202 1  
   206   48  203 1  
   207   49  204 1  
   208   50  205 1  
   209   51  206 1  
   210   53  207 1  
   211   56  208 1  
   212   56  209 1  
   213   57  210 1  
   214   57  211 1  
   215   58  212 1  
   216   58  213 1  
   217   59  214 1  
   218   60  215 1  
   219   63  216 1  
   220   63  217 1  
   221   64  218 1  
   222   66  219 1  
   223   69  220 1  
   224   69  221 1  
   225   70  222 1  
   226   70  223 1  
   227   71  224 1  
   228   71  225 1  
   229   72  226 1  
   230   73  227 1  
   231   76  228 1  
   232   76  229 1  
   233   77  230 1  
   234   78  231 1  
   235   78  232 1  
   236   78  233 1  
   237   79  234 1  
   238   79  235 1  
   239   79  236 1  
   240   80  237 1  
   241   81  238 1  
   242   84  239 1  
   243   84  240 1  
   244   85  241 1  
   245   85  242 1  
   246   87  243 1  
   247   87  244 1  
   248   87  245 1  
   249   88  246 1  
   250   89  247 1  
   251   92  248 1  
   252   93  249 1  
   253   93  250 1  
   254   94  251 1  
   255   94  252 1  
   256   94  253 1  
   257   95  254 1  
   258   95  255 1  
   259   95  256 1  
   260   96  257 1  
   261   97  258 1  
   262  100  259 1  
   263  100  260 1  
   264  101  261 1  
   265  101  262 1  
   266  102  263 1  
   267  102  264 1  
   268  103  265 1  
   269  103  266 1  
   270  104  267 1  
   271  104  268 1  
   272  104  269 1  
   273  105  270 1  
   274  106  271 1  
   275  109  272 1  
   276  109  273 1  
   277  110  274 1  
   278  110  275 1  
   279  111  276 1  
   280  111  277 1  
   281  112  278 1  
   282  114  279 1  
   283  114  280 1  
   284  115  281 1  
   285  115  282 1  
   286  116  283 1  
   287  117  284 1  
   288  120  285 1  
   289  120  286 1  
   290  121  287 1  
   291  122  288 1  
   292  123  289 1  
   293  126  290 1  
   294  126  291 1  
   295  127  292 1  
   296  127  293 1  
   297  128  294 1  
   298  128  295 1  
   299  129  296 1  
   300  129  297 1  
   301  130  298 1  
   302  130  299 1  
   303  130  300 1  
   304  131  301 1  
   305  132  302 1  
   306  135  303 1  
   307  135  304 1  
   308  136  305 1  
   309  136  306 1  
   310  137  307 1  
   311  137  308 1  
   312  138  309 1  
   313  138  310 1  
   314  139  311 1  
   315  139  312 1  
   316  139  313 1  
   317  140  314 1  
   318  141  315 1  
   319  144  316 1  
   320  144  317 1  
   321  147  318 1  
   322  147  319 1  
   323  148  320 1  
   324  149  321 1  
   325  152  322 1  
   326  152  323 1  
   327  153  324 1  
@<TRIPOS>SUBSTRUCTURE
     1 ARG         1

