2llo_ligand
  -I-interpret- 

322325  0  0  0  0  0  0  0  0999 V2000
    3.6020   15.5960    0.4230 N   0  3  0  0  0
    3.6360   14.9000   -0.8790 C   0  0  0  0  0
    3.0660   13.4930   -0.7410 C   0  0  0  0  0
    3.1370   12.8910    0.3280 O   0  0  0  0  0
    5.0680   14.8240   -1.4120 C   0  0  0  0  0
    5.1580   14.5450   -2.9110 C   0  0  0  0  0
    5.6940   15.7490   -3.6770 C   0  0  0  0  0
    4.6150   16.5710   -4.2140 N   0  0  0  0  0
    4.5090   16.9180   -5.4980 C   0  0  0  0  0
    5.4620   16.5960   -6.3710 N   0  0  0  0  0
    3.4430   17.5900   -5.9080 N   0  0  0  0  0
    2.4960   12.9720   -1.8260 N   0  0  0  0  0
    1.9230   11.6330   -1.8300 C   0  0  0  0  0
    2.9710   10.6030   -1.4990 C   0  0  0  0  0
    2.6740    9.5800   -0.8900 O   0  0  0  0  0
    1.3020   11.3200   -3.1760 C   0  0  0  0  0
    4.2030   10.8720   -1.8770 N   0  0  0  0  0
    5.2860    9.9450   -1.6000 C   0  0  0  0  0
    5.5870    9.8730   -0.1190 C   0  0  0  0  0
    6.4040    9.0740    0.2900 O   0  0  0  0  0
    6.5280   10.2900   -2.3870 C   0  0  0  0  0
    5.0710   10.8180    0.6460 N   0  0  0  0  0
    5.1980   10.8030    2.1020 C   0  0  0  0  0
    3.8780   10.3350    2.7200 C   0  0  0  0  0
    3.8440    9.5980    3.7030 O   0  0  0  0  0
    5.5790   12.1890    2.6110 C   0  0  0  0  0
    6.8170   12.7510    1.9370 C   0  0  0  0  0
    6.8650   12.8780    0.7120 O   0  0  0  0  0
    7.8100   13.1210    2.7260 N   0  0  0  0  0
    2.7610   10.7840    2.1280 N   0  0  0  0  0
    1.4340   10.4200    2.6190 C   0  0  0  0  0
    1.0990    8.9750    2.2770 C   0  0  0  0  0
    0.0930    8.4480    2.7340 O   0  0  0  0  0
    0.3740   11.3650    2.0550 C   0  0  0  0  0
   -0.2850   12.2950    3.0860 C   0  0  0  0  0
    0.6690   13.3990    3.5010 C   0  0  0  0  0
   -1.5720   12.8880    2.5310 C   0  0  0  0  0
    1.9230    8.3640    1.4390 N   0  0  0  0  0
    1.7740    6.9530    1.0930 C   0  0  0  0  0
    2.5350    6.1290    2.1450 C   0  0  0  0  0
    1.9930    5.1830    2.7100 O   0  0  0  0  0
    2.2620    6.6710   -0.3410 C   0  0  0  0  0
    1.1640    6.7030   -1.3670 C   0  0  0  0  0
    0.1580    7.6260   -1.4850 C   0  0  0  0  0
    0.9790    5.7870   -2.4420 C   0  0  0  0  0
   -0.6320    7.3310   -2.5570 N   0  0  0  0  0
   -0.1480    6.2150   -3.1650 C   0  0  0  0  0
    1.6600    4.6460   -2.8660 C   0  0  0  0  0
   -0.6030    5.5520   -4.2890 C   0  0  0  0  0
    1.2040    3.9860   -3.9850 C   0  0  0  0  0
    0.0840    4.4440   -4.6870 C   0  0  0  0  0
    3.8300    6.4480    2.3870 N   0  0  0  0  0
    4.6370    5.8180    3.4450 C   0  0  0  0  0
    3.9550    5.8470    4.8080 C   0  0  0  0  0
    4.1170    4.9220    5.6030 O   0  0  0  0  0
    5.8900    6.6960    3.4530 C   0  0  0  0  0
    6.0560    6.9970    2.0380 C   0  0  0  0  0
    4.6660    7.3230    1.5680 C   0  0  0  0  0
    3.1980    6.9070    5.0760 N   0  0  0  0  0
    2.4950    7.0310    6.3480 C   0  0  0  0  0
    1.5420    5.8330    6.5710 C   0  0  0  0  0
    1.6960    5.1190    7.5630 O   0  0  0  0  0
    1.7840    8.3920    6.4520 C   0  0  0  0  0
    0.8750    8.4270    7.5440 O   0  0  0  0  0
    0.5350    5.5870    5.6910 N   0  0  0  0  0
   -0.3460    4.4130    5.8200 C   0  0  0  0  0
    0.4460    3.1090    5.8600 C   0  0  0  0  0
    0.0620    2.1580    6.5400 O   0  0  0  0  0
   -1.1940    4.4780    4.5510 C   0  0  0  0  0
   -1.2380    5.9190    4.2090 C   0  0  0  0  0
    0.1180    6.4430    4.5780 C   0  0  0  0  0
    1.5520    3.0650    5.1240 N   0  0  0  0  0
    2.4010    1.8810    5.1060 C   0  0  0  0  0
    3.0160    1.6670    6.4850 C   0  0  0  0  0
    3.2240    0.5360    6.9210 O   0  0  0  0  0
    3.4940    2.0020    4.0510 C   0  0  0  0  0
    4.1060    0.6660    3.6170 C   0  0  0  0  0
    3.1800   -0.0510    2.6410 C   0  0  0  0  0
    5.4760    0.8860    3.0010 C   0  0  0  0  0
    3.2940    2.7740    7.1670 N   0  0  0  0  0
    3.8430    2.7380    8.5160 C   0  0  0  0  0
    2.7790    2.1810    9.4560 C   0  0  0  0  0
    3.0770    1.4830   10.4300 O   0  0  0  0  0
    4.2920    4.1500    8.9270 C   0  0  0  0  0
    4.1170    4.4810   10.4000 C   0  0  0  0  0
    4.4220    6.2260   10.7480 S   0  0  0  0  0
    3.8710    6.3390   12.4490 C   0  0  0  0  0
    1.5290    2.4840    9.1340 N   0  0  0  0  0
    0.3970    1.9800    9.8970 C   0  0  0  0  0
    0.2770    0.4800    9.6440 C   0  0  0  0  0
   -0.0250   -0.3020   10.5490 O   0  0  0  0  0
   -0.9250    2.6990    9.5030 C   0  0  0  0  0
   -0.8070    4.2180    9.7290 C   0  0  0  0  0
   -2.1060    2.1350   10.2900 C   0  0  0  0  0
   -0.4390    4.6040   11.1500 C   0  0  0  0  0
    0.5540    0.0920    8.4030 N   0  0  0  0  0
    0.5280   -1.3070    8.0020 C   0  0  0  0  0
    1.5960   -2.0710    8.7740 C   0  0  0  0  0
    1.3640   -3.1860    9.2340 O   0  0  0  0  0
    0.7700   -1.4490    6.4880 C   0  0  0  0  0
    0.2330   -2.7510    5.8980 C   0  0  0  0  0
    1.3360   -3.5950    5.2560 C   0  0  0  0  0
    2.4140   -3.9860    6.2470 C   0  0  0  0  0
    3.7840   -3.6860    5.7390 N   0  3  0  0  0
    2.7720   -1.4610    8.9040 N   0  0  0  0  0
    3.8770   -2.0660    9.6380 C   0  0  0  0  0
    3.4640   -2.2690   11.0910 C   0  0  0  0  0
    3.7680   -3.2940   11.6960 O   0  0  0  0  0
    5.1240   -1.1760    9.5640 C   0  0  0  0  0
    6.4330   -1.9390    9.3580 C   0  0  0  0  0
    6.7320   -2.8970   10.5080 C   0  0  0  0  0
    8.1690   -3.1280   10.6840 N   0  0  0  0  0
    8.8750   -4.0360   10.0100 C   0  0  0  0  0
    8.2900   -4.8000    9.0950 N   0  0  0  0  0
   10.1740   -4.1760   10.2480 N   0  0  0  0  0
    2.7600   -1.2840   11.6320 N   0  0  0  0  0
    2.2830   -1.3480   13.0040 C   0  0  0  0  0
    1.2750   -2.4870   13.1550 C   0  0  0  0  0
    1.2810   -3.2060   14.1550 O   0  0  0  0  0
    1.6620   -0.0030   13.4010 C   0  0  0  0  0
    2.6220    1.0410   13.3020 O   0  0  0  0  0
    0.4290   -2.6560   12.1450 N   0  0  0  0  0
   -0.5710   -3.7190   12.1520 C   0  0  0  0  0
    0.1130   -5.0770   12.0050 C   0  0  0  0  0
   -0.3270   -6.0730   12.5760 O   0  0  0  0  0
   -1.5890   -3.5170   11.0200 C   0  0  0  0  0
   -2.5820   -4.6660   10.8700 C   0  0  0  0  0
   -3.4380   -4.8360   12.1150 C   0  0  0  0  0
   -3.9820   -6.2530   12.2360 C   0  0  0  0  0
   -2.9340   -7.2200   12.6820 N   0  3  0  0  0
    1.1930   -5.1040   11.2370 N   0  0  0  0  0
    1.9560   -6.3290   11.0180 C   0  0  0  0  0
    2.6100   -6.7640   12.3290 C   0  0  0  0  0
    2.8540   -7.9490   12.5700 O   0  0  0  0  0
    3.0180   -6.0900    9.9340 C   0  0  0  0  0
    3.1860   -7.2520    8.9660 C   0  0  0  0  0
    4.2710   -8.2120    9.4260 C   0  0  0  0  0
    4.3440   -9.4370    8.5320 C   0  0  0  0  0
    4.6010   -9.0950    7.1080 N   0  3  0  0  0
    2.8870   -5.7780   13.1700 N   0  0  0  0  0
    3.4870   -6.0130   14.4740 C   0  0  0  0  0
    2.4040   -6.3330   15.4950 C   0  0  0  0  0
    2.5960   -7.1600   16.3820 O   0  0  0  0  0
    4.3200   -4.7940   14.9000 C   0  0  0  0  0
    4.7130   -4.8270   16.3680 C   0  0  0  0  0
    4.1730   -4.0760   17.1780 O   0  0  0  0  0
    5.6450   -5.7080   16.7250 N   0  0  0  0  0
    1.2670   -5.6740   15.3590 N   0  0  0  0  0
    0.1360   -5.8860   16.2440 C   0  0  0  0  0
   -0.8050   -6.9370   15.6500 C   0  0  0  0  0
   -0.5170   -8.1510   15.7820 O   0  0  0  0  0
   -0.5960   -4.5670   16.4630 C   0  0  0  0  0
    0.3120   -3.5250   16.8130 O   0  0  0  0  0
   -1.8280   -6.5480   15.0400 O   0  0  0  0  0
    2.6404   15.6361    0.7607 H   0  0  0  0  0
    4.1783   15.0879    1.0939 H   0  0  0  0  0
    3.9639   16.5430    0.3105 H   0  0  0  0  0
    3.0271   15.4664   -1.5836 H   0  0  0  0  0
    5.5609   13.9982   -0.8989 H   0  0  0  0  0
    5.5311   15.7947   -1.2351 H   0  0  0  0  0
    4.1569   14.3212   -3.2795 H   0  0  0  0  0
    5.8401   13.7087   -3.0645 H   0  0  0  0  0
    6.2961   15.3858   -4.5099 H   0  0  0  0  0
    6.2813   16.3589   -2.9906 H   0  0  0  0  0
    3.8976   16.9007   -3.5682 H   0  0  0  0  0
    5.3693   16.8666   -7.3501 H   0  0  0  0  0
    6.2845   16.0788   -6.0605 H   0  0  0  0  0
    2.7102   17.8387   -5.2435 H   0  0  0  0  0
    2.4596   13.5278   -2.6805 H   0  0  0  0  0
    1.1450   11.5999   -1.0673 H   0  0  0  0  0
    0.5132   12.0419   -3.3875 H   0  0  0  0  0
    2.0671   11.3787   -3.9501 H   0  0  0  0  0
    0.8805   10.3150   -3.1554 H   0  0  0  0  0
    4.3994   11.7427   -2.3707 H   0  0  0  0  0
    4.9540    8.9579   -1.9217 H   0  0  0  0  0
    6.3040   10.2498   -3.4530 H   0  0  0  0  0
    6.8576   11.2944   -2.1213 H   0  0  0  0  0
    7.3157    9.5739   -2.1527 H   0  0  0  0  0
    4.5655   11.5862    0.2046 H   0  0  0  0  0
    5.9875   10.1105    2.3940 H   0  0  0  0  0
    5.7919   12.1036    3.6766 H   0  0  0  0  0
    4.7492   12.8615    2.3934 H   0  0  0  0  0
    8.6550   13.5284    2.3255 H   0  0  0  0  0
    7.7317   12.9992    3.7357 H   0  0  0  0  0
    2.8401   11.3947    1.3149 H   0  0  0  0  0
    1.4404   10.5153    3.7048 H   0  0  0  0  0
   -0.4186   10.7389    1.6452 H   0  0  0  0  0
    0.8778   12.0057    1.3312 H   0  0  0  0  0
   -0.5302   11.7024    3.9673 H   0  0  0  0  0
    1.5621   12.9582    3.9440 H   0  0  0  0  0
    0.9476   13.9849    2.6251 H   0  0  0  0  0
    0.1804   14.0443    4.2310 H   0  0  0  0  0
   -1.3481   13.4611    1.6313 H   0  0  0  0  0
   -2.2658   12.0834    2.2875 H   0  0  0  0  0
   -2.0207   13.5427    3.2781 H   0  0  0  0  0
    2.6865    8.8963    1.0217 H   0  0  0  0  0
    0.7219    6.6682    1.1041 H   0  0  0  0  0
    2.6887    5.6680   -0.3499 H   0  0  0  0  0
    2.9768    7.4513   -0.6025 H   0  0  0  0  0
    0.0102    8.4748   -0.8174 H   0  0  0  0  0
    2.5337    4.2849   -2.3235 H   0  0  0  0  0
   -1.4781    5.9019   -4.8365 H   0  0  0  0  0
    1.7241    3.0922   -4.3295 H   0  0  0  0  0
   -0.2471    3.9022   -5.5730 H   0  0  0  0  0
    4.8200    4.7599    3.2577 H   0  0  0  0  0
    6.7577    6.2068    3.8956 H   0  0  0  0  0
    5.7907    7.5853    4.0753 H   0  0  0  0  0
    6.4927    6.1637    1.4875 H   0  0  0  0  0
    6.7516    7.8192    1.8701 H   0  0  0  0  0
    4.4163    8.3775    1.6852 H   0  0  0  0  0
    4.5313    7.1576    0.4991 H   0  0  0  0  0
    3.1073    7.6466    4.3795 H   0  0  0  0  0
    3.2251    7.0005    7.1568 H   0  0  0  0  0
    1.2231    8.5580    5.5323 H   0  0  0  0  0
    2.5385    9.1630    6.6079 H   0  0  0  0  0
    0.4510    9.2876    7.5785 H   0  0  0  0  0
   -0.9268    4.4286    6.7423 H   0  0  0  0  0
   -2.1904    4.0632    4.7033 H   0  0  0  0  0
   -0.7703    3.8791    3.7449 H   0  0  0  0  0
   -2.0328    6.4386    4.7442 H   0  0  0  0  0
   -1.4610    6.0787    3.1541 H   0  0  0  0  0
    0.8175    6.4064    3.7428 H   0  0  0  0  0
    0.0937    7.4974    4.8531 H   0  0  0  0  0
    1.8112    3.8753    4.5613 H   0  0  0  0  0
    1.7846    1.0195    4.8489 H   0  0  0  0  0
    4.2973    2.5943    4.4893 H   0  0  0  0  0
    3.0372    2.4466    3.1669 H   0  0  0  0  0
    4.2265    0.0350    4.4976 H   0  0  0  0  0
    2.2210   -0.2394    3.1237 H   0  0  0  0  0
    3.0286    0.5734    1.7605 H   0  0  0  0  0
    3.6307   -0.9978    2.3435 H   0  0  0  0  0
    5.3813    1.5334    2.1292 H   0  0  0  0  0
    6.1315    1.3556    3.7344 H   0  0  0  0  0
    5.8954   -0.0736    2.6987 H   0  0  0  0  0
    3.1169    3.6790    6.7310 H   0  0  0  0  0
    4.7190    2.0911    8.5634 H   0  0  0  0  0
    3.6681    4.8508    8.3723 H   0  0  0  0  0
    5.3597    4.2127    8.7167 H   0  0  0  0  0
    4.8366    3.8912   10.9679 H   0  0  0  0  0
    3.0878    4.2546   10.6784 H   0  0  0  0  0
    2.8186    6.0612   12.5079 H   0  0  0  0  0
    4.4618    5.6626   13.0666 H   0  0  0  0  0
    3.9985    7.3618   12.8037 H   0  0  0  0  0
    1.3561    3.0868    8.3295 H   0  0  0  0  0
    0.5660    2.1758   10.9559 H   0  0  0  0  0
   -1.1024    2.5198    8.4426 H   0  0  0  0  0
   -1.7840    4.6531    9.5185 H   0  0  0  0  0
   -0.0108    4.5807    9.0789 H   0  0  0  0  0
   -2.2078    1.0708   10.0772 H   0  0  0  0  0
   -1.9321    2.2786   11.3564 H   0  0  0  0  0
   -3.0181    2.6544    9.9961 H   0  0  0  0  0
   -1.2024    4.2346   11.8348 H   0  0  0  0  0
    0.5247    4.1641   11.4066 H   0  0  0  0  0
   -0.3760    5.6896   11.2255 H   0  0  0  0  0
    0.7930    0.7991    7.7078 H   0  0  0  0  0
   -0.4555   -1.7193    8.2276 H   0  0  0  0  0
    1.8483   -1.4402    6.3288 H   0  0  0  0  0
    0.2464   -0.6290    5.9966 H   0  0  0  0  0
   -0.4930   -2.4983    5.1252 H   0  0  0  0  0
   -0.2101   -3.3318    6.7070 H   0  0  0  0  0
    1.8005   -3.0011    4.4689 H   0  0  0  0  0
    0.8820   -4.5090    4.8731 H   0  0  0  0  0
    2.3438   -5.0603    6.4174 H   0  0  0  0  0
    2.2584   -3.4121    7.1605 H   0  0  0  0  0
    4.4730   -3.9652    6.4374 H   0  0  0  0  0
    3.9456   -4.2029    4.8746 H   0  0  0  0  0
    3.8670   -2.6855    5.5588 H   0  0  0  0  0
    2.9039   -0.5438    8.4778 H   0  0  0  0  0
    4.1183   -3.0295    9.1891 H   0  0  0  0  0
    5.2034   -0.6564   10.5189 H   0  0  0  0  0
    4.9977   -0.5192    8.7033 H   0  0  0  0  0
    7.2434   -1.2120    9.3040 H   0  0  0  0  0
    6.3422   -2.5257    8.4439 H   0  0  0  0  0
    6.2621   -3.8538   10.2806 H   0  0  0  0  0
    6.3471   -2.4526   11.4258 H   0  0  0  0  0
    8.6622   -2.5550   11.3687 H   0  0  0  0  0
    7.2937   -4.6944    8.9037 H   0  0  0  0  0
   10.7159   -4.8671    9.7293 H   0  0  0  0  0
   10.6298   -3.5924   10.9495 H   0  0  0  0  0
    2.5474   -0.4594   11.0706 H   0  0  0  0  0
    3.1214   -1.5481   13.6712 H   0  0  0  0  0
    1.3139   -0.0657   14.4320 H   0  0  0  0  0
    0.8328    0.2152   12.7280 H   0  0  0  0  0
    2.2152    1.8732   13.5540 H   0  0  0  0  0
    0.4795   -2.0266   11.3439 H   0  0  0  0  0
   -1.1040   -3.6860   13.1022 H   0  0  0  0  0
   -1.0283   -3.4490   10.0878 H   0  0  0  0  0
   -2.1630   -2.6209   11.2559 H   0  0  0  0  0
   -2.0204   -5.5866   10.7112 H   0  0  0  0  0
   -3.2392   -4.4442   10.0292 H   0  0  0  0  0
   -4.2816   -4.1491   12.0479 H   0  0  0  0  0
   -2.8186   -4.6304   12.9880 H   0  0  0  0  0
   -4.3382   -6.5658   11.2545 H   0  0  0  0  0
   -4.7798   -6.2491   12.9787 H   0  0  0  0  0
   -3.3406   -8.1531   12.7493 H   0  0  0  0  0
   -2.1708   -7.2284   12.0054 H   0  0  0  0  0
   -2.5777   -6.9364   13.5947 H   0  0  0  0  0
    1.5003   -4.2426   10.7853 H   0  0  0  0  0
    1.2894   -7.1225   10.6803 H   0  0  0  0  0
    3.9726   -5.9510   10.4414 H   0  0  0  0  0
    2.6965   -5.2270    9.3509 H   0  0  0  0  0
    3.4710   -6.8511    7.9933 H   0  0  0  0  0
    2.2433   -7.7968    8.9155 H   0  0  0  0  0
    4.0376   -8.5373   10.4398 H   0  0  0  0  0
    5.2300   -7.6956    9.3839 H   0  0  0  0  0
    3.3823   -9.9472    8.5849 H   0  0  0  0  0
    5.1698  -10.0569    8.8812 H   0  0  0  0  0
    4.6400   -9.9516    6.5556 H   0  0  0  0  0
    3.8489   -8.4995    6.7615 H   0  0  0  0  0
    5.4898   -8.6002    7.0335 H   0  0  0  0  0
    2.6718   -4.8202   12.8930 H   0  0  0  0  0
    4.1571   -6.8707   14.4148 H   0  0  0  0  0
    3.7121   -3.9037   14.7389 H   0  0  0  0  0
    5.2369   -4.7960   14.3106 H   0  0  0  0  0
    5.9345   -5.7771   17.7006 H   0  0  0  0  0
    6.0696   -6.3139   16.0229 H   0  0  0  0  0
    1.1808   -4.9920   14.6054 H   0  0  0  0  0
    0.4921   -6.2521   17.2069 H   0  0  0  0  0
    0.3009   -8.2326   16.2780 H   0  0  0  0  0
   -1.3084   -4.6957   17.2778 H   0  0  0  0  0
   -1.1012   -4.2917   15.5372 H   0  0  0  0  0
   -0.1752   -2.7083   16.9445 H   0  0  0  0  0
  1  2  1  0  0  0
  2  3  1  0  0  0
  2  5  1  0  0  0
  3  4  2  0  0  0
  3 12  1  0  0  0
  5  6  1  0  0  0
  6  7  1  0  0  0
  7  8  1  0  0  0
  8  9  1  0  0  0
  9 10  1  0  0  0
  9 11  2  0  0  0
 12 13  1  0  0  0
 13 14  1  0  0  0
 13 16  1  0  0  0
 14 15  2  0  0  0
 14 17  1  0  0  0
 17 18  1  0  0  0
 18 19  1  0  0  0
 18 21  1  0  0  0
 19 20  2  0  0  0
 19 22  1  0  0  0
 22 23  1  0  0  0
 23 24  1  0  0  0
 23 26  1  0  0  0
 24 25  2  0  0  0
 24 30  1  0  0  0
 26 27  1  0  0  0
 27 28  2  0  0  0
 27 29  1  0  0  0
 30 31  1  0  0  0
 31 32  1  0  0  0
 31 34  1  0  0  0
 32 33  2  0  0  0
 32 38  1  0  0  0
 34 35  1  0  0  0
 35 36  1  0  0  0
 35 37  1  0  0  0
 38 39  1  0  0  0
 39 40  1  0  0  0
 39 42  1  0  0  0
 40 41  2  0  0  0
 40 52  1  0  0  0
 42 43  1  0  0  0
 43 44  4  0  0  0
 43 45  4  0  0  0
 44 46  4  0  0  0
 45 47  4  0  0  0
 45 48  4  0  0  0
 46 47  4  0  0  0
 47 49  4  0  0  0
 48 50  4  0  0  0
 49 51  4  0  0  0
 50 51  4  0  0  0
 52 53  1  0  0  0
 52 58  1  0  0  0
 53 54  1  0  0  0
 53 56  1  0  0  0
 54 55  2  0  0  0
 54 59  1  0  0  0
 56 57  1  0  0  0
 57 58  1  0  0  0
 59 60  1  0  0  0
 60 61  1  0  0  0
 60 63  1  0  0  0
 61 62  2  0  0  0
 61 65  1  0  0  0
 63 64  1  0  0  0
 65 66  1  0  0  0
 65 71  1  0  0  0
 66 67  1  0  0  0
 66 69  1  0  0  0
 67 68  2  0  0  0
 67 72  1  0  0  0
 69 70  1  0  0  0
 70 71  1  0  0  0
 72 73  1  0  0  0
 73 74  1  0  0  0
 73 76  1  0  0  0
 74 75  2  0  0  0
 74 80  1  0  0  0
 76 77  1  0  0  0
 77 78  1  0  0  0
 77 79  1  0  0  0
 80 81  1  0  0  0
 81 82  1  0  0  0
 81 84  1  0  0  0
 82 83  2  0  0  0
 82 88  1  0  0  0
 84 85  1  0  0  0
 85 86  1  0  0  0
 86 87  1  0  0  0
 88 89  1  0  0  0
 89 90  1  0  0  0
 89 92  1  0  0  0
 90 91  2  0  0  0
 90 96  1  0  0  0
 92 93  1  0  0  0
 92 94  1  0  0  0
 93 95  1  0  0  0
 96 97  1  0  0  0
 97 98  1  0  0  0
 97100  1  0  0  0
 98 99  2  0  0  0
 98105  1  0  0  0
100101  1  0  0  0
101102  1  0  0  0
102103  1  0  0  0
103104  1  0  0  0
105106  1  0  0  0
106107  1  0  0  0
106109  1  0  0  0
107108  2  0  0  0
107116  1  0  0  0
109110  1  0  0  0
110111  1  0  0  0
111112  1  0  0  0
112113  1  0  0  0
113114  2  0  0  0
113115  1  0  0  0
116117  1  0  0  0
117118  1  0  0  0
117120  1  0  0  0
118119  2  0  0  0
118122  1  0  0  0
120121  1  0  0  0
122123  1  0  0  0
123124  1  0  0  0
123126  1  0  0  0
124125  2  0  0  0
124131  1  0  0  0
126127  1  0  0  0
127128  1  0  0  0
128129  1  0  0  0
129130  1  0  0  0
131132  1  0  0  0
132133  1  0  0  0
132135  1  0  0  0
133134  2  0  0  0
133140  1  0  0  0
135136  1  0  0  0
136137  1  0  0  0
137138  1  0  0  0
138139  1  0  0  0
140141  1  0  0  0
141142  1  0  0  0
141144  1  0  0  0
142143  2  0  0  0
142148  1  0  0  0
144145  1  0  0  0
145146  2  0  0  0
145147  1  0  0  0
148149  1  0  0  0
149150  1  0  0  0
149152  1  0  0  0
150151  1  0  0  0
150154  2  0  0  0
152153  1  0  0  0
  1155  1  0  0  0
  1156  1  0  0  0
  1157  1  0  0  0
  2158  1  0  0  0
  5159  1  0  0  0
  5160  1  0  0  0
  6161  1  0  0  0
  6162  1  0  0  0
  7163  1  0  0  0
  7164  1  0  0  0
  8165  1  0  0  0
 10166  1  0  0  0
 10167  1  0  0  0
 11168  1  0  0  0
 12169  1  0  0  0
 13170  1  0  0  0
 16171  1  0  0  0
 16172  1  0  0  0
 16173  1  0  0  0
 17174  1  0  0  0
 18175  1  0  0  0
 21176  1  0  0  0
 21177  1  0  0  0
 21178  1  0  0  0
 22179  1  0  0  0
 23180  1  0  0  0
 26181  1  0  0  0
 26182  1  0  0  0
 29183  1  0  0  0
 29184  1  0  0  0
 30185  1  0  0  0
 31186  1  0  0  0
 34187  1  0  0  0
 34188  1  0  0  0
 35189  1  0  0  0
 36190  1  0  0  0
 36191  1  0  0  0
 36192  1  0  0  0
 37193  1  0  0  0
 37194  1  0  0  0
 37195  1  0  0  0
 38196  1  0  0  0
 39197  1  0  0  0
 42198  1  0  0  0
 42199  1  0  0  0
 44200  1  0  0  0
 48201  1  0  0  0
 49202  1  0  0  0
 50203  1  0  0  0
 51204  1  0  0  0
 53205  1  0  0  0
 56206  1  0  0  0
 56207  1  0  0  0
 57208  1  0  0  0
 57209  1  0  0  0
 58210  1  0  0  0
 58211  1  0  0  0
 59212  1  0  0  0
 60213  1  0  0  0
 63214  1  0  0  0
 63215  1  0  0  0
 64216  1  0  0  0
 66217  1  0  0  0
 69218  1  0  0  0
 69219  1  0  0  0
 70220  1  0  0  0
 70221  1  0  0  0
 71222  1  0  0  0
 71223  1  0  0  0
 72224  1  0  0  0
 73225  1  0  0  0
 76226  1  0  0  0
 76227  1  0  0  0
 77228  1  0  0  0
 78229  1  0  0  0
 78230  1  0  0  0
 78231  1  0  0  0
 79232  1  0  0  0
 79233  1  0  0  0
 79234  1  0  0  0
 80235  1  0  0  0
 81236  1  0  0  0
 84237  1  0  0  0
 84238  1  0  0  0
 85239  1  0  0  0
 85240  1  0  0  0
 87241  1  0  0  0
 87242  1  0  0  0
 87243  1  0  0  0
 88244  1  0  0  0
 89245  1  0  0  0
 92246  1  0  0  0
 93247  1  0  0  0
 93248  1  0  0  0
 94249  1  0  0  0
 94250  1  0  0  0
 94251  1  0  0  0
 95252  1  0  0  0
 95253  1  0  0  0
 95254  1  0  0  0
 96255  1  0  0  0
 97256  1  0  0  0
100257  1  0  0  0
100258  1  0  0  0
101259  1  0  0  0
101260  1  0  0  0
102261  1  0  0  0
102262  1  0  0  0
103263  1  0  0  0
103264  1  0  0  0
104265  1  0  0  0
104266  1  0  0  0
104267  1  0  0  0
105268  1  0  0  0
106269  1  0  0  0
109270  1  0  0  0
109271  1  0  0  0
110272  1  0  0  0
110273  1  0  0  0
111274  1  0  0  0
111275  1  0  0  0
112276  1  0  0  0
114277  1  0  0  0
115278  1  0  0  0
115279  1  0  0  0
116280  1  0  0  0
117281  1  0  0  0
120282  1  0  0  0
120283  1  0  0  0
121284  1  0  0  0
122285  1  0  0  0
123286  1  0  0  0
126287  1  0  0  0
126288  1  0  0  0
127289  1  0  0  0
127290  1  0  0  0
128291  1  0  0  0
128292  1  0  0  0
129293  1  0  0  0
129294  1  0  0  0
130295  1  0  0  0
130296  1  0  0  0
130297  1  0  0  0
131298  1  0  0  0
132299  1  0  0  0
135300  1  0  0  0
135301  1  0  0  0
136302  1  0  0  0
136303  1  0  0  0
137304  1  0  0  0
137305  1  0  0  0
138306  1  0  0  0
138307  1  0  0  0
139308  1  0  0  0
139309  1  0  0  0
139310  1  0  0  0
140311  1  0  0  0
141312  1  0  0  0
144313  1  0  0  0
144314  1  0  0  0
147315  1  0  0  0
147316  1  0  0  0
148317  1  0  0  0
149318  1  0  0  0
151319  1  0  0  0
152320  1  0  0  0
152321  1  0  0  0
153322  1  0  0  0
M  END
$$$$
