3p8n_ligand
  -I-interpret- 

106111  0  0  0  0  0  0  0  0999 V2000
   39.5560   43.5470    9.2610 C   0  0  0  0  0
   38.5840   43.9950    8.6740 O   0  0  0  0  0
   39.8930   42.2390    9.3250 O   0  0  0  0  0
   40.3580   41.6240    8.1560 C   0  0  0  0  0
   39.3030   41.2110    7.1690 C   0  0  0  0  0
   40.1100   40.3010    6.2480 C   0  0  0  0  0
   41.1830   39.6900    7.1430 C   0  0  0  0  0
   40.9030   40.2540    8.5230 C   0  0  0  0  0
   40.4370   44.2910    9.9650 N   0  0  0  0  0
   40.2770   45.7120   10.0760 C   0  0  0  0  0
   40.6690   46.2710   11.4870 C   0  0  0  0  0
   40.4150   47.8080   11.5340 C   0  0  0  0  0
   42.1430   45.9980   11.8630 C   0  0  0  0  0
   39.7890   45.6120   12.5640 C   0  0  0  0  0
   41.0720   46.3460    8.9080 C   0  0  0  0  0
   42.2760   46.1600    8.8000 O   0  0  0  0  0
   42.2350   48.6520    7.4300 C   0  0  0  0  0
   42.0880   49.3350    8.4470 O   0  0  0  0  0
   41.1090   47.7680    6.8840 C   0  0  0  0  0
   40.0420   48.6660    6.2190 C   0  0  0  0  0
   38.7420   47.9190    6.5350 C   0  0  0  0  0
   38.9720   47.5450    7.9820 C   0  0  0  0  0
   40.3880   47.1470    7.9930 N   0  0  0  0  0
   38.7300   46.6450    5.8400 O   0  0  0  0  0
   38.2780   46.5400    4.5350 C   0  0  0  0  0
   37.6540   47.7160    3.8760 C   0  0  0  0  0
   37.2120   47.5760    2.5900 C   0  0  0  0  0
   37.3680   46.3570    1.9440 N   0  0  0  0  0
   37.9290   45.2120    2.4700 C   0  0  0  0  0
   38.4070   45.3420    3.8770 C   0  0  0  0  0
   39.0190   44.1310    4.5480 C   0  0  0  0  0
   39.0820   42.9000    3.7030 C   0  0  0  0  0
   38.6300   42.8420    2.4020 C   0  0  0  0  0
   38.0490   44.0420    1.7850 C   0  0  0  0  0
   37.4360   43.9710   -0.0320 Br  0  0  0  0  0
   38.6670   41.7180    1.5640 O   0  0  0  0  0
   39.2120   40.4760    2.0710 C   0  0  0  0  0
   36.5670   48.6220    1.8840 C   0  0  0  0  0
   36.1570   48.5440    0.5630 C   0  0  0  0  0
   35.3980   50.0210    0.1260 S   0  0  0  0  0
   35.6870   50.6280    1.7130 C   0  0  0  0  0
   36.2920   49.8040    2.5300 N   0  0  0  0  0
   35.2970   51.8750    2.1580 N   0  0  0  0  0
   34.3700   52.7000    1.5370 C   0  0  0  0  0
   33.7950   52.3820    0.4730 O   0  0  0  0  0
   34.1280   54.0130    2.3140 C   0  0  0  0  0
   32.9280   53.8700    3.2590 C   0  0  0  0  0
   33.9400   55.2120    1.3910 C   0  0  0  0  0
   43.4120   48.5710    6.7190 N   0  0  0  0  0
   44.6800   48.9780    7.2900 C   0  0  0  0  0
   45.3080   48.0230    8.3350 C   0  0  0  0  0
   45.9130   48.1220    6.9600 C   0  0  0  0  0
   46.0320   48.4940    9.5280 C   0  0  0  0  0
   45.7280   48.1330   10.7930 C   0  0  0  0  0
   44.8960   50.5070    7.2910 C   0  0  0  0  0
   45.9840   50.9810    7.7380 O   0  0  0  0  0
   43.9630   51.2650    6.7990 O   0  0  0  0  0
   41.0370   42.3652    7.7344 H   0  0  0  0  0
   38.8254   42.0464    6.6571 H   0  0  0  0  0
   38.4387   40.7261    7.6229 H   0  0  0  0  0
   40.5440   40.8516    5.4134 H   0  0  0  0  0
   39.4856   39.5370    5.7849 H   0  0  0  0  0
   42.1874   39.9374    6.7994 H   0  0  0  0  0
   41.1467   38.6006    7.1346 H   0  0  0  0  0
   40.2224   39.6492    9.1223 H   0  0  0  0  0
   41.7733   40.2813    9.1786 H   0  0  0  0  0
   41.2264   43.8361   10.4236 H   0  0  0  0  0
   39.2243   45.9824    9.9935 H   0  0  0  0  0
   41.0190   48.2983   10.7705 H   0  0  0  0  0
   39.3596   48.0064   11.3471 H   0  0  0  0  0
   40.6894   48.1904   12.5171 H   0  0  0  0  0
   42.3208   44.9226   11.8736 H   0  0  0  0  0
   42.7970   46.4685   11.1288 H   0  0  0  0  0
   42.3471   46.4110   12.8508 H   0  0  0  0  0
   38.7415   45.8360   12.3625 H   0  0  0  0  0
   39.9412   44.5328   12.5454 H   0  0  0  0  0
   40.0632   46.0021   13.5442 H   0  0  0  0  0
   41.5543   47.0409    6.2049 H   0  0  0  0  0
   40.2062   48.8072    5.1507 H   0  0  0  0  0
   40.0498   49.6897    6.5933 H   0  0  0  0  0
   37.8484   48.4932    6.2902 H   0  0  0  0  0
   38.3058   46.7545    8.3275 H   0  0  0  0  0
   38.7547   48.3609    8.6714 H   0  0  0  0  0
   37.5514   48.6644    4.4033 H   0  0  0  0  0
   39.3872   44.1551    5.5736 H   0  0  0  0  0
   39.5093   41.9974    4.1399 H   0  0  0  0  0
   40.2501   40.6297    2.3657 H   0  0  0  0  0
   38.6318   40.1520    2.9350 H   0  0  0  0  0
   39.1629   39.7146    1.2926 H   0  0  0  0  0
   36.2940   47.6842   -0.0928 H   0  0  0  0  0
   35.7268   52.2195    3.0165 H   0  0  0  0  0
   35.0252   54.2009    2.9038 H   0  0  0  0  0
   32.0362   53.6337    2.6785 H   0  0  0  0  0
   33.1220   53.0685    3.9718 H   0  0  0  0  0
   32.7762   54.8065    3.7957 H   0  0  0  0  0
   34.8335   55.3426    0.7805 H   0  0  0  0  0
   33.0790   55.0402    0.7451 H   0  0  0  0  0
   33.7736   56.1074    1.9899 H   0  0  0  0  0
   43.3903   48.2145    5.7636 H   0  0  0  0  0
   44.9168   47.2194    8.9589 H   0  0  0  0  0
   46.9003   48.2636    6.5203 H   0  0  0  0  0
   46.2382   47.4450    6.1701 H   0  0  0  0  0
   46.8674   49.1784    9.3801 H   0  0  0  0  0
   44.8993   47.4503   10.9807 H   0  0  0  0  0
   46.3113   48.5243   11.6265 H   0  0  0  0  0
   43.2250   50.7198    6.5167 H   0  0  0  0  0
  1  2  2  0  0  0
  1  3  1  0  0  0
  9  1  1  0  0  0
  3  4  1  0  0  0
  4  5  1  0  0  0
  4  8  1  0  0  0
  5  6  1  0  0  0
  7  6  1  0  0  0
  8  7  1  0  0  0
 10  9  1  0  0  0
 10 11  1  0  0  0
 15 10  1  0  0  0
 11 12  1  0  0  0
 11 13  1  0  0  0
 11 14  1  0  0  0
 15 16  2  0  0  0
 23 15  1  0  0  0
 17 18  2  0  0  0
 19 17  1  0  0  0
 17 49  1  0  0  0
 19 20  1  0  0  0
 19 23  1  0  0  0
 20 21  1  0  0  0
 21 22  1  0  0  0
 21 24  1  0  0  0
 22 23  1  0  0  0
 24 25  1  0  0  0
 25 26  4  0  0  0
 25 30  4  0  0  0
 26 27  4  0  0  0
 27 28  4  0  0  0
 27 38  1  0  0  0
 28 29  4  0  0  0
 29 30  4  0  0  0
 29 34  4  0  0  0
 30 31  4  0  0  0
 31 32  4  0  0  0
 32 33  4  0  0  0
 33 34  4  0  0  0
 33 36  1  0  0  0
 34 35  1  0  0  0
 36 37  1  0  0  0
 38 39  4  0  0  0
 38 42  4  0  0  0
 39 40  4  0  0  0
 40 41  4  0  0  0
 41 42  4  0  0  0
 41 43  1  0  0  0
 43 44  1  0  0  0
 44 45  2  0  0  0
 44 46  1  0  0  0
 46 47  1  0  0  0
 46 48  1  0  0  0
 49 50  1  0  0  0
 50 51  1  0  0  0
 50 52  1  0  0  0
 50 55  1  0  0  0
 51 52  1  0  0  0
 51 53  1  0  0  0
 53 54  2  0  0  0
 55 56  2  0  0  0
 55 57  1  0  0  0
  4 58  1  0  0  0
  5 59  1  0  0  0
  5 60  1  0  0  0
  6 61  1  0  0  0
  6 62  1  0  0  0
  7 63  1  0  0  0
  7 64  1  0  0  0
  8 65  1  0  0  0
  8 66  1  0  0  0
  9 67  1  0  0  0
 10 68  1  0  0  0
 12 69  1  0  0  0
 12 70  1  0  0  0
 12 71  1  0  0  0
 13 72  1  0  0  0
 13 73  1  0  0  0
 13 74  1  0  0  0
 14 75  1  0  0  0
 14 76  1  0  0  0
 14 77  1  0  0  0
 19 78  1  0  0  0
 20 79  1  0  0  0
 20 80  1  0  0  0
 21 81  1  0  0  0
 22 82  1  0  0  0
 22 83  1  0  0  0
 26 84  1  0  0  0
 31 85  1  0  0  0
 32 86  1  0  0  0
 37 87  1  0  0  0
 37 88  1  0  0  0
 37 89  1  0  0  0
 39 90  1  0  0  0
 43 91  1  0  0  0
 46 92  1  0  0  0
 47 93  1  0  0  0
 47 94  1  0  0  0
 47 95  1  0  0  0
 48 96  1  0  0  0
 48 97  1  0  0  0
 48 98  1  0  0  0
 49 99  1  0  0  0
 51100  1  0  0  0
 52101  1  0  0  0
 52102  1  0  0  0
 53103  1  0  0  0
 54104  1  0  0  0
 54105  1  0  0  0
 57106  1  0  0  0
M  END
$$$$
