4oyo_ligand
  -I-interpret- 

 21 22  0  0  0  0  0  0  0  0999 V2000
   15.4970   32.7100   -1.0600 C   0  0  0  0  0
   16.5530   32.4820   -2.0860 C   0  0  0  0  0
   17.8980   31.8390   -3.7230 C   0  0  0  0  0
   16.6880   31.5200   -3.0750 C   0  0  0  0  0
   15.7890   30.3930   -3.4230 C   0  0  0  0  0
   13.5420   29.6300   -3.8710 C   0  0  0  0  0
   14.0110   28.3510   -4.0930 C   0  0  0  0  0
   15.3600   28.0820   -3.9870 C   0  0  0  0  0
   16.2410   29.0960   -3.6590 C   0  0  0  0  0
   17.6230   33.2840   -2.1780 N   0  0  0  0  0
   18.4660   32.9080   -3.1780 N   0  0  0  0  0
   14.4190   30.6470   -3.5370 C   0  0  0  0  0
   17.9270   28.7110   -3.5370 Cl  0  0  0  0  0
   14.5414   32.8811   -1.5557 H   0  0  0  0  0
   15.4221   31.8334   -0.4165 H   0  0  0  0  0
   15.7576   33.5817   -0.4598 H   0  0  0  0  0
   18.3133   31.2809   -4.5621 H   0  0  0  0  0
   12.4760   29.8399   -3.9592 H   0  0  0  0  0
   13.3152   27.5530   -4.3522 H   0  0  0  0  0
   15.7307   27.0719   -4.1615 H   0  0  0  0  0
   14.0389   31.6534   -3.3615 H   0  0  0  0  0
  2  1  1  0  0  0
  4  2  4  0  0  0
  2 10  4  0  0  0
  4  3  4  0  0  0
  3 11  4  0  0  0
  5  4  1  0  0  0
  5  9  4  0  0  0
 12  5  4  0  0  0
  6  7  4  0  0  0
  6 12  4  0  0  0
  7  8  4  0  0  0
  8  9  4  0  0  0
  9 13  1  0  0  0
 10 11  4  0  0  0
  1 14  1  0  0  0
  1 15  1  0  0  0
  1 16  1  0  0  0
  3 17  1  0  0  0
  6 18  1  0  0  0
  7 19  1  0  0  0
  8 20  1  0  0  0
 12 21  1  0  0  0
M  END
$$$$
