4av0_ligand
  -I-interpret- 

 43 44  0  0  0  0  0  0  0  0999 V2000
  -15.4270   59.5540   20.6540 O   0  0  0  0  0
  -15.7650   60.8230   20.1990 C   0  0  0  0  0
  -14.8270   61.9190   20.5480 C   0  0  0  0  0
  -14.6460   61.9540   21.9370 O   0  0  0  0  0
  -13.4800   61.6850   19.8420 C   0  0  0  0  0
  -13.6980   61.5880   18.4320 O   0  0  0  0  0
  -12.5280   62.6600   20.1980 C   0  0  0  0  0
  -11.2350   62.3750   19.5480 O   0  0  0  0  0
  -12.3250   62.7320   21.6090 C   0  0  0  0  0
  -11.7080   61.5580   22.1340 O   0  0  0  0  0
  -13.6310   62.8340   22.3810 C   0  0  0  0  0
  -14.0360   64.1340   22.3570 O   0  0  0  0  0
  -15.1760   64.4350   23.0710 C   0  0  0  0  0
  -16.1150   65.4820   22.5770 C   0  0  0  0  0
  -16.9560   66.2860   22.2330 C   0  0  0  0  0
  -18.0450   67.2120   21.8300 C   0  0  0  0  0
  -17.7680   68.5490   21.5740 C   0  0  0  0  0
  -18.8170   69.3780   21.1810 C   0  0  0  0  0
  -20.1150   68.8900   21.0290 C   0  0  0  0  0
  -21.1220   69.7520   20.6320 O   0  0  0  0  0
  -21.2240   70.1820   19.3150 C   0  0  0  0  0
  -20.3830   67.5430   21.2820 C   0  0  0  0  0
  -19.3390   66.7100   21.6800 C   0  0  0  0  0
  -16.0970   58.9260   20.3741 H   0  0  0  0  0
  -16.7136   61.0729   20.6742 H   0  0  0  0  0
  -15.7703   60.7635   19.1106 H   0  0  0  0  0
  -15.2380   62.8738   20.2200 H   0  0  0  0  0
  -13.0517   60.7399   20.1759 H   0  0  0  0  0
  -14.3541   60.9094   18.2567 H   0  0  0  0  0
  -12.9216   63.6184   19.8593 H   0  0  0  0  0
  -11.3602   62.3244   18.5975 H   0  0  0  0  0
  -11.7010   63.6171   21.7328 H   0  0  0  0  0
  -11.5934   61.6548   23.0822 H   0  0  0  0  0
  -13.4409   62.5102   23.4043 H   0  0  0  0  0
  -14.8067   64.8274   24.0185 H   0  0  0  0  0
  -15.7602   63.5150   23.0494 H   0  0  0  0  0
  -16.7558   68.9398   21.6779 H   0  0  0  0  0
  -18.6187   70.4323   20.9879 H   0  0  0  0  0
  -20.3136   70.7124   19.0358 H   0  0  0  0  0
  -21.3584   69.3197   18.6620 H   0  0  0  0  0
  -22.0797   70.8501   19.2175 H   0  0  0  0  0
  -21.3932   67.1492   21.1699 H   0  0  0  0  0
  -19.5348   65.6558   21.8762 H   0  0  0  0  0
  1  2  1  0  0  0
  2  3  1  0  0  0
  3  4  1  0  0  0
  3  5  1  0  0  0
  4 11  1  0  0  0
  5  6  1  0  0  0
  5  7  1  0  0  0
  7  8  1  0  0  0
  7  9  1  0  0  0
  9 10  1  0  0  0
  9 11  1  0  0  0
 11 12  1  0  0  0
 12 13  1  0  0  0
 13 14  1  0  0  0
 14 15  3  0  0  0
 15 16  1  0  0  0
 16 17  4  0  0  0
 16 23  4  0  0  0
 17 18  4  0  0  0
 18 19  4  0  0  0
 19 20  1  0  0  0
 19 22  4  0  0  0
 20 21  1  0  0  0
 22 23  4  0  0  0
  1 24  1  0  0  0
  2 25  1  0  0  0
  2 26  1  0  0  0
  3 27  1  0  0  0
  5 28  1  0  0  0
  6 29  1  0  0  0
  7 30  1  0  0  0
  8 31  1  0  0  0
  9 32  1  0  0  0
 10 33  1  0  0  0
 11 34  1  0  0  0
 13 35  1  0  0  0
 13 36  1  0  0  0
 17 37  1  0  0  0
 18 38  1  0  0  0
 21 39  1  0  0  0
 21 40  1  0  0  0
 21 41  1  0  0  0
 22 42  1  0  0  0
 23 43  1  0  0  0
M  END
$$$$
