1a86_ligand
  -I-interpret- 

 52 52  0  0  0  0  0  0  0  0999 V2000
   25.1650   59.6390   53.3200 N   0  0  0  0  0
   24.3590   58.8820   54.1730 O   0  0  0  0  0
   26.3830   59.3710   53.7470 C   0  0  0  0  0
   26.6800   58.2420   54.1830 O   0  0  0  0  0
   27.4380   60.4370   53.3710 C   0  0  0  0  0
   28.5690   60.5180   54.4160 C   0  0  0  0  0
   28.4070   61.4390   55.6420 C   0  0  0  0  0
   28.4010   62.8960   55.2200 C   0  0  0  0  0
   27.1420   61.1310   56.4160 C   0  0  0  0  0
   28.0190   60.3780   51.9550 C   0  0  0  0  0
   27.9030   61.3360   51.1850 O   0  0  0  0  0
   28.6190   59.2480   51.6030 N   0  0  0  0  0
   29.1740   59.0960   50.2690 C   0  0  0  0  0
   28.2140   58.2700   49.4040 C   0  0  0  0  0
   28.5730   57.8160   48.3120 O   0  0  0  0  0
   30.5550   58.4370   50.3320 C   0  0  0  0  0
   31.3150   58.5460   49.0250 C   0  0  0  0  0
   31.8390   59.6400   48.7240 O   0  0  0  0  0
   31.3890   57.5330   48.3020 O   0  0  0  0  0
   26.9940   58.0710   49.9020 N   0  0  0  0  0
   25.9380   57.3280   49.2210 C   0  0  0  0  0
   25.9320   55.8400   48.9830 C   0  0  0  0  0
   26.7100   54.9850   49.7690 C   0  0  0  0  0
   26.6820   53.5940   49.5770 C   0  0  0  0  0
   25.1160   55.2830   47.9870 C   0  0  0  0  0
   25.0800   53.9040   47.7880 C   0  0  0  0  0
   25.8610   53.0490   48.5820 C   0  0  0  0  0
   24.8808   60.2497   52.5541 H   0  0  0  0  0
   23.4370   59.0116   53.9389 H   0  0  0  0  0
   26.8522   61.3562   53.3759 H   0  0  0  0  0
   29.4190   60.9295   53.8717 H   0  0  0  0  0
   28.6330   59.5127   54.8323 H   0  0  0  0  0
   29.2597   61.2533   56.2951 H   0  0  0  0  0
   27.5331   63.0865   54.5887 H   0  0  0  0  0
   28.3536   63.5293   56.1059 H   0  0  0  0  0
   29.3120   63.1154   54.6633 H   0  0  0  0  0
   27.0955   61.7656   57.3010 H   0  0  0  0  0
   26.2750   61.3228   55.7838 H   0  0  0  0  0
   27.1484   60.0838   56.7182 H   0  0  0  0  0
   28.6909   58.4820   52.2726 H   0  0  0  0  0
   29.2951   60.0811   49.8184 H   0  0  0  0  0
   30.4113   57.3784   50.5484 H   0  0  0  0  0
   31.1352   58.9482   51.1003 H   0  0  0  0  0
   31.6607   60.2803   49.4167 H   0  0  0  0  0
   26.7842   58.4638   50.8197 H   0  0  0  0  0
   25.9977   57.7223   48.2066 H   0  0  0  0  0
   25.0941   57.4552   49.8991 H   0  0  0  0  0
   27.3499   55.4054   50.5448 H   0  0  0  0  0
   27.2958   52.9424   50.1989 H   0  0  0  0  0
   24.5045   55.9347   47.3630 H   0  0  0  0  0
   24.4408   53.4862   47.0102 H   0  0  0  0  0
   25.8286   51.9708   48.4253 H   0  0  0  0  0
  3  1  1  0  0  0
  1  2  1  0  0  0
  5  3  1  0  0  0
  3  4  2  0  0  0
 10  5  1  0  0  0
  5  6  1  0  0  0
  6  7  1  0  0  0
  7  9  1  0  0  0
  7  8  1  0  0  0
 10 11  2  0  0  0
 14 13  1  0  0  0
 13 16  1  0  0  0
 13 12  1  0  0  0
 16 17  1  0  0  0
 17 18  1  0  0  0
 17 19  2  0  0  0
 14 15  2  0  0  0
 20 21  1  0  0  0
 21 22  1  0  0  0
 22 25  4  0  0  0
 22 23  4  0  0  0
 23 24  4  0  0  0
 24 27  4  0  0  0
 26 27  4  0  0  0
 25 26  4  0  0  0
 12 10  1  0  0  0
 14 20  1  0  0  0
  1 28  1  0  0  0
  2 29  1  0  0  0
  5 30  1  0  0  0
  6 31  1  0  0  0
  6 32  1  0  0  0
  7 33  1  0  0  0
  8 34  1  0  0  0
  8 35  1  0  0  0
  8 36  1  0  0  0
  9 37  1  0  0  0
  9 38  1  0  0  0
  9 39  1  0  0  0
 12 40  1  0  0  0
 13 41  1  0  0  0
 16 42  1  0  0  0
 16 43  1  0  0  0
 18 44  1  0  0  0
 20 45  1  0  0  0
 21 46  1  0  0  0
 21 47  1  0  0  0
 23 48  1  0  0  0
 24 49  1  0  0  0
 25 50  1  0  0  0
 26 51  1  0  0  0
 27 52  1  0  0  0
M  END
$$$$
