5n49_ligand
  -I-interpret- 

 45 49  0  0  0  0  0  0  0  0999 V2000
  -28.2420   -7.9450   26.9190 C   0  0  0  0  0
  -26.9450   -7.4710   26.2990 C   0  0  0  0  0
  -26.7590   -6.1770   25.8240 C   0  0  0  0  0
  -25.5120   -5.8040   25.3190 C   0  0  0  0  0
  -25.0740   -4.6760   24.7830 N   0  0  0  0  0
  -25.9040   -3.4570   24.6350 C   0  0  0  0  0
  -23.7950   -4.8020   24.4310 C   0  0  0  0  0
  -23.0890   -3.9400   23.8990 O   0  0  0  0  0
  -23.4140   -6.0770   24.7350 N   0  0  0  0  0
  -22.0880   -6.6540   24.4750 C   0  0  0  0  0
  -24.4730   -6.7270   25.2640 C   0  0  0  0  0
  -24.6490   -8.0330   25.7430 C   0  0  0  0  0
  -25.8910   -8.3780   26.3000 C   0  0  0  0  0
  -26.0320   -9.7370   26.7130 N   0  0  0  0  0
  -26.7790  -10.6450   25.9300 C   0  0  0  0  0
  -27.3460  -10.2770   24.8800 O   0  0  0  0  0
  -26.8850  -12.0050   26.3620 C   0  0  0  0  0
  -26.1480  -12.4170   27.5200 C   0  0  0  0  0
  -27.6260  -12.9460   25.6080 C   0  0  0  0  0
  -27.6640  -14.2980   26.0300 C   0  0  0  0  0
  -26.9340  -14.6930   27.1740 C   0  0  0  0  0
  -26.1910  -13.7730   27.9370 C   0  0  0  0  0
  -25.5090  -14.1750   29.1350 C   0  0  0  0  0
  -24.7740  -13.2380   29.8580 C   0  0  0  0  0
  -24.7190  -11.8810   29.4510 C   0  0  0  0  0
  -25.4010  -11.4880   28.2800 C   0  0  0  0  0
  -25.3340  -10.1390   27.8700 C   0  0  0  0  0
  -24.7030   -9.2910   28.5160 O   0  0  0  0  0
  -28.4658   -7.3398   27.7975 H   0  0  0  0  0
  -29.0483   -7.8452   26.1924 H   0  0  0  0  0
  -28.1425   -8.9902   27.2120 H   0  0  0  0  0
  -27.5799   -5.4602   25.8458 H   0  0  0  0  0
  -25.4563   -2.6428   25.2048 H   0  0  0  0  0
  -25.9558   -3.1799   23.5821 H   0  0  0  0  0
  -26.9082   -3.6551   25.0097 H   0  0  0  0  0
  -21.8837   -6.6241   23.4047 H   0  0  0  0  0
  -21.3315   -6.0771   25.0069 H   0  0  0  0  0
  -22.0686   -7.6874   24.8211 H   0  0  0  0  0
  -23.8414   -8.7627   25.6844 H   0  0  0  0  0
  -28.1620  -12.6338   24.7117 H   0  0  0  0  0
  -28.2526  -15.0291   25.4758 H   0  0  0  0  0
  -26.9469  -15.7408   27.4741 H   0  0  0  0  0
  -25.5661  -15.2084   29.4771 H   0  0  0  0  0
  -24.2329  -13.5530   30.7503 H   0  0  0  0  0
  -24.1576  -11.1514   30.0347 H   0  0  0  0  0
  1  2  1  0  0  0
  2  3  4  0  0  0
  2 13  4  0  0  0
  3  4  4  0  0  0
  4  5  1  0  0  0
  4 11  4  0  0  0
  5  6  1  0  0  0
  5  7  1  0  0  0
  7  8  2  0  0  0
  7  9  1  0  0  0
  9 10  1  0  0  0
  9 11  1  0  0  0
 11 12  4  0  0  0
 12 13  4  0  0  0
 13 14  1  0  0  0
 14 15  1  0  0  0
 14 27  1  0  0  0
 15 16  2  0  0  0
 15 17  1  0  0  0
 17 18  4  0  0  0
 17 19  4  0  0  0
 18 22  4  0  0  0
 18 26  4  0  0  0
 19 20  4  0  0  0
 20 21  4  0  0  0
 21 22  4  0  0  0
 22 23  4  0  0  0
 23 24  4  0  0  0
 24 25  4  0  0  0
 25 26  4  0  0  0
 26 27  1  0  0  0
 27 28  2  0  0  0
  1 29  1  0  0  0
  1 30  1  0  0  0
  1 31  1  0  0  0
  3 32  1  0  0  0
  6 33  1  0  0  0
  6 34  1  0  0  0
  6 35  1  0  0  0
 10 36  1  0  0  0
 10 37  1  0  0  0
 10 38  1  0  0  0
 12 39  1  0  0  0
 19 40  1  0  0  0
 20 41  1  0  0  0
 21 42  1  0  0  0
 23 43  1  0  0  0
 24 44  1  0  0  0
 25 45  1  0  0  0
M  END
$$$$
