4q1x_ligand
  -I-interpret- 

 75 78  0  0  0  0  0  0  0  0999 V2000
   14.2650   35.0130   18.2520 N   0  0  0  0  0
   15.1800   34.4890   17.3980 C   0  0  0  0  0
   16.2710   35.2340   16.9310 C   0  0  0  0  0
   17.1810   34.6470   16.0480 C   0  0  0  0  0
   17.0160   33.3270   15.6140 C   0  0  0  0  0
   15.9230   32.6060   16.0790 C   0  0  0  0  0
   15.0040   33.1850   16.9530 C   0  0  0  0  0
   18.0450   32.5820   14.6160 S   0  0  0  0  0
   17.3450   31.5000   13.9740 O   0  0  0  0  0
   18.5960   33.4760   13.6520 O   0  0  0  0  0
   19.3160   31.9860   15.4240 N   0  0  0  0  0
   19.9950   32.9950   16.2780 C   0  0  0  0  0
   21.4910   32.6970   16.4040 C   0  0  0  0  0
   22.1930   32.6270   15.0410 C   0  0  0  0  0
   22.1490   33.7440   17.3010 C   0  0  0  0  0
   19.0320   30.7370   16.1420 C   0  0  0  0  0
   19.9140   29.6070   15.6090 C   0  0  0  0  0
   19.8280   28.4880   16.5240 O   0  0  0  0  0
   19.5590   29.2160   14.1780 C   0  0  0  0  0
   20.6670   28.4200   13.6740 N   0  0  0  0  0
   21.5230   28.8100   12.7340 C   0  0  0  0  0
   21.5350   29.8810   12.1480 O   0  0  0  0  0
   22.4970   27.7880   12.4510 O   0  0  0  0  0
   23.3550   27.8430   11.3150 C   0  0  0  0  0
   24.6780   27.2520   11.7610 C   0  0  0  0  0
   24.5000   25.8350   11.6610 O   0  0  0  0  0
   23.5510   25.5830   10.6170 C   0  0  0  0  0
   22.5050   24.7100   11.0300 O   0  0  0  0  0
   21.2440   25.3960   11.0380 C   0  0  0  0  0
   21.4040   26.6080   10.1320 C   0  0  0  0  0
   22.9020   26.8980   10.2180 C   0  0  0  0  0
   18.2480   28.4300   14.0120 C   0  0  0  0  0
   18.1180   26.6900   12.1940 C   0  0  0  0  0
   17.9330   26.2820   10.8800 C   0  0  0  0  0
   17.6480   27.2250    9.9120 C   0  0  0  0  0
   17.5420   28.5610   10.2700 C   0  0  0  0  0
   17.7330   28.9740   11.5880 C   0  0  0  0  0
   18.0270   28.0310   12.5640 C   0  0  0  0  0
   14.3600   35.9765   18.5730 H   0  0  0  0  0
   13.4821   34.4434   18.5730 H   0  0  0  0  0
   16.4090   36.2656   17.2547 H   0  0  0  0  0
   18.0327   35.2264   15.6917 H   0  0  0  0  0
   15.7823   31.5744   15.7563 H   0  0  0  0  0
   14.1412   32.6103   17.2896 H   0  0  0  0  0
   19.5495   32.9656   17.2724 H   0  0  0  0  0
   19.8732   33.9767   15.8203 H   0  0  0  0  0
   21.5965   31.7111   16.8568 H   0  0  0  0  0
   21.7419   31.8362   14.4416 H   0  0  0  0  0
   22.0824   33.5820   14.5273 H   0  0  0  0  0
   23.2515   32.4132   15.1895 H   0  0  0  0  0
   22.0119   34.7330   16.8638 H   0  0  0  0  0
   21.6891   33.7150   18.2888 H   0  0  0  0  0
   23.2139   33.5283   17.3882 H   0  0  0  0  0
   17.9852   30.4715   15.9945 H   0  0  0  0  0
   19.2394   30.8807   17.2024 H   0  0  0  0  0
   20.9467   29.9520   15.5588 H   0  0  0  0  0
   20.3775   27.7698   16.2019 H   0  0  0  0  0
   19.3957   30.1389   13.6215 H   0  0  0  0  0
   20.7977   27.4902   14.0726 H   0  0  0  0  0
   23.3826   28.8713   10.9546 H   0  0  0  0  0
   24.9367   27.5572   12.7749 H   0  0  0  0  0
   25.5060   27.6008   11.1439 H   0  0  0  0  0
   24.0944   25.1176    9.7947 H   0  0  0  0  0
   20.9713   25.6985   12.0491 H   0  0  0  0  0
   20.4446   24.7462   10.6820 H   0  0  0  0  0
   20.7893   27.4534   10.4411 H   0  0  0  0  0
   21.0649   26.4239    9.1126 H   0  0  0  0  0
   23.1648   27.3440    9.2588 H   0  0  0  0  0
   17.4197   29.0639   14.3286 H   0  0  0  0  0
   18.3056   27.5254   14.6173 H   0  0  0  0  0
   18.3401   25.9428   12.9559 H   0  0  0  0  0
   18.0119   25.2277   10.6148 H   0  0  0  0  0
   17.5074   26.9217    8.8745 H   0  0  0  0  0
   17.3049   29.3019    9.5065 H   0  0  0  0  0
   17.6522   30.0289   11.8502 H   0  0  0  0  0
  2  1  1  0  0  0
  3  2  4  0  0  0
  7  2  4  0  0  0
  4  3  4  0  0  0
  5  4  4  0  0  0
  5  6  4  0  0  0
  8  5  1  0  0  0
  6  7  4  0  0  0
  8  9  2  0  0  0
  8 10  2  0  0  0
 11  8  1  0  0  0
 11 12  1  0  0  0
 16 11  1  0  0  0
 12 13  1  0  0  0
 13 14  1  0  0  0
 13 15  1  0  0  0
 17 16  1  0  0  0
 17 18  1  0  0  0
 19 17  1  0  0  0
 19 20  1  0  0  0
 32 19  1  0  0  0
 20 21  1  0  0  0
 21 22  2  0  0  0
 21 23  1  0  0  0
 23 24  1  0  0  0
 24 25  1  0  0  0
 24 31  1  0  0  0
 25 26  1  0  0  0
 27 26  1  0  0  0
 27 28  1  0  0  0
 31 27  1  0  0  0
 29 28  1  0  0  0
 30 29  1  0  0  0
 31 30  1  0  0  0
 38 32  1  0  0  0
 33 34  4  0  0  0
 33 38  4  0  0  0
 34 35  4  0  0  0
 35 36  4  0  0  0
 36 37  4  0  0  0
 37 38  4  0  0  0
  1 39  1  0  0  0
  1 40  1  0  0  0
  3 41  1  0  0  0
  4 42  1  0  0  0
  6 43  1  0  0  0
  7 44  1  0  0  0
 12 45  1  0  0  0
 12 46  1  0  0  0
 13 47  1  0  0  0
 14 48  1  0  0  0
 14 49  1  0  0  0
 14 50  1  0  0  0
 15 51  1  0  0  0
 15 52  1  0  0  0
 15 53  1  0  0  0
 16 54  1  0  0  0
 16 55  1  0  0  0
 17 56  1  0  0  0
 18 57  1  0  0  0
 19 58  1  0  0  0
 20 59  1  0  0  0
 24 60  1  0  0  0
 25 61  1  0  0  0
 25 62  1  0  0  0
 27 63  1  0  0  0
 29 64  1  0  0  0
 29 65  1  0  0  0
 30 66  1  0  0  0
 30 67  1  0  0  0
 31 68  1  0  0  0
 32 69  1  0  0  0
 32 70  1  0  0  0
 33 71  1  0  0  0
 34 72  1  0  0  0
 35 73  1  0  0  0
 36 74  1  0  0  0
 37 75  1  0  0  0
M  END
$$$$
