1u1w_ligand
  -I-interpret- 

 18 18  0  0  0  0  0  0  0  0999 V2000
    8.1600   30.2580   23.6940 O   0  0  0  0  0
    7.5910   31.1680   23.0520 C   0  0  0  0  0
    7.1890   32.2360   23.6110 O   0  0  0  0  0
    7.3090   31.0160   21.5910 C   0  0  0  0  0
    6.7550   32.1210   20.9210 C   0  0  0  0  0
    6.4140   31.9890   19.5590 C   0  0  0  0  0
    6.6280   30.8120   18.8830 C   0  0  0  0  0
    7.1940   29.7280   19.5520 C   0  0  0  0  0
    7.3980   28.5410   18.9400 O   0  0  0  0  0
    7.5530   29.8180   20.9430 C   0  0  0  0  0
    8.1880   28.6840   21.4980 N   0  0  0  0  0
    6.7813   32.8056   22.9545 H   0  0  0  0  0
    6.5920   33.0628   21.4449 H   0  0  0  0  0
    5.9728   32.8357   19.0332 H   0  0  0  0  0
    6.3570   30.7266   17.8307 H   0  0  0  0  0
    7.7940   27.9257   19.5615 H   0  0  0  0  0
    8.5143   28.7040   22.4642 H   0  0  0  0  0
    8.3200   27.8455   20.9324 H   0  0  0  0  0
  1  2  2  0  0  0
  2  3  1  0  0  0
  2  4  1  0  0  0
  4  5  4  0  0  0
  4 10  4  0  0  0
  5  6  4  0  0  0
  6  7  4  0  0  0
  7  8  4  0  0  0
  8  9  1  0  0  0
  8 10  4  0  0  0
 10 11  1  0  0  0
  3 12  1  0  0  0
  5 13  1  0  0  0
  6 14  1  0  0  0
  7 15  1  0  0  0
  9 16  1  0  0  0
 11 17  1  0  0  0
 11 18  1  0  0  0
M  END
$$$$
