### 
### Created by X-TOOL on Sun Sep  9 21:51:06 2018
### 

@<TRIPOS>MOLECULE
2w76_ligand
  107   107     1     0     0
SMALL
GAST_HUCK


@<TRIPOS>ATOM
      1 O         -66.9010  -41.0990   18.8760 O.2       1 NON        -0.3943
      2 C         -66.7450  -40.8160   17.6840 C.2       1 NON         0.2051
      3 CA1       -66.9410  -39.2900   17.3750 C.3       1 NON         0.1350
      4 CB1       -66.0560  -38.3000   18.1330 C.3       1 NON        -0.0083
      5 CG        -66.4280  -36.8860   17.6890 C.3       1 NON        -0.0209
      6 NE        -67.8280  -36.7670   18.0860 N.2       1 NON        -0.3699
      7 N1        -68.3380  -38.8190   17.3700 N.pl3     1 NON        -0.2630
      8 C1        -68.6810  -37.7060   18.0550 C.2       1 NON         0.1459
      9 CA        -70.0570  -37.6310   18.7440 C.3       1 NON         0.0808
     10 N         -70.5750  -36.4520   19.4980 N.4       1 NON         0.2439
     11 CB        -70.1620  -38.7420   19.7870 C.3       1 NON         0.1069
     12 OG        -71.5250  -39.2330   19.6960 O.3       1 NON        -0.3860
     13 N         -66.0000  -41.8210   17.3260 N.am      1 NON        -0.2636
     14 CA        -64.8980  -42.5760   18.0880 C.3       1 NON         0.1311
     15 CB        -63.9520  -41.5750   18.7680 C.3       1 NON        -0.0090
     16 CG        -63.4620  -40.5150   17.7780 C.3       1 NON        -0.0081
     17 CD        -62.0980  -39.8970   18.0820 C.3       1 NON         0.1516
     18 NE        -62.2110  -38.8220   19.0850 N.2       1 NON         0.0851
     19 OZ        -63.2030  -38.1040   19.1700 O.2       1 NON         0.1605
     20 CZ        -61.2460  -38.6350   19.8840 C.2       1 NON         0.3885
     21 OH        -61.2780  -37.7670   20.7470 O.2       1 NON        -0.2003
     22 C         -65.4790  -43.6900   18.9740 C.2       1 NON         0.2039
     23 O         -66.6860  -43.9070   18.9190 O.2       1 NON        -0.3944
     24 N         -64.6870  -44.4260   19.7730 N.am      1 NON        -0.2636
     25 CA        -65.2840  -45.4460   20.6990 C.3       1 NON         0.1330
     26 C         -65.7980  -44.9060   22.0380 C.2       1 NON         0.2040
     27 O         -65.7920  -45.6170   23.0600 O.2       1 NON        -0.3944
     28 CB        -64.3760  -46.6500   20.9720 C.3       1 NON         0.0045
     29 CG        -64.2420  -46.9310   22.4810 C.3       1 NON         0.0412
     30 CD        -64.5610  -48.3600   22.9170 C.2       1 NON         0.1737
     31 OE1       -63.7610  -49.2860   22.7270 O.2       1 NON        -0.3973
     32 NE2       -65.7100  -48.5300   23.5630 N.am      1 NON        -0.3009
     33 N         -66.1960  -43.6350   22.0310 N.am      1 NON        -0.2636
     34 CA        -67.0170  -43.0690   23.0990 C.3       1 NON         0.1330
     35 C         -66.2940  -42.9430   24.4590 C.2       1 NON         0.2040
     36 O         -66.9530  -42.8310   25.5040 O.2       1 NON        -0.3944
     37 CB        -67.6760  -41.7520   22.6170 C.3       1 NON         0.0045
     38 CG        -68.4150  -41.9170   21.2410 C.3       1 NON         0.0412
     39 CD        -69.9320  -41.7380   21.3090 C.2       1 NON         0.1737
     40 OE1       -70.4070  -40.6660   21.6500 O.2       1 NON        -0.3973
     41 NE2       -70.6860  -42.7840   20.9750 N.am      1 NON        -0.3009
     42 N         -64.9520  -42.9950   24.4320 N.am      1 NON        -0.2637
     43 CA        -64.0800  -42.7320   25.6150 C.3       1 NON         0.1310
     44 CB        -63.8520  -41.2150   25.8090 C.3       1 NON        -0.0090
     45 CG        -63.9260  -40.3780   24.5350 C.3       1 NON        -0.0081
     46 CD        -62.7610  -39.4060   24.5490 C.3       1 NON         0.1516
     47 NE        -62.9150  -38.4600   23.4470 N.2       1 NON         0.0851
     48 OZ        -63.3280  -38.8780   22.3920 O.2       1 NON         0.1605
     49 CZ        -62.6060  -37.2370   23.6170 C.2       1 NON         0.3885
     50 OH        -62.6940  -36.3780   22.7610 O.2       1 NON        -0.2003
     51 C         -64.4920  -43.4420   26.9030 C.2       1 NON         0.2031
     52 O         -64.9070  -42.8010   27.8720 O.2       1 NON        -0.3944
     53 N         -64.3560  -44.7750   26.9030 N.am      1 NON        -0.2722
     54 CA        -64.7650  -45.6540   28.0130 C.3       1 NON         0.0833
     55 C         -65.4310  -46.9140   27.4760 C.2       1 NON         0.0570
     56 O         -66.5770  -46.8920   27.0130 O.co2     1 NON        -0.5669
     57 OXT       -64.8440  -47.9960   27.4720 O.co2     1 NON        -0.5669
     58 H1        -66.6135  -39.2005   16.3287 H         1 NON         0.0813
     59 H2        -64.9981  -38.4956   17.9035 H         1 NON         0.0315
     60 H3        -66.2221  -38.4057   19.2152 H         1 NON         0.0315
     61 H4        -66.3160  -36.7724   16.6006 H         1 NON         0.0302
     62 H5        -65.8079  -36.1360   18.2017 H         1 NON         0.0302
     63 H6        -69.0540  -39.3394   16.8433 H         1 NON         0.1966
     64 H7        -70.7824  -37.8186   17.9386 H         1 NON         0.1181
     65 H8        -71.4970  -36.6570   19.8500 H         1 NON         0.2022
     66 H9        -70.6195  -35.6537   18.8842 H         1 NON         0.2022
     67 H10       -69.9585  -36.2490   20.2692 H         1 NON         0.2022
     68 H11       -69.9632  -38.3445   20.7932 H         1 NON         0.0651
     69 H12       -69.4475  -39.5479   19.5633 H         1 NON         0.0651
     70 H13       -71.6514  -39.9320   20.3269 H         1 NON         0.2100
     71 H14       -66.1729  -42.1589   16.4008 H         1 NON         0.1883
     72 H15       -64.2894  -43.0936   17.3319 H         1 NON         0.0800
     73 H16       -63.0843  -42.1181   19.1706 H         1 NON         0.0313
     74 H17       -64.4870  -41.0776   19.5904 H         1 NON         0.0313
     75 H18       -64.2034  -39.7026   17.7598 H         1 NON         0.0303
     76 H19       -63.4060  -40.9827   16.7840 H         1 NON         0.0303
     77 H20       -61.6784  -39.4798   17.1547 H         1 NON         0.0767
     78 H21       -61.4278  -40.6791   18.4683 H         1 NON         0.0767
     79 H22       -60.3616  -39.2650   19.8009 H         1 NON         0.2097
     80 H23       -63.6961  -44.2935   19.7505 H         1 NON         0.1883
     81 H24       -66.1652  -45.8346   20.1675 H         1 NON         0.0801
     82 H25       -63.3779  -46.4453   20.5574 H         1 NON         0.0337
     83 H26       -64.8024  -47.5370   20.4806 H         1 NON         0.0337
     84 H27       -64.9262  -46.2540   23.0134 H         1 NON         0.0504
     85 H28       -63.2053  -46.7108   22.7756 H         1 NON         0.0504
     86 H29       -65.9778  -49.4414   23.8755 H         1 NON         0.1814
     87 H30       -66.3067  -47.7465   23.7366 H         1 NON         0.1814
     88 H31       -65.9236  -43.0479   21.2687 H         1 NON         0.1883
     89 H32       -67.8374  -43.7822   23.2673 H         1 NON         0.0801
     90 H33       -66.8943  -40.9859   22.5078 H         1 NON         0.0337
     91 H34       -68.4060  -41.4259   23.3724 H         1 NON         0.0337
     92 H35       -68.2053  -42.9264   20.8575 H         1 NON         0.0504
     93 H36       -68.0120  -41.1685   20.5429 H         1 NON         0.0504
     94 H37       -71.6829  -42.7117   21.0050 H         1 NON         0.1814
     95 H38       -70.2551  -43.6416   20.6942 H         1 NON         0.1814
     96 H39       -64.5092  -43.2242   23.5652 H         1 NON         0.1883
     97 H40       -63.0981  -43.1549   25.3560 H         1 NON         0.0800
     98 H41       -62.8544  -41.0747   26.2507 H         1 NON         0.0313
     99 H42       -64.6173  -40.8423   26.5057 H         1 NON         0.0313
    100 H43       -64.8755  -39.8233   24.5065 H         1 NON         0.0303
    101 H44       -63.8568  -41.0320   23.6533 H         1 NON         0.0303
    102 H45       -61.8179  -39.9595   24.4302 H         1 NON         0.0767
    103 H46       -62.7480  -38.8602   25.5039 H         1 NON         0.0767
    104 H47       -62.2371  -36.9393   24.5974 H         1 NON         0.2097
    105 H48       -63.9496  -45.2022   26.0954 H         1 NON         0.1873
    106 H49       -65.4749  -45.1160   28.6585 H         1 NON         0.0689
    107 H50       -63.8773  -45.9350   28.5986 H         1 NON         0.0689
@<TRIPOS>BOND
     1    1    2 2  
     2    2    3 1  
     3    2   13 am 
     4    3    4 1  
     5    3    7 1  
     6    4    5 1  
     7    5    6 1  
     8    6    8 2  
     9    7    8 1  
    10    8    9 1  
    11    9   10 1  
    12    9   11 1  
    13   11   12 1  
    14   13   14 1  
    15   14   15 1  
    16   14   22 1  
    17   15   16 1  
    18   16   17 1  
    19   17   18 1  
    20   18   19 2  
    21   18   20 1  
    22   20   21 2  
    23   22   23 2  
    24   22   24 am 
    25   24   25 1  
    26   25   26 1  
    27   25   28 1  
    28   26   27 2  
    29   26   33 am 
    30   28   29 1  
    31   29   30 1  
    32   30   31 2  
    33   30   32 am 
    34   33   34 1  
    35   34   35 1  
    36   34   37 1  
    37   35   36 2  
    38   35   42 am 
    39   37   38 1  
    40   38   39 1  
    41   39   40 2  
    42   39   41 am 
    43   42   43 1  
    44   43   44 1  
    45   43   51 1  
    46   44   45 1  
    47   45   46 1  
    48   46   47 1  
    49   47   48 2  
    50   47   49 1  
    51   49   50 2  
    52   51   52 2  
    53   51   53 am 
    54   53   54 1  
    55   54   55 1  
    56   55   56 ar 
    57   55   57 ar 
    58    3   58 1  
    59    4   59 1  
    60    4   60 1  
    61    5   61 1  
    62    5   62 1  
    63    7   63 1  
    64    9   64 1  
    65   10   65 1  
    66   10   66 1  
    67   10   67 1  
    68   11   68 1  
    69   11   69 1  
    70   12   70 1  
    71   13   71 1  
    72   14   72 1  
    73   15   73 1  
    74   15   74 1  
    75   16   75 1  
    76   16   76 1  
    77   17   77 1  
    78   17   78 1  
    79   20   79 1  
    80   24   80 1  
    81   25   81 1  
    82   28   82 1  
    83   28   83 1  
    84   29   84 1  
    85   29   85 1  
    86   32   86 1  
    87   32   87 1  
    88   33   88 1  
    89   34   89 1  
    90   37   90 1  
    91   37   91 1  
    92   38   92 1  
    93   38   93 1  
    94   41   94 1  
    95   41   95 1  
    96   42   96 1  
    97   43   97 1  
    98   44   98 1  
    99   44   99 1  
   100   45  100 1  
   101   45  101 1  
   102   46  102 1  
   103   46  103 1  
   104   49  104 1  
   105   53  105 1  
   106   54  106 1  
   107   54  107 1  
@<TRIPOS>SUBSTRUCTURE
     1 NON         1

