2w76_ligand
  -I-interpret- 

108108  0  0  0  0  0  0  0  0999 V2000
  -66.9010  -41.0990   18.8760 O   0  0  0  0  0
  -66.7450  -40.8160   17.6840 C   0  0  0  0  0
  -66.9410  -39.2900   17.3750 C   0  0  0  0  0
  -66.0560  -38.3000   18.1330 C   0  0  0  0  0
  -66.4280  -36.8860   17.6890 C   0  0  0  0  0
  -67.8280  -36.7670   18.0860 N   0  0  0  0  0
  -68.3380  -38.8190   17.3700 N   0  0  0  0  0
  -68.6810  -37.7060   18.0550 C   0  0  0  0  0
  -70.0570  -37.6310   18.7440 C   0  0  0  0  0
  -70.5750  -36.4520   19.4980 N   0  3  0  0  0
  -70.1620  -38.7420   19.7870 C   0  0  0  0  0
  -71.5250  -39.2330   19.6960 O   0  0  0  0  0
  -66.0000  -41.8210   17.3260 N   0  0  0  0  0
  -64.8980  -42.5760   18.0880 C   0  0  0  0  0
  -63.9520  -41.5750   18.7680 C   0  0  0  0  0
  -63.4620  -40.5150   17.7780 C   0  0  0  0  0
  -62.0980  -39.8970   18.0820 C   0  0  0  0  0
  -62.2110  -38.8220   19.0850 N   0  3  0  0  0
  -63.2030  -38.1040   19.1700 O   0  0  0  0  0
  -61.2460  -38.6350   19.8840 C   0  0  0  0  0
  -61.2780  -37.7670   20.7470 O   0  0  0  0  0
  -65.4790  -43.6900   18.9740 C   0  0  0  0  0
  -66.6860  -43.9070   18.9190 O   0  0  0  0  0
  -64.6870  -44.4260   19.7730 N   0  0  0  0  0
  -65.2840  -45.4460   20.6990 C   0  0  0  0  0
  -65.7980  -44.9060   22.0380 C   0  0  0  0  0
  -65.7920  -45.6170   23.0600 O   0  0  0  0  0
  -64.3760  -46.6500   20.9720 C   0  0  0  0  0
  -64.2420  -46.9310   22.4810 C   0  0  0  0  0
  -64.5610  -48.3600   22.9170 C   0  0  0  0  0
  -63.7610  -49.2860   22.7270 O   0  0  0  0  0
  -65.7100  -48.5300   23.5630 N   0  0  0  0  0
  -66.1960  -43.6350   22.0310 N   0  0  0  0  0
  -67.0170  -43.0690   23.0990 C   0  0  0  0  0
  -66.2940  -42.9430   24.4590 C   0  0  0  0  0
  -66.9530  -42.8310   25.5040 O   0  0  0  0  0
  -67.6760  -41.7520   22.6170 C   0  0  0  0  0
  -68.4150  -41.9170   21.2410 C   0  0  0  0  0
  -69.9320  -41.7380   21.3090 C   0  0  0  0  0
  -70.4070  -40.6660   21.6500 O   0  0  0  0  0
  -70.6860  -42.7840   20.9750 N   0  0  0  0  0
  -64.9520  -42.9950   24.4320 N   0  0  0  0  0
  -64.0800  -42.7320   25.6150 C   0  0  0  0  0
  -63.8520  -41.2150   25.8090 C   0  0  0  0  0
  -63.9260  -40.3780   24.5350 C   0  0  0  0  0
  -62.7610  -39.4060   24.5490 C   0  0  0  0  0
  -62.9150  -38.4600   23.4470 N   0  3  0  0  0
  -63.3280  -38.8780   22.3920 O   0  0  0  0  0
  -62.6060  -37.2370   23.6170 C   0  0  0  0  0
  -62.6940  -36.3780   22.7610 O   0  0  0  0  0
  -64.4920  -43.4420   26.9030 C   0  0  0  0  0
  -64.9070  -42.8010   27.8720 O   0  0  0  0  0
  -64.3560  -44.7750   26.9030 N   0  0  0  0  0
  -64.7650  -45.6540   28.0130 C   0  0  0  0  0
  -65.4310  -46.9140   27.4760 C   0  0  0  0  0
  -66.5770  -46.8920   27.0130 O   0  0  0  0  0
  -64.8440  -47.9960   27.4720 O   0  0  0  0  0
  -66.5774  -39.2818   16.3475 H   0  0  0  0  0
  -65.0058  -38.4957   17.9163 H   0  0  0  0  0
  -66.2099  -38.4072   19.2067 H   0  0  0  0  0
  -66.2799  -36.7289   16.6206 H   0  0  0  0  0
  -65.7963  -36.1233   18.1443 H   0  0  0  0  0
  -69.0470  -39.3344   16.8484 H   0  0  0  0  0
  -70.6472  -37.6484   17.8278 H   0  0  0  0  0
  -71.5080  -36.6605   19.8537 H   0  0  0  0  0
  -69.9503  -36.2475   20.2780 H   0  0  0  0  0
  -70.6195  -35.6449   18.8759 H   0  0  0  0  0
  -69.9368  -38.3727   20.7875 H   0  0  0  0  0
  -69.4386  -39.5354   19.5991 H   0  0  0  0  0
  -71.6527  -39.9393   20.3335 H   0  0  0  0  0
  -66.1764  -42.1656   16.3823 H   0  0  0  0  0
  -64.2644  -43.1294   17.3949 H   0  0  0  0  0
  -63.0883  -42.1182   19.1515 H   0  0  0  0  0
  -64.4932  -41.0761   19.5719 H   0  0  0  0  0
  -64.1842  -39.6997   17.8191 H   0  0  0  0  0
  -63.3639  -41.0165   16.8152 H   0  0  0  0  0
  -61.6952  -39.4734   17.1620 H   0  0  0  0  0
  -61.4443  -40.6744   18.4775 H   0  0  0  0  0
  -60.3608  -39.2656   19.8008 H   0  0  0  0  0
  -63.6762  -44.2909   19.7500 H   0  0  0  0  0
  -66.1504  -45.7716   20.1233 H   0  0  0  0  0
  -63.3853  -46.4307   20.5739 H   0  0  0  0  0
  -64.8157  -47.5269   20.4968 H   0  0  0  0  0
  -64.9644  -46.2861   22.9814 H   0  0  0  0  0
  -63.1972  -46.7551   22.7371 H   0  0  0  0  0
  -65.9609  -49.4505   23.9238 H   0  0  0  0  0
  -66.3409  -47.7400   23.6980 H   0  0  0  0  0
  -65.9182  -43.0362   21.2534 H   0  0  0  0  0
  -67.8115  -43.7842   23.3119 H   0  0  0  0  0
  -66.8884  -41.0095   22.4886 H   0  0  0  0  0
  -68.4143  -41.4536   23.3613 H   0  0  0  0  0
  -68.2294  -42.9355   20.8999 H   0  0  0  0  0
  -68.0320  -41.1406   20.5787 H   0  0  0  0  0
  -71.7029  -42.7078   20.9982 H   0  0  0  0  0
  -70.2465  -43.6612   20.6960 H   0  0  0  0  0
  -64.5004  -43.2288   23.5478 H   0  0  0  0  0
  -63.1218  -43.1933   25.3757 H   0  0  0  0  0
  -62.8419  -41.0983   26.2017 H   0  0  0  0  0
  -64.6485  -40.8602   26.4630 H   0  0  0  0  0
  -64.8705  -39.8355   24.4935 H   0  0  0  0  0
  -63.8713  -41.0210   23.6566 H   0  0  0  0  0
  -61.8253  -39.9533   24.4345 H   0  0  0  0  0
  -62.7448  -38.8665   25.4960 H   0  0  0  0  0
  -62.2368  -36.9390   24.5983 H   0  0  0  0  0
  -63.9414  -45.2108   26.0792 H   0  0  0  0  0
  -65.4742  -45.1200   28.6455 H   0  0  0  0  0
  -63.8817  -45.9363   28.5858 H   0  0  0  0  0
  -66.9272  -46.0000   27.0709 H   0  0  0  0  0
  1  2  2  0  0  0
  2  3  1  0  0  0
  2 13  1  0  0  0
  3  4  1  0  0  0
  3  7  1  0  0  0
  4  5  1  0  0  0
  5  6  1  0  0  0
  6  8  2  0  0  0
  7  8  1  0  0  0
  8  9  1  0  0  0
  9 10  1  0  0  0
  9 11  1  0  0  0
 11 12  1  0  0  0
 13 14  1  0  0  0
 14 15  1  0  0  0
 14 22  1  0  0  0
 15 16  1  0  0  0
 16 17  1  0  0  0
 17 18  1  0  0  0
 18 19  2  0  0  0
 18 20  1  0  0  0
 20 21  2  0  0  0
 22 23  2  0  0  0
 22 24  1  0  0  0
 24 25  1  0  0  0
 25 26  1  0  0  0
 25 28  1  0  0  0
 26 27  2  0  0  0
 26 33  1  0  0  0
 28 29  1  0  0  0
 29 30  1  0  0  0
 30 31  2  0  0  0
 30 32  1  0  0  0
 33 34  1  0  0  0
 34 35  1  0  0  0
 34 37  1  0  0  0
 35 36  2  0  0  0
 35 42  1  0  0  0
 37 38  1  0  0  0
 38 39  1  0  0  0
 39 40  2  0  0  0
 39 41  1  0  0  0
 42 43  1  0  0  0
 43 44  1  0  0  0
 43 51  1  0  0  0
 44 45  1  0  0  0
 45 46  1  0  0  0
 46 47  1  0  0  0
 47 48  2  0  0  0
 47 49  1  0  0  0
 49 50  2  0  0  0
 51 52  2  0  0  0
 51 53  1  0  0  0
 53 54  1  0  0  0
 54 55  1  0  0  0
 55 56  1  0  0  0
 55 57  2  0  0  0
  3 58  1  0  0  0
  4 59  1  0  0  0
  4 60  1  0  0  0
  5 61  1  0  0  0
  5 62  1  0  0  0
  7 63  1  0  0  0
  9 64  1  0  0  0
 10 65  1  0  0  0
 10 66  1  0  0  0
 10 67  1  0  0  0
 11 68  1  0  0  0
 11 69  1  0  0  0
 12 70  1  0  0  0
 13 71  1  0  0  0
 14 72  1  0  0  0
 15 73  1  0  0  0
 15 74  1  0  0  0
 16 75  1  0  0  0
 16 76  1  0  0  0
 17 77  1  0  0  0
 17 78  1  0  0  0
 20 79  1  0  0  0
 24 80  1  0  0  0
 25 81  1  0  0  0
 28 82  1  0  0  0
 28 83  1  0  0  0
 29 84  1  0  0  0
 29 85  1  0  0  0
 32 86  1  0  0  0
 32 87  1  0  0  0
 33 88  1  0  0  0
 34 89  1  0  0  0
 37 90  1  0  0  0
 37 91  1  0  0  0
 38 92  1  0  0  0
 38 93  1  0  0  0
 41 94  1  0  0  0
 41 95  1  0  0  0
 42 96  1  0  0  0
 43 97  1  0  0  0
 44 98  1  0  0  0
 44 99  1  0  0  0
 45100  1  0  0  0
 45101  1  0  0  0
 46102  1  0  0  0
 46103  1  0  0  0
 49104  1  0  0  0
 53105  1  0  0  0
 54106  1  0  0  0
 54107  1  0  0  0
 56108  1  0  0  0
M  END
$$$$
