### 
### Created by X-TOOL on Mon Sep 10 21:12:51 2018
### 

@<TRIPOS>MOLECULE
1rhk_ligand
   83    83     1     0     0
SMALL
GAST_HUCK


@<TRIPOS>ATOM
      1 C          41.7610   98.6430   26.9710 C.2       1 ACE         0.1752
      2 O          40.5730   98.5920   26.6670 O.2       1 ACE        -0.3972
      3 CH3        42.1700   98.8670   28.4120 C.3       1 ACE         0.0258
      4 N          42.7230   98.4790   26.0680 N.am      1 ASP        -0.2643
      5 CA         42.3460   98.2710   24.6680 C.3       1 ASP         0.1422
      6 C          41.9070   96.8480   24.3650 C.2       1 ASP         0.2056
      7 O          42.5150   95.8870   24.8410 O.2       1 ASP        -0.3943
      8 CB         43.4760   98.6390   23.7120 C.3       1 ASP         0.0406
      9 CG         43.9090  100.0980   23.8290 C.2       1 ASP         0.0393
     10 OD1        43.0610  101.0080   23.9970 O.co2     1 ASP        -0.5688
     11 OD2        45.1310  100.3190   23.7340 O.co2     1 ASP        -0.5688
     12 N          40.8330   96.7340   23.5880 N.am      1 GLU        -0.2635
     13 CA         40.2810   95.4460   23.1870 C.3       1 GLU         0.1325
     14 C          39.9170   95.4700   21.7160 C.2       1 GLU         0.2040
     15 O          39.8920   96.5530   21.1290 O.2       1 GLU        -0.3944
     16 CB         39.0520   95.1300   23.9970 C.3       1 GLU        -0.0008
     17 CG         39.3980   94.9070   25.4380 C.3       1 GLU         0.0044
     18 CD         38.2010   94.4600   26.2270 C.2       1 GLU         0.0350
     19 OE1        37.5870   93.4300   25.8560 O.co2     1 GLU        -0.5690
     20 OE2        37.8910   95.1250   27.2310 O.co2     1 GLU        -0.5690
     21 N          39.6690   94.2950   21.1170 N.am      1 VAL        -0.2635
     22 CA         39.3050   94.2260   19.6920 C.3       1 VAL         0.1331
     23 C          37.8340   93.8610   19.3640 C.2       1 VAL         0.2023
     24 O          37.1660   93.2180   20.1680 O.2       1 VAL        -0.3945
     25 CB         40.2490   93.2540   18.9100 C.3       1 VAL        -0.0063
     26 CG1        41.5930   93.9220   18.6850 C.3       1 VAL        -0.0584
     27 CG2        40.4390   91.9400   19.6700 C.3       1 VAL        -0.0584
     28 N          37.3240   94.2850   18.2040 N.am      1 FPR        -0.2779
     29 CA         35.9680   93.9230   17.8330 C.3       1 FPR         0.0792
     30 C          35.9790   92.9190   16.7400 C.3       1 FPR         0.0797
     31 O          34.6600   92.8420   16.2670 O.3       1 FPR        -0.3894
     32 CB         35.1310   95.1220   17.3830 C.3       1 FPR         0.0257
     33 CG         34.5150   95.8790   18.5370 C.2       1 FPR         0.0371
     34 OD1        34.1710   95.2610   19.5560 O.co2     1 FPR        -0.5689
     35 OD2        34.3680   97.1070   18.4140 O.co2     1 FPR        -0.5689
     36 C1         36.3740   91.5900   17.3790 C.3       1 FPR        -0.0228
     37 C2         36.1520   90.4640   16.4100 C.3       1 FPR        -0.0409
     38 C3         36.6000   89.1340   16.9940 C.3       1 FPR        -0.0191
     39 C4         36.6030   87.9890   16.0120 C.ar      1 FPR        -0.0430
     40 C5         37.4550   86.9090   16.1960 C.ar      1 FPR        -0.0603
     41 C6         37.4850   85.8630   15.2850 C.ar      1 FPR        -0.0686
     42 C7         36.6530   85.8900   14.1740 C.ar      1 FPR        -0.0687
     43 C8         35.7930   86.9640   13.9830 C.ar      1 FPR        -0.0686
     44 C9         35.7720   88.0020   14.8980 C.ar      1 FPR        -0.0603
     45 H1         43.2676   98.8818   28.4835 H         1 ACE         0.0467
     46 H2         41.7728   98.0533   29.0366 H         1 ACE         0.0467
     47 H3         41.7668   99.8286   28.7624 H         1 ACE         0.0467
     48 H4         43.6853   98.4973   26.3394 H         1 ASP         0.1884
     49 H5         41.4945   98.9359   24.4611 H         1 ASP         0.0819
     50 H6         43.1363   98.4564   22.6818 H         1 ASP         0.0478
     51 H7         44.3427   97.9981   23.9314 H         1 ASP         0.0478
     52 H8         40.3852   97.5679   23.2652 H         1 GLU         0.1883
     53 H9         41.0362   94.6649   23.3590 H         1 GLU         0.0801
     54 H10        38.5813   94.2204   23.5957 H         1 GLU         0.0330
     55 H11        38.3469   95.9710   23.9229 H         1 GLU         0.0330
     56 H12        39.7767   95.8475   25.8647 H         1 GLU         0.0433
     57 H13        40.1782   94.1343   25.5031 H         1 GLU         0.0433
     58 H14        39.7326   93.4503   21.6485 H         1 VAL         0.1883
     59 H15        39.4692   95.2372   19.2914 H         1 VAL         0.0802
     60 H16        39.7941   93.0314   17.9335 H         1 VAL         0.0343
     61 H17        42.2553   93.2372   18.1351 H         1 VAL         0.0234
     62 H18        42.0465   94.1698   19.6560 H         1 VAL         0.0234
     63 H19        41.4514   94.8431   18.1007 H         1 VAL         0.0234
     64 H20        39.4604   91.4633   19.8284 H         1 VAL         0.0234
     65 H21        40.9093   92.1440   20.6432 H         1 VAL         0.0234
     66 H22        41.0838   91.2679   19.0848 H         1 VAL         0.0234
     67 H23        37.8760   94.8513   17.5919 H         1 FPR         0.1857
     68 H24        35.4848   93.4785   18.7156 H         1 FPR         0.0600
     69 H25        36.6757   93.1959   15.9351 H         1 FPR         0.0617
     70 H26        34.0863   92.5719   16.9745 H         1 FPR         0.2099
     71 H27        34.3230   94.7602   16.7301 H         1 FPR         0.0454
     72 H28        35.7784   95.8094   16.8187 H         1 FPR         0.0454
     73 H29        35.7620   91.4224   18.2775 H         1 FPR         0.0292
     74 H30        37.4369   91.6234   17.6602 H         1 FPR         0.0292
     75 H31        36.7249   90.6632   15.4924 H         1 FPR         0.0288
     76 H32        35.0805   90.4059   16.1680 H         1 FPR         0.0288
     77 H33        35.9218   88.8758   17.8207 H         1 FPR         0.0426
     78 H34        37.6218   89.2561   17.3825 H         1 FPR         0.0426
     79 H35        38.1055   86.8824   17.0627 H         1 FPR         0.0557
     80 H36        38.1567   85.0265   15.4404 H         1 FPR         0.0599
     81 H37        36.6744   85.0761   13.4583 H         1 FPR         0.0559
     82 H38        35.1394   86.9890   13.1186 H         1 FPR         0.0599
     83 H39        35.0980   88.8369   14.7437 H         1 FPR         0.0557
@<TRIPOS>BOND
     1    1    2 2  
     2    1    3 1  
     3    1    4 am 
     4    4    5 1  
     5    5    6 1  
     6    5    8 1  
     7    6    7 2  
     8    6   12 am 
     9    8    9 1  
    10    9   10 ar 
    11    9   11 ar 
    12   12   13 1  
    13   13   14 1  
    14   13   16 1  
    15   14   15 2  
    16   14   21 am 
    17   16   17 1  
    18   17   18 1  
    19   18   19 ar 
    20   18   20 ar 
    21   21   22 1  
    22   22   23 1  
    23   22   25 1  
    24   23   24 2  
    25   23   28 am 
    26   25   26 1  
    27   25   27 1  
    28   28   29 1  
    29   29   30 1  
    30   29   32 1  
    31   30   31 1  
    32   30   36 1  
    33   32   33 1  
    34   33   34 ar 
    35   33   35 ar 
    36   36   37 1  
    37   37   38 1  
    38   38   39 1  
    39   39   40 ar 
    40   39   44 ar 
    41   40   41 ar 
    42   41   42 ar 
    43   42   43 ar 
    44   43   44 ar 
    45    3   45 1  
    46    3   46 1  
    47    3   47 1  
    48    4   48 1  
    49    5   49 1  
    50    8   50 1  
    51    8   51 1  
    52   12   52 1  
    53   13   53 1  
    54   16   54 1  
    55   16   55 1  
    56   17   56 1  
    57   17   57 1  
    58   21   58 1  
    59   22   59 1  
    60   25   60 1  
    61   26   61 1  
    62   26   62 1  
    63   26   63 1  
    64   27   64 1  
    65   27   65 1  
    66   27   66 1  
    67   28   67 1  
    68   29   68 1  
    69   30   69 1  
    70   31   70 1  
    71   32   71 1  
    72   32   72 1  
    73   36   73 1  
    74   36   74 1  
    75   37   75 1  
    76   37   76 1  
    77   38   77 1  
    78   38   78 1  
    79   40   79 1  
    80   41   80 1  
    81   42   81 1  
    82   43   82 1  
    83   44   83 1  
@<TRIPOS>SUBSTRUCTURE
     1 ACE         1

