1rhk_ligand
  -I-interpret- 

 86 86  0  0  0  0  0  0  0  0999 V2000
   41.7610   98.6430   26.9710 C   0  0  0  0  0
   40.5730   98.5920   26.6670 O   0  0  0  0  0
   42.1700   98.8670   28.4120 C   0  0  0  0  0
   42.7230   98.4790   26.0680 N   0  0  0  0  0
   42.3460   98.2710   24.6680 C   0  0  0  0  0
   41.9070   96.8480   24.3650 C   0  0  0  0  0
   42.5150   95.8870   24.8410 O   0  0  0  0  0
   43.4760   98.6390   23.7120 C   0  0  0  0  0
   43.9090  100.0980   23.8290 C   0  0  0  0  0
   43.0610  101.0080   23.9970 O   0  0  0  0  0
   45.1310  100.3190   23.7340 O   0  0  0  0  0
   40.8330   96.7340   23.5880 N   0  0  0  0  0
   40.2810   95.4460   23.1870 C   0  0  0  0  0
   39.9170   95.4700   21.7160 C   0  0  0  0  0
   39.8920   96.5530   21.1290 O   0  0  0  0  0
   39.0520   95.1300   23.9970 C   0  0  0  0  0
   39.3980   94.9070   25.4380 C   0  0  0  0  0
   38.2010   94.4600   26.2270 C   0  0  0  0  0
   37.5870   93.4300   25.8560 O   0  0  0  0  0
   37.8910   95.1250   27.2310 O   0  0  0  0  0
   39.6690   94.2950   21.1170 N   0  0  0  0  0
   39.3050   94.2260   19.6920 C   0  0  0  0  0
   37.8340   93.8610   19.3640 C   0  0  0  0  0
   37.1660   93.2180   20.1680 O   0  0  0  0  0
   40.2490   93.2540   18.9100 C   0  0  0  0  0
   41.5930   93.9220   18.6850 C   0  0  0  0  0
   40.4390   91.9400   19.6700 C   0  0  0  0  0
   37.3240   94.2850   18.2040 N   0  0  0  0  0
   35.9680   93.9230   17.8330 C   0  0  0  0  0
   35.9790   92.9190   16.7400 C   0  0  0  0  0
   34.6600   92.8420   16.2670 O   0  0  0  0  0
   35.1310   95.1220   17.3830 C   0  0  0  0  0
   34.5150   95.8790   18.5370 C   0  0  0  0  0
   34.1710   95.2610   19.5560 O   0  0  0  0  0
   34.3680   97.1070   18.4140 O   0  0  0  0  0
   36.3740   91.5900   17.3790 C   0  0  0  0  0
   36.1520   90.4640   16.4100 C   0  0  0  0  0
   36.6000   89.1340   16.9940 C   0  0  0  0  0
   36.6030   87.9890   16.0120 C   0  0  0  0  0
   37.4550   86.9090   16.1960 C   0  0  0  0  0
   37.4850   85.8630   15.2850 C   0  0  0  0  0
   36.6530   85.8900   14.1740 C   0  0  0  0  0
   35.7930   86.9640   13.9830 C   0  0  0  0  0
   35.7720   88.0020   14.8980 C   0  0  0  0  0
   41.7698   99.8200   28.7580 H   0  0  0  0  0
   41.7758   98.0602   29.0298 H   0  0  0  0  0
   43.2577   98.8814   28.4816 H   0  0  0  0  0
   43.7045   98.4977   26.3448 H   0  0  0  0  0
   41.4952   98.9344   24.5125 H   0  0  0  0  0
   43.1143   98.4816   22.6959 H   0  0  0  0  0
   44.3361   98.0175   23.9614 H   0  0  0  0  0
   42.1835  100.6215   24.0434 H   0  0  0  0  0
   40.3763   97.5845   23.2588 H   0  0  0  0  0
   41.0351   94.6787   23.3622 H   0  0  0  0  0
   38.5986   94.2207   23.6025 H   0  0  0  0  0
   38.3639   95.9727   23.9299 H   0  0  0  0  0
   39.7570   95.8471   25.8569 H   0  0  0  0  0
   40.1595   94.1292   25.4944 H   0  0  0  0  0
   37.9984   93.0824   25.0613 H   0  0  0  0  0
   39.7339   93.4334   21.6591 H   0  0  0  0  0
   39.4299   95.2583   19.3651 H   0  0  0  0  0
   39.7887   93.0246   17.9490 H   0  0  0  0  0
   41.4513   94.8346   18.1060 H   0  0  0  0  0
   42.0412   94.1670   19.6479 H   0  0  0  0  0
   42.2483   93.2425   18.1401 H   0  0  0  0  0
   40.8805   92.1463   20.6450 H   0  0  0  0  0
   39.4717   91.4555   19.8029 H   0  0  0  0  0
   41.0997   91.2853   19.1017 H   0  0  0  0  0
   37.8870   94.8626   17.5797 H   0  0  0  0  0
   35.5106   93.5094   18.7318 H   0  0  0  0  0
   36.6627   93.1662   15.9278 H   0  0  0  0  0
   34.6139   92.2012   15.5537 H   0  0  0  0  0
   34.3185   94.7452   16.7617 H   0  0  0  0  0
   35.7914   95.8071   16.8514 H   0  0  0  0  0
   34.6977   97.3832   17.5557 H   0  0  0  0  0
   35.7623   91.4241   18.2658 H   0  0  0  0  0
   37.4288   91.6241   17.6516 H   0  0  0  0  0
   36.7350   90.6612   15.5104 H   0  0  0  0  0
   35.0866   90.4034   16.1877 H   0  0  0  0  0
   35.8920   88.8768   17.7818 H   0  0  0  0  0
   37.6271   89.2649   17.3346 H   0  0  0  0  0
   38.1091   86.8822   17.0675 H   0  0  0  0  0
   38.1604   85.0218   15.4413 H   0  0  0  0  0
   36.6745   85.0716   13.4544 H   0  0  0  0  0
   35.1358   86.9891   13.1138 H   0  0  0  0  0
   35.0943   88.8415   14.7429 H   0  0  0  0  0
  1  2  2  0  0  0
  1  3  1  0  0  0
  1  4  1  0  0  0
  4  5  1  0  0  0
  5  6  1  0  0  0
  5  8  1  0  0  0
  6  7  2  0  0  0
  6 12  1  0  0  0
  8  9  1  0  0  0
  9 10  1  0  0  0
  9 11  2  0  0  0
 12 13  1  0  0  0
 13 14  1  0  0  0
 13 16  1  0  0  0
 14 15  2  0  0  0
 14 21  1  0  0  0
 16 17  1  0  0  0
 17 18  1  0  0  0
 18 19  1  0  0  0
 18 20  2  0  0  0
 21 22  1  0  0  0
 22 23  1  0  0  0
 22 25  1  0  0  0
 23 24  2  0  0  0
 23 28  1  0  0  0
 25 26  1  0  0  0
 25 27  1  0  0  0
 28 29  1  0  0  0
 29 30  1  0  0  0
 29 32  1  0  0  0
 30 31  1  0  0  0
 30 36  1  0  0  0
 32 33  1  0  0  0
 33 34  2  0  0  0
 33 35  1  0  0  0
 36 37  1  0  0  0
 37 38  1  0  0  0
 38 39  1  0  0  0
 39 40  4  0  0  0
 39 44  4  0  0  0
 40 41  4  0  0  0
 41 42  4  0  0  0
 42 43  4  0  0  0
 43 44  4  0  0  0
  3 45  1  0  0  0
  3 46  1  0  0  0
  3 47  1  0  0  0
  4 48  1  0  0  0
  5 49  1  0  0  0
  8 50  1  0  0  0
  8 51  1  0  0  0
 10 52  1  0  0  0
 12 53  1  0  0  0
 13 54  1  0  0  0
 16 55  1  0  0  0
 16 56  1  0  0  0
 17 57  1  0  0  0
 17 58  1  0  0  0
 19 59  1  0  0  0
 21 60  1  0  0  0
 22 61  1  0  0  0
 25 62  1  0  0  0
 26 63  1  0  0  0
 26 64  1  0  0  0
 26 65  1  0  0  0
 27 66  1  0  0  0
 27 67  1  0  0  0
 27 68  1  0  0  0
 28 69  1  0  0  0
 29 70  1  0  0  0
 30 71  1  0  0  0
 31 72  1  0  0  0
 32 73  1  0  0  0
 32 74  1  0  0  0
 35 75  1  0  0  0
 36 76  1  0  0  0
 36 77  1  0  0  0
 37 78  1  0  0  0
 37 79  1  0  0  0
 38 80  1  0  0  0
 38 81  1  0  0  0
 40 82  1  0  0  0
 41 83  1  0  0  0
 42 84  1  0  0  0
 43 85  1  0  0  0
 44 86  1  0  0  0
M  END
$$$$
