4foc_ligand
  -I-interpret- 

 70 74  0  0  0  0  0  0  0  0999 V2000
   16.8190   12.0180    9.6340 C   0  0  0  0  0
   17.2510   10.9690    8.7260 O   0  0  0  0  0
   17.6060   11.3970    7.4700 C   0  0  0  0  0
   17.7600   12.5930    7.2240 O   0  0  0  0  0
   17.8310   10.3520    6.3690 C   0  0  0  0  0
   18.3630    9.0650    7.0150 C   0  0  0  0  0
   19.7980    9.2080    7.5170 C   0  0  0  0  0
   18.8310   10.8690    5.3210 C   0  0  0  0  0
   20.2490   11.0010    5.8700 C   0  0  0  0  0
   20.7310    9.6470    6.3830 C   0  0  0  0  0
   22.1010    9.6300    6.9200 N   0  0  0  0  0
   22.9680    8.6500    6.6480 C   0  0  0  0  0
   22.8950    7.4980    5.8480 C   0  0  0  0  0
   24.0050    6.6560    5.7520 C   0  0  0  0  0
   23.9400    5.3820    4.8780 C   0  0  0  0  0
   24.6400    5.5450    3.5930 N   0  3  0  0  0
   24.0380    6.5960    2.7660 C   0  0  0  0  0
   24.9460    6.8330    1.5480 C   0  0  0  0  0
   25.1460    5.5440    0.7330 C   0  0  0  0  0
   25.4420    4.3240    1.6140 C   0  0  0  0  0
   24.5250    4.2770    2.8440 C   0  0  0  0  0
   25.1620    6.9600    6.4590 C   0  0  0  0  0
   25.2240    8.0980    7.2730 C   0  0  0  0  0
   24.1240    8.9480    7.3530 C   0  0  0  0  0
   23.9200   10.0900    8.0330 N   0  0  0  0  0
   22.6820   10.4940    7.7570 C   0  0  0  0  0
   22.1060   11.5800    8.2920 N   0  0  0  0  0
   22.7520   12.3760    9.1550 C   0  0  0  0  0
   23.9220   12.2560    9.5220 O   0  0  0  0  0
   21.8790   13.4670    9.7910 C   0  0  0  0  0
   20.5450   13.6390    9.4170 C   0  0  0  0  0
   19.7510   14.6380   10.0050 C   0  0  0  0  0
   20.3180   15.4340   11.0000 C   0  0  0  0  0
   21.6460   15.2380   11.3840 C   0  0  0  0  0
   22.4290   14.2660   10.7920 C   0  0  0  0  0
   17.6267   12.7380    9.7659 H   0  0  0  0  0
   15.9465   12.5211    9.2171 H   0  0  0  0  0
   16.5609   11.5790   10.5977 H   0  0  0  0  0
   16.8869   10.1535    5.8616 H   0  0  0  0  0
   18.3494    8.2803    6.2586 H   0  0  0  0  0
   17.7300    8.8339    7.8717 H   0  0  0  0  0
   20.1354    8.2432    7.8957 H   0  0  0  0  0
   19.8215    9.9627    8.3031 H   0  0  0  0  0
   18.5018   11.8592    5.0059 H   0  0  0  0  0
   18.8562   10.1509    4.5013 H   0  0  0  0  0
   20.2534   11.7199    6.6893 H   0  0  0  0  0
   20.9130   11.3435    5.0763 H   0  0  0  0  0
   20.7238    8.9838    5.5180 H   0  0  0  0  0
   21.9789    7.2629    5.3061 H   0  0  0  0  0
   22.8916    5.1721    4.6661 H   0  0  0  0  0
   24.4244    4.5732    5.4251 H   0  0  0  0  0
   25.6077    5.7985    3.7920 H   0  0  0  0  0
   23.9401    7.5153    3.3433 H   0  0  0  0  0
   23.0448    6.2898    2.4375 H   0  0  0  0  0
   25.9194    7.1703    1.9040 H   0  0  0  0  0
   24.4745    7.5771    0.9061 H   0  0  0  0  0
   26.0008    5.6951    0.0737 H   0  0  0  0  0
   24.2226    5.3465    0.1886 H   0  0  0  0  0
   26.4744    4.3903    1.9573 H   0  0  0  0  0
   25.2712    3.4240    1.0234 H   0  0  0  0  0
   23.4929    4.1374    2.5225 H   0  0  0  0  0
   24.8211    3.4476    3.4863 H   0  0  0  0  0
   26.0303    6.3060    6.3792 H   0  0  0  0  0
   26.1283    8.3171    7.8407 H   0  0  0  0  0
   21.1458   11.8075    8.0340 H   0  0  0  0  0
   20.1127   12.9882    8.6570 H   0  0  0  0  0
   18.7178   14.7871    9.6914 H   0  0  0  0  0
   19.7227   16.2113   11.4792 H   0  0  0  0  0
   22.0736   15.8646   12.1667 H   0  0  0  0  0
   23.4640   14.1256   11.1038 H   0  0  0  0  0
  1  2  1  0  0  0
  2  3  1  0  0  0
  3  4  2  0  0  0
  3  5  1  0  0  0
  5  6  1  0  0  0
  5  8  1  0  0  0
  6  7  1  0  0  0
  7 10  1  0  0  0
  8  9  1  0  0  0
  9 10  1  0  0  0
 10 11  1  0  0  0
 11 12  4  0  0  0
 11 26  4  0  0  0
 12 13  4  0  0  0
 12 24  4  0  0  0
 13 14  4  0  0  0
 14 15  1  0  0  0
 14 22  4  0  0  0
 15 16  1  0  0  0
 16 17  1  0  0  0
 16 21  1  0  0  0
 17 18  1  0  0  0
 18 19  1  0  0  0
 19 20  1  0  0  0
 20 21  1  0  0  0
 22 23  4  0  0  0
 23 24  4  0  0  0
 24 25  4  0  0  0
 25 26  4  0  0  0
 26 27  1  0  0  0
 27 28  1  0  0  0
 28 29  2  0  0  0
 28 30  1  0  0  0
 30 31  4  0  0  0
 30 35  4  0  0  0
 31 32  4  0  0  0
 32 33  4  0  0  0
 33 34  4  0  0  0
 34 35  4  0  0  0
  1 36  1  0  0  0
  1 37  1  0  0  0
  1 38  1  0  0  0
  5 39  1  0  0  0
  6 40  1  0  0  0
  6 41  1  0  0  0
  7 42  1  0  0  0
  7 43  1  0  0  0
  8 44  1  0  0  0
  8 45  1  0  0  0
  9 46  1  0  0  0
  9 47  1  0  0  0
 10 48  1  0  0  0
 13 49  1  0  0  0
 15 50  1  0  0  0
 15 51  1  0  0  0
 16 52  1  0  0  0
 17 53  1  0  0  0
 17 54  1  0  0  0
 18 55  1  0  0  0
 18 56  1  0  0  0
 19 57  1  0  0  0
 19 58  1  0  0  0
 20 59  1  0  0  0
 20 60  1  0  0  0
 21 61  1  0  0  0
 21 62  1  0  0  0
 22 63  1  0  0  0
 23 64  1  0  0  0
 27 65  1  0  0  0
 31 66  1  0  0  0
 32 67  1  0  0  0
 33 68  1  0  0  0
 34 69  1  0  0  0
 35 70  1  0  0  0
M  END
$$$$
