3ekx_ligand
  -I-interpret- 

 86 89  0  0  0  0  0  0  0  0999 V2000
   17.6520   27.4490   12.7990 C   0  0  0  0  0
   18.3740   26.8110   11.6210 C   0  0  0  0  0
   17.5420   26.7500   10.3450 C   0  0  0  0  0
   16.8880   28.0990   10.0830 C   0  0  0  0  0
   16.1660   28.5860   11.3310 C   0  0  0  0  0
   17.1240   28.8360   12.4940 C   0  0  0  0  0
   19.7000   28.3220   13.7270 N   0  3  0  0  0
   20.4650   27.6440   12.6890 C   0  0  0  0  0
   19.6630   27.5800   11.3870 C   0  0  0  0  0
   18.5190   27.5190   14.0440 C   0  0  0  0  0
   21.7100   28.3770   12.3210 C   0  0  0  0  0
   22.7420   27.5550   12.1370 N   0  0  0  0  0
   24.0630   27.9180   11.6750 C   0  0  0  0  0
   24.6920   28.7540   12.7890 C   0  0  0  0  0
   23.9610   28.6780   10.3500 C   0  0  0  0  0
   24.8630   26.6300   11.4480 C   0  0  0  0  0
   21.6810   29.5930   12.1850 O   0  0  0  0  0
   20.4270   28.3490   14.9830 C   0  0  0  0  0
   19.9360   29.5350   15.7930 C   0  0  0  0  0
   20.5990   30.8460   15.3910 C   0  0  0  0  0
   20.2180   29.1920   17.1330 O   0  0  0  0  0
   19.8830   31.9160   16.0470 N   0  0  0  0  0
   22.0740   31.0060   15.7490 C   0  0  0  0  0
   18.8960   32.5950   15.4700 C   0  0  0  0  0
   18.5620   32.4850   14.3050 O   0  0  0  0  0
   18.1700   33.5500   16.3600 C   0  0  0  0  0
   18.9000   34.4270   17.1640 C   0  0  0  0  0
   18.2810   35.3300   18.0260 C   0  0  0  0  0
   16.8960   35.3930   18.1000 C   0  0  0  0  0
   16.1010   34.5470   17.3310 C   0  0  0  0  0
   16.6960   33.5600   16.4060 C   0  0  0  0  0
   14.7860   34.5830   17.4030 O   0  0  0  0  0
   15.7930   32.6670   15.5910 C   0  0  0  0  0
   22.7670   32.3280   14.8010 S   0  0  0  0  0
   22.6520   33.7870   15.6490 C   0  0  0  0  0
   22.4720   34.9430   14.9010 C   0  0  0  0  0
   22.3600   36.1670   15.5410 C   0  0  0  0  0
   22.4490   36.2380   16.9250 C   0  0  0  0  0
   22.6340   35.0800   17.6700 C   0  0  0  0  0
   22.7350   33.8470   17.0370 C   0  0  0  0  0
   16.8049   26.7897   12.9882 H   0  0  0  0  0
   18.5757   25.7706   11.8759 H   0  0  0  0  0
   16.7667   25.9924   10.4591 H   0  0  0  0  0
   18.1909   26.4978    9.5063 H   0  0  0  0  0
   16.1669   27.9939    9.2724 H   0  0  0  0  0
   17.6579   28.8215    9.8120 H   0  0  0  0  0
   15.4585   27.8146   11.6353 H   0  0  0  0  0
   15.6727   29.5278   11.0906 H   0  0  0  0  0
   17.9138   29.5457   12.2477 H   0  0  0  0  0
   16.6380   29.3026   13.3509 H   0  0  0  0  0
   19.4943   29.2586   13.3794 H   0  0  0  0  0
   20.6947   26.6618   13.1022 H   0  0  0  0  0
   19.4268   28.5915   11.0566 H   0  0  0  0  0
   20.2529   27.0747   10.6223 H   0  0  0  0  0
   18.8165   26.5169   14.3529 H   0  0  0  0  0
   17.9638   27.9730   14.8648 H   0  0  0  0  0
   22.5841   26.5686   12.3431 H   0  0  0  0  0
   24.0816   29.6396   12.9658 H   0  0  0  0  0
   24.7454   28.1599   13.7013 H   0  0  0  0  0
   25.6960   29.0566   12.4917 H   0  0  0  0  0
   23.4805   28.0439    9.6049 H   0  0  0  0  0
   23.3694   29.5818   10.4956 H   0  0  0  0  0
   24.9607   28.9475   10.0093 H   0  0  0  0  0
   24.9323   26.0770   12.3848 H   0  0  0  0  0
   24.3593   26.0180   10.6998 H   0  0  0  0  0
   25.8642   26.8824   11.0987 H   0  0  0  0  0
   21.4964   28.4426   14.7939 H   0  0  0  0  0
   20.2562   27.4239   15.5336 H   0  0  0  0  0
   18.8744   29.7162   15.6250 H   0  0  0  0  0
   20.5583   30.8636   14.3019 H   0  0  0  0  0
   19.9319   29.9030   17.7111 H   0  0  0  0  0
   20.1480   32.1629   17.0005 H   0  0  0  0  0
   22.6054   30.0806   15.5267 H   0  0  0  0  0
   22.1688   31.2307   16.8114 H   0  0  0  0  0
   19.9887   34.4048   17.1160 H   0  0  0  0  0
   18.8875   35.9906   18.6456 H   0  0  0  0  0
   16.4250   36.1137   18.7684 H   0  0  0  0  0
   16.7151   32.7041   15.7313 H   0  0  0  0  0
   15.9720   32.8424   14.5302 H   0  0  0  0  0
   16.0042   31.6245   15.8289 H   0  0  0  0  0
   14.7528   32.8914   15.8273 H   0  0  0  0  0
   22.4190   34.8878   13.8137 H   0  0  0  0  0
   22.2020   37.0743   14.9579 H   0  0  0  0  0
   22.3737   37.2026   17.4270 H   0  0  0  0  0
   22.7003   35.1389   18.7564 H   0  0  0  0  0
   22.8775   32.9376   17.6207 H   0  0  0  0  0
  1  2  1  0  0  0
  1  6  1  0  0  0
 10  1  1  0  0  0
  2  3  1  0  0  0
  2  9  1  0  0  0
  3  4  1  0  0  0
  5  4  1  0  0  0
  6  5  1  0  0  0
  7  8  1  0  0  0
  7 10  1  0  0  0
  7 18  1  0  0  0
  8  9  1  0  0  0
  8 11  1  0  0  0
 11 12  1  0  0  0
 11 17  2  0  0  0
 12 13  1  0  0  0
 13 14  1  0  0  0
 13 15  1  0  0  0
 13 16  1  0  0  0
 18 19  1  0  0  0
 19 20  1  0  0  0
 19 21  1  0  0  0
 20 22  1  0  0  0
 20 23  1  0  0  0
 22 24  1  0  0  0
 23 34  1  0  0  0
 24 25  2  0  0  0
 24 26  1  0  0  0
 26 27  2  0  0  0
 26 31  1  0  0  0
 27 28  1  0  0  0
 28 29  2  0  0  0
 29 30  1  0  0  0
 30 31  1  0  0  0
 30 32  2  0  0  0
 31 33  1  0  0  0
 34 35  1  0  0  0
 35 36  4  0  0  0
 35 40  4  0  0  0
 36 37  4  0  0  0
 37 38  4  0  0  0
 38 39  4  0  0  0
 39 40  4  0  0  0
  1 41  1  0  0  0
  2 42  1  0  0  0
  3 43  1  0  0  0
  3 44  1  0  0  0
  4 45  1  0  0  0
  4 46  1  0  0  0
  5 47  1  0  0  0
  5 48  1  0  0  0
  6 49  1  0  0  0
  6 50  1  0  0  0
  7 51  1  0  0  0
  8 52  1  0  0  0
  9 53  1  0  0  0
  9 54  1  0  0  0
 10 55  1  0  0  0
 10 56  1  0  0  0
 12 57  1  0  0  0
 14 58  1  0  0  0
 14 59  1  0  0  0
 14 60  1  0  0  0
 15 61  1  0  0  0
 15 62  1  0  0  0
 15 63  1  0  0  0
 16 64  1  0  0  0
 16 65  1  0  0  0
 16 66  1  0  0  0
 18 67  1  0  0  0
 18 68  1  0  0  0
 19 69  1  0  0  0
 20 70  1  0  0  0
 21 71  1  0  0  0
 22 72  1  0  0  0
 23 73  1  0  0  0
 23 74  1  0  0  0
 27 75  1  0  0  0
 28 76  1  0  0  0
 29 77  1  0  0  0
 31 78  1  0  0  0
 33 79  1  0  0  0
 33 80  1  0  0  0
 33 81  1  0  0  0
 36 82  1  0  0  0
 37 83  1  0  0  0
 38 84  1  0  0  0
 39 85  1  0  0  0
 40 86  1  0  0  0
M  END
$$$$
