5ur9_ligand
  -I-interpret- 

 54 58  0  0  0  0  0  0  0  0999 V2000
   10.5020    4.5960   -8.1560 C   0  0  0  0  0
   13.1260    5.5590  -10.6010 C   0  0  0  0  0
   14.1980    5.1640  -11.3970 C   0  0  0  0  0
   12.1820    3.0070   -7.3680 O   0  0  0  0  0
   12.6690    1.7260   -7.2740 C   0  0  0  0  0
    7.5110    5.7600  -11.1810 O   0  0  0  0  0
    8.6600    6.0100  -10.7760 C   0  0  0  0  0
    9.2730    7.0690  -10.9860 O   0  0  0  0  0
    9.3910    4.9290   -9.9670 C   0  0  0  0  0
   10.8360    5.3280   -9.5370 C   0  0  0  0  0
   11.9540    4.8240  -10.4290 C   0  0  0  0  0
   11.8940    3.6160  -11.1500 C   0  0  0  0  0
   12.9710    3.2040  -11.9710 C   0  0  0  0  0
   14.1210    3.9840  -12.1070 C   0  0  0  0  0
   10.9620    3.2260   -8.0040 C   0  0  0  0  0
   10.4850    2.2730   -8.6280 O   0  0  0  0  0
   12.0620    0.7650   -6.4700 C   0  0  0  0  0
   12.5930   -0.5370   -6.3730 C   0  0  0  0  0
   13.7150   -0.8880   -7.0650 C   0  0  0  0  0
   14.3750    0.0840   -7.9120 C   0  0  0  0  0
   15.5450   -0.2620   -8.6370 C   0  0  0  0  0
   16.1850    0.6190   -9.4490 C   0  0  0  0  0
   15.6980    1.9310   -9.5620 C   0  0  0  0  0
   14.5690    2.3050   -8.8770 C   0  0  0  0  0
   13.8630    1.3900   -8.0190 C   0  0  0  0  0
    8.9840    4.8470   -8.4460 C   0  0  0  0  0
    8.4370    6.0630   -7.7890 C   0  0  0  0  0
    7.0950    6.1700   -7.3890 C   0  0  0  0  0
    6.6250    7.3340   -6.7690 C   0  0  0  0  0
    7.4780    8.4250   -6.5080 C   0  0  0  0  0
    8.8230    8.3340   -6.8820 C   0  0  0  0  0
    9.2640    7.1650   -7.5050 C   0  0  0  0  0
   10.9448    4.9196   -7.2140 H   0  0  0  0  0
   13.2091    6.5102  -10.0752 H   0  0  0  0  0
   15.0927    5.7836  -11.4587 H   0  0  0  0  0
    7.2553    4.8809  -10.8921 H   0  0  0  0  0
    9.2119    4.0836  -10.6314 H   0  0  0  0  0
   11.2238    6.3467   -9.5371 H   0  0  0  0  0
   11.0055    2.9891  -11.0749 H   0  0  0  0  0
   12.9011    2.2581  -12.5082 H   0  0  0  0  0
   14.9368    3.6686  -12.7574 H   0  0  0  0  0
   11.1643    1.0229   -5.9081 H   0  0  0  0  0
   12.1009   -1.2728   -5.7370 H   0  0  0  0  0
   14.1143   -1.8987   -6.9806 H   0  0  0  0  0
   15.9445   -1.2714   -8.5387 H   0  0  0  0  0
   17.0685    0.3102  -10.0077 H   0  0  0  0  0
   16.2164    2.6524  -10.1936 H   0  0  0  0  0
   14.1965    3.3236   -8.9858 H   0  0  0  0  0
    8.1795    4.1828   -8.1302 H   0  0  0  0  0
    6.4123    5.3383   -7.5630 H   0  0  0  0  0
    5.5755    7.3978   -6.4817 H   0  0  0  0  0
    7.0966    9.3238   -6.0234 H   0  0  0  0  0
    9.5113    9.1574   -6.6913 H   0  0  0  0  0
   10.3145    7.1023   -7.7890 H   0  0  0  0  0
 10  1  1  0  0  0
  1 15  1  0  0  0
  1 26  1  0  0  0
  2  3  4  0  0  0
 11  2  4  0  0  0
  3 14  4  0  0  0
  4  5  1  0  0  0
 15  4  1  0  0  0
  5 17  4  0  0  0
  5 25  4  0  0  0
  7  6  1  0  0  0
  7  8  2  0  0  0
  9  7  1  0  0  0
 10  9  1  0  0  0
  9 26  1  0  0  0
 10 11  1  0  0  0
 11 12  4  0  0  0
 12 13  4  0  0  0
 13 14  4  0  0  0
 15 16  2  0  0  0
 17 18  4  0  0  0
 18 19  4  0  0  0
 19 20  4  0  0  0
 20 21  4  0  0  0
 20 25  4  0  0  0
 21 22  4  0  0  0
 22 23  4  0  0  0
 23 24  4  0  0  0
 24 25  4  0  0  0
 26 27  1  0  0  0
 27 28  4  0  0  0
 27 32  4  0  0  0
 28 29  4  0  0  0
 29 30  4  0  0  0
 30 31  4  0  0  0
 31 32  4  0  0  0
  1 33  1  0  0  0
  2 34  1  0  0  0
  3 35  1  0  0  0
  6 36  1  0  0  0
  9 37  1  0  0  0
 10 38  1  0  0  0
 12 39  1  0  0  0
 13 40  1  0  0  0
 14 41  1  0  0  0
 17 42  1  0  0  0
 18 43  1  0  0  0
 19 44  1  0  0  0
 21 45  1  0  0  0
 22 46  1  0  0  0
 23 47  1  0  0  0
 24 48  1  0  0  0
 26 49  1  0  0  0
 28 50  1  0  0  0
 29 51  1  0  0  0
 30 52  1  0  0  0
 31 53  1  0  0  0
 32 54  1  0  0  0
M  END
$$$$
