2xc4_ligand
  -I-interpret- 

 59 62  0  0  0  0  0  0  0  0999 V2000
   -3.9090   11.8950   24.8310 C   0  0  0  0  0
   -3.8030   12.0200   23.3060 C   0  0  0  0  0
   -4.7210   13.2440   23.0170 C   0  0  0  0  0
   -4.3020   14.1740   24.1020 N   0  3  0  0  0
   -3.8610   13.3480   25.2830 C   0  0  0  0  0
   -2.7400   11.0360   25.2640 C   0  0  0  0  0
   -4.1260   10.7380   22.5450 C   0  0  0  0  0
   -5.1580   10.7090   21.6840 N   0  0  0  0  0
   -3.4270    9.7120   22.6660 O   0  0  0  0  0
   -1.6090   11.2460   24.8610 O   0  0  0  0  0
   -3.0440   10.0840   26.1430 N   0  0  0  0  0
   -2.2850    9.0370   26.6440 C   0  0  0  0  0
   -0.9600    6.7770   27.4370 C   0  0  0  0  0
   -1.9990    7.2350   28.2140 C   0  0  0  0  0
   -0.5750    7.4530   26.2720 C   0  0  0  0  0
   -2.6990    8.3530   27.7940 C   0  0  0  0  0
   -0.0750    5.3720   27.9200 Cl  0  0  0  0  0
   -5.4960    9.5860   20.8900 C   0  0  0  0  0
   -6.7340    8.9570   20.9530 C   0  0  0  0  0
   -6.0800    7.4370   19.1720 C   0  0  0  0  0
   -4.8520    8.0840   19.0950 C   0  0  0  0  0
   -7.0080    7.8860   20.1100 C   0  0  0  0  0
   -4.5690    9.1370   19.9500 C   0  0  0  0  0
   -6.3720    6.3640   18.2930 N   0  0  0  0  0
   -6.2610    5.0650   18.6570 C   0  0  0  0  0
   -6.9000    4.3420   16.4650 C   0  0  0  0  0
   -7.0400    5.6510   16.1050 C   0  0  0  0  0
   -6.4940    4.0550   17.7840 C   0  0  0  0  0
   -6.7570    6.6650   17.0250 C   0  0  0  0  0
   -6.8420    7.8290   16.6640 O   0  0  0  0  0
   -3.3820    9.7880   19.8760 F   0  0  0  0  0
   -5.3490   15.1010   24.5290 C   0  0  0  0  0
   -4.6260   16.2930   25.1560 C   0  0  0  0  0
   -5.5370   17.3350   25.3690 F   0  0  0  0  0
   -3.6040   16.7060   24.3030 F   0  0  0  0  0
   -4.0480   15.9250   26.3800 F   0  0  0  0  0
   -1.2620    8.5660   25.8520 C   0  0  0  0  0
   -4.7960   11.4189   25.2490 H   0  0  0  0  0
   -2.7870   12.1785   22.9444 H   0  0  0  0  0
   -5.7853   13.0090   23.0234 H   0  0  0  0  0
   -4.6060   13.6552   22.0141 H   0  0  0  0  0
   -3.5472   14.7507   23.7304 H   0  0  0  0  0
   -2.8566   13.6260   25.6023 H   0  0  0  0  0
   -4.5121   13.5129   26.1414 H   0  0  0  0  0
   -5.7328   11.5471   21.5972 H   0  0  0  0  0
   -3.9946   10.1326   26.5096 H   0  0  0  0  0
   -2.2655    6.7279   29.1413 H   0  0  0  0  0
    0.2763    7.0931   25.6943 H   0  0  0  0  0
   -3.5672    8.6989   28.3549 H   0  0  0  0  0
   -7.4874    9.3023   21.6610 H   0  0  0  0  0
   -4.1118    7.7630   18.3621 H   0  0  0  0  0
   -7.9730    7.3847   20.1845 H   0  0  0  0  0
   -5.9761    4.8245   19.6813 H   0  0  0  0  0
   -7.0966    3.5409   15.7525 H   0  0  0  0  0
   -7.3729    5.9062   15.0989 H   0  0  0  0  0
   -6.3674    3.0201   18.1020 H   0  0  0  0  0
   -6.0263   14.6305   25.2418 H   0  0  0  0  0
   -5.9678   15.4126   23.6875 H   0  0  0  0  0
   -1.0041    9.0629   24.9168 H   0  0  0  0  0
  2  1  1  0  0  0
  1  5  1  0  0  0
  1  6  1  0  0  0
  2  3  1  0  0  0
  7  2  1  0  0  0
  3  4  1  0  0  0
  4  5  1  0  0  0
  4 32  1  0  0  0
  6 10  2  0  0  0
  6 11  1  0  0  0
  8  7  1  0  0  0
  7  9  2  0  0  0
 18  8  1  0  0  0
 11 12  1  0  0  0
 12 16  4  0  0  0
 12 37  4  0  0  0
 14 13  4  0  0  0
 15 13  4  0  0  0
 13 17  1  0  0  0
 16 14  4  0  0  0
 37 15  4  0  0  0
 19 18  4  0  0  0
 23 18  4  0  0  0
 22 19  4  0  0  0
 20 21  4  0  0  0
 20 22  4  0  0  0
 24 20  1  0  0  0
 21 23  4  0  0  0
 23 31  1  0  0  0
 25 24  1  0  0  0
 24 29  1  0  0  0
 28 25  2  0  0  0
 26 27  2  0  0  0
 26 28  1  0  0  0
 27 29  1  0  0  0
 29 30  2  0  0  0
 32 33  1  0  0  0
 33 34  1  0  0  0
 33 35  1  0  0  0
 33 36  1  0  0  0
  1 38  1  0  0  0
  2 39  1  0  0  0
  3 40  1  0  0  0
  3 41  1  0  0  0
  4 42  1  0  0  0
  5 43  1  0  0  0
  5 44  1  0  0  0
  8 45  1  0  0  0
 11 46  1  0  0  0
 14 47  1  0  0  0
 15 48  1  0  0  0
 16 49  1  0  0  0
 19 50  1  0  0  0
 21 51  1  0  0  0
 22 52  1  0  0  0
 25 53  1  0  0  0
 26 54  1  0  0  0
 27 55  1  0  0  0
 28 56  1  0  0  0
 32 57  1  0  0  0
 32 58  1  0  0  0
 37 59  1  0  0  0
M  END
$$$$
