3ebb_ligand
  -I-interpret- 

 64 64  0  0  0  0  0  0  0  0999 V2000
    8.4020  -14.3700   33.6810 N   0  3  0  0  0
    9.2080  -14.6810   34.8950 C   0  0  0  0  0
   10.6930  -14.3150   34.7240 C   0  0  0  0  0
   11.4620  -14.2970   35.6940 O   0  0  0  0  0
    9.0610  -16.1650   35.2460 C   0  0  0  0  0
    9.0250  -16.4170   36.7540 C   0  0  0  0  0
    8.3940  -17.4210   37.1610 O   0  0  0  0  0
    9.6150  -15.6230   37.5290 O   0  0  0  0  0
   11.0860  -14.0170   33.4900 N   0  0  0  0  0
   12.4850  -13.7400   33.1640 C   0  0  0  0  0
   13.0690  -12.4520   33.7730 C   0  0  0  0  0
   14.2250  -12.4480   34.2100 O   0  0  0  0  0
   12.6700  -13.7380   31.6410 C   0  0  0  0  0
   13.0920  -15.0030   30.8720 C   0  0  0  0  0
   12.9670  -16.2920   31.6820 C   0  0  0  0  0
   12.3150  -15.0980   29.5740 C   0  0  0  0  0
   12.2770  -11.3780   33.8020 N   0  0  0  0  0
   12.7950  -10.0210   34.0590 C   0  0  0  0  0
   12.1860   -9.3340   35.2960 C   0  0  0  0  0
   11.1650   -9.7960   35.8110 O   0  0  0  0  0
   12.5770   -9.1440   32.8190 C   0  0  0  0  0
   13.2730   -9.6750   31.5900 C   0  0  0  0  0
   14.6530   -9.5160   31.4170 C   0  0  0  0  0
   12.5590  -10.3480   30.6040 C   0  0  0  0  0
   15.2970  -10.0190   30.2870 C   0  0  0  0  0
   13.1950  -10.8590   29.4720 C   0  0  0  0  0
   14.5570  -10.6910   29.3200 C   0  0  0  0  0
   15.1690  -11.1920   28.1920 O   0  0  0  0  0
   12.8020   -8.2470   35.7850 N   0  0  0  0  0
   14.1050   -7.7360   35.3050 C   0  0  0  0  0
   14.0590   -6.4160   34.5480 C   0  0  0  0  0
   13.0520   -5.6920   34.5710 O   0  0  0  0  0
   15.0655   -6.0510   33.8837 O   0  0  0  0  0
    8.5030  -13.3813   33.4514 H   0  0  0  0  0
    8.7327  -14.9371   32.9003 H   0  0  0  0  0
    7.4205  -14.5794   33.8632 H   0  0  0  0  0
    8.8237  -14.0693   35.7113 H   0  0  0  0  0
    9.9252  -16.6910   34.8404 H   0  0  0  0  0
    8.1179  -16.5152   34.8266 H   0  0  0  0  0
   10.0328  -14.9277   37.0156 H   0  0  0  0  0
   10.3894  -13.9802   32.7458 H   0  0  0  0  0
   13.0523  -14.5460   33.6293 H   0  0  0  0  0
   13.5021  -13.0517   31.4838 H   0  0  0  0  0
   11.6705  -13.5271   31.2607 H   0  0  0  0  0
   14.1560  -14.8991   30.6595 H   0  0  0  0  0
   13.5998  -16.2262   32.5671 H   0  0  0  0  0
   11.9291  -16.4298   31.9852 H   0  0  0  0  0
   13.2832  -17.1365   31.0697 H   0  0  0  0  0
   11.2484  -15.1478   29.7933 H   0  0  0  0  0
   12.5211  -14.2188   28.9635 H   0  0  0  0  0
   12.6187  -15.9955   29.0351 H   0  0  0  0  0
   11.2773  -11.5001   33.6406 H   0  0  0  0  0
   13.8573  -10.1377   34.2734 H   0  0  0  0  0
   12.9892   -8.1580   33.0336 H   0  0  0  0  0
   11.5072   -9.1234   32.6114 H   0  0  0  0  0
   15.2326   -8.9914   32.1766 H   0  0  0  0  0
   11.4828  -10.4786   30.7177 H   0  0  0  0  0
   16.3717   -9.8866   30.1626 H   0  0  0  0  0
   12.6198  -11.3878   28.7120 H   0  0  0  0  0
   14.5134  -11.6216   27.6377 H   0  0  0  0  0
   12.3406   -7.7382   36.5391 H   0  0  0  0  0
   14.4892   -8.4791   34.6061 H   0  0  0  0  0
   14.7137   -7.5616   36.1923 H   0  0  0  0  0
   15.7573   -6.7117   33.9641 H   0  0  0  0  0
  1  2  1  0  0  0
  2  3  1  0  0  0
  2  5  1  0  0  0
  3  4  2  0  0  0
  3  9  1  0  0  0
  5  6  1  0  0  0
  6  7  2  0  0  0
  6  8  1  0  0  0
  9 10  1  0  0  0
 10 11  1  0  0  0
 10 13  1  0  0  0
 11 12  2  0  0  0
 11 17  1  0  0  0
 13 14  1  0  0  0
 14 15  1  0  0  0
 14 16  1  0  0  0
 17 18  1  0  0  0
 18 19  1  0  0  0
 18 21  1  0  0  0
 19 20  2  0  0  0
 19 29  1  0  0  0
 21 22  1  0  0  0
 22 23  4  0  0  0
 22 24  4  0  0  0
 23 25  4  0  0  0
 24 26  4  0  0  0
 25 27  4  0  0  0
 26 27  4  0  0  0
 27 28  1  0  0  0
 29 30  1  0  0  0
 30 31  1  0  0  0
 31 32  2  0  0  0
 31 33  1  0  0  0
  1 34  1  0  0  0
  1 35  1  0  0  0
  1 36  1  0  0  0
  2 37  1  0  0  0
  5 38  1  0  0  0
  5 39  1  0  0  0
  8 40  1  0  0  0
  9 41  1  0  0  0
 10 42  1  0  0  0
 13 43  1  0  0  0
 13 44  1  0  0  0
 14 45  1  0  0  0
 15 46  1  0  0  0
 15 47  1  0  0  0
 15 48  1  0  0  0
 16 49  1  0  0  0
 16 50  1  0  0  0
 16 51  1  0  0  0
 17 52  1  0  0  0
 18 53  1  0  0  0
 21 54  1  0  0  0
 21 55  1  0  0  0
 23 56  1  0  0  0
 24 57  1  0  0  0
 25 58  1  0  0  0
 26 59  1  0  0  0
 28 60  1  0  0  0
 29 61  1  0  0  0
 30 62  1  0  0  0
 30 63  1  0  0  0
 33 64  1  0  0  0
M  END
$$$$
