6ppy_ligand
  -I-interpret- 

 42 41  0  0  0  0  0  0  0  0999 V2000
  -21.6420   24.8580  -14.5820 C   0  0  0  0  0
  -22.8690   25.1710  -15.4620 C   0  0  0  0  0
  -20.8180   23.3950  -12.6510 C   0  0  0  0  0
  -21.3970   23.4290  -11.2090 C   0  0  0  0  0
  -21.8890   24.8310  -10.8220 C   0  0  0  0  0
  -22.5880   25.1170   -9.4950 C   0  0  0  0  0
  -22.6930   26.6200   -9.2910 C   0  0  0  0  0
  -20.4480   21.9520  -13.0670 C   0  0  0  0  0
  -19.8090   21.9370  -14.4560 C   0  0  0  0  0
  -19.0220   20.7400  -14.9350 C   0  0  0  0  0
  -17.5720   20.5340  -14.4800 C   0  0  0  0  0
  -21.7960   23.9030  -13.6300 N   0  0  0  0  0
  -19.4730   19.8700  -15.7590 N   0  0  0  0  0
  -20.5490   25.4580  -14.7410 O   0  0  0  0  0
  -20.4150   23.0510  -10.2300 O   0  0  0  0  0
  -20.7670   25.7360  -10.8760 O   0  0  0  0  0
  -23.8790   24.5110   -9.6890 O   0  0  0  0  0
  -23.9370   26.9000   -8.6050 O   0  0  0  0  0
  -21.6410   21.1730  -13.0860 O   0  0  0  0  0
  -17.3010   21.0710  -13.3610 O   0  0  0  0  0
  -16.8190   19.9090  -15.2270 O   0  0  0  0  0
  -20.8360   20.0500  -16.2190 O   0  0  0  0  0
  -23.1413   26.2198  -15.3437 H   0  0  0  0  0
  -22.6259   24.9729  -16.5059 H   0  0  0  0  0
  -23.7041   24.5408  -15.1562 H   0  0  0  0  0
  -19.9297   24.0266  -12.6451 H   0  0  0  0  0
  -22.2257   22.7210  -11.2151 H   0  0  0  0  0
  -22.6920   24.9544  -11.5487 H   0  0  0  0  0
  -22.0735   24.7321   -8.6145 H   0  0  0  0  0
  -22.6741   27.1302  -10.2540 H   0  0  0  0  0
  -21.8507   26.9765   -8.6981 H   0  0  0  0  0
  -19.7308   21.5420  -12.3560 H   0  0  0  0  0
  -19.0731   22.7401  -14.4179 H   0  0  0  0  0
  -20.6573   21.9869  -15.1386 H   0  0  0  0  0
  -22.7210   23.4755  -13.5856 H   0  0  0  0  0
  -20.0798   22.1753  -10.4362 H   0  0  0  0  0
  -20.2867   25.5998  -11.6960 H   0  0  0  0  0
  -23.7718   23.5652   -9.8139 H   0  0  0  0  0
  -24.0195   27.8466   -8.4679 H   0  0  0  0  0
  -22.0420   21.1826  -12.2138 H   0  0  0  0  0
  -18.0899   21.4895  -13.0088 H   0  0  0  0  0
  -21.0630   19.3434  -16.8279 H   0  0  0  0  0
  1  2  1  0  0  0
 12  1  1  0  0  0
  1 14  2  0  0  0
  3  4  1  0  0  0
  3  8  1  0  0  0
  3 12  1  0  0  0
  4  5  1  0  0  0
  4 15  1  0  0  0
  5  6  1  0  0  0
  5 16  1  0  0  0
  6  7  1  0  0  0
  6 17  1  0  0  0
  7 18  1  0  0  0
  8  9  1  0  0  0
  8 19  1  0  0  0
  9 10  1  0  0  0
 10 11  1  0  0  0
 10 13  2  0  0  0
 11 20  1  0  0  0
 11 21  2  0  0  0
 13 22  1  0  0  0
  2 23  1  0  0  0
  2 24  1  0  0  0
  2 25  1  0  0  0
  3 26  1  0  0  0
  4 27  1  0  0  0
  5 28  1  0  0  0
  6 29  1  0  0  0
  7 30  1  0  0  0
  7 31  1  0  0  0
  8 32  1  0  0  0
  9 33  1  0  0  0
  9 34  1  0  0  0
 12 35  1  0  0  0
 15 36  1  0  0  0
 16 37  1  0  0  0
 17 38  1  0  0  0
 18 39  1  0  0  0
 19 40  1  0  0  0
 20 41  1  0  0  0
 22 42  1  0  0  0
M  END
$$$$
