1ga8_ligand
  -I-interpret- 

 44 45  0  0  0  0  0  0  0  0999 V2000
   22.0250   53.8210   65.7730 C   0  0  0  0  0
   22.2850   52.4600   65.2110 C   0  0  0  0  0
   22.3020   51.4870   66.3830 C   0  0  0  0  0
   23.4690   51.8960   67.3350 C   0  0  0  0  0
   23.3490   53.1940   67.9100 C   0  0  0  0  0
   24.3150   53.6290   68.7050 C   0  0  0  0  0
   21.7810   55.0960   65.1450 O   0  0  0  0  0
   21.2400   52.1370   64.3110 O   0  0  0  0  0
   22.5470   50.2100   65.8510 O   0  0  0  0  0
   23.0970   54.1580   66.7490 O   0  0  0  0  0
   24.6960   52.8350   69.8700 O   0  0  0  0  0
   21.0220   59.1670   65.1150 C   0  0  0  0  0
   22.2330   58.7350   66.0030 C   0  0  0  0  0
   22.7010   57.3390   65.5460 C   0  0  0  0  0
   21.5020   56.4040   65.7220 C   0  0  0  0  0
   20.2600   56.8190   64.8730 C   0  0  0  0  0
   19.0260   55.9150   65.0600 C   0  0  0  0  0
   20.5870   60.4390   65.5360 O   0  0  0  0  0
   23.2910   59.6660   65.8500 O   0  0  0  0  0
   23.8170   56.9390   66.3790 O   0  0  0  0  0
   19.9380   58.1860   65.2550 O   0  0  0  0  0
   18.1150   56.1080   63.9880 O   0  0  0  0  0
   20.9962   53.5367   65.9938 H   0  0  0  0  0
   23.2327   52.4143   64.6744 H   0  0  0  0  0
   21.3635   51.4954   66.9373 H   0  0  0  0  0
   24.3786   51.9004   66.7345 H   0  0  0  0  0
   23.4663   51.1843   68.1605 H   0  0  0  0  0
   22.5265   53.1338   68.6227 H   0  0  0  0  0
   23.9350   54.5634   69.1180 H   0  0  0  0  0
   25.2055   53.6452   68.0767 H   0  0  0  0  0
   21.2447   52.7596   63.5802 H   0  0  0  0  0
   21.8261   49.9643   65.2666 H   0  0  0  0  0
   25.4040   53.2800   70.3415 H   0  0  0  0  0
   21.3181   59.2121   64.0669 H   0  0  0  0  0
   21.9366   58.7051   67.0515 H   0  0  0  0  0
   23.0342   57.3194   64.5083 H   0  0  0  0  0
   21.3197   56.4256   66.7964 H   0  0  0  0  0
   20.5171   56.7204   63.8183 H   0  0  0  0  0
   18.5340   56.1698   65.9987 H   0  0  0  0  0
   19.3445   54.8727   65.0764 H   0  0  0  0  0
   19.8422   60.7158   64.9972 H   0  0  0  0  0
   24.0332   59.3979   66.3966 H   0  0  0  0  0
   24.1219   56.0700   66.1079 H   0  0  0  0  0
   17.3504   55.5412   64.1133 H   0  0  0  0  0
  1  2  1  0  0  0
  7  1  1  0  0  0
  1 10  1  0  0  0
  2  3  1  0  0  0
  2  8  1  0  0  0
  3  4  1  0  0  0
  3  9  1  0  0  0
  5  4  1  0  0  0
  5  6  1  0  0  0
 10  5  1  0  0  0
  6 11  1  0  0  0
 15  7  1  0  0  0
 13 12  1  0  0  0
 12 18  1  0  0  0
 12 21  1  0  0  0
 14 13  1  0  0  0
 13 19  1  0  0  0
 14 15  1  0  0  0
 14 20  1  0  0  0
 15 16  1  0  0  0
 16 17  1  0  0  0
 16 21  1  0  0  0
 17 22  1  0  0  0
  1 23  1  0  0  0
  2 24  1  0  0  0
  3 25  1  0  0  0
  4 26  1  0  0  0
  4 27  1  0  0  0
  5 28  1  0  0  0
  6 29  1  0  0  0
  6 30  1  0  0  0
  8 31  1  0  0  0
  9 32  1  0  0  0
 11 33  1  0  0  0
 12 34  1  0  0  0
 13 35  1  0  0  0
 14 36  1  0  0  0
 15 37  1  0  0  0
 16 38  1  0  0  0
 17 39  1  0  0  0
 17 40  1  0  0  0
 18 41  1  0  0  0
 19 42  1  0  0  0
 20 43  1  0  0  0
 22 44  1  0  0  0
M  END
$$$$
