6iuo_ligand
  -I-interpret- 

 58 62  0  0  0  0  0  0  0  0999 V2000
  -27.6680   -1.0870   21.4870 C   0  0  0  0  0
  -27.5570   -2.0970   20.3740 C   0  0  0  0  0
  -26.7270   -1.5180   19.2450 C   0  0  0  0  0
  -25.5140   -1.3840   19.3900 O   0  0  0  0  0
  -27.3920   -1.1610   18.1400 N   0  0  0  0  0
  -26.7220   -0.6070   16.9690 C   0  0  0  0  0
  -26.5760    0.9120   16.9930 C   0  0  0  0  0
  -26.5990    1.6600   18.1730 C   0  0  0  0  0
  -26.4720    3.0230   18.1430 C   0  0  0  0  0
  -26.2730    3.7200   16.9830 C   0  0  0  0  0
  -26.2490    2.9670   15.7950 C   0  0  0  0  0
  -26.4030    1.5830   15.7790 C   0  0  0  0  0
  -26.1710    5.0350   16.8550 N   0  0  0  0  0
  -25.0660    5.7550   16.8090 C   0  0  0  0  0
  -25.3840    7.1260   16.5280 C   0  0  0  0  0
  -26.8280    7.0410   16.3120 C   0  0  0  0  0
  -27.2810    5.7900   16.4470 N   0  0  0  0  0
  -27.4480    8.2800   15.9920 C   0  0  0  0  0
  -26.7730    9.4190   15.8730 N   0  0  0  0  0
  -25.3830    9.5220   16.0630 N   0  0  0  0  0
  -24.7290    8.4020   16.3920 C   0  0  0  0  0
  -28.6270    8.2380   15.7700 O   0  0  0  0  0
  -23.3360    8.4710   16.5680 N   0  0  0  0  0
  -23.7330    5.3420   17.1670 C   0  0  0  0  0
  -22.7440    4.6400   16.3140 C   0  0  0  0  0
  -21.5690    4.4790   17.2270 C   0  0  0  0  0
  -22.0430    5.1480   18.4690 C   0  0  0  0  0
  -23.2850    5.6430   18.4090 O   0  0  0  0  0
  -22.7490    4.1400   14.9050 C   0  0  0  0  0
  -20.2880    3.9400   17.1750 C   0  0  0  0  0
  -19.4960    4.0470   18.3250 C   0  0  0  0  0
  -19.9470    4.6520   19.4830 C   0  0  0  0  0
  -21.2070    5.2040   19.5630 C   0  0  0  0  0
  -18.1150    3.5020   18.3720 C   0  0  0  0  0
  -26.6716   -0.8440   21.8561 H   0  0  0  0  0
  -28.1474   -0.1837   21.1097 H   0  0  0  0  0
  -28.2650   -1.5054   22.2974 H   0  0  0  0  0
  -28.5531   -2.3403   20.0042 H   0  0  0  0  0
  -27.0773   -3.0005   20.7505 H   0  0  0  0  0
  -28.4047   -1.2807   18.1158 H   0  0  0  0  0
  -27.3312   -0.8581   16.1007 H   0  0  0  0  0
  -25.7163   -1.0267   16.9450 H   0  0  0  0  0
  -26.7196    1.1519   19.1298 H   0  0  0  0  0
  -26.5319    3.5748   19.0811 H   0  0  0  0  0
  -26.1040    3.4879   14.8486 H   0  0  0  0  0
  -26.3889    1.0335   14.8378 H   0  0  0  0  0
  -27.2908   10.2638   15.6309 H   0  0  0  0  0
  -24.8952   10.4112   15.9547 H   0  0  0  0  0
  -22.8073    7.6269   16.7879 H   0  0  0  0  0
  -23.5465    3.4070   14.7838 H   0  0  0  0  0
  -22.9152    4.9755   14.2249 H   0  0  0  0  0
  -21.7889    3.6743   14.6827 H   0  0  0  0  0
  -19.9149    3.4531   16.2740 H   0  0  0  0  0
  -19.2911    4.6934   20.3526 H   0  0  0  0  0
  -21.5399    5.6813   20.4846 H   0  0  0  0  0
  -18.1433    2.4278   18.1890 H   0  0  0  0  0
  -17.5084    3.9864   17.6068 H   0  0  0  0  0
  -17.6835    3.6933   19.3545 H   0  0  0  0  0
  1  2  1  0  0  0
  2  3  1  0  0  0
  3  4  2  0  0  0
  3  5  1  0  0  0
  5  6  1  0  0  0
  6  7  1  0  0  0
  7  8  4  0  0  0
  7 12  4  0  0  0
  8  9  4  0  0  0
  9 10  4  0  0  0
 10 11  4  0  0  0
 10 13  1  0  0  0
 11 12  4  0  0  0
 13 14  4  0  0  0
 13 17  4  0  0  0
 14 15  4  0  0  0
 14 24  1  0  0  0
 15 16  4  0  0  0
 15 21  1  0  0  0
 16 17  4  0  0  0
 16 18  1  0  0  0
 18 19  1  0  0  0
 18 22  2  0  0  0
 19 20  1  0  0  0
 20 21  1  0  0  0
 21 23  2  0  0  0
 24 25  4  0  0  0
 24 28  4  0  0  0
 25 26  4  0  0  0
 25 29  1  0  0  0
 26 27  4  0  0  0
 26 30  4  0  0  0
 27 28  4  0  0  0
 27 33  4  0  0  0
 30 31  4  0  0  0
 31 32  4  0  0  0
 31 34  1  0  0  0
 32 33  4  0  0  0
  1 35  1  0  0  0
  1 36  1  0  0  0
  1 37  1  0  0  0
  2 38  1  0  0  0
  2 39  1  0  0  0
  5 40  1  0  0  0
  6 41  1  0  0  0
  6 42  1  0  0  0
  8 43  1  0  0  0
  9 44  1  0  0  0
 11 45  1  0  0  0
 12 46  1  0  0  0
 19 47  1  0  0  0
 20 48  1  0  0  0
 23 49  1  0  0  0
 29 50  1  0  0  0
 29 51  1  0  0  0
 29 52  1  0  0  0
 30 53  1  0  0  0
 32 54  1  0  0  0
 33 55  1  0  0  0
 34 56  1  0  0  0
 34 57  1  0  0  0
 34 58  1  0  0  0
M  END
$$$$
