1f2o_ligand
  -I-interpret- 

 23 22  0  0  0  0  0  0  0  0999 V2000
   16.2930   15.9070   52.1230 N   0  3  0  0  0
   15.1210   16.7720   51.8040 C   0  0  0  0  0
   13.8650   15.9750   51.5170 C   0  0  0  0  0
   12.8080   16.5760   51.6430 O   0  0  0  0  0
   15.3950   17.6570   50.5750 C   0  0  0  0  0
   16.4070   18.7980   50.6320 C   0  0  0  0  0
   16.3980   19.3950   52.0650 C   0  0  0  0  0
   17.7920   18.2470   50.2100 C   0  0  0  0  0
   13.8770   14.7860   51.2110 O   0  0  0  0  0
   16.0794   15.3348   52.9399 H   0  0  0  0  0
   16.4948   15.3027   51.3265 H   0  0  0  0  0
   17.1036   16.4939   52.3200 H   0  0  0  0  0
   14.9659   17.3824   52.6936 H   0  0  0  0  0
   14.4440   18.1582   50.3950 H   0  0  0  0  0
   15.8173   16.9677   49.8439 H   0  0  0  0  0
   16.1543   19.6046   49.9437 H   0  0  0  0  0
   16.6780   18.6222   52.7809 H   0  0  0  0  0
   17.1110   20.2177   52.1190 H   0  0  0  0  0
   15.3987   19.7628   52.2977 H   0  0  0  0  0
   18.5256   19.0527   50.2366 H   0  0  0  0  0
   18.0926   17.4573   50.8986 H   0  0  0  0  0
   17.7288   17.8447   49.1989 H   0  0  0  0  0
   14.7853   14.4798   51.1569 H   0  0  0  0  0
  2  3  1  0  0  0
  2  5  1  0  0  0
  2  1  1  0  0  0
  5  6  1  0  0  0
  6  8  1  0  0  0
  6  7  1  0  0  0
  3  9  1  0  0  0
  3  4  2  0  0  0
  1 10  1  0  0  0
  1 11  1  0  0  0
  1 12  1  0  0  0
  2 13  1  0  0  0
  5 14  1  0  0  0
  5 15  1  0  0  0
  6 16  1  0  0  0
  7 17  1  0  0  0
  7 18  1  0  0  0
  7 19  1  0  0  0
  8 20  1  0  0  0
  8 21  1  0  0  0
  8 22  1  0  0  0
  9 23  1  0  0  0
M  END
$$$$
