6prt_ligand
  -I-interpret- 

 25 25  0  0  0  0  0  0  0  0999 V2000
  -14.3310    4.7810    0.0570 C   0  0  0  0  0
  -12.8660    3.2730    1.4460 C   0  0  0  0  0
  -12.2330    5.6890    0.6410 C   0  0  0  0  0
  -12.8230    6.6010   -0.4890 C   0  0  0  0  0
  -12.0270    6.4530   -1.8310 C   0  0  0  0  0
  -10.7090    7.1570   -1.8330 C   0  0  0  0  0
   -8.3370    7.1890   -0.9970 C   0  0  0  0  0
  -14.2570    6.1690   -0.5060 C   0  0  0  0  0
  -13.1290    4.5080    0.7340 N   0  0  0  0  0
  -15.2660    4.0160   -0.0060 O   0  0  0  0  0
   -9.6450    6.4520   -1.2810 O   0  0  0  0  0
  -10.4990    8.2600   -2.2580 O   0  0  0  0  0
  -11.9686    2.8055    1.0407 H   0  0  0  0  0
  -12.7183    3.4895    2.5040 H   0  0  0  0  0
  -13.7140    2.5987    1.3267 H   0  0  0  0  0
  -12.1869    6.2219    1.5908 H   0  0  0  0  0
  -11.2113    5.3886    0.4088 H   0  0  0  0  0
  -12.7415    7.6756   -0.3256 H   0  0  0  0  0
  -12.6340    6.8985   -2.6191 H   0  0  0  0  0
  -11.8278    5.3910   -1.9747 H   0  0  0  0  0
   -7.9423    7.5976   -1.9272 H   0  0  0  0  0
   -8.5238    7.9998   -0.2928 H   0  0  0  0  0
   -7.6151    6.4935   -0.5690 H   0  0  0  0  0
  -14.8621    6.8502    0.0922 H   0  0  0  0  0
  -14.6417    6.1822   -1.5258 H   0  0  0  0  0
  1  8  1  0  0  0
  9  1  1  0  0  0
  1 10  2  0  0  0
  9  2  1  0  0  0
  3  4  1  0  0  0
  3  9  1  0  0  0
  4  5  1  0  0  0
  4  8  1  0  0  0
  5  6  1  0  0  0
  6 11  1  0  0  0
  6 12  2  0  0  0
 11  7  1  0  0  0
  2 13  1  0  0  0
  2 14  1  0  0  0
  2 15  1  0  0  0
  3 16  1  0  0  0
  3 17  1  0  0  0
  4 18  1  0  0  0
  5 19  1  0  0  0
  5 20  1  0  0  0
  7 21  1  0  0  0
  7 22  1  0  0  0
  7 23  1  0  0  0
  8 24  1  0  0  0
  8 25  1  0  0  0
M  END
$$$$
