6cdj_ligand
  -I-interpret- 

 91 97  0  0  0  0  0  0  0  0999 V2000
   11.7240   16.8090   18.1670 S   0  0  0  0  0
   11.2370   17.4570   20.5660 N   0  0  0  0  0
   10.7790   16.6640   19.6430 C   0  0  0  0  0
    9.7550   15.8700   19.7610 N   0  0  0  0  0
    9.3710   14.9640   18.6860 C   0  0  0  0  0
    7.8540   14.9210   18.5500 C   0  0  0  0  0
    8.6840   15.6090   17.5010 C   0  0  0  0  0
   12.2900   18.1840   20.2310 C   0  0  0  0  0
   12.7800   17.9700   18.9480 C   0  0  0  0  0
   13.8650   18.5970   18.4610 C   0  0  0  0  0
   14.5120   19.5320   19.2620 C   0  0  0  0  0
   14.0720   19.7700   20.5600 C   0  0  0  0  0
   12.9880   19.0300   21.0280 C   0  0  0  0  0
   15.8410   20.4560   18.5900 S   0  0  0  0  0
   16.7030   20.8950   19.6740 O   0  0  0  0  0
   16.4590   19.6520   17.5150 O   0  0  0  0  0
   15.2620   21.8160   17.8740 N   0  0  0  0  0
   14.3010   21.6270   16.8040 C   0  0  0  0  0
   14.4630   22.6620   15.6710 C   0  0  0  0  0
   15.8750   22.4990   15.0920 C   0  0  0  0  0
   13.4000   22.3750   14.6090 C   0  0  0  0  0
   15.0280   22.9500   18.7510 C   0  0  0  0  0
   15.9390   24.1320   18.4070 C   0  0  0  0  0
   15.4960   25.3170   19.0710 O   0  0  0  0  0
   17.4020   23.8650   18.6860 C   0  0  0  0  0
   18.2400   24.8090   17.9210 N   0  0  0  0  0
   19.2350   24.3790   17.1450 C   0  0  0  0  0
   19.3540   23.1970   16.7740 O   0  0  0  0  0
   20.0330   25.3430   16.6640 O   0  0  0  0  0
   21.2480   24.8980   16.0630 C   0  0  0  0  0
   21.8230   25.9370   15.1380 C   0  0  0  0  0
   22.6180   26.8990   15.9770 C   0  0  0  0  0
   22.0110   28.2270   16.2810 C   0  0  0  0  0
   21.2730   28.0380   17.5060 O   0  0  0  0  0
   21.9520   27.0760   18.3030 C   0  0  0  0  0
   22.7580   26.2370   17.3360 C   0  0  0  0  0
   22.3290   24.7970   17.1340 C   0  0  0  0  0
   20.8450   26.6220   14.1860 C   0  0  0  0  0
   20.1460   27.7610   14.9000 C   0  0  0  0  0
   21.1420   28.7520   15.2720 O   0  0  0  0  0
   17.7430   23.9010   20.1650 C   0  0  0  0  0
   20.0880   24.6310   20.8110 C   0  0  0  0  0
   21.4600   24.3790   20.8820 C   0  0  0  0  0
   21.9660   23.0900   20.7650 C   0  0  0  0  0
   21.0450   22.1300   20.3880 C   0  0  0  0  0
   19.6990   22.3770   20.2510 C   0  0  0  0  0
   19.2010   23.6440   20.4500 C   0  0  0  0  0
   22.3290   25.3660   21.2100 F   0  0  0  0  0
   21.5190   20.8860   20.1530 F   0  0  0  0  0
    9.2101   15.8819   20.6232 H   0  0  0  0  0
   10.1945   14.2560   18.7793 H   0  0  0  0  0
    6.9726   15.1243   19.1582 H   0  0  0  0  0
    7.0487   14.1884   18.6047 H   0  0  0  0  0
    8.7759   15.6180   16.4149 H   0  0  0  0  0
    8.6990   16.5629   16.9738 H   0  0  0  0  0
   14.2305   18.3769   17.4580 H   0  0  0  0  0
   14.5601   20.5124   21.1915 H   0  0  0  0  0
   12.6908   19.1350   22.0714 H   0  0  0  0  0
   13.3026   21.7445   17.2253 H   0  0  0  0  0
   14.4628   20.6364   16.3790 H   0  0  0  0  0
   14.3357   23.6839   16.0283 H   0  0  0  0  0
   16.6107   22.6755   15.8767 H   0  0  0  0  0
   15.9923   21.4875   14.7031 H   0  0  0  0  0
   16.0213   23.2186   14.2865 H   0  0  0  0  0
   13.5400   21.3665   14.2199 H   0  0  0  0  0
   12.4095   22.4590   15.0562 H   0  0  0  0  0
   13.4957   23.0957   13.7969 H   0  0  0  0  0
   15.2393   22.6410   19.7747 H   0  0  0  0  0
   13.9927   23.2687   18.6303 H   0  0  0  0  0
   15.8626   24.2786   17.3296 H   0  0  0  0  0
   16.0778   26.0461   18.8441 H   0  0  0  0  0
   17.6135   22.8476   18.3571 H   0  0  0  0  0
   18.0542   25.8097   17.9874 H   0  0  0  0  0
   21.0092   23.9637   15.5549 H   0  0  0  0  0
   22.4646   25.4198   14.4246 H   0  0  0  0  0
   23.5201   27.0973   15.3983 H   0  0  0  0  0
   22.8117   28.9635   16.3480 H   0  0  0  0  0
   21.2507   26.4643   18.8705 H   0  0  0  0  0
   22.5931   27.5548   19.0432 H   0  0  0  0  0
   23.7590   26.1920   17.7651 H   0  0  0  0  0
   23.1552   24.1516   16.8358 H   0  0  0  0  0
   21.9670   24.3349   18.0524 H   0  0  0  0  0
   20.1028   25.8981   13.8496 H   0  0  0  0  0
   21.3920   27.0155   13.3292 H   0  0  0  0  0
   19.6413   27.3878   15.7911 H   0  0  0  0  0
   19.4009   28.2104   14.2435 H   0  0  0  0  0
   17.1690   23.1137   20.6537 H   0  0  0  0  0
   17.5077   24.9000   20.5321 H   0  0  0  0  0
   19.7138   25.6274   21.0458 H   0  0  0  0  0
   23.0126   22.8530   20.9565 H   0  0  0  0  0
   19.0232   21.5647   19.9834 H   0  0  0  0  0
  1  3  4  0  0  0
  9  1  4  0  0  0
  2  3  4  0  0  0
  8  2  4  0  0  0
  3  4  1  0  0  0
  4  5  1  0  0  0
  5  6  1  0  0  0
  5  7  1  0  0  0
  7  6  1  0  0  0
  9  8  4  0  0  0
 13  8  4  0  0  0
 10  9  4  0  0  0
 11 10  4  0  0  0
 11 12  4  0  0  0
 14 11  1  0  0  0
 12 13  4  0  0  0
 14 15  2  0  0  0
 14 16  2  0  0  0
 17 14  1  0  0  0
 17 18  1  0  0  0
 22 17  1  0  0  0
 18 19  1  0  0  0
 19 20  1  0  0  0
 19 21  1  0  0  0
 23 22  1  0  0  0
 23 24  1  0  0  0
 25 23  1  0  0  0
 25 26  1  0  0  0
 41 25  1  0  0  0
 26 27  1  0  0  0
 27 28  2  0  0  0
 27 29  1  0  0  0
 29 30  1  0  0  0
 30 31  1  0  0  0
 30 37  1  0  0  0
 31 32  1  0  0  0
 31 38  1  0  0  0
 32 33  1  0  0  0
 36 32  1  0  0  0
 33 34  1  0  0  0
 33 40  1  0  0  0
 35 34  1  0  0  0
 36 35  1  0  0  0
 37 36  1  0  0  0
 38 39  1  0  0  0
 39 40  1  0  0  0
 47 41  1  0  0  0
 42 43  4  0  0  0
 42 47  4  0  0  0
 43 44  4  0  0  0
 43 48  1  0  0  0
 44 45  4  0  0  0
 45 46  4  0  0  0
 45 49  1  0  0  0
 46 47  4  0  0  0
  4 50  1  0  0  0
  5 51  1  0  0  0
  6 52  1  0  0  0
  6 53  1  0  0  0
  7 54  1  0  0  0
  7 55  1  0  0  0
 10 56  1  0  0  0
 12 57  1  0  0  0
 13 58  1  0  0  0
 18 59  1  0  0  0
 18 60  1  0  0  0
 19 61  1  0  0  0
 20 62  1  0  0  0
 20 63  1  0  0  0
 20 64  1  0  0  0
 21 65  1  0  0  0
 21 66  1  0  0  0
 21 67  1  0  0  0
 22 68  1  0  0  0
 22 69  1  0  0  0
 23 70  1  0  0  0
 24 71  1  0  0  0
 25 72  1  0  0  0
 26 73  1  0  0  0
 30 74  1  0  0  0
 31 75  1  0  0  0
 32 76  1  0  0  0
 33 77  1  0  0  0
 35 78  1  0  0  0
 35 79  1  0  0  0
 36 80  1  0  0  0
 37 81  1  0  0  0
 37 82  1  0  0  0
 38 83  1  0  0  0
 38 84  1  0  0  0
 39 85  1  0  0  0
 39 86  1  0  0  0
 41 87  1  0  0  0
 41 88  1  0  0  0
 42 89  1  0  0  0
 44 90  1  0  0  0
 46 91  1  0  0  0
M  END
$$$$
