1hty_ligand
  -I-interpret- 

 22 21  0  0  0  0  0  0  0  0999 V2000
   14.8810   61.1260   10.2450 C   0  0  0  0  0
   16.3240   61.1700   10.6310 C   0  0  0  0  0
   16.9880   60.0560    9.9950 O   0  0  0  0  0
   16.9740   62.4410   10.1530 C   0  0  0  0  0
   16.4490   61.0050   12.1700 C   0  0  0  0  0
   17.8170   60.6420   12.7500 C   0  0  0  0  0
   17.6760   59.6730   13.7670 O   0  0  0  0  0
   18.4630   61.8600   13.3990 C   0  0  0  0  0
   14.4548   60.1689   10.5458 H   0  0  0  0  0
   14.3479   61.9354   10.7438 H   0  0  0  0  0
   14.7915   61.2417    9.1649 H   0  0  0  0  0
   16.9184   60.1453    9.0417 H   0  0  0  0  0
   16.4937   63.2951   10.6305 H   0  0  0  0  0
   18.0326   62.4260   10.4123 H   0  0  0  0  0
   16.8647   62.5189    9.0713 H   0  0  0  0  0
   15.7985   60.1677   12.4229 H   0  0  0  0  0
   16.2124   61.9851   12.5841 H   0  0  0  0  0
   18.4276   60.2670   11.9287 H   0  0  0  0  0
   17.2706   58.8834   13.4012 H   0  0  0  0  0
   17.8213   62.2263   14.2004 H   0  0  0  0  0
   19.4337   61.5801   13.8082 H   0  0  0  0  0
   18.5944   62.6418   12.6510 H   0  0  0  0  0
  1  2  1  0  0  0
  2  3  1  0  0  0
  2  4  1  0  0  0
  2  5  1  0  0  0
  5  6  1  0  0  0
  6  7  1  0  0  0
  6  8  1  0  0  0
  1  9  1  0  0  0
  1 10  1  0  0  0
  1 11  1  0  0  0
  3 12  1  0  0  0
  4 13  1  0  0  0
  4 14  1  0  0  0
  4 15  1  0  0  0
  5 16  1  0  0  0
  5 17  1  0  0  0
  6 18  1  0  0  0
  7 19  1  0  0  0
  8 20  1  0  0  0
  8 21  1  0  0  0
  8 22  1  0  0  0
M  END
$$$$
