5l4h_ligand
  -I-interpret- 

 25 25  0  0  0  0  0  0  0  0999 V2000
   63.0330  -27.2680   53.9470 C   0  0  0  0  0
   61.9370  -24.7900   53.5650 O   0  0  0  0  0
   62.3750  -24.0470   55.6290 N   0  0  0  0  0
   59.0730  -25.9560   51.6650 Br  0  0  0  0  0
   62.0260  -27.4370   55.0680 C   0  0  0  0  0
   61.1600  -26.1860   55.3440 C   0  0  0  0  0
   59.7950  -26.2630   54.6230 C   0  0  0  0  0
   59.9660  -26.8090   53.2260 C   0  0  0  0  0
   61.8850  -24.9870   54.7680 C   0  0  0  0  0
   62.2130  -24.0250   56.9870 C   0  0  0  0  0
   60.9430  -26.1070   56.8460 C   0  0  0  0  0
   60.3240  -26.9690   57.4540 O   0  0  0  0  0
   61.4920  -25.0560   57.5270 N   0  0  0  0  0
   62.6500  -23.1100   57.6730 O   0  0  0  0  0
   62.5080  -27.0338   53.0209 H   0  0  0  0  0
   63.7167  -26.4558   54.1939 H   0  0  0  0  0
   63.5956  -28.1933   53.8232 H   0  0  0  0  0
   62.9156  -23.2856   55.2186 H   0  0  0  0  0
   62.5913  -27.6412   55.9773 H   0  0  0  0  0
   61.3472  -28.2361   54.7700 H   0  0  0  0  0
   59.3691  -25.2615   54.5624 H   0  0  0  0  0
   59.1348  -26.9246   55.1838 H   0  0  0  0  0
   61.0289  -26.6790   53.0226 H   0  0  0  0  0
   59.5156  -27.8003   53.2756 H   0  0  0  0  0
   61.3504  -25.0384   58.5370 H   0  0  0  0  0
  5  1  1  0  0  0
  9  2  2  0  0  0
  9  3  1  0  0  0
  3 10  1  0  0  0
  8  4  1  0  0  0
  6  5  1  0  0  0
  7  6  1  0  0  0
  6  9  1  0  0  0
  6 11  1  0  0  0
  7  8  1  0  0  0
 10 13  1  0  0  0
 10 14  2  0  0  0
 11 12  2  0  0  0
 11 13  1  0  0  0
  1 15  1  0  0  0
  1 16  1  0  0  0
  1 17  1  0  0  0
  3 18  1  0  0  0
  5 19  1  0  0  0
  5 20  1  0  0  0
  7 21  1  0  0  0
  7 22  1  0  0  0
  8 23  1  0  0  0
  8 24  1  0  0  0
 13 25  1  0  0  0
M  END
$$$$
