1waw_ligand
  -I-interpret- 

 88 91  0  0  0  0  0  0  0  0999 V2000
   14.0440  -10.7180   23.0850 C   0  0  0  0  0
   13.7000  -11.5630   21.8570 C   0  0  0  0  0
   14.3330  -12.5890   21.6080 O   0  0  0  0  0
   12.7120  -11.1500   21.0510 N   0  0  0  0  0
   12.3250  -11.7960   19.9540 C   0  0  0  0  0
   12.8780  -12.9550   19.6010 N   0  0  0  0  0
   11.3400  -11.2680   19.2330 N   0  0  0  0  0
   10.8560  -11.8930   17.9940 C   0  0  0  0  0
    9.8100  -10.9720   17.3610 C   0  0  0  0  0
    8.5650  -10.8950   18.2480 C   0  0  0  0  0
    7.5480   -9.8630   17.7540 C   0  0  0  0  0
    7.9460   -8.5170   18.1970 N   0  0  0  0  0
    7.2230   -7.4540   17.8510 C   0  0  0  0  0
    6.2030   -7.5400   17.1700 O   0  0  0  0  0
    6.2010  -10.1980   18.4010 C   0  0  0  0  0
    6.0820  -10.1100   19.6220 O   0  0  0  0  0
    5.1600  -10.5640   17.6540 N   0  0  0  0  0
    5.0250  -10.7430   16.1980 C   0  0  0  0  0
    3.5200  -10.9040   15.9800 C   0  0  0  0  0
    3.1930  -11.7490   17.2110 C   0  0  0  0  0
    3.8800  -10.9160   18.2960 C   0  0  0  0  0
    2.9900   -9.7120   18.6280 C   0  0  0  0  0
    1.8110   -9.9000   18.9260 O   0  0  0  0  0
    3.5390   -8.5000   18.6280 N   0  0  0  0  0
    2.7030   -7.3270   18.9330 C   0  0  0  0  0
    3.3330   -6.0530   18.3720 C   0  0  0  0  0
    3.3810   -5.7970   17.1700 O   0  0  0  0  0
    2.6120   -7.0030   20.4250 C   0  0  0  0  0
    3.7060   -5.9520   20.6270 C   0  0  0  0  0
    4.9380   -6.5460   21.0450 O   0  0  0  0  0
    3.8770   -5.2930   19.3230 N   0  0  0  0  0
    4.5100   -4.0210   18.9420 C   0  0  0  0  0
    4.6740   -3.1100   20.1620 C   0  0  0  0  0
    4.7580   -1.6260   19.7880 C   0  0  0  0  0
    5.1780   -1.1070   18.6380 C   0  0  0  0  0
    5.0700    0.2180   18.7160 N   0  0  0  0  0
    4.5830    0.5180   19.9160 C   0  0  0  0  0
    4.3930   -0.6200   20.5780 N   0  0  0  0  0
    5.8680   -4.3920   18.3400 C   0  0  0  0  0
    6.3780   -3.7150   17.4470 O   0  0  0  0  0
    6.4170   -5.4830   18.8690 N   0  0  0  0  0
    7.6640   -6.0810   18.3660 C   0  0  0  0  0
    8.7810   -6.1550   19.4120 C   0  0  0  0  0
    8.3710   -6.8420   20.7180 C   0  0  0  0  0
    9.5840   -7.1290   21.6080 C   0  0  0  0  0
   10.4430   -8.2780   21.0730 C   0  0  0  0  0
   11.4890   -8.5920   21.6380 O   0  0  0  0  0
   10.0920   -8.9110   20.0770 O   0  0  0  0  0
   13.9244  -11.3215   23.9848 H   0  0  0  0  0
   15.0758  -10.3747   23.0107 H   0  0  0  0  0
   13.3760   -9.8579   23.1313 H   0  0  0  0  0
   13.6140  -13.3650   20.1760 H   0  0  0  0  0
   10.9063  -10.4010   19.5503 H   0  0  0  0  0
   10.4115  -12.8632   18.2160 H   0  0  0  0  0
   11.6864  -12.0422   17.3038 H   0  0  0  0  0
    9.5286  -11.3698   16.3860 H   0  0  0  0  0
   10.2332   -9.9732   17.2536 H   0  0  0  0  0
    8.8844  -10.5974   19.2468 H   0  0  0  0  0
    8.0831  -11.8726   18.2327 H   0  0  0  0  0
    7.4906   -9.8854   16.6657 H   0  0  0  0  0
    8.7800   -8.3980   18.7720 H   0  0  0  0  0
    5.5883  -11.6024   15.8345 H   0  0  0  0  0
    5.4346   -9.9012   15.6396 H   0  0  0  0  0
    3.2373  -11.3498   15.0264 H   0  0  0  0  0
    2.9631   -9.9704   15.9004 H   0  0  0  0  0
    3.5358  -12.7820   17.1519 H   0  0  0  0  0
    2.1278  -11.9117   17.3753 H   0  0  0  0  0
    4.0462  -11.4107   19.2529 H   0  0  0  0  0
    4.5305   -8.3845   18.4185 H   0  0  0  0  0
    1.7331   -7.5893   18.5103 H   0  0  0  0  0
    2.7545   -7.8819   21.0538 H   0  0  0  0  0
    1.6255   -6.6418   20.7156 H   0  0  0  0  0
    3.4229   -5.2475   21.4091 H   0  0  0  0  0
    5.5993   -5.8600   21.1617 H   0  0  0  0  0
    3.9013   -3.4680   18.2267 H   0  0  0  0  0
    5.6050   -3.3822   20.6592 H   0  0  0  0  0
    3.7999   -3.2447   20.7992 H   0  0  0  0  0
    5.5469   -1.6689   17.7799 H   0  0  0  0  0
    4.3758    1.5201   20.2914 H   0  0  0  0  0
    5.9511   -5.9258   19.6610 H   0  0  0  0  0
    8.1235   -5.4719   17.5876 H   0  0  0  0  0
    9.0586   -5.1305   19.6601 H   0  0  0  0  0
    9.5899   -6.7432   18.9786 H   0  0  0  0  0
    7.8912   -7.7896   20.4731 H   0  0  0  0  0
    7.6957   -6.1791   21.2589 H   0  0  0  0  0
    9.2182   -7.4130   22.5947 H   0  0  0  0  0
   10.2016   -6.2312   21.6355 H   0  0  0  0  0
    9.2638   -8.5541   19.7479 H   0  0  0  0  0
  1  2  1  0  0  0
  2  3  2  0  0  0
  2  4  1  0  0  0
  4  5  4  0  0  0
  5  6  2  0  0  0
  5  7  1  0  0  0
  7  8  1  0  0  0
  8  9  1  0  0  0
  9 10  1  0  0  0
 10 11  1  0  0  0
 11 12  1  0  0  0
 11 15  1  0  0  0
 12 13  1  0  0  0
 13 14  2  0  0  0
 13 42  1  0  0  0
 15 16  2  0  0  0
 15 17  1  0  0  0
 17 18  1  0  0  0
 17 21  1  0  0  0
 18 19  1  0  0  0
 19 20  1  0  0  0
 20 21  1  0  0  0
 21 22  1  0  0  0
 22 23  2  0  0  0
 22 24  1  0  0  0
 24 25  1  0  0  0
 25 26  1  0  0  0
 25 28  1  0  0  0
 26 27  2  0  0  0
 26 31  1  0  0  0
 28 29  1  0  0  0
 29 30  1  0  0  0
 29 31  1  0  0  0
 31 32  1  0  0  0
 32 33  1  0  0  0
 32 39  1  0  0  0
 33 34  1  0  0  0
 34 35  4  0  0  0
 34 38  4  0  0  0
 35 36  4  0  0  0
 36 37  4  0  0  0
 37 38  4  0  0  0
 39 40  2  0  0  0
 39 41  1  0  0  0
 41 42  1  0  0  0
 42 43  1  0  0  0
 43 44  1  0  0  0
 44 45  1  0  0  0
 45 46  1  0  0  0
 46 47  2  0  0  0
 46 48  1  0  0  0
  1 49  1  0  0  0
  1 50  1  0  0  0
  1 51  1  0  0  0
  6 52  1  0  0  0
  7 53  1  0  0  0
  8 54  1  0  0  0
  8 55  1  0  0  0
  9 56  1  0  0  0
  9 57  1  0  0  0
 10 58  1  0  0  0
 10 59  1  0  0  0
 11 60  1  0  0  0
 12 61  1  0  0  0
 18 62  1  0  0  0
 18 63  1  0  0  0
 19 64  1  0  0  0
 19 65  1  0  0  0
 20 66  1  0  0  0
 20 67  1  0  0  0
 21 68  1  0  0  0
 24 69  1  0  0  0
 25 70  1  0  0  0
 28 71  1  0  0  0
 28 72  1  0  0  0
 29 73  1  0  0  0
 30 74  1  0  0  0
 32 75  1  0  0  0
 33 76  1  0  0  0
 33 77  1  0  0  0
 35 78  1  0  0  0
 37 79  1  0  0  0
 41 80  1  0  0  0
 42 81  1  0  0  0
 43 82  1  0  0  0
 43 83  1  0  0  0
 44 84  1  0  0  0
 44 85  1  0  0  0
 45 86  1  0  0  0
 45 87  1  0  0  0
 48 88  1  0  0  0
M  END
$$$$
