3u3z_ligand
  -I-interpret- 

 79 79  0  0  0  0  0  0  0  0999 V2000
  -18.6250  -10.2220  -24.0150 N   0  3  0  0  0
  -17.5040   -9.6040  -23.3170 C   0  0  0  0  0
  -16.9800  -10.5220  -22.2190 C   0  0  0  0  0
  -17.9360  -10.6000  -21.1840 O   0  0  0  0  0
  -16.3840   -9.2430  -24.2740 C   0  0  0  0  0
  -15.9590  -10.0590  -25.0910 O   0  0  0  0  0
  -17.9370  -12.0410  -20.4950 P   0  0  0  0  0
  -19.2250  -12.0720  -19.5420 O   0  0  0  0  0
  -18.0040  -13.2070  -21.5890 O   0  0  0  0  0
  -16.5870  -12.1760  -19.6590 O   0  0  0  0  0
  -15.9120   -8.0070  -24.1560 N   0  0  0  0  0
  -14.8330   -7.4920  -24.9850 C   0  0  0  0  0
  -13.5300   -8.2250  -24.7470 C   0  0  0  0  0
  -13.1760   -8.5420  -23.6170 O   0  0  0  0  0
  -14.6120   -6.0040  -24.6910 C   0  0  0  0  0
  -15.8290   -5.1600  -24.9640 C   0  0  0  0  0
  -16.1540   -5.1060  -26.4390 C   0  0  0  0  0
  -15.4130   -4.5130  -27.2250 O   0  0  0  0  0
  -17.2530   -5.7430  -26.8290 N   0  0  0  0  0
  -12.8170   -8.4710  -25.8340 N   0  0  0  0  0
  -11.4620   -8.9780  -25.7800 C   0  0  0  0  0
  -10.5170   -7.7830  -25.7640 C   0  0  0  0  0
  -10.6590   -6.8520  -26.5650 O   0  0  0  0  0
  -11.2040   -9.8460  -27.0040 C   0  0  0  0  0
   -9.8190  -10.4400  -27.1010 C   0  0  0  0  0
   -9.6170  -11.1580  -28.4210 C   0  0  0  0  0
  -10.4820  -11.0170  -29.3110 O   0  0  0  0  0
   -8.6020  -11.8640  -28.5730 O   0  0  0  0  0
   -9.5760   -7.7950  -24.8290 N   0  0  0  0  0
   -8.5720   -6.7430  -24.7220 C   0  0  0  0  0
   -7.1880   -7.2700  -24.9700 C   0  0  0  0  0
   -6.2290   -6.5090  -25.1060 O   0  0  0  0  0
   -6.9810   -8.4850  -25.0510 O   0  0  0  0  0
   -8.6150   -6.0790  -23.3510 C   0  0  0  0  0
   -9.8270   -5.2170  -23.2510 C   0  0  0  0  0
  -10.9490   -5.6460  -22.5650 C   0  0  0  0  0
   -9.8700   -3.9940  -23.8980 C   0  0  0  0  0
  -12.0780   -4.8630  -22.5020 C   0  0  0  0  0
  -10.9910   -3.2040  -23.8460 C   0  0  0  0  0
  -12.0900   -3.6460  -23.1480 C   0  0  0  0  0
  -13.0940   -2.9560  -23.0850 O   0  0  0  0  0
  -13.4630   -1.8780  -24.2180 P   0  0  0  0  0
  -13.2950   -2.4560  -25.5750 O   0  0  0  0  0
  -12.5990   -0.6220  -24.0260 O   0  0  0  0  0
  -14.9380   -1.5060  -23.9690 O   0  0  0  0  0
  -19.3576  -10.4511  -23.3433 H   0  0  0  0  0
  -18.9910   -9.5719  -24.7106 H   0  0  0  0  0
  -18.3079  -11.0739  -24.4777 H   0  0  0  0  0
  -17.8700   -8.6834  -22.8624 H   0  0  0  0  0
  -16.0453  -10.1238  -21.8243 H   0  0  0  0  0
  -16.8015  -11.5165  -22.6279 H   0  0  0  0  0
  -20.0186  -11.9888  -20.0757 H   0  0  0  0  0
  -18.8173  -13.1255  -22.0925 H   0  0  0  0  0
  -16.3238   -7.3924  -23.4538 H   0  0  0  0  0
  -15.1304   -7.6418  -26.0229 H   0  0  0  0  0
  -13.8126   -5.6529  -25.3435 H   0  0  0  0  0
  -14.3734   -5.9078  -23.6318 H   0  0  0  0  0
  -15.6271   -4.1456  -24.6199 H   0  0  0  0  0
  -16.6774   -5.6024  -24.4419 H   0  0  0  0  0
  -17.5131   -5.7544  -27.8152 H   0  0  0  0  0
  -17.8366   -6.2206  -26.1421 H   0  0  0  0  0
  -13.2387   -8.2965  -26.7462 H   0  0  0  0  0
  -11.3049   -9.5842  -24.8878 H   0  0  0  0  0
  -11.3257   -9.1999  -27.8734 H   0  0  0  0  0
  -11.8973  -10.6848  -26.9409 H   0  0  0  0  0
   -9.6934  -11.1599  -26.2923 H   0  0  0  0  0
   -9.0901   -9.6326  -27.0307 H   0  0  0  0  0
  -11.1766  -10.4365  -28.9915 H   0  0  0  0  0
   -9.5540   -8.5665  -24.1621 H   0  0  0  0  0
   -8.8095   -6.0050  -25.4882 H   0  0  0  0  0
   -7.8070   -8.9582  -24.9270 H   0  0  0  0  0
   -7.7231   -5.4670  -23.2167 H   0  0  0  0  0
   -8.6514   -6.8464  -22.5778 H   0  0  0  0  0
  -10.9382   -6.6162  -22.0684 H   0  0  0  0  0
   -8.9993   -3.6528  -24.4579 H   0  0  0  0  0
  -12.9532   -5.2013  -21.9474 H   0  0  0  0  0
  -11.0098   -2.2385  -24.3516 H   0  0  0  0  0
  -12.7320   -0.2758  -23.1405 H   0  0  0  0  0
  -15.0289   -1.1343  -23.0885 H   0  0  0  0  0
  1  2  1  0  0  0
  2  3  1  0  0  0
  2  5  1  0  0  0
  3  4  1  0  0  0
  4  7  1  0  0  0
  5  6  2  0  0  0
  5 11  1  0  0  0
  7  8  1  0  0  0
  7  9  1  0  0  0
  7 10  2  0  0  0
 11 12  1  0  0  0
 12 13  1  0  0  0
 12 15  1  0  0  0
 13 14  2  0  0  0
 13 20  1  0  0  0
 15 16  1  0  0  0
 16 17  1  0  0  0
 17 18  2  0  0  0
 17 19  1  0  0  0
 20 21  1  0  0  0
 21 22  1  0  0  0
 21 24  1  0  0  0
 22 23  2  0  0  0
 22 29  1  0  0  0
 24 25  1  0  0  0
 25 26  1  0  0  0
 26 27  1  0  0  0
 26 28  2  0  0  0
 29 30  1  0  0  0
 30 31  1  0  0  0
 30 34  1  0  0  0
 31 32  2  0  0  0
 31 33  1  0  0  0
 34 35  1  0  0  0
 35 36  4  0  0  0
 35 37  4  0  0  0
 36 38  4  0  0  0
 37 39  4  0  0  0
 38 40  4  0  0  0
 39 40  4  0  0  0
 40 41  1  0  0  0
 41 42  1  0  0  0
 42 43  2  0  0  0
 42 44  1  0  0  0
 42 45  1  0  0  0
  1 46  1  0  0  0
  1 47  1  0  0  0
  1 48  1  0  0  0
  2 49  1  0  0  0
  3 50  1  0  0  0
  3 51  1  0  0  0
  8 52  1  0  0  0
  9 53  1  0  0  0
 11 54  1  0  0  0
 12 55  1  0  0  0
 15 56  1  0  0  0
 15 57  1  0  0  0
 16 58  1  0  0  0
 16 59  1  0  0  0
 19 60  1  0  0  0
 19 61  1  0  0  0
 20 62  1  0  0  0
 21 63  1  0  0  0
 24 64  1  0  0  0
 24 65  1  0  0  0
 25 66  1  0  0  0
 25 67  1  0  0  0
 27 68  1  0  0  0
 29 69  1  0  0  0
 30 70  1  0  0  0
 33 71  1  0  0  0
 34 72  1  0  0  0
 34 73  1  0  0  0
 36 74  1  0  0  0
 37 75  1  0  0  0
 38 76  1  0  0  0
 39 77  1  0  0  0
 44 78  1  0  0  0
 45 79  1  0  0  0
M  END
$$$$
