### 
### Created by X-TOOL on Mon Sep 10 21:13:08 2018
### 

@<TRIPOS>MOLECULE
3u3z_ligand
   73    73     1     0     0
SMALL
GAST_HUCK


@<TRIPOS>ATOM
      1 N         -18.6250  -10.2220  -24.0150 N.4       1 SEP         0.2398
      2 CA        -17.5040   -9.6040  -23.3170 C.3       1 SEP         0.0932
      3 CB        -16.9800  -10.5220  -22.2190 C.3       1 SEP         0.1380
      4 OG        -17.9360  -10.6000  -21.1840 O.3       1 SEP        -0.2680
      5 C         -16.3840   -9.2430  -24.2740 C.2       1 SEP         0.2293
      6 O         -15.9590  -10.0590  -25.0910 O.2       1 SEP        -0.3906
      7 P         -17.9370  -12.0410  -20.4950 P.3       1 SEP         0.2012
      8 O1P       -19.2250  -12.0720  -19.5420 O.co2     1 SEP        -0.5537
      9 O2P       -18.0040  -13.2070  -21.5890 O.co2     1 SEP        -0.5537
     10 O3P       -16.5870  -12.1760  -19.6590 O.co2     1 SEP        -0.5537
     11 N         -15.9120   -8.0070  -24.1560 N.am      1 GLN        -0.2608
     12 CA        -14.8330   -7.4920  -24.9850 C.3       1 GLN         0.1331
     13 C         -13.5300   -8.2250  -24.7470 C.2       1 GLN         0.2040
     14 O         -13.1760   -8.5420  -23.6170 O.2       1 GLN        -0.3944
     15 CB        -14.6120   -6.0040  -24.6910 C.3       1 GLN         0.0045
     16 CG        -15.8290   -5.1600  -24.9640 C.3       1 GLN         0.0412
     17 CD        -16.1540   -5.1060  -26.4390 C.2       1 GLN         0.1737
     18 OE1       -15.4130   -4.5130  -27.2250 O.2       1 GLN        -0.3973
     19 NE2       -17.2530   -5.7430  -26.8290 N.am      1 GLN        -0.3009
     20 N         -12.8170   -8.4710  -25.8340 N.am      1 GLU        -0.2636
     21 CA        -11.4620   -8.9780  -25.7800 C.3       1 GLU         0.1324
     22 C         -10.5170   -7.7830  -25.7640 C.2       1 GLU         0.2037
     23 O         -10.6590   -6.8520  -26.5650 O.2       1 GLU        -0.3944
     24 CB        -11.2040   -9.8460  -27.0040 C.3       1 GLU        -0.0008
     25 CG         -9.8190  -10.4400  -27.1010 C.3       1 GLU         0.0044
     26 CD         -9.6170  -11.1580  -28.4210 C.2       1 GLU         0.0350
     27 OE1       -10.4820  -11.0170  -29.3110 O.co2     1 GLU        -0.5690
     28 OE2        -8.6020  -11.8640  -28.5730 O.co2     1 GLU        -0.5690
     29 N          -9.5760   -7.7950  -24.8290 N.am      1 PTR        -0.2664
     30 CA         -8.5720   -6.7430  -24.7220 C.3       1 PTR         0.1103
     31 C          -7.1880   -7.2700  -24.9700 C.2       1 PTR         0.0635
     32 O          -6.2290   -6.5090  -25.1060 O.co2     1 PTR        -0.5663
     33 OXT        -6.9810   -8.4850  -25.0510 O.co2     1 PTR        -0.5663
     34 CB         -8.6150   -6.0790  -23.3510 C.3       1 PTR         0.0345
     35 CG         -9.8270   -5.2170  -23.2510 C.ar      1 PTR        -0.0010
     36 CD1       -10.9490   -5.6460  -22.5650 C.ar      1 PTR        -0.0239
     37 CD2        -9.8700   -3.9940  -23.8980 C.ar      1 PTR        -0.0239
     38 CE1       -12.0780   -4.8630  -22.5020 C.ar      1 PTR         0.0115
     39 CE2       -10.9910   -3.2040  -23.8460 C.ar      1 PTR         0.0115
     40 CZ        -12.0900   -3.6460  -23.1480 C.ar      1 PTR         0.1728
     41 OH        -13.0940   -2.9560  -23.0850 O.3       1 PTR        -0.2040
     42 P         -13.4630   -1.8780  -24.2180 P.3       1 PTR         0.1348
     43 O1P       -13.2950   -2.4560  -25.5750 O.co2     1 PTR        -0.6653
     44 O2P       -12.5990   -0.6220  -24.0260 O.co2     1 PTR        -0.6653
     45 O3P       -14.9380   -1.5060  -23.9690 O.co2     1 PTR        -0.6653
     46 H         -19.3576  -10.4511  -23.3433 H         1 SEP         0.2016
     47 H         -18.9910   -9.5719  -24.7106 H         1 SEP         0.2016
     48 H         -18.3079  -11.0739  -24.4777 H         1 SEP         0.2016
     49 H         -17.8700   -8.6834  -22.8624 H         1 SEP         0.1125
     50 H         -16.0453  -10.1238  -21.8243 H         1 SEP         0.0696
     51 H         -16.8015  -11.5165  -22.6279 H         1 SEP         0.0696
     52 H         -16.3238   -7.3924  -23.4538 H         1 GLN         0.1885
     53 H         -15.1304   -7.6418  -26.0229 H         1 GLN         0.0801
     54 H         -13.8126   -5.6529  -25.3435 H         1 GLN         0.0337
     55 H         -14.3734   -5.9078  -23.6318 H         1 GLN         0.0337
     56 H         -15.6271   -4.1456  -24.6199 H         1 GLN         0.0504
     57 H         -16.6774   -5.6024  -24.4419 H         1 GLN         0.0504
     58 H         -17.5131   -5.7544  -27.8152 H         1 GLN         0.1814
     59 H         -17.8366   -6.2206  -26.1421 H         1 GLN         0.1814
     60 H         -13.2387   -8.2965  -26.7462 H         1 GLU         0.1883
     61 H         -11.3049   -9.5842  -24.8878 H         1 GLU         0.0801
     62 H         -11.3257   -9.1999  -27.8734 H         1 GLU         0.0330
     63 H         -11.8973  -10.6848  -26.9409 H         1 GLU         0.0330
     64 H          -9.6934  -11.1599  -26.2923 H         1 GLU         0.0433
     65 H          -9.0901   -9.6326  -27.0307 H         1 GLU         0.0433
     66 H          -9.5540   -8.5665  -24.1621 H         1 PTR         0.1878
     67 H          -8.8095   -6.0050  -25.4882 H         1 PTR         0.0766
     68 H          -7.7231   -5.4670  -23.2167 H         1 PTR         0.0577
     69 H          -8.6514   -6.8464  -22.5778 H         1 PTR         0.0577
     70 H         -10.9382   -6.6162  -22.0684 H         1 PTR         0.0703
     71 H          -8.9993   -3.6528  -24.4579 H         1 PTR         0.0703
     72 H         -12.9532   -5.2013  -21.9474 H         1 PTR         0.0736
     73 H         -11.0098   -2.2385  -24.3516 H         1 PTR         0.0736
@<TRIPOS>BOND
     1    1    2 1  
     2    2    3 1  
     3    2    5 1  
     4    3    4 1  
     5    4    7 1  
     6    5    6 2  
     7    5   11 am 
     8    7    8 ar 
     9    7    9 ar 
    10    7   10 ar 
    11   11   12 1  
    12   12   13 1  
    13   12   15 1  
    14   13   14 2  
    15   13   20 am 
    16   15   16 1  
    17   16   17 1  
    18   17   18 2  
    19   17   19 am 
    20   20   21 1  
    21   21   22 1  
    22   21   24 1  
    23   22   23 2  
    24   22   29 am 
    25   24   25 1  
    26   25   26 1  
    27   26   27 ar 
    28   26   28 ar 
    29   29   30 1  
    30   30   31 1  
    31   30   34 1  
    32   31   32 ar 
    33   31   33 ar 
    34   34   35 1  
    35   35   36 ar 
    36   35   37 ar 
    37   36   38 ar 
    38   37   39 ar 
    39   38   40 ar 
    40   39   40 ar 
    41   40   41 1  
    42   41   42 1  
    43   42   43 ar 
    44   42   44 ar 
    45   42   45 ar 
    46    1   46 1  
    47    1   47 1  
    48    1   48 1  
    49    2   49 1  
    50    3   50 1  
    51    3   51 1  
    52   11   52 1  
    53   12   53 1  
    54   15   54 1  
    55   15   55 1  
    56   16   56 1  
    57   16   57 1  
    58   19   58 1  
    59   19   59 1  
    60   20   60 1  
    61   21   61 1  
    62   24   62 1  
    63   24   63 1  
    64   25   64 1  
    65   25   65 1  
    66   29   66 1  
    67   30   67 1  
    68   34   68 1  
    69   34   69 1  
    70   36   70 1  
    71   37   71 1  
    72   38   72 1  
    73   39   73 1  
@<TRIPOS>SUBSTRUCTURE
     1 SEP         1

