3oob_ligand
  -I-interpret- 

 51 54  0  0  0  0  0  0  0  0999 V2000
   28.6200   36.4380   21.2270 O   0  0  0  0  0
   29.1040   35.4690   20.3880 C   0  0  0  0  0
   30.2600   34.7520   20.6970 C   0  0  0  0  0
   30.9390   35.0010   21.8510 O   0  0  0  0  0
   30.7300   33.7710   19.8290 C   0  0  0  0  0
   31.8620   33.0740   20.1240 O   0  0  0  0  0
   30.0480   33.5020   18.6440 C   0  0  0  0  0
   28.8890   34.2160   18.3280 C   0  0  0  0  0
   28.1390   33.9500   17.0740 C   0  0  0  0  0
   28.4660   32.6350   15.0300 C   0  0  0  0  0
   29.3080   32.2150   14.0000 C   0  0  0  0  0
   28.7890   31.4790   12.9330 C   0  0  0  0  0
   27.4330   31.1660   12.8960 C   0  0  0  0  0
   26.5900   31.5830   13.9250 C   0  0  0  0  0
   27.1090   32.3120   14.9910 C   0  0  0  0  0
   26.9820   33.0060   17.3740 C   0  0  0  0  0
   26.7200   30.9140   18.6630 C   0  0  0  0  0
   27.4540   29.8390   19.4020 C   0  0  0  0  0
   26.8070   28.8170   20.1010 C   0  0  0  0  0
   28.8370   29.9000   19.3610 C   0  0  0  0  0
   26.1830   32.7510   16.0990 C   0  0  0  0  0
   28.9910   33.3610   16.0780 O   0  0  0  0  0
   29.6040   31.0630   11.9250 O   0  0  0  0  0
   25.2620   31.2680   13.8860 O   0  0  0  0  0
   28.4220   35.1990   19.2030 C   0  0  0  0  0
   27.5480   31.7770   17.8340 O   0  0  0  0  0
   25.5120   31.0490   18.7500 O   0  0  0  0  0
   29.5980   28.9540   20.0150 C   0  0  0  0  0
   30.9550   29.0290   19.9600 O   0  0  0  0  0
   28.9750   27.9310   20.7200 C   0  0  0  0  0
   29.7440   26.9970   21.3530 O   0  0  0  0  0
   27.5880   27.8540   20.7630 C   0  0  0  0  0
   26.9880   26.8420   21.4350 O   0  0  0  0  0
   27.8235   36.8181   20.8492 H   0  0  0  0  0
   31.7030   34.4220   21.9027 H   0  0  0  0  0
   32.0396   32.4428   19.4229 H   0  0  0  0  0
   30.4184   32.7350   17.9638 H   0  0  0  0  0
   27.7625   34.8967   16.6865 H   0  0  0  0  0
   30.3695   32.4611   14.0282 H   0  0  0  0  0
   27.0296   30.5937   12.0607 H   0  0  0  0  0
   26.3160   33.4351   18.1226 H   0  0  0  0  0
   25.7186   28.7674   20.1324 H   0  0  0  0  0
   29.3273   30.7012   18.8080 H   0  0  0  0  0
   25.4491   31.9670   16.2857 H   0  0  0  0  0
   25.6775   33.6699   15.8019 H   0  0  0  0  0
   29.0885   30.5744   11.2792 H   0  0  0  0  0
   24.8262   31.6268   14.6625 H   0  0  0  0  0
   27.5191   35.7582   18.9578 H   0  0  0  0  0
   31.3350   28.3041   20.4616 H   0  0  0  0  0
   29.1754   26.3608   21.7929 H   0  0  0  0  0
   27.6586   26.2775   21.8266 H   0  0  0  0  0
  2  1  1  0  0  0
  2  3  4  0  0  0
 25  2  4  0  0  0
  3  4  1  0  0  0
  5  3  4  0  0  0
  5  6  1  0  0  0
  7  5  4  0  0  0
  8  7  4  0  0  0
  9  8  1  0  0  0
  8 25  4  0  0  0
 16  9  1  0  0  0
  9 22  1  0  0  0
 10 11  4  0  0  0
 15 10  4  0  0  0
 22 10  1  0  0  0
 11 12  4  0  0  0
 13 12  4  0  0  0
 12 23  1  0  0  0
 14 13  4  0  0  0
 15 14  4  0  0  0
 14 24  1  0  0  0
 21 15  1  0  0  0
 16 21  1  0  0  0
 26 16  1  0  0  0
 17 18  1  0  0  0
 17 26  1  0  0  0
 17 27  2  0  0  0
 18 19  4  0  0  0
 18 20  4  0  0  0
 19 32  4  0  0  0
 20 28  4  0  0  0
 28 29  1  0  0  0
 28 30  4  0  0  0
 30 31  1  0  0  0
 30 32  4  0  0  0
 32 33  1  0  0  0
  1 34  1  0  0  0
  4 35  1  0  0  0
  6 36  1  0  0  0
  7 37  1  0  0  0
  9 38  1  0  0  0
 11 39  1  0  0  0
 13 40  1  0  0  0
 16 41  1  0  0  0
 19 42  1  0  0  0
 20 43  1  0  0  0
 21 44  1  0  0  0
 21 45  1  0  0  0
 23 46  1  0  0  0
 24 47  1  0  0  0
 25 48  1  0  0  0
 29 49  1  0  0  0
 31 50  1  0  0  0
 33 51  1  0  0  0
M  END
$$$$
