2ya8_ligand
  -I-interpret- 

 45 45  0  0  0  0  0  0  0  0999 V2000
   15.2630  -20.2890   44.7640 C   0  0  0  0  0
   16.1740  -20.3740   45.6350 O   0  0  0  0  0
   14.0770  -20.5560   45.0390 O   0  0  0  0  0
   15.5900  -19.8430   43.4040 C   0  0  0  0  0
   14.4990  -19.4280   42.4410 C   0  0  0  0  0
   15.0740  -18.4510   41.4040 C   0  0  0  0  0
   16.2840  -19.0580   40.7210 C   0  0  0  0  0
   16.7490  -18.2400   39.5950 N   0  0  0  0  0
   17.0470  -18.7480   38.3960 C   0  0  0  0  0
   16.8220  -19.9060   38.0580 O   0  0  0  0  0
   17.6810  -17.7630   37.4570 C   0  0  0  0  0
   17.3970  -19.1960   41.7500 C   0  0  0  0  0
   16.8890  -19.8220   43.0400 C   0  0  0  0  0
   18.3540  -20.0790   41.1950 O   0  0  0  0  0
   19.6620  -19.9490   41.7720 C   0  0  0  0  0
   20.4740  -18.8620   41.0620 C   0  0  0  0  0
   20.3640  -21.3120   41.6530 C   0  0  0  0  0
   19.8920  -22.2330   42.7550 C   0  0  0  0  0
   20.4130  -18.9930   39.5630 C   0  0  0  0  0
   14.0470  -18.1000   40.4400 N   0  3  0  0  0
   17.0153  -20.1314   45.2413 H   0  0  0  0  0
   13.6947  -18.9405   42.9920 H   0  0  0  0  0
   14.1095  -20.3097   41.9320 H   0  0  0  0  0
   15.3991  -17.5407   41.9077 H   0  0  0  0  0
   16.0033  -20.0311   40.3180 H   0  0  0  0  0
   16.8496  -17.2346   39.7346 H   0  0  0  0  0
   18.6630  -18.1290   37.1572 H   0  0  0  0  0
   17.0508  -17.6459   36.5754 H   0  0  0  0  0
   17.7880  -16.8014   37.9590 H   0  0  0  0  0
   17.8028  -18.2108   41.9796 H   0  0  0  0  0
   17.6170  -20.2804   43.7094 H   0  0  0  0  0
   19.5782  -19.6528   42.8176 H   0  0  0  0  0
   21.5151  -18.9620   41.3688 H   0  0  0  0  0
   20.0550  -17.8934   41.3348 H   0  0  0  0  0
   21.4412  -21.1700   41.7404 H   0  0  0  0  0
   20.1247  -21.7561   40.6867 H   0  0  0  0  0
   20.1277  -21.7902   43.7227 H   0  0  0  0  0
   18.8145  -22.3748   42.6717 H   0  0  0  0  0
   20.3947  -23.1957   42.6624 H   0  0  0  0  0
   20.8138  -19.9627   39.2677 H   0  0  0  0  0
   19.3770  -18.9112   39.2343 H   0  0  0  0  0
   21.0043  -18.1996   39.1059 H   0  0  0  0  0
   13.2481  -17.6953   40.9283 H   0  0  0  0  0
   14.4219  -17.4209   39.7777 H   0  0  0  0  0
   13.7519  -18.9381   39.9391 H   0  0  0  0  0
  1  2  1  0  0  0
  1  3  2  0  0  0
  1  4  1  0  0  0
  4  5  1  0  0  0
  4 13  2  0  0  0
  5  6  1  0  0  0
  6  7  1  0  0  0
  6 20  1  0  0  0
  7  8  1  0  0  0
  7 12  1  0  0  0
  8  9  1  0  0  0
  9 10  2  0  0  0
  9 11  1  0  0  0
 12 13  1  0  0  0
 12 14  1  0  0  0
 14 15  1  0  0  0
 15 16  1  0  0  0
 15 17  1  0  0  0
 16 19  1  0  0  0
 17 18  1  0  0  0
  2 21  1  0  0  0
  5 22  1  0  0  0
  5 23  1  0  0  0
  6 24  1  0  0  0
  7 25  1  0  0  0
  8 26  1  0  0  0
 11 27  1  0  0  0
 11 28  1  0  0  0
 11 29  1  0  0  0
 12 30  1  0  0  0
 13 31  1  0  0  0
 15 32  1  0  0  0
 16 33  1  0  0  0
 16 34  1  0  0  0
 17 35  1  0  0  0
 17 36  1  0  0  0
 18 37  1  0  0  0
 18 38  1  0  0  0
 18 39  1  0  0  0
 19 40  1  0  0  0
 19 41  1  0  0  0
 19 42  1  0  0  0
 20 43  1  0  0  0
 20 44  1  0  0  0
 20 45  1  0  0  0
M  END
$$$$
