5ehy_ligand
  -I-interpret- 

 30 33  0  0  0  0  0  0  0  0999 V2000
   37.9080  125.7710  133.8000 C   0  0  0  0  0
   36.9670  124.9270  133.2290 C   0  0  0  0  0
   36.8050  124.8640  131.8320 C   0  0  0  0  0
   37.6590  125.6810  131.0620 C   0  0  0  0  0
   37.6970  125.6430  129.6140 C   0  0  0  0  0
   37.7030  126.7530  128.7290 C   0  0  0  0  0
   37.7980  126.2700  127.4890 C   0  0  0  0  0
   37.7830  124.5530  128.8250 C   0  0  0  0  0
   35.3280  123.4470  132.8100 N   0  0  0  0  0
   36.0720  124.0630  133.7670 N   0  0  0  0  0
   38.5610  126.5100  131.6120 N   0  0  0  0  0
   38.6690  126.5410  132.9470 C   0  0  0  0  0
   37.8490  124.9100  127.5110 O   0  0  0  0  0
   34.8590  124.3830  129.3470 C   0  0  0  0  0
   34.1720  123.9920  128.2120 C   0  0  0  0  0
   33.6850  122.7090  128.1020 C   0  0  0  0  0
   33.8880  121.8100  129.1260 C   0  0  0  0  0
   34.5740  122.1920  130.2640 C   0  0  0  0  0
   35.0640  123.4870  130.3900 C   0  0  0  0  0
   35.7470  123.9220  131.6400 C   0  0  0  0  0
   38.0404  125.8232  134.8807 H   0  0  0  0  0
   37.6414  127.8043  129.0103 H   0  0  0  0  0
   37.8302  126.8788  126.5854 H   0  0  0  0  0
   37.7978  123.5255  129.1886 H   0  0  0  0  0
   39.4036  127.2165  133.3854 H   0  0  0  0  0
   35.2422  125.4005  129.4242 H   0  0  0  0  0
   34.0154  124.7030  127.4008 H   0  0  0  0  0
   33.1407  122.4055  127.2078 H   0  0  0  0  0
   33.5060  120.7929  129.0386 H   0  0  0  0  0
   34.7317  121.4730  131.0679 H   0  0  0  0  0
  2  1  4  0  0  0
  1 12  4  0  0  0
  3  2  4  0  0  0
 10  2  4  0  0  0
  3  4  4  0  0  0
 20  3  4  0  0  0
  4  5  1  0  0  0
  4 11  4  0  0  0
  5  6  4  0  0  0
  5  8  4  0  0  0
  6  7  4  0  0  0
 13  7  4  0  0  0
  8 13  4  0  0  0
  9 10  4  0  0  0
 20  9  4  0  0  0
 11 12  4  0  0  0
 14 15  4  0  0  0
 19 14  4  0  0  0
 15 16  4  0  0  0
 17 16  4  0  0  0
 18 17  4  0  0  0
 19 18  4  0  0  0
 19 20  1  0  0  0
  1 21  1  0  0  0
  6 22  1  0  0  0
  7 23  1  0  0  0
  8 24  1  0  0  0
 12 25  1  0  0  0
 14 26  1  0  0  0
 15 27  1  0  0  0
 16 28  1  0  0  0
 17 29  1  0  0  0
 18 30  1  0  0  0
M  END
$$$$
