5fun_ligand
  -I-interpret- 

 39 42  0  0  0  0  0  0  0  0999 V2000
   85.4640   58.7090   10.4110 C   0  0  0  0  0
   85.5060   57.2060   10.8890 C   0  0  0  0  0
   84.6090   56.7590   11.8800 C   0  0  0  0  0
   84.6430   55.4200   12.3110 C   0  0  0  0  0
   85.5640   54.5350   11.7610 C   0  0  0  0  0
   86.4630   54.9780   10.7720 C   0  0  0  0  0
   86.4290   56.3250   10.3380 C   0  0  0  0  0
   86.6560   59.3910   10.8690 N   0  0  0  0  0
   86.7900   60.0460   12.0530 C   0  0  0  0  0
   88.0830   60.5690   12.1050 C   0  0  0  0  0
   88.7240   60.1910   10.9100 C   0  0  0  0  0
   87.8270   59.4830   10.1850 N   0  0  0  0  0
   88.6680   61.3150   13.1680 O   0  0  0  0  0
   88.1480   62.6090   13.3060 C   0  0  0  0  0
   88.8200   63.5170   14.1850 N   0  0  0  0  0
   88.3390   64.8140   14.3600 C   0  0  0  0  0
   87.1030   65.2580   13.6170 C   0  0  0  0  0
   86.5980   66.5840   13.7840 C   0  0  0  0  0
   85.4680   66.9440   13.0850 C   0  0  0  0  0
   84.8370   66.0770   12.2600 N   0  0  0  0  0
   85.3040   64.8320   12.1000 C   0  0  0  0  0
   86.4630   64.3920   12.7810 C   0  0  0  0  0
   86.9690   63.0340   12.6000 N   0  0  0  0  0
   88.9150   65.5830   15.1080 O   0  0  0  0  0
   84.5822   59.1986   10.8244 H   0  0  0  0  0
   85.4192   58.7443    9.3225 H   0  0  0  0  0
   83.8877   57.4518   12.3133 H   0  0  0  0  0
   83.9471   55.0762   13.0763 H   0  0  0  0  0
   85.5899   53.4980   12.0957 H   0  0  0  0  0
   87.1847   54.2842   10.3408 H   0  0  0  0  0
   87.1250   56.6704    9.5736 H   0  0  0  0  0
   86.0251   60.1449   12.8232 H   0  0  0  0  0
   89.7493   60.4245   10.6229 H   0  0  0  0  0
   87.4593   62.3961   12.4884 H   0  0  0  0  0
   89.6551   63.2137   14.6860 H   0  0  0  0  0
   87.0945   67.2921   14.4475 H   0  0  0  0  0
   85.0717   67.9530   13.1991 H   0  0  0  0  0
   84.7818   64.1458   11.4333 H   0  0  0  0  0
   86.4874   62.3883   11.9743 H   0  0  0  0  0
  1  2  1  0  0  0
  1  8  1  0  0  0
  2  3  4  0  0  0
  2  7  4  0  0  0
  3  4  4  0  0  0
  4  5  4  0  0  0
  5  6  4  0  0  0
  6  7  4  0  0  0
  8  9  4  0  0  0
  8 12  4  0  0  0
  9 10  4  0  0  0
 10 11  4  0  0  0
 10 13  1  0  0  0
 11 12  4  0  0  0
 13 14  1  0  0  0
 14 15  1  0  0  0
 14 23  1  0  0  0
 15 16  1  0  0  0
 16 17  1  0  0  0
 16 24  2  0  0  0
 17 18  4  0  0  0
 17 22  4  0  0  0
 18 19  4  0  0  0
 19 20  4  0  0  0
 20 21  4  0  0  0
 21 22  4  0  0  0
 22 23  1  0  0  0
  1 25  1  0  0  0
  1 26  1  0  0  0
  3 27  1  0  0  0
  4 28  1  0  0  0
  5 29  1  0  0  0
  6 30  1  0  0  0
  7 31  1  0  0  0
  9 32  1  0  0  0
 11 33  1  0  0  0
 14 34  1  0  0  0
 15 35  1  0  0  0
 18 36  1  0  0  0
 19 37  1  0  0  0
 21 38  1  0  0  0
 23 39  1  0  0  0
M  END
$$$$
