1ro6_ligand
  -I-interpret- 

 41 43  0  0  0  0  0  0  0  0999 V2000
   32.3880   75.3670   22.0660 C   0  0  0  0  0
   32.0700   75.9080   20.8170 C   0  0  0  0  0
   31.7440   77.2840   20.6410 C   0  0  0  0  0
   31.7800   78.1470   21.7500 C   0  0  0  0  0
   32.0800   77.6010   23.0140 C   0  0  0  0  0
   32.3680   76.2310   23.1800 C   0  0  0  0  0
   32.7140   73.8820   22.1460 C   0  0  0  0  0
   34.0240   73.4890   22.8680 C   0  0  0  0  0
   33.5700   72.4390   23.8950 C   0  0  0  0  0
   34.2760   71.9940   24.7980 O   0  0  0  0  0
   32.2890   72.1030   23.6680 N   0  0  0  0  0
   31.6120   73.0950   22.8460 C   0  0  0  0  0
   31.3730   77.8860   19.4320 O   0  0  0  0  0
   31.1640   77.0760   18.2680 C   0  0  0  0  0
   32.5030   76.7930   17.5870 C   0  0  0  0  0
   32.8320   78.1180   16.9100 C   0  0  0  0  0
   31.4860   78.6660   16.4470 C   0  0  0  0  0
   30.4150   77.9020   17.2180 C   0  0  0  0  0
   31.5020   79.4880   21.4880 O   0  0  0  0  0
   31.6980   80.4640   22.5060 C   0  0  0  0  0
   32.0714   75.2532   19.9456 H   0  0  0  0  0
   32.0896   78.2549   23.8860 H   0  0  0  0  0
   32.5763   75.8376   24.1749 H   0  0  0  0  0
   32.8228   73.6342   21.0901 H   0  0  0  0  0
   34.5152   74.3430   23.3344 H   0  0  0  0  0
   34.7780   73.1025   22.1823 H   0  0  0  0  0
   31.8459   71.2574   24.0273 H   0  0  0  0  0
   30.9451   72.6222   22.1250 H   0  0  0  0  0
   30.9839   73.7481   23.4519 H   0  0  0  0  0
   30.6406   76.1727   18.5814 H   0  0  0  0  0
   32.4513   75.9616   16.8841 H   0  0  0  0  0
   33.2741   76.4749   18.2886 H   0  0  0  0  0
   33.5239   77.9870   16.0780 H   0  0  0  0  0
   33.3373   78.8051   17.5886 H   0  0  0  0  0
   31.3609   78.5333   15.3724 H   0  0  0  0  0
   31.4148   79.7365   16.6396 H   0  0  0  0  0
   29.7017   78.5818   17.6840 H   0  0  0  0  0
   29.8297   77.2639   16.5559 H   0  0  0  0  0
   31.0686   80.2246   23.3631 H   0  0  0  0  0
   32.7445   80.4641   22.8108 H   0  0  0  0  0
   31.4304   81.4479   22.1206 H   0  0  0  0  0
  1  2  4  0  0  0
  1  6  4  0  0  0
  1  7  1  0  0  0
  2  3  4  0  0  0
  3  4  4  0  0  0
  3 13  1  0  0  0
  4  5  4  0  0  0
  4 19  1  0  0  0
  5  6  4  0  0  0
  7  8  1  0  0  0
  7 12  1  0  0  0
  8  9  1  0  0  0
  9 10  2  0  0  0
  9 11  1  0  0  0
 11 12  1  0  0  0
 13 14  1  0  0  0
 14 15  1  0  0  0
 14 18  1  0  0  0
 15 16  1  0  0  0
 16 17  1  0  0  0
 17 18  1  0  0  0
 19 20  1  0  0  0
  2 21  1  0  0  0
  5 22  1  0  0  0
  6 23  1  0  0  0
  7 24  1  0  0  0
  8 25  1  0  0  0
  8 26  1  0  0  0
 11 27  1  0  0  0
 12 28  1  0  0  0
 12 29  1  0  0  0
 14 30  1  0  0  0
 15 31  1  0  0  0
 15 32  1  0  0  0
 16 33  1  0  0  0
 16 34  1  0  0  0
 17 35  1  0  0  0
 17 36  1  0  0  0
 18 37  1  0  0  0
 18 38  1  0  0  0
 20 39  1  0  0  0
 20 40  1  0  0  0
 20 41  1  0  0  0
M  END
$$$$
