1wm1_ligand
  -I-interpret- 

 34 35  0  0  0  0  0  0  0  0999 V2000
   18.6800   -0.4760   -9.3240 N   0  3  0  0  0
   19.2460    0.2360   -8.1280 C   0  0  0  0  0
   20.7360   -0.0180   -7.9670 C   0  0  0  0  0
   21.1800   -1.1050   -7.6480 O   0  0  0  0  0
   18.4130   -0.1730   -6.9120 C   0  0  0  0  0
   17.0900   -0.6470   -7.4630 C   0  0  0  0  0
   17.3560   -1.0600   -8.9040 C   0  0  0  0  0
   21.5840    1.1390   -8.1950 C   0  0  0  0  0
   21.2760    2.3710   -8.6440 N   0  0  0  0  0
   22.3680    3.1040   -8.6820 N   0  0  0  0  0
   23.4300    2.3720   -8.2560 C   0  0  0  0  0
   22.9740    1.0760   -7.9250 O   0  0  0  0  0
   24.8840    2.7160   -8.1010 C   0  0  0  0  0
   25.0010    4.0230   -7.3180 C   0  0  0  0  0
   25.5060    2.8940   -9.4810 C   0  0  0  0  0
   25.6000    1.5920   -7.3540 C   0  0  0  0  0
   19.3139   -1.2099   -9.6402 H   0  0  0  0  0
   18.5582    0.1699  -10.1040 H   0  0  0  0  0
   19.1758    1.3166   -8.2528 H   0  0  0  0  0
   18.2804    0.6608   -6.2226 H   0  0  0  0  0
   18.9073   -0.9560   -6.3370 H   0  0  0  0  0
   16.3374    0.1398   -7.4114 H   0  0  0  0  0
   16.6968   -1.4804   -6.8807 H   0  0  0  0  0
   17.3835   -2.1467   -8.9835 H   0  0  0  0  0
   16.5611   -0.6914   -9.5524 H   0  0  0  0  0
   24.4891    4.8174   -7.8610 H   0  0  0  0  0
   24.5438    3.8991   -6.3363 H   0  0  0  0  0
   26.0533    4.2815   -7.2001 H   0  0  0  0  0
   25.4067    1.9667  -10.0452 H   0  0  0  0  0
   24.9931    3.6983  -10.0083 H   0  0  0  0  0
   26.5615    3.1438   -9.3729 H   0  0  0  0  0
   25.1497    1.4675   -6.3692 H   0  0  0  0  0
   25.5049    0.6643   -7.9183 H   0  0  0  0  0
   26.6544    1.8450   -7.2435 H   0  0  0  0  0
  1  2  1  0  0  0
  1  7  1  0  0  0
  2  3  1  0  0  0
  2  5  1  0  0  0
  3  4  2  0  0  0
  3  8  1  0  0  0
  5  6  1  0  0  0
  6  7  1  0  0  0
  8  9  4  0  0  0
  8 12  4  0  0  0
  9 10  4  0  0  0
 10 11  4  0  0  0
 11 12  4  0  0  0
 11 13  1  0  0  0
 13 14  1  0  0  0
 13 15  1  0  0  0
 13 16  1  0  0  0
  1 17  1  0  0  0
  1 18  1  0  0  0
  2 19  1  0  0  0
  5 20  1  0  0  0
  5 21  1  0  0  0
  6 22  1  0  0  0
  6 23  1  0  0  0
  7 24  1  0  0  0
  7 25  1  0  0  0
 14 26  1  0  0  0
 14 27  1  0  0  0
 14 28  1  0  0  0
 15 29  1  0  0  0
 15 30  1  0  0  0
 15 31  1  0  0  0
 16 32  1  0  0  0
 16 33  1  0  0  0
 16 34  1  0  0  0
M  END
$$$$
