6e4u_ligand
  -I-interpret- 

 59 62  0  0  0  0  0  0  0  0999 V2000
   43.1020  -78.0080  -39.9050 N   0  0  0  0  0
   49.5580  -82.1510  -38.1620 C   0  0  0  0  0
   48.7750  -83.3140  -40.1140 N   0  0  0  0  0
   47.8230  -82.4070  -40.2670 C   0  0  0  0  0
   47.6200  -81.3440  -39.3530 C   0  0  0  0  0
   46.4820  -80.3780  -39.4730 C   0  0  0  0  0
   45.5990  -78.1120  -39.6610 C   0  0  0  0  0
   37.5930  -83.4170  -39.6630 C   0  0  0  0  0
   37.3190  -83.6580  -41.1480 C   0  0  0  0  0
   47.4560  -83.2960  -42.4350 C   0  0  0  0  0
   39.8200  -82.4860  -40.2890 C   0  0  0  0  0
   42.6690  -80.2070  -39.8670 C   0  0  0  0  0
   38.5630  -82.2550  -39.4540 C   0  0  0  0  0
   51.0660  -84.6760  -37.6600 C   0  0  0  0  0
   50.5840  -84.2500  -38.9620 N   0  0  0  0  0
   51.0850  -84.9490  -40.1340 C   0  0  0  0  0
   49.6240  -83.2000  -39.0860 C   0  0  0  0  0
   48.5290  -81.2350  -38.2980 C   0  0  0  0  0
   47.0850  -82.3910  -41.3950 O   0  0  0  0  0
   45.1760  -80.8750  -39.5560 C   0  0  0  0  0
   44.0890  -80.0180  -39.7050 C   0  0  0  0  0
   44.3190  -78.6320  -39.7480 C   0  0  0  0  0
   46.6630  -78.9890  -39.5310 C   0  0  0  0  0
   48.2550  -78.3190  -39.4500 Cl  0  0  0  0  0
   42.1210  -78.9520  -39.9690 C   0  0  0  0  0
   41.9570  -81.4970  -39.9780 C   0  0  0  0  0
   42.4940  -82.5760  -39.9110 O   0  0  0  0  0
   40.6310  -81.3150  -40.1440 O   0  0  0  0  0
   38.6530  -83.7440  -41.9270 C   0  0  0  0  0
   39.4850  -82.6070  -41.6610 O   0  0  0  0  0
   38.3770  -83.7410  -43.4280 C   0  0  0  0  0
   38.3080  -82.7140  -44.0810 O   0  0  0  0  0
   38.2530  -84.9430  -43.9240 O   0  0  0  0  0
   36.5950  -84.8750  -41.2980 O   0  0  0  0  0
   36.3700  -83.1870  -38.9690 O   0  0  0  0  0
   38.9010  -82.1290  -38.0750 O   0  0  0  0  0
   50.2924  -82.0583  -37.3619 H   0  0  0  0  0
   45.7659  -77.0354  -39.6941 H   0  0  0  0  0
   38.0644  -84.3117  -39.2564 H   0  0  0  0  0
   36.7327  -82.8300  -41.5465 H   0  0  0  0  0
   48.4766  -83.0832  -42.7531 H   0  0  0  0  0
   47.3957  -84.3189  -42.0634 H   0  0  0  0  0
   46.7780  -83.1744  -43.2797 H   0  0  0  0  0
   40.3266  -83.3936  -39.9607 H   0  0  0  0  0
   38.0843  -81.3291  -39.7730 H   0  0  0  0  0
   50.8044  -85.7222  -37.5016 H   0  0  0  0  0
   52.1491  -84.5608  -37.6195 H   0  0  0  0  0
   50.6050  -84.0636  -36.8851 H   0  0  0  0  0
   52.1688  -84.8436  -40.1826 H   0  0  0  0  0
   50.8241  -86.0050  -40.0648 H   0  0  0  0  0
   50.6365  -84.5206  -41.0303 H   0  0  0  0  0
   48.4275  -80.4236  -37.5773 H   0  0  0  0  0
   45.0074  -81.9506  -39.5031 H   0  0  0  0  0
   41.0577  -78.7417  -40.0842 H   0  0  0  0  0
   39.1514  -84.6600  -41.6098 H   0  0  0  0  0
   38.3440  -85.5894  -43.2201 H   0  0  0  0  0
   36.4210  -85.0298  -42.2293 H   0  0  0  0  0
   36.5545  -83.0372  -38.0389 H   0  0  0  0  0
   39.5100  -81.3956  -37.9617 H   0  0  0  0  0
  1 22  4  0  0  0
 25  1  4  0  0  0
  2 17  4  0  0  0
 18  2  4  0  0  0
  4  3  4  0  0  0
  3 17  4  0  0  0
  5  4  4  0  0  0
  4 19  1  0  0  0
  6  5  1  0  0  0
  5 18  4  0  0  0
 20  6  4  0  0  0
  6 23  4  0  0  0
 22  7  4  0  0  0
  7 23  4  0  0  0
  8  9  1  0  0  0
 13  8  1  0  0  0
  8 35  1  0  0  0
  9 29  1  0  0  0
  9 34  1  0  0  0
 19 10  1  0  0  0
 11 13  1  0  0  0
 28 11  1  0  0  0
 11 30  1  0  0  0
 12 21  4  0  0  0
 12 25  4  0  0  0
 26 12  1  0  0  0
 13 36  1  0  0  0
 15 14  1  0  0  0
 15 16  1  0  0  0
 17 15  1  0  0  0
 21 20  4  0  0  0
 21 22  4  0  0  0
 23 24  1  0  0  0
 26 27  2  0  0  0
 26 28  1  0  0  0
 29 30  1  0  0  0
 29 31  1  0  0  0
 31 32  2  0  0  0
 31 33  1  0  0  0
  2 37  1  0  0  0
  7 38  1  0  0  0
  8 39  1  0  0  0
  9 40  1  0  0  0
 10 41  1  0  0  0
 10 42  1  0  0  0
 10 43  1  0  0  0
 11 44  1  0  0  0
 13 45  1  0  0  0
 14 46  1  0  0  0
 14 47  1  0  0  0
 14 48  1  0  0  0
 16 49  1  0  0  0
 16 50  1  0  0  0
 16 51  1  0  0  0
 18 52  1  0  0  0
 20 53  1  0  0  0
 25 54  1  0  0  0
 29 55  1  0  0  0
 33 56  1  0  0  0
 34 57  1  0  0  0
 35 58  1  0  0  0
 36 59  1  0  0  0
M  END
$$$$
