6qad_ligand
  -I-interpret- 

 71 73  0  0  0  0  0  0  0  0999 V2000
   13.9130   40.9390   41.9920 C   0  0  0  0  0
   15.0700   40.1670   42.2250 C   0  0  0  0  0
   16.2390   40.4310   41.5430 C   0  0  0  0  0
   12.9730   46.1400   39.5580 N   0  3  0  0  0
   15.0730   42.2810   40.3620 C   0  0  0  0  0
   19.8520   44.6700   40.5340 C   0  0  0  0  0
   14.2100   45.3510   39.8880 C   0  0  0  0  0
   14.5560   44.3070   38.7870 C   0  0  0  0  0
   20.6830   43.5410   41.1480 C   0  0  0  0  0
   21.2490   42.0800   44.3320 C   0  0  0  0  0
   22.0960   41.4860   42.1660 C   0  0  0  0  0
   15.4810   46.2810   40.0670 C   0  0  0  0  0
   17.2250   47.2760   41.6590 C   0  0  0  0  0
   18.4890   46.8050   40.8600 C   0  0  0  0  0
   19.3930   45.7280   41.5420 C   0  0  0  0  0
   18.6810   45.0030   42.7060 C   0  0  0  0  0
   19.4780   43.8530   43.3360 C   0  0  0  0  0
   19.9500   42.8080   42.3030 C   0  0  0  0  0
   15.4170   43.2500   39.3550 C   0  0  0  0  0
   16.7360   43.0370   39.0550 C   0  0  0  0  0
   16.2140   41.4850   40.6220 C   0  0  0  0  0
   13.9160   41.9710   41.0840 C   0  0  0  0  0
   13.1670   47.5430   39.1450 C   0  0  0  0  0
   12.6690   48.5600   40.1700 C   0  0  0  0  0
   11.2760   49.0940   39.8360 C   0  0  0  0  0
   10.8600   50.2830   40.6760 C   0  0  0  0  0
   16.0210   46.4470   41.3640 N   0  0  0  0  0
   20.8460   41.7180   42.9450 N   0  3  0  0  0
   17.2490   41.9620   39.7990 N   0  0  0  0  0
   16.0200   46.8070   39.1110 O   0  0  0  0  0
   12.9995   40.7132   42.5421 H   0  0  0  0  0
   15.0399   39.3543   42.9507 H   0  0  0  0  0
   17.1422   39.8452   41.7134 H   0  0  0  0  0
   12.4262   46.1751   40.4183 H   0  0  0  0  0
   12.5467   45.6701   38.7594 H   0  0  0  0  0
   18.9553   44.2171   40.1110 H   0  0  0  0  0
   20.4835   45.1741   39.8024 H   0  0  0  0  0
   13.9780   44.8441   40.8246 H   0  0  0  0  0
   15.0833   44.8030   37.9721 H   0  0  0  0  0
   13.6356   43.8599   38.4115 H   0  0  0  0  0
   21.5913   43.9824   41.5582 H   0  0  0  0  0
   20.8814   42.8103   40.3639 H   0  0  0  0  0
   21.8251   41.2630   44.7665 H   0  0  0  0  0
   21.8585   42.9834   44.3078 H   0  0  0  0  0
   20.3574   42.2577   44.9334 H   0  0  0  0  0
   22.6963   42.3958   42.1653 H   0  0  0  0  0
   22.6629   40.6755   42.6240 H   0  0  0  0  0
   21.8394   41.2177   41.1412 H   0  0  0  0  0
   17.0059   48.3030   41.3667 H   0  0  0  0  0
   17.4453   47.1824   42.7224 H   0  0  0  0  0
   19.1149   47.6895   40.7416 H   0  0  0  0  0
   18.1114   46.3442   39.9472 H   0  0  0  0  0
   20.2499   46.2735   41.9373 H   0  0  0  0  0
   17.7699   44.5675   42.2958 H   0  0  0  0  0
   18.5237   45.7440   43.4898 H   0  0  0  0  0
   18.8241   43.3460   44.0456 H   0  0  0  0  0
   20.3647   44.2811   43.8035 H   0  0  0  0  0
   19.0793   42.2860   41.9062 H   0  0  0  0  0
   17.3098   43.6223   38.3364 H   0  0  0  0  0
   13.0082   42.5531   40.9252 H   0  0  0  0  0
   12.5942   47.6954   38.2302 H   0  0  0  0  0
   14.2385   47.7014   39.0232 H   0  0  0  0  0
   13.3607   49.4024   40.1712 H   0  0  0  0  0
   12.6151   48.0626   41.1384 H   0  0  0  0  0
   10.5646   48.2920   40.0329 H   0  0  0  0  0
   11.2937   49.4207   38.7963 H   0  0  0  0  0
   10.8546   49.9988   41.7283 H   0  0  0  0  0
   11.5657   51.0994   40.5225 H   0  0  0  0  0
    9.8613   50.6038   40.3799 H   0  0  0  0  0
   15.5609   45.9730   42.1412 H   0  0  0  0  0
   20.2773   40.8713   42.9505 H   0  0  0  0  0
  1  2  4  0  0  0
 22  1  4  0  0  0
  3  2  4  0  0  0
 21  3  4  0  0  0
  7  4  1  0  0  0
  4 23  1  0  0  0
 19  5  4  0  0  0
  5 21  4  0  0  0
  5 22  4  0  0  0
  9  6  1  0  0  0
  6 15  1  0  0  0
  7  8  1  0  0  0
 12  7  1  0  0  0
  8 19  1  0  0  0
 18  9  1  0  0  0
 28 10  1  0  0  0
 28 11  1  0  0  0
 27 12  1  0  0  0
 12 30  2  0  0  0
 14 13  1  0  0  0
 13 27  1  0  0  0
 15 14  1  0  0  0
 16 15  1  0  0  0
 17 16  1  0  0  0
 18 17  1  0  0  0
 18 28  1  0  0  0
 19 20  4  0  0  0
 20 29  4  0  0  0
 21 29  4  0  0  0
 23 24  1  0  0  0
 24 25  1  0  0  0
 25 26  1  0  0  0
  1 31  1  0  0  0
  2 32  1  0  0  0
  3 33  1  0  0  0
  4 34  1  0  0  0
  4 35  1  0  0  0
  6 36  1  0  0  0
  6 37  1  0  0  0
  7 38  1  0  0  0
  8 39  1  0  0  0
  8 40  1  0  0  0
  9 41  1  0  0  0
  9 42  1  0  0  0
 10 43  1  0  0  0
 10 44  1  0  0  0
 10 45  1  0  0  0
 11 46  1  0  0  0
 11 47  1  0  0  0
 11 48  1  0  0  0
 13 49  1  0  0  0
 13 50  1  0  0  0
 14 51  1  0  0  0
 14 52  1  0  0  0
 15 53  1  0  0  0
 16 54  1  0  0  0
 16 55  1  0  0  0
 17 56  1  0  0  0
 17 57  1  0  0  0
 18 58  1  0  0  0
 20 59  1  0  0  0
 22 60  1  0  0  0
 23 61  1  0  0  0
 23 62  1  0  0  0
 24 63  1  0  0  0
 24 64  1  0  0  0
 25 65  1  0  0  0
 25 66  1  0  0  0
 26 67  1  0  0  0
 26 68  1  0  0  0
 26 69  1  0  0  0
 27 70  1  0  0  0
 28 71  1  0  0  0
M  END
$$$$
