1owi_ligand
  -I-interpret- 

 51 54  0  0  0  0  0  0  0  0999 V2000
   17.1460   19.5630   34.0330 N   0  0  0  0  0
   18.4370   19.6740   34.0900 C   0  0  0  0  0
   18.9670   20.8550   34.4390 N   0  0  0  0  0
   19.2930   18.5410   33.7320 C   0  0  0  0  0
   20.6190   18.5020   34.2910 C   0  0  0  0  0
   21.5790   17.5160   33.9250 C   0  0  0  0  0
   22.8780   17.5500   34.5090 C   0  0  0  0  0
   23.8840   16.6040   34.1530 C   0  0  0  0  0
   23.6000   15.5920   33.1820 C   0  0  0  0  0
   22.2620   15.5510   32.5840 C   0  0  0  0  0
   21.2320   16.4980   32.9410 C   0  0  0  0  0
   19.8860   16.5220   32.3900 C   0  0  0  0  0
   18.9060   17.5200   32.7710 C   0  0  0  0  0
   24.7200   14.6820   32.8550 C   0  0  0  0  0
   25.6970   14.5930   33.5810 O   0  0  0  0  0
   24.6130   13.9590   31.6980 N   0  0  0  0  0
   25.5790   13.1240   31.1960 C   0  0  0  0  0
   25.9280   11.9100   31.8250 C   0  0  0  0  0
   26.9330   11.0850   31.2780 C   0  0  0  0  0
   27.5790   11.4640   30.0960 C   0  0  0  0  0
   27.2350   12.6810   29.4580 C   0  0  0  0  0
   27.8420   13.2250   28.3150 O   0  0  0  0  0
   28.5880   12.3390   27.4780 C   0  0  0  0  0
   27.8360   12.1370   26.1280 C   0  0  0  0  0
   28.6730   12.8340   25.0470 C   0  0  0  0  0
   29.9700   13.3800   25.7140 C   0  0  0  0  0
   29.9990   12.9220   27.1930 C   0  0  0  0  0
   26.2310   13.4860   30.0120 C   0  0  0  0  0
   16.7223   18.6834   33.7377 H   0  0  0  0  0
   18.3574   21.6442   34.6534 H   0  0  0  0  0
   19.9798   20.9643   34.4901 H   0  0  0  0  0
   20.8996   19.2580   35.0243 H   0  0  0  0  0
   23.1088   18.3186   35.2466 H   0  0  0  0  0
   24.8678   16.6517   34.6198 H   0  0  0  0  0
   22.0375   14.7808   31.8461 H   0  0  0  0  0
   19.6035   15.7606   31.6630 H   0  0  0  0  0
   17.9020   17.5056   32.3470 H   0  0  0  0  0
   23.7467   14.0479   31.1669 H   0  0  0  0  0
   25.4177   11.6078   32.7395 H   0  0  0  0  0
   27.2058   10.1541   31.7751 H   0  0  0  0  0
   28.3477   10.8221   29.6658 H   0  0  0  0  0
   28.6941   11.3828   27.9905 H   0  0  0  0  0
   26.8329   12.5609   26.1754 H   0  0  0  0  0
   27.7186   11.0767   25.9042 H   0  0  0  0  0
   28.1062   13.6526   24.6034 H   0  0  0  0  0
   28.9266   12.1283   24.2559 H   0  0  0  0  0
   29.9820   14.4688   25.6634 H   0  0  0  0  0
   30.8454   12.9958   25.1904 H   0  0  0  0  0
   30.7787   12.1799   27.3649 H   0  0  0  0  0
   30.2300   13.7509   27.8621 H   0  0  0  0  0
   25.9522   14.4128   29.5107 H   0  0  0  0  0
  1  2  2  0  0  0
  2  3  1  0  0  0
  2  4  1  0  0  0
  4  5  4  0  0  0
  4 13  4  0  0  0
  5  6  4  0  0  0
  6  7  4  0  0  0
  6 11  4  0  0  0
  7  8  4  0  0  0
  8  9  4  0  0  0
  9 10  4  0  0  0
  9 14  1  0  0  0
 10 11  4  0  0  0
 11 12  4  0  0  0
 12 13  4  0  0  0
 14 15  2  0  0  0
 14 16  1  0  0  0
 16 17  1  0  0  0
 17 18  4  0  0  0
 17 28  4  0  0  0
 18 19  4  0  0  0
 19 20  4  0  0  0
 20 21  4  0  0  0
 21 22  1  0  0  0
 21 28  4  0  0  0
 22 23  1  0  0  0
 23 24  1  0  0  0
 23 27  1  0  0  0
 24 25  1  0  0  0
 25 26  1  0  0  0
 26 27  1  0  0  0
  1 29  1  0  0  0
  3 30  1  0  0  0
  3 31  1  0  0  0
  5 32  1  0  0  0
  7 33  1  0  0  0
  8 34  1  0  0  0
 10 35  1  0  0  0
 12 36  1  0  0  0
 13 37  1  0  0  0
 16 38  1  0  0  0
 18 39  1  0  0  0
 19 40  1  0  0  0
 20 41  1  0  0  0
 23 42  1  0  0  0
 24 43  1  0  0  0
 24 44  1  0  0  0
 25 45  1  0  0  0
 25 46  1  0  0  0
 26 47  1  0  0  0
 26 48  1  0  0  0
 27 49  1  0  0  0
 27 50  1  0  0  0
 28 51  1  0  0  0
M  END
$$$$
