4hnn_ligand
  -I-interpret- 

 26 25  0  0  0  0  0  0  0  0999 V2000
   50.9360    0.5310   41.6770 N   0  3  0  0  0
   50.4450    1.7150   42.4370 C   0  0  0  0  0
   50.2000    1.3750   43.9130 C   0  0  0  0  0
   50.1650    0.2080   44.3200 O   0  0  0  0  0
   49.1840    2.3170   41.7840 C   0  0  0  0  0
   47.8430    1.7490   42.2530 C   0  0  0  0  0
   46.7210    2.2650   41.3580 C   0  0  0  0  0
   45.3280    2.2400   41.9890 C   0  0  0  0  0
   44.8480    0.9690   42.5950 N   0  3  0  0  0
   50.0150    2.2780   44.7340 O   0  0  0  0  0
   51.7683    0.1571   42.1330 H   0  0  0  0  0
   50.2084   -0.1835   41.6558 H   0  0  0  0  0
   51.1662    0.8119   40.7238 H   0  0  0  0  0
   51.2285    2.4720   42.4024 H   0  0  0  0  0
   50.3230   -0.3905   43.5862 H   0  0  0  0  0
   49.2548    2.0906   40.7201 H   0  0  0  0  0
   49.1774    3.3734   42.0523 H   0  0  0  0  0
   47.6580    2.0638   43.2800 H   0  0  0  0  0
   47.8745    0.6608   42.1997 H   0  0  0  0  0
   46.6846    1.6085   40.4887 H   0  0  0  0  0
   46.9483    3.3081   41.1380 H   0  0  0  0  0
   44.6393    2.4435   41.1690 H   0  0  0  0  0
   45.3757    2.9500   42.8147 H   0  0  0  0  0
   43.9103    1.1064   42.9723 H   0  0  0  0  0
   44.8252    0.2407   41.8812 H   0  0  0  0  0
   45.4805    0.6915   43.3456 H   0  0  0  0  0
  1  2  1  0  0  0
  2  3  1  0  0  0
  2  5  1  0  0  0
  3  4  1  0  0  0
  3 10  2  0  0  0
  5  6  1  0  0  0
  6  7  1  0  0  0
  7  8  1  0  0  0
  8  9  1  0  0  0
  1 11  1  0  0  0
  1 12  1  0  0  0
  1 13  1  0  0  0
  2 14  1  0  0  0
  4 15  1  0  0  0
  5 16  1  0  0  0
  5 17  1  0  0  0
  6 18  1  0  0  0
  6 19  1  0  0  0
  7 20  1  0  0  0
  7 21  1  0  0  0
  8 22  1  0  0  0
  8 23  1  0  0  0
  9 24  1  0  0  0
  9 25  1  0  0  0
  9 26  1  0  0  0
M  END
$$$$
