1pbk_ligand
  -I-interpret- 

144147  0  0  0  0  0  0  0  0999 V2000
   15.6590   25.8130   26.1970 C   0  0  0  0  0
   16.7240   24.8830   26.4370 O   0  0  0  0  0
   14.5120   25.3960   26.1200 O   0  0  0  0  0
   15.8700   27.3020   26.0400 C   0  0  0  0  0
   15.2480   27.7640   24.7380 C   0  0  0  0  0
   16.0780   27.4440   23.5060 C   0  0  0  0  0
   17.5260   27.9050   23.7140 C   0  0  0  0  0
   18.0920   27.2770   24.9830 C   0  0  0  0  0
   17.2610   27.7670   26.0830 N   0  0  0  0  0
   17.7790   28.3080   27.2080 C   0  0  0  0  0
   17.0480   28.5800   28.1730 O   0  0  0  0  0
   19.1080   28.7520   27.2870 C   0  0  0  0  0
   19.3830   29.8040   26.7010 O   0  0  0  0  0
   20.2250   27.9190   27.9440 C   0  0  0  0  0
   20.7010   27.1770   26.8340 O   0  0  0  0  0
   21.2210   28.7270   28.5550 O   0  0  0  0  0
   19.7080   27.0300   29.0780 C   0  0  0  0  0
   20.6390   25.8680   29.3280 C   0  0  0  0  0
   21.0510   25.1430   28.0440 C   0  0  0  0  0
   21.5810   26.0930   26.9710 C   0  0  0  0  0
   21.6540   25.3910   25.6260 C   0  0  0  0  0
   22.8310   24.4140   25.5050 C   0  0  0  0  0
   23.9340   25.2050   25.2720 O   0  0  0  0  0
   22.6600   23.4200   24.3650 C   0  0  0  0  0
   22.3750   22.1630   24.6600 C   0  0  0  0  0
   22.1400   21.0950   23.6790 C   0  0  0  0  0
   21.8680   19.8560   24.0780 C   0  0  0  0  0
   21.5240   18.8640   23.0580 C   0  0  0  0  0
   21.1810   17.6330   23.3730 C   0  0  0  0  0
   20.7160   16.5740   22.3740 C   0  0  0  0  0
   19.2870   16.2110   22.7150 C   0  0  0  0  0
   18.2660   17.3200   22.7380 C   0  0  0  0  0
   16.9950   16.7810   23.3800 C   0  0  0  0  0
   16.2070   16.0930   22.7320 O   0  0  0  0  0
   16.7550   17.0760   24.8580 C   0  0  0  0  0
   15.6700   16.3050   25.2300 O   0  0  0  0  0
   16.3280   18.5260   25.1920 C   0  0  0  0  0
   15.2060   18.8110   24.3600 O   0  0  0  0  0
   17.4210   19.6000   25.0150 C   0  0  0  0  0
   17.3780   20.5060   24.0270 C   0  0  0  0  0
   18.3520   21.6520   23.8170 C   0  0  0  0  0
   17.8390   22.9330   24.5010 C   0  0  0  0  0
   17.4220   23.9100   23.8720 O   0  0  0  0  0
   17.8620   22.9860   26.0150 C   0  0  0  0  0
   16.5790   23.5180   26.6020 C   0  0  0  0  0
   16.3650   23.2880   28.1120 C   0  0  0  0  0
   15.8670   21.8950   28.4260 C   0  0  0  0  0
   14.4120   21.5040   28.3120 C   0  0  0  0  0
   14.2740   19.9860   28.2690 C   0  0  0  0  0
   12.8300   19.5430   28.0340 C   0  0  0  0  0
   12.7320   18.1790   28.1680 O   0  0  0  0  0
   11.8320   20.1280   29.0430 C   0  0  0  0  0
   10.5710   19.9000   28.4180 O   0  0  0  0  0
   12.0550   21.6320   29.3210 C   0  0  0  0  0
   13.5350   22.0380   29.4580 C   0  0  0  0  0
   19.4920   27.7870   30.3880 C   0  0  0  0  0
   22.8490   23.9510   22.9370 C   0  0  0  0  0
   21.4920   15.2950   22.5320 C   0  0  0  0  0
   17.9600   17.8530   21.3370 C   0  0  0  0  0
   18.5380   19.5120   26.0500 C   0  0  0  0  0
   18.4990   21.8900   22.3260 C   0  0  0  0  0
   17.6380   23.4870   28.9040 C   0  0  0  0  0
   25.1480   24.7410   25.7220 C   0  0  0  0  0
   16.0680   15.3510   26.1250 C   0  0  0  0  0
   12.6250   17.5260   26.9490 C   0  0  0  0  0
   15.3903   27.7395   26.9155 H   0  0  0  0  0
   15.1556   28.8487   24.7918 H   0  0  0  0  0
   14.2976   27.2412   24.6313 H   0  0  0  0  0
   15.6567   27.9633   22.6452 H   0  0  0  0  0
   16.0656   26.3675   23.3352 H   0  0  0  0  0
   17.5480   28.9906   23.8089 H   0  0  0  0  0
   18.1284   27.5959   22.8598 H   0  0  0  0  0
   18.0706   26.1886   24.9275 H   0  0  0  0  0
   19.1371   27.5514   25.1262 H   0  0  0  0  0
   20.8366   29.2012   29.2960 H   0  0  0  0  0
   18.7378   26.6644   28.7415 H   0  0  0  0  0
   20.1132   25.1516   29.9592 H   0  0  0  0  0
   21.5436   26.2616   29.7914 H   0  0  0  0  0
   21.8499   24.4457   28.2963 H   0  0  0  0  0
   20.1674   24.6465   27.6430 H   0  0  0  0  0
   22.5740   26.4267   27.2722 H   0  0  0  0  0
   20.7370   24.8135   25.5089 H   0  0  0  0  0
   21.7873   26.1587   24.8638 H   0  0  0  0  0
   22.9156   23.8123   26.4099 H   0  0  0  0  0
   22.3092   21.8980   25.7153 H   0  0  0  0  0
   22.1891   21.3204   22.6137 H   0  0  0  0  0
   21.9003   19.5869   25.1338 H   0  0  0  0  0
   21.5527   19.1531   22.0074 H   0  0  0  0  0
   21.2324   17.3478   24.4238 H   0  0  0  0  0
   20.8427   16.9792   21.3701 H   0  0  0  0  0
   18.9627   15.5335   21.9251 H   0  0  0  0  0
   19.3202   15.8252   23.7339 H   0  0  0  0  0
   18.6687   18.1548   23.3116 H   0  0  0  0  0
   17.7007   16.8819   25.3640 H   0  0  0  0  0
   16.0982   18.5732   26.2565 H   0  0  0  0  0
   14.5373   18.1334   24.4833 H   0  0  0  0  0
   16.5663   20.4106   23.3058 H   0  0  0  0  0
   19.3157   21.3951   24.2567 H   0  0  0  0  0
   17.9999   21.9690   26.3821 H   0  0  0  0  0
   18.6680   23.6566   26.3128 H   0  0  0  0  0
   15.7392   23.0191   26.1184 H   0  0  0  0  0
   15.6150   24.0257   28.3974 H   0  0  0  0  0
   16.0723   21.7894   29.4913 H   0  0  0  0  0
   16.3524   21.2786   27.6693 H   0  0  0  0  0
   14.0586   21.9592   27.3868 H   0  0  0  0  0
   14.5979   19.5890   29.2311 H   0  0  0  0  0
   14.8811   19.6138   27.4438 H   0  0  0  0  0
   12.5841   19.8975   27.0330 H   0  0  0  0  0
   11.9285   19.6648   30.0249 H   0  0  0  0  0
    9.8704   20.2368   28.9813 H   0  0  0  0  0
   11.5708   21.8581   30.2710 H   0  0  0  0  0
   11.6494   22.1793   28.4701 H   0  0  0  0  0
   13.5847   23.1266   29.4353 H   0  0  0  0  0
   13.9111   21.6149   30.3895 H   0  0  0  0  0
   20.4366   28.2217   30.7150 H   0  0  0  0  0
   18.7605   28.5799   30.2316 H   0  0  0  0  0
   19.1254   27.0975   31.1484 H   0  0  0  0  0
   23.6721   23.4197   22.4591 H   0  0  0  0  0
   21.9332   23.7924   22.3676 H   0  0  0  0  0
   23.0755   25.0166   22.9740 H   0  0  0  0  0
   21.4008   14.9407   23.5588 H   0  0  0  0  0
   21.0940   14.5434   21.8502 H   0  0  0  0  0
   22.5415   15.4774   22.3011 H   0  0  0  0  0
   17.5614   17.0463   20.7218 H   0  0  0  0  0
   17.2253   18.6551   21.4073 H   0  0  0  0  0
   18.8761   18.2360   20.8872 H   0  0  0  0  0
   19.4869   19.3335   25.5443 H   0  0  0  0  0
   18.5914   20.4483   26.6055 H   0  0  0  0  0
   18.3311   18.6916   26.7372 H   0  0  0  0  0
   17.5306   22.1611   21.9054 H   0  0  0  0  0
   19.2094   22.6992   22.1568 H   0  0  0  0  0
   18.8622   20.9801   21.8482 H   0  0  0  0  0
   18.3943   22.7831   28.5566 H   0  0  0  0  0
   17.9966   24.5066   28.7628 H   0  0  0  0  0
   17.4373   23.3142   29.9613 H   0  0  0  0  0
   25.1071   24.6094   26.8033 H   0  0  0  0  0
   25.3692   23.7854   25.2465 H   0  0  0  0  0
   25.9265   25.4617   25.4716 H   0  0  0  0  0
   16.8233   14.7146   25.6639 H   0  0  0  0  0
   16.4878   15.8347   27.0070 H   0  0  0  0  0
   15.2090   14.7459   26.4151 H   0  0  0  0  0
   11.7334   17.8752   26.4283 H   0  0  0  0  0
   13.5070   17.7396   26.3452 H   0  0  0  0  0
   12.5508   16.4519   27.1189 H   0  0  0  0  0
  1  4  1  0  0  0
  1  3  2  0  0  0
  1  2  1  0  0  0
  2 45  1  0  0  0
 45 46  1  0  0  0
 45 44  1  0  0  0
 44 42  1  0  0  0
 42 43  2  0  0  0
 42 41  1  0  0  0
 41 61  1  0  0  0
 41 40  1  0  0  0
 40 39  2  0  0  0
 39 60  1  0  0  0
 39 37  1  0  0  0
 37 38  1  0  0  0
 37 35  1  0  0  0
 35 36  1  0  0  0
 35 33  1  0  0  0
 33 34  2  0  0  0
 33 32  1  0  0  0
 32 59  1  0  0  0
 32 31  1  0  0  0
 31 30  1  0  0  0
 30 58  1  0  0  0
 30 29  1  0  0  0
 29 28  2  0  0  0
 28 27  1  0  0  0
 27 26  2  0  0  0
 26 25  1  0  0  0
 25 24  2  0  0  0
 24 57  1  0  0  0
 24 22  1  0  0  0
 22 23  1  0  0  0
 22 21  1  0  0  0
 21 20  1  0  0  0
 20 19  1  0  0  0
 20 15  1  0  0  0
 15 14  1  0  0  0
 14 17  1  0  0  0
 14 16  1  0  0  0
 14 12  1  0  0  0
 12 13  2  0  0  0
 12 10  1  0  0  0
 10 11  2  0  0  0
 10  9  1  0  0  0
  9  8  1  0  0  0
  9  4  1  0  0  0
  4  5  1  0  0  0
  5  6  1  0  0  0
  6  7  1  0  0  0
  7  8  1  0  0  0
 17 56  1  0  0  0
 17 18  1  0  0  0
 18 19  1  0  0  0
 23 63  1  0  0  0
 36 64  1  0  0  0
 46 62  1  0  0  0
 46 47  1  0  0  0
 47 48  1  0  0  0
 48 55  1  0  0  0
 48 49  1  0  0  0
 49 50  1  0  0  0
 50 52  1  0  0  0
 50 51  1  0  0  0
 51 65  1  0  0  0
 52 54  1  0  0  0
 52 53  1  0  0  0
 54 55  1  0  0  0
  4 66  1  0  0  0
  5 67  1  0  0  0
  5 68  1  0  0  0
  6 69  1  0  0  0
  6 70  1  0  0  0
  7 71  1  0  0  0
  7 72  1  0  0  0
  8 73  1  0  0  0
  8 74  1  0  0  0
 16 75  1  0  0  0
 17 76  1  0  0  0
 18 77  1  0  0  0
 18 78  1  0  0  0
 19 79  1  0  0  0
 19 80  1  0  0  0
 20 81  1  0  0  0
 21 82  1  0  0  0
 21 83  1  0  0  0
 22 84  1  0  0  0
 25 85  1  0  0  0
 26 86  1  0  0  0
 27 87  1  0  0  0
 28 88  1  0  0  0
 29 89  1  0  0  0
 30 90  1  0  0  0
 31 91  1  0  0  0
 31 92  1  0  0  0
 32 93  1  0  0  0
 35 94  1  0  0  0
 37 95  1  0  0  0
 38 96  1  0  0  0
 40 97  1  0  0  0
 41 98  1  0  0  0
 44 99  1  0  0  0
 44100  1  0  0  0
 45101  1  0  0  0
 46102  1  0  0  0
 47103  1  0  0  0
 47104  1  0  0  0
 48105  1  0  0  0
 49106  1  0  0  0
 49107  1  0  0  0
 50108  1  0  0  0
 52109  1  0  0  0
 53110  1  0  0  0
 54111  1  0  0  0
 54112  1  0  0  0
 55113  1  0  0  0
 55114  1  0  0  0
 56115  1  0  0  0
 56116  1  0  0  0
 56117  1  0  0  0
 57118  1  0  0  0
 57119  1  0  0  0
 57120  1  0  0  0
 58121  1  0  0  0
 58122  1  0  0  0
 58123  1  0  0  0
 59124  1  0  0  0
 59125  1  0  0  0
 59126  1  0  0  0
 60127  1  0  0  0
 60128  1  0  0  0
 60129  1  0  0  0
 61130  1  0  0  0
 61131  1  0  0  0
 61132  1  0  0  0
 62133  1  0  0  0
 62134  1  0  0  0
 62135  1  0  0  0
 63136  1  0  0  0
 63137  1  0  0  0
 63138  1  0  0  0
 64139  1  0  0  0
 64140  1  0  0  0
 64141  1  0  0  0
 65142  1  0  0  0
 65143  1  0  0  0
 65144  1  0  0  0
M  END
$$$$
