5ads_ligand
  -I-interpret- 

 58 61  0  0  0  0  0  0  0  0999 V2000
   13.7180    1.8980   25.1310 C   0  0  0  0  0
   14.0680    1.8190   23.7080 O   0  0  0  0  0
   13.2740    2.6040   22.8660 C   0  0  0  0  0
   12.3260    3.5200   23.3300 C   0  0  0  0  0
   11.5770    4.3140   22.4470 C   0  0  0  0  0
   11.7090    4.1970   21.0530 C   0  0  0  0  0
   12.6650    3.2600   20.5900 C   0  0  0  0  0
   13.4120    2.4760   21.4890 C   0  0  0  0  0
   10.9280    4.9950   20.0760 C   0  0  0  0  0
   10.0000    4.0270   19.2890 C   0  0  0  0  0
    9.1610    3.1800   20.1600 N   0  0  0  0  0
    8.1060    2.5250   19.6910 C   0  0  0  0  0
    7.9500    2.5200   18.4690 O   0  0  0  0  0
    7.4430    1.5950   20.5480 C   0  0  0  0  0
    7.6190    1.4630   21.9440 C   0  0  0  0  0
    8.7170    2.6290   22.9100 Cl  0  0  0  0  0
    6.9590    0.4530   22.6640 C   0  0  0  0  0
    6.1080   -0.4650   22.0670 C   0  0  0  0  0
    5.5840   -1.4360   22.8340 N   0  0  0  0  0
    4.6710   -2.3360   22.4500 C   0  0  0  0  0
    3.9920   -2.2840   21.4230 O   0  0  0  0  0
    4.4620   -3.2770   23.3890 C   0  0  0  0  0
    3.5530   -4.2360   23.3640 C   0  0  0  0  0
    3.6740   -4.9940   24.4630 C   0  0  0  0  0
    4.6750   -4.5220   25.2150 C   0  0  0  0  0
    5.2190   -3.4150   24.5520 O   0  0  0  0  0
    5.9730   -0.3550   20.6890 C   0  0  0  0  0
    6.6240    0.6370   19.9830 C   0  0  0  0  0
   11.9230    5.5320   19.0920 C   0  0  0  0  0
   12.0000    7.0760   18.9390 C   0  0  0  0  0
   11.5960    7.7610   20.1390 O   0  0  0  0  0
   10.1850    7.4550   20.2290 C   0  0  0  0  0
    9.9860    6.0790   20.7480 C   0  0  0  0  0
   13.8192    2.9283   25.4721 H   0  0  0  0  0
   12.6886    1.5675   25.2695 H   0  0  0  0  0
   14.3872    1.2567   25.7046 H   0  0  0  0  0
   12.1642    3.6204   24.4032 H   0  0  0  0  0
   10.8740    5.0409   22.8539 H   0  0  0  0  0
   12.8251    3.1440   19.5181 H   0  0  0  0  0
   14.1195    1.7471   21.0937 H   0  0  0  0  0
   10.6375    3.3650   18.7029 H   0  0  0  0  0
    9.3313    4.6357   18.6803 H   0  0  0  0  0
    9.3984    3.0959   21.1484 H   0  0  0  0  0
    7.1231    0.3881   23.7396 H   0  0  0  0  0
    5.9125   -1.4923   23.7980 H   0  0  0  0  0
    2.8189   -4.3871   22.5726 H   0  0  0  0  0
    3.0551   -5.8578   24.7055 H   0  0  0  0  0
    5.0071   -4.9263   26.1712 H   0  0  0  0  0
    5.3414   -1.0650   20.1551 H   0  0  0  0  0
    6.4815    0.6662   18.9028 H   0  0  0  0  0
   11.6142    5.1513   18.1184 H   0  0  0  0  0
   12.9013    5.2198   19.4573 H   0  0  0  0  0
   11.3252    7.3717   18.1357 H   0  0  0  0  0
   13.0347    7.3450   18.7264 H   0  0  0  0  0
    9.7421    7.5272   19.2357 H   0  0  0  0  0
    9.7109    8.1629   20.9089 H   0  0  0  0  0
   10.2212    6.0972   21.8122 H   0  0  0  0  0
    8.9570    5.7953   20.5270 H   0  0  0  0  0
  1  2  1  0  0  0
  2  3  1  0  0  0
  3  4  4  0  0  0
  3  8  4  0  0  0
  4  5  4  0  0  0
  5  6  4  0  0  0
  6  7  4  0  0  0
  6  9  1  0  0  0
  7  8  4  0  0  0
  9 10  1  0  0  0
  9 29  1  0  0  0
  9 33  1  0  0  0
 10 11  1  0  0  0
 11 12  1  0  0  0
 12 13  2  0  0  0
 12 14  1  0  0  0
 14 15  4  0  0  0
 14 28  4  0  0  0
 15 16  1  0  0  0
 15 17  4  0  0  0
 17 18  4  0  0  0
 18 19  1  0  0  0
 18 27  4  0  0  0
 19 20  1  0  0  0
 20 21  2  0  0  0
 20 22  1  0  0  0
 22 23  4  0  0  0
 22 26  4  0  0  0
 23 24  4  0  0  0
 24 25  4  0  0  0
 25 26  4  0  0  0
 27 28  4  0  0  0
 29 30  1  0  0  0
 30 31  1  0  0  0
 31 32  1  0  0  0
 32 33  1  0  0  0
  1 34  1  0  0  0
  1 35  1  0  0  0
  1 36  1  0  0  0
  4 37  1  0  0  0
  5 38  1  0  0  0
  7 39  1  0  0  0
  8 40  1  0  0  0
 10 41  1  0  0  0
 10 42  1  0  0  0
 11 43  1  0  0  0
 17 44  1  0  0  0
 19 45  1  0  0  0
 23 46  1  0  0  0
 24 47  1  0  0  0
 25 48  1  0  0  0
 27 49  1  0  0  0
 28 50  1  0  0  0
 29 51  1  0  0  0
 29 52  1  0  0  0
 30 53  1  0  0  0
 30 54  1  0  0  0
 32 55  1  0  0  0
 32 56  1  0  0  0
 33 57  1  0  0  0
 33 58  1  0  0  0
M  END
$$$$
