1b6k_ligand
  -I-interpret- 

103106  0  0  0  0  0  0  0  0999 V2000
    3.9510    3.5910    8.4490 C   0  0  0  0  0
    3.3590    2.3660    9.1930 C   0  0  0  0  0
    3.5310    4.1510   10.6590 C   0  0  0  0  0
    3.5450    4.7720   11.7270 O   0  0  0  0  0
    3.8500    4.8040    9.3470 C   0  0  0  0  0
    3.2290    2.8450   10.5950 N   0  0  0  0  0
    2.9040    2.0930   11.8060 C   0  0  0  0  0
    1.6140    1.2640   11.5730 C   0  0  0  0  0
    1.2720    0.4580   12.8120 C   0  0  0  0  0
    0.4560    2.1860   11.2480 C   0  0  0  0  0
    4.1080    1.2140   12.1230 C   0  0  0  0  0
    4.2510    0.1030   11.5900 O   0  0  0  0  0
    4.9930    1.7390   12.9650 N   0  0  0  0  0
    6.2090    1.0250   13.3620 C   0  0  0  0  0
    7.4370    1.8970   13.1060 C   0  0  0  0  0
    7.5970    2.2990   11.6700 C   0  0  0  0  0
    7.8070    1.3430   10.6840 C   0  0  0  0  0
    7.5140    3.6360   11.2900 C   0  0  0  0  0
    7.9270    1.7030    9.3540 C   0  0  0  0  0
    7.6330    4.0090    9.9640 C   0  0  0  0  0
    7.8380    3.0360    9.0010 C   0  0  0  0  0
    6.1730    0.6200   14.8240 C   0  0  0  0  0
    4.9850   -0.2890   15.1060 C   0  0  0  0  0
    7.3840   -0.0730   15.1370 O   0  0  0  0  0
    7.9460    3.3900    7.6750 O   0  0  0  0  0
    5.0220   -0.6580   16.5240 N   0  3  0  0  0
    4.8090   -2.1090   16.8080 C   0  0  0  0  0
    3.4070   -2.5610   16.3990 C   0  0  0  0  0
    3.2560   -4.0520   16.5240 C   0  0  0  0  0
    3.2090   -4.6630   17.7790 C   0  0  0  0  0
    3.2090   -6.0390   17.9030 C   0  0  0  0  0
    3.2850   -4.8640   15.3950 C   0  0  0  0  0
    3.2870   -6.2380   15.5090 C   0  0  0  0  0
    3.2550   -6.8200   16.7620 C   0  0  0  0  0
    3.2990   -8.1900   16.8510 O   0  0  0  0  0
    3.8180   -8.8460   17.9920 C   0  0  0  0  0
    5.8340   -3.1040   16.2610 C   0  0  0  0  0
    6.0910   -3.1640   15.0560 O   0  0  0  0  0
    6.3990   -3.8970   17.1670 N   0  0  0  0  0
    7.3890   -4.9310   16.8300 C   0  0  0  0  0
    7.0690   -6.0100   17.8670 C   0  0  0  0  0
    7.2130   -5.7790   19.0760 O   0  0  0  0  0
    8.8560   -4.4570   17.0510 C   0  0  0  0  0
    9.2160   -3.3310   16.0840 C   0  0  0  0  0
    9.8250   -5.6170   16.8520 C   0  0  0  0  0
    9.5520   -3.7930   14.6950 C   0  0  0  0  0
    6.5900   -7.1610   17.4020 N   0  0  0  0  0
    6.2670   -8.2470   18.3150 C   0  0  0  0  0
    5.2680   -9.2710   17.7810 C   0  0  0  0  0
    4.9953    3.4022    8.2002 H   0  0  0  0  0
    3.3956    3.7668    7.5277 H   0  0  0  0  0
    3.9890    1.4804    9.1095 H   0  0  0  0  0
    2.4081    2.0394    8.7719 H   0  0  0  0  0
    3.1103    5.5362    9.0234 H   0  0  0  0  0
    4.7488    5.4204    9.3642 H   0  0  0  0  0
    2.7054    2.7494   12.6533 H   0  0  0  0  0
    1.7891    0.5854   10.7382 H   0  0  0  0  0
    2.0940   -0.2203   13.0410 H   0  0  0  0  0
    1.1129    1.1347   13.6516 H   0  0  0  0  0
    0.3642   -0.1174   12.6304 H   0  0  0  0  0
    0.2960    2.8730   12.0790 H   0  0  0  0  0
    0.6865    2.7525   10.3457 H   0  0  0  0  0
   -0.4444    1.5933   11.0864 H   0  0  0  0  0
    4.8197    2.6688   13.3468 H   0  0  0  0  0
    6.2663    0.1179   12.7603 H   0  0  0  0  0
    8.3157    1.3145   13.3828 H   0  0  0  0  0
    7.3182    2.8095   13.6902 H   0  0  0  0  0
    7.8784    0.2918   10.9632 H   0  0  0  0  0
    7.3527    4.4006   12.0499 H   0  0  0  0  0
    8.0903    0.9419    8.5910 H   0  0  0  0  0
    7.5660    5.0591    9.6797 H   0  0  0  0  0
    6.0740    1.5150   15.4383 H   0  0  0  0  0
    5.0386   -1.1821   14.4834 H   0  0  0  0  0
    4.0532    0.2276   14.8760 H   0  0  0  0  0
    7.3722   -0.3343   16.0607 H   0  0  0  0  0
    7.8643    4.3429    7.5917 H   0  0  0  0  0
    4.2594   -0.1552   16.9779 H   0  0  0  0  0
    5.9558   -0.4268   16.8630 H   0  0  0  0  0
    4.9474   -2.1424   17.8887 H   0  0  0  0  0
    3.2418   -2.2813   15.3585 H   0  0  0  0  0
    2.6820   -2.0822   17.0573 H   0  0  0  0  0
    3.1717   -4.0440   18.6754 H   0  0  0  0  0
    3.1732   -6.5038   18.8883 H   0  0  0  0  0
    3.3065   -4.4073   14.4055 H   0  0  0  0  0
    3.3137   -6.8619   14.6156 H   0  0  0  0  0
    3.2204   -9.7381   18.1792 H   0  0  0  0  0
    3.7796   -8.1556   18.8346 H   0  0  0  0  0
    6.1322   -3.7822   18.1448 H   0  0  0  0  0
    7.3295   -5.2325   15.7842 H   0  0  0  0  0
    8.9357   -4.0868   18.0731 H   0  0  0  0  0
   10.1033   -2.8383   16.4815 H   0  0  0  0  0
    8.3418   -2.6848   16.0044 H   0  0  0  0  0
    9.5952   -6.4074   17.5666 H   0  0  0  0  0
    9.7249   -6.0024   15.8373 H   0  0  0  0  0
   10.8453   -5.2677   17.0103 H   0  0  0  0  0
   10.4084   -4.4662   14.7346 H   0  0  0  0  0
    8.6956   -4.3170   14.2706 H   0  0  0  0  0
    9.7950   -2.9299   14.0752 H   0  0  0  0  0
    6.4483   -7.2828   16.3993 H   0  0  0  0  0
    7.1963   -8.7850   18.5022 H   0  0  0  0  0
    5.8088   -7.7916   19.1929 H   0  0  0  0  0
    5.4340   -9.3722   16.7085 H   0  0  0  0  0
    5.4248  -10.2044   18.3216 H   0  0  0  0  0
  5  1  1  0  0  0
  1  2  1  0  0  0
  2  6  1  0  0  0
  6  7  1  0  0  0
  6  3  1  0  0  0
  3  5  1  0  0  0
  3  4  2  0  0  0
  7 11  1  0  0  0
  7  8  1  0  0  0
  8 10  1  0  0  0
  8  9  1  0  0  0
 11 13  1  0  0  0
 11 12  2  0  0  0
 13 14  1  0  0  0
 14 22  1  0  0  0
 14 15  1  0  0  0
 15 16  1  0  0  0
 16 18  4  0  0  0
 16 17  4  0  0  0
 17 19  4  0  0  0
 19 21  4  0  0  0
 21 25  1  0  0  0
 21 20  4  0  0  0
 18 20  4  0  0  0
 22 24  1  0  0  0
 22 23  1  0  0  0
 23 26  1  0  0  0
 26 27  1  0  0  0
 27 37  1  0  0  0
 27 28  1  0  0  0
 28 29  1  0  0  0
 29 32  4  0  0  0
 29 30  4  0  0  0
 30 31  4  0  0  0
 31 34  4  0  0  0
 34 35  1  0  0  0
 34 33  4  0  0  0
 33 32  4  0  0  0
 35 36  1  0  0  0
 36 49  1  0  0  0
 49 48  1  0  0  0
 48 47  1  0  0  0
 47 41  1  0  0  0
 41 42  2  0  0  0
 41 40  1  0  0  0
 40 43  1  0  0  0
 40 39  1  0  0  0
 39 37  1  0  0  0
 37 38  2  0  0  0
 43 45  1  0  0  0
 43 44  1  0  0  0
 44 46  1  0  0  0
  1 50  1  0  0  0
  1 51  1  0  0  0
  2 52  1  0  0  0
  2 53  1  0  0  0
  5 54  1  0  0  0
  5 55  1  0  0  0
  7 56  1  0  0  0
  8 57  1  0  0  0
  9 58  1  0  0  0
  9 59  1  0  0  0
  9 60  1  0  0  0
 10 61  1  0  0  0
 10 62  1  0  0  0
 10 63  1  0  0  0
 13 64  1  0  0  0
 14 65  1  0  0  0
 15 66  1  0  0  0
 15 67  1  0  0  0
 17 68  1  0  0  0
 18 69  1  0  0  0
 19 70  1  0  0  0
 20 71  1  0  0  0
 22 72  1  0  0  0
 23 73  1  0  0  0
 23 74  1  0  0  0
 24 75  1  0  0  0
 25 76  1  0  0  0
 26 77  1  0  0  0
 26 78  1  0  0  0
 27 79  1  0  0  0
 28 80  1  0  0  0
 28 81  1  0  0  0
 30 82  1  0  0  0
 31 83  1  0  0  0
 32 84  1  0  0  0
 33 85  1  0  0  0
 36 86  1  0  0  0
 36 87  1  0  0  0
 39 88  1  0  0  0
 40 89  1  0  0  0
 43 90  1  0  0  0
 44 91  1  0  0  0
 44 92  1  0  0  0
 45 93  1  0  0  0
 45 94  1  0  0  0
 45 95  1  0  0  0
 46 96  1  0  0  0
 46 97  1  0  0  0
 46 98  1  0  0  0
 47 99  1  0  0  0
 48100  1  0  0  0
 48101  1  0  0  0
 49102  1  0  0  0
 49103  1  0  0  0
M  END
$$$$
