3lk1_ligand
  -I-interpret- 

 16 16  0  0  0  0  0  0  0  0999 V2000
  -14.4790    9.4680   -9.1930 S   0  0  0  0  0
  -11.3500    9.6020   -9.4850 C   0  0  0  0  0
  -12.0090   10.5540   -8.5370 C   0  0  0  0  0
  -14.0480   11.4490   -7.4460 C   0  0  0  0  0
  -11.5380    9.7380  -10.7110 O   0  0  0  0  0
  -11.8520   12.3420   -6.9300 C   0  0  0  0  0
  -10.6300    8.6940   -9.0190 O   0  0  0  0  0
  -13.4850   10.5490   -8.3440 C   0  0  0  0  0
  -11.2390   11.4600   -7.8160 C   0  0  0  0  0
  -13.2340   12.3360   -6.7460 C   0  0  0  0  0
  -15.7469    9.6660   -8.8434 H   0  0  0  0  0
  -15.1267   11.4603   -7.2899 H   0  0  0  0  0
  -11.2405   13.0498   -6.3703 H   0  0  0  0  0
  -10.6135    8.7599   -8.0614 H   0  0  0  0  0
  -10.1568   11.4797   -7.9443 H   0  0  0  0  0
  -13.6845   13.0367   -6.0431 H   0  0  0  0  0
  8  1  1  0  0  0
  3  2  1  0  0  0
  2  5  2  0  0  0
  2  7  1  0  0  0
  3  8  4  0  0  0
  3  9  4  0  0  0
  8  4  4  0  0  0
  4 10  4  0  0  0
  9  6  4  0  0  0
  6 10  4  0  0  0
  1 11  1  0  0  0
  4 12  1  0  0  0
  6 13  1  0  0  0
  7 14  1  0  0  0
  9 15  1  0  0  0
 10 16  1  0  0  0
M  END
$$$$
