1n7i_ligand
  -I-interpret- 

 25 26  0  0  0  0  0  0  0  0999 V2000
   28.7410   42.9880   18.6050 C   0  0  0  0  0
   30.2040   42.9620   18.9620 N   0  3  0  0  0
   30.5990   44.0970   19.8420 C   0  0  0  0  0
   30.5780   45.4320   19.1100 C   0  0  0  0  0
   29.1820   45.8330   18.6630 C   0  0  0  0  0
   28.7280   45.1740   17.3900 C   0  0  0  0  0
   28.5330   45.9550   16.2670 C   0  0  0  0  0
   28.1150   45.3690   15.0850 C   0  0  0  0  0
   27.8760   43.9940   15.0050 C   0  0  0  0  0
   28.0670   43.1600   16.1520 C   0  0  0  0  0
   28.5030   43.7870   17.3460 C   0  0  0  0  0
   27.4610   43.4860   13.6900 Cl  0  0  0  0  0
   27.7990   41.6700   16.1480 Cl  0  0  0  0  0
   28.1906   43.4532   19.4227 H   0  0  0  0  0
   28.4045   41.9648   18.4377 H   0  0  0  0  0
   30.7396   43.0344   18.0969 H   0  0  0  0  0
   30.3887   42.0948   19.4662 H   0  0  0  0  0
   31.6169   43.9176   20.1880 H   0  0  0  0  0
   29.8852   44.1513   20.6639 H   0  0  0  0  0
   31.2000   45.3358   18.2200 H   0  0  0  0  0
   30.9423   46.1962   19.7966 H   0  0  0  0  0
   29.1996   46.9074   18.4799 H   0  0  0  0  0
   28.4922   45.5240   19.4483 H   0  0  0  0  0
   28.7079   47.0299   16.3119 H   0  0  0  0  0
   27.9696   45.9903   14.2013 H   0  0  0  0  0
  1  2  1  0  0  0
  1 11  1  0  0  0
  2  3  1  0  0  0
  3  4  1  0  0  0
  4  5  1  0  0  0
  5  6  1  0  0  0
  6  7  4  0  0  0
  6 11  4  0  0  0
  7  8  4  0  0  0
  8  9  4  0  0  0
  9 10  4  0  0  0
  9 12  1  0  0  0
 10 11  4  0  0  0
 10 13  1  0  0  0
  1 14  1  0  0  0
  1 15  1  0  0  0
  2 16  1  0  0  0
  2 17  1  0  0  0
  3 18  1  0  0  0
  3 19  1  0  0  0
  4 20  1  0  0  0
  4 21  1  0  0  0
  5 22  1  0  0  0
  5 23  1  0  0  0
  7 24  1  0  0  0
  8 25  1  0  0  0
M  END
$$$$
