2zsc_ligand
  -I-interpret- 

 32 33  0  0  0  0  0  0  0  0999 V2000
   14.1560   22.4050    2.9620 C   0  0  0  0  0
   13.9850   22.2160    1.7370 O   0  0  0  0  0
   14.7600   21.5300    3.6280 O   0  0  0  0  0
   13.6220   23.6740    3.6020 C   0  0  0  0  0
   13.1230   23.4580    5.0360 C   0  0  0  0  0
   11.8900   22.5630    5.0560 C   0  0  0  0  0
   11.4040   22.3260    6.4820 C   0  0  0  0  0
   10.1210   21.4730    6.4680 C   0  0  0  0  0
    8.7130   22.2680    5.9470 S   0  0  0  0  0
    7.7570   20.8330    6.4920 C   0  0  0  0  0
    8.3220   20.4520    7.8460 C   0  0  0  0  0
    7.7620   21.2580    8.9080 N   0  0  0  0  0
    8.6760   22.0520    9.4420 C   0  0  0  0  0
    8.4160   22.8810   10.5260 O   0  0  0  0  0
    9.8640   21.8480    8.9240 N   0  0  0  0  0
    9.7830   20.8770    7.8430 C   0  0  0  0  0
   14.8160   21.8092    4.5448 H   0  0  0  0  0
   12.7772   24.0170    3.0047 H   0  0  0  0  0
   14.4381   24.3956    3.6396 H   0  0  0  0  0
   12.8600   24.4253    5.4642 H   0  0  0  0  0
   13.9133   22.9775    5.6127 H   0  0  0  0  0
   12.1504   21.6018    4.6128 H   0  0  0  0  0
   11.0949   23.0533    4.4943 H   0  0  0  0  0
   11.1906   23.2861    6.9518 H   0  0  0  0  0
   12.1777   21.8000    7.0413 H   0  0  0  0  0
   10.3835   20.7033    5.7423 H   0  0  0  0  0
    7.8375   20.0096    5.7823 H   0  0  0  0  0
    6.6940   21.0654    6.5565 H   0  0  0  0  0
    8.1268   19.3911    8.0028 H   0  0  0  0  0
    6.7876   21.2194    9.2071 H   0  0  0  0  0
   10.7216   22.3046    9.2345 H   0  0  0  0  0
   10.4967   20.0681    7.9997 H   0  0  0  0  0
  1  2  2  0  0  0
  1  3  1  0  0  0
  1  4  1  0  0  0
  4  5  1  0  0  0
  5  6  1  0  0  0
  6  7  1  0  0  0
  7  8  1  0  0  0
  8  9  1  0  0  0
  8 16  1  0  0  0
  9 10  1  0  0  0
 10 11  1  0  0  0
 11 12  1  0  0  0
 11 16  1  0  0  0
 12 13  1  0  0  0
 13 14  2  0  0  0
 13 15  1  0  0  0
 15 16  1  0  0  0
  3 17  1  0  0  0
  4 18  1  0  0  0
  4 19  1  0  0  0
  5 20  1  0  0  0
  5 21  1  0  0  0
  6 22  1  0  0  0
  6 23  1  0  0  0
  7 24  1  0  0  0
  7 25  1  0  0  0
  8 26  1  0  0  0
 10 27  1  0  0  0
 10 28  1  0  0  0
 11 29  1  0  0  0
 12 30  1  0  0  0
 15 31  1  0  0  0
 16 32  1  0  0  0
M  END
$$$$
