3h22_ligand
  -I-interpret- 

 15 15  0  0  0  0  0  0  0  0999 V2000
  -80.0240   87.7900   94.3790 O   0  0  0  0  0
  -78.9710   87.2090   94.1400 N   0  0  0  0  0
  -78.8800   86.1680   93.2150 C   0  0  0  0  0
  -79.8080   86.0040   92.0710 C   0  0  0  0  0
  -80.7810   86.7530   91.8750 O   0  0  0  0  0
  -77.7830   85.1720   93.3290 C   0  0  0  0  0
  -76.8700   85.2890   94.3160 N   0  0  0  0  0
  -77.6950   84.1660   92.4140 N   0  0  0  0  0
  -78.5970   84.0870   91.3970 C   0  0  0  0  0
  -78.5100   83.0950   90.5000 N   0  0  0  0  0
  -79.6180   84.9600   91.2470 N   0  0  0  0  0
  -79.6449   86.7381   93.7424 H   0  0  0  0  0
  -76.1030   84.6200   94.3832 H   0  0  0  0  0
  -76.9523   83.4711   92.4911 H   0  0  0  0  0
  -79.1961   83.0253   89.7485 H   0  0  0  0  0
  1  2  2  0  0  0
  2  3  1  0  0  0
  3  4  1  0  0  0
  3  6  1  0  0  0
  4  5  2  0  0  0
  4 11  1  0  0  0
  6  7  2  0  0  0
  6  8  1  0  0  0
  8  9  1  0  0  0
  9 10  2  0  0  0
  9 11  4  0  0  0
  3 12  1  0  0  0
  7 13  1  0  0  0
  8 14  1  0  0  0
 10 15  1  0  0  0
M  END
$$$$
