### 
### Created by X-TOOL on Mon Sep 10 21:13:01 2018
### 

@<TRIPOS>MOLECULE
3h22_ligand
   17    17     1     0     0
SMALL
GAST_HUCK


@<TRIPOS>ATOM
      1 O10       -80.0240   87.7900   94.3790 O.2       1 B53        -0.1819
      2 N9        -78.9710   87.2090   94.1400 N.2       1 B53         0.0109
      3 C4        -78.8800   86.1680   93.2150 C.3       1 B53         0.3392
      4 C1        -79.8080   86.0040   92.0710 C.2       1 B53         0.2581
      5 O2        -80.7810   86.7530   91.8750 O.2       1 B53        -0.3756
      6 C7        -77.7830   85.1720   93.3290 C.2       1 B53         0.3483
      7 N12       -76.8700   85.2890   94.3160 N.2       1 B53        -0.1208
      8 N6        -77.6950   84.1660   92.4140 N.pl3     1 B53        -0.1747
      9 C5        -78.5970   84.0870   91.3970 C.cat     1 B53         0.2198
     10 N8        -78.5100   83.0950   90.5000 N.pl3     1 B53        -0.3279
     11 N3        -79.6180   84.9600   91.2470 N.am      1 B53        -0.2423
     12 H1        -79.5367   85.5529   93.8477 H         1 B53         0.1443
     13 H2        -76.1248   84.6149   94.3958 H         1 B53         0.2868
     14 H3        -76.9450   83.4643   92.4918 H         1 B53         0.2685
     15 H4        -79.1922   83.0351   89.7306 H         1 B53         0.1809
     16 H5        -77.7609   82.3926   90.5800 H         1 B53         0.1809
     17 H6        -80.2585   84.8231   90.4913 H         1 B53         0.1857
@<TRIPOS>BOND
     1    1    2 2  
     2    2    3 1  
     3    3    4 1  
     4    3    6 1  
     5    4    5 2  
     6    4   11 am 
     7    6    7 2  
     8    6    8 1  
     9    8    9 ar 
    10    9   10 ar 
    11    9   11 ar 
    12    3   12 1  
    13    7   13 1  
    14    8   14 1  
    15   10   15 1  
    16   10   16 1  
    17   11   17 1  
@<TRIPOS>SUBSTRUCTURE
     1 B53         1

