2gdo_ligand
  -I-interpret- 

 52 57  0  0  0  0  0  0  0  0999 V2000
    4.9190   -1.4740   46.0170 C   0  0  0  0  0
    5.7240   -2.3230   45.2280 C   0  0  0  0  0
    7.0500   -2.0020   44.9310 C   0  0  0  0  0
    7.9820   -3.0800   43.9710 Cl  0  0  0  0  0
    7.6190   -0.8190   45.4080 C   0  0  0  0  0
    6.8460    0.0470   46.2000 C   0  0  0  0  0
    5.5110   -0.2840   46.4980 C   0  0  0  0  0
    4.7610    0.5870   47.3010 N   0  0  0  0  0
    3.4510    0.3510   47.6640 C   0  0  0  0  0
    2.8410    1.1550   48.3750 O   0  0  0  0  0
    2.8010   -0.9050   47.1480 C   0  0  0  0  0
    1.4280   -1.2210   47.4900 C   0  0  0  0  0
    3.5020   -1.7810   46.3620 C   0  0  0  0  0
    2.8960   -2.9400   45.8680 N   0  0  0  0  0
    2.8120   -3.5020   44.5280 C   0  0  0  0  0
    0.6910   -2.2720   47.1330 N   0  0  0  0  0
   -0.5410   -2.0940   47.7090 C   0  0  0  0  0
   -0.5810   -0.9050   48.4350 C   0  0  0  0  0
    0.6740   -0.3690   48.2810 N   0  0  0  0  0
   -1.6910   -2.9130   47.6500 C   0  0  0  0  0
   -2.8470   -2.5020   48.3340 C   0  0  0  0  0
   -2.8590   -1.3000   49.0600 C   0  0  0  0  0
   -1.7210   -0.4710   49.1290 C   0  0  0  0  0
    1.4170   -3.1860   43.9150 C   0  0  0  0  0
    0.7180   -4.4950   43.5420 N   0  3  0  0  0
    1.5400   -5.2440   42.5060 C   0  0  0  0  0
    2.9130   -5.5700   43.1130 C   0  0  0  0  0
    0.5150   -5.3690   44.7760 C   0  0  0  0  0
    1.8830   -5.6980   45.3820 C   0  0  0  0  0
    3.0100   -5.0400   44.5640 C   0  0  0  0  0
    5.3011   -3.2504   44.8417 H   0  0  0  0  0
    8.6527   -0.5699   45.1682 H   0  0  0  0  0
    7.2788    0.9716   46.5821 H   0  0  0  0  0
    5.2079    1.4410   47.6347 H   0  0  0  0  0
    2.4239   -3.4964   46.5807 H   0  0  0  0  0
    3.5990   -3.0567   43.9194 H   0  0  0  0  0
   -1.6812   -3.8451   47.0850 H   0  0  0  0  0
   -3.7430   -3.1218   48.3009 H   0  0  0  0  0
   -3.7683   -1.0015   49.5817 H   0  0  0  0  0
   -1.7262    0.4613   49.6936 H   0  0  0  0  0
    1.5418   -2.5727   43.0226 H   0  0  0  0  0
    0.8130   -2.6455   44.6438 H   0  0  0  0  0
   -0.1968   -4.2726   43.1495 H   0  0  0  0  0
    1.6645   -4.6285   41.6151 H   0  0  0  0  0
    1.0308   -6.1653   42.2233 H   0  0  0  0  0
    3.6864   -5.0927   42.5113 H   0  0  0  0  0
    3.0455   -6.6519   43.1236 H   0  0  0  0  0
    0.0054   -6.2906   44.4948 H   0  0  0  0  0
   -0.0938   -4.8377   45.5076 H   0  0  0  0  0
    2.0235   -6.7789   45.3715 H   0  0  0  0  0
    1.9183   -5.3169   46.4026 H   0  0  0  0  0
    3.9753   -5.2723   45.0137 H   0  0  0  0  0
  1  2  4  0  0  0
  1  7  4  0  0  0
  1 13  1  0  0  0
  2  3  4  0  0  0
  3  4  1  0  0  0
  3  5  4  0  0  0
  5  6  4  0  0  0
  6  7  4  0  0  0
  7  8  1  0  0  0
  8  9  1  0  0  0
  9 10  2  0  0  0
  9 11  1  0  0  0
 11 12  1  0  0  0
 11 13  2  0  0  0
 12 16  4  0  0  0
 12 19  4  0  0  0
 13 14  1  0  0  0
 14 15  1  0  0  0
 15 24  1  0  0  0
 15 30  1  0  0  0
 16 17  4  0  0  0
 17 18  4  0  0  0
 17 20  4  0  0  0
 18 19  4  0  0  0
 18 23  4  0  0  0
 20 21  4  0  0  0
 21 22  4  0  0  0
 22 23  4  0  0  0
 24 25  1  0  0  0
 25 26  1  0  0  0
 25 28  1  0  0  0
 26 27  1  0  0  0
 27 30  1  0  0  0
 28 29  1  0  0  0
 29 30  1  0  0  0
  2 31  1  0  0  0
  5 32  1  0  0  0
  6 33  1  0  0  0
  8 34  1  0  0  0
 14 35  1  0  0  0
 15 36  1  0  0  0
 20 37  1  0  0  0
 21 38  1  0  0  0
 22 39  1  0  0  0
 23 40  1  0  0  0
 24 41  1  0  0  0
 24 42  1  0  0  0
 25 43  1  0  0  0
 26 44  1  0  0  0
 26 45  1  0  0  0
 27 46  1  0  0  0
 27 47  1  0  0  0
 28 48  1  0  0  0
 28 49  1  0  0  0
 29 50  1  0  0  0
 29 51  1  0  0  0
 30 52  1  0  0  0
M  END
$$$$
