3c8a_ligand
  -I-interpret- 

 76 75  0  0  0  0  0  0  0  0999 V2000
   27.6350   27.5090   53.1220 N   0  3  0  0  0
   27.5980   26.0500   53.1530 C   0  0  0  0  0
   26.5970   25.5820   54.1940 C   0  0  0  0  0
   26.4750   26.1890   55.2610 O   0  0  0  0  0
   28.9750   25.4780   53.4890 C   0  0  0  0  0
   30.0500   25.7980   52.4730 C   0  0  0  0  0
   31.3070   24.9830   52.7500 C   0  0  0  0  0
   32.3650   25.2570   51.7810 N   0  0  0  0  0
   33.1040   26.3620   51.7640 C   0  0  0  0  0
   32.9100   27.3130   52.6680 N   0  0  0  0  0
   34.0410   26.5160   50.8370 N   0  0  0  0  0
   25.9000   24.4900   53.8900 N   0  0  0  0  0
   24.8880   23.9530   54.7940 C   0  0  0  0  0
   25.4240   23.2970   56.0490 C   0  0  0  0  0
   24.7870   23.3580   57.0990 O   0  0  0  0  0
   24.0060   22.9300   54.0770 C   0  0  0  0  0
   23.1010   23.5140   53.0270 C   0  0  0  0  0
   21.9030   22.6130   52.8290 C   0  0  0  0  0
   20.7280   23.0350   53.5950 N   0  0  0  0  0
   20.3650   22.5430   54.7770 C   0  0  0  0  0
   21.0830   21.5950   55.3610 N   0  0  0  0  0
   19.2690   22.9970   55.3730 N   0  0  0  0  0
   26.5800   22.6520   55.9430 N   0  0  0  0  0
   27.1250   21.9760   57.1060 C   0  0  0  0  0
   26.5360   20.5860   57.2880 C   0  0  0  0  0
   25.9180   20.0530   56.3660 O   0  0  0  0  0
   26.7240   20.0110   58.4750 N   0  0  0  0  0
   26.2200   18.6750   58.7870 C   0  0  0  0  0
   24.7230   18.6310   59.0830 C   0  0  0  0  0
   24.1220   17.5500   58.8870 O   0  0  0  0  0
   26.9680   18.1090   59.9920 C   0  0  0  0  0
   28.4670   17.8480   59.8420 C   0  0  0  0  0
   29.0180   17.2120   61.1170 C   0  0  0  0  0
   28.7000   16.9270   58.6540 C   0  0  0  0  0
   24.0792   19.7040   59.5336 O   0  0  0  0  0
   28.3092   27.8160   52.4208 H   0  0  0  0  0
   26.7095   27.8664   52.8850 H   0  0  0  0  0
   27.9120   27.8604   54.0386 H   0  0  0  0  0
   27.3001   25.6962   52.1660 H   0  0  0  0  0
   28.8728   24.3931   53.5155 H   0  0  0  0  0
   29.2849   25.9245   54.4338 H   0  0  0  0  0
   30.2943   26.8583   52.5385 H   0  0  0  0  0
   29.6807   25.5513   51.4776 H   0  0  0  0  0
   31.0487   23.9263   52.6813 H   0  0  0  0  0
   31.6751   25.2521   53.7400 H   0  0  0  0  0
   32.5497   24.5515   51.0678 H   0  0  0  0  0
   32.1904   27.1990   53.3818 H   0  0  0  0  0
   34.6087   27.3633   50.8215 H   0  0  0  0  0
   34.1935   25.7871   50.1399 H   0  0  0  0  0
   26.0773   24.0169   53.0039 H   0  0  0  0  0
   24.3242   24.8325   55.1048 H   0  0  0  0  0
   23.3658   22.4752   54.8329 H   0  0  0  0  0
   24.6733   22.2324   53.5709 H   0  0  0  0  0
   23.6467   23.6015   52.0875 H   0  0  0  0  0
   22.7631   24.4992   53.3484 H   0  0  0  0  0
   22.1799   21.6164   53.1727 H   0  0  0  0  0
   21.6369   22.6461   51.7725 H   0  0  0  0  0
   20.1410   23.7643   53.1901 H   0  0  0  0  0
   21.9217   21.2363   54.9046 H   0  0  0  0  0
   18.9841   22.6161   56.2753 H   0  0  0  0  0
   18.7119   23.7267   54.9286 H   0  0  0  0  0
   27.0795   22.6319   55.0539 H   0  0  0  0  0
   26.8803   22.5671   57.9885 H   0  0  0  0  0
   28.2012   21.8736   56.9664 H   0  0  0  0  0
   27.2386   20.5219   59.1924 H   0  0  0  0  0
   26.3897   18.0765   57.8920 H   0  0  0  0  0
   26.5202   17.1333   60.1804 H   0  0  0  0  0
   26.8811   18.8668   60.7706 H   0  0  0  0  0
   28.9847   18.7923   59.6736 H   0  0  0  0  0
   28.8535   17.8857   61.9579 H   0  0  0  0  0
   28.5060   16.2675   61.3009 H   0  0  0  0  0
   30.0863   17.0306   60.9987 H   0  0  0  0  0
   28.1793   15.9838   58.8195 H   0  0  0  0  0
   28.3188   17.4000   57.7490 H   0  0  0  0  0
   29.7682   16.7396   58.5452 H   0  0  0  0  0
   24.6974   20.4331   59.6219 H   0  0  0  0  0
  2  1  1  0  0  0
  2  5  1  0  0  0
  3  2  1  0  0  0
  3  4  2  0  0  0
  5  6  1  0  0  0
  6  7  1  0  0  0
  7  8  1  0  0  0
  8  9  1  0  0  0
  9 11  1  0  0  0
  9 10  2  0  0  0
 13 12  1  0  0  0
 13 16  1  0  0  0
 14 13  1  0  0  0
 14 15  2  0  0  0
 16 17  1  0  0  0
 17 18  1  0  0  0
 18 19  1  0  0  0
 19 20  1  0  0  0
 20 22  1  0  0  0
 20 21  2  0  0  0
 12  3  1  0  0  0
 24 23  1  0  0  0
 25 24  1  0  0  0
 25 26  2  0  0  0
 23 14  1  0  0  0
 27 28  1  0  0  0
 28 31  1  0  0  0
 28 29  1  0  0  0
 29 30  2  0  0  0
 31 32  1  0  0  0
 32 33  1  0  0  0
 32 34  1  0  0  0
 25 27  1  0  0  0
 29 35  1  0  0  0
  1 36  1  0  0  0
  1 37  1  0  0  0
  1 38  1  0  0  0
  2 39  1  0  0  0
  5 40  1  0  0  0
  5 41  1  0  0  0
  6 42  1  0  0  0
  6 43  1  0  0  0
  7 44  1  0  0  0
  7 45  1  0  0  0
  8 46  1  0  0  0
 10 47  1  0  0  0
 11 48  1  0  0  0
 11 49  1  0  0  0
 12 50  1  0  0  0
 13 51  1  0  0  0
 16 52  1  0  0  0
 16 53  1  0  0  0
 17 54  1  0  0  0
 17 55  1  0  0  0
 18 56  1  0  0  0
 18 57  1  0  0  0
 19 58  1  0  0  0
 21 59  1  0  0  0
 22 60  1  0  0  0
 22 61  1  0  0  0
 23 62  1  0  0  0
 24 63  1  0  0  0
 24 64  1  0  0  0
 27 65  1  0  0  0
 28 66  1  0  0  0
 31 67  1  0  0  0
 31 68  1  0  0  0
 32 69  1  0  0  0
 33 70  1  0  0  0
 33 71  1  0  0  0
 33 72  1  0  0  0
 34 73  1  0  0  0
 34 74  1  0  0  0
 34 75  1  0  0  0
 35 76  1  0  0  0
M  END
$$$$
