1oxn_ligand
  -I-interpret- 

 56 55  0  0  0  0  0  0  0  0999 V2000
   22.3800   48.2560   -7.6980 N   0  3  0  0  0
   22.6610   47.9030   -6.2860 C   0  0  0  0  0
   22.0840   46.5380   -5.9750 C   0  0  0  0  0
   21.1330   46.1020   -6.6260 O   0  0  0  0  0
   22.0710   48.9410   -5.3520 C   0  0  0  0  0
   22.6680   45.8690   -4.9840 N   0  0  0  0  0
   22.1220   44.6230   -4.4610 C   0  0  0  0  0
   22.1700   44.5980   -2.9320 C   0  0  0  0  0
   23.0520   45.2130   -2.3170 O   0  0  0  0  0
   22.8480   43.4070   -5.0430 C   0  0  0  0  0
   24.3520   43.5600   -5.1660 C   0  0  0  0  0
   25.1050   42.3880   -4.5700 C   0  0  0  0  0
   25.2690   42.3550   -3.3270 O   0  0  0  0  0
   25.5290   41.5010   -5.3490 O   0  0  0  0  0
   21.2120   43.8930   -2.3320 N   0  0  0  0  0
   21.1440   43.7440   -0.8800 C   0  0  0  0  0
   22.3510   42.9700   -0.3710 C   0  0  0  0  0
   22.9460   42.1850   -1.1090 O   0  0  0  0  0
   19.8550   43.0480   -0.4810 C   0  0  0  0  0
   22.7310   43.2130    0.8780 N   0  0  0  0  0
   23.8300   42.4700    1.4910 C   0  0  0  0  0
   23.3010   41.2020    2.1740 C   0  0  0  0  0
   22.2170   41.1930    2.7640 O   0  0  0  0  0
   24.6810   43.3540    2.4590 C   0  0  0  0  0
   23.8660   43.8230    3.6580 C   0  0  0  0  0
   25.9520   42.6230    2.9070 C   0  0  0  0  0
   23.9883   40.1468    2.1316 O   0  0  0  0  0
   22.7708   49.1759   -7.9015 H   0  0  0  0  0
   22.8052   47.5612   -8.3120 H   0  0  0  0  0
   21.3713   48.2729   -7.8487 H   0  0  0  0  0
   23.7407   47.8789   -6.1386 H   0  0  0  0  0
   20.9891   48.9707   -5.4809 H   0  0  0  0  0
   22.3083   48.6772   -4.3214 H   0  0  0  0  0
   22.4929   49.9188   -5.5845 H   0  0  0  0  0
   23.5263   46.2405   -4.5769 H   0  0  0  0  0
   21.0780   44.5703   -4.7699 H   0  0  0  0  0
   22.4619   43.2620   -6.0520 H   0  0  0  0  0
   22.6701   42.5764   -4.3599 H   0  0  0  0  0
   24.6442   44.4587   -4.6229 H   0  0  0  0  0
   24.5990   43.6143   -6.2263 H   0  0  0  0  0
   25.2917   41.7287   -6.2509 H   0  0  0  0  0
   20.5007   43.4411   -2.9066 H   0  0  0  0  0
   21.1545   44.7349   -0.4260 H   0  0  0  0  0
   19.0044   43.6401   -0.8186 H   0  0  0  0  0
   19.8185   42.0612   -0.9425 H   0  0  0  0  0
   19.8200   42.9448    0.6035 H   0  0  0  0  0
   22.2477   43.9303    1.4186 H   0  0  0  0  0
   24.5106   42.1649    0.6961 H   0  0  0  0  0
   24.9835   44.2417    1.9035 H   0  0  0  0  0
   23.0176   44.4127    3.3108 H   0  0  0  0  0
   23.5053   42.9563    4.2120 H   0  0  0  0  0
   24.4941   44.4343    4.3060 H   0  0  0  0  0
   25.6776   41.7044    3.4257 H   0  0  0  0  0
   26.5577   42.3815    2.0336 H   0  0  0  0  0
   26.5211   43.2652    3.5792 H   0  0  0  0  0
   24.7971   40.3125    1.6417 H   0  0  0  0  0
  2  1  1  0  0  0
  2  5  1  0  0  0
  3  2  1  0  0  0
  3  4  2  0  0  0
  7  6  1  0  0  0
  7 10  1  0  0  0
  8  7  1  0  0  0
  8  9  2  0  0  0
 10 11  1  0  0  0
 11 12  1  0  0  0
 12 14  1  0  0  0
 12 13  2  0  0  0
  6  3  1  0  0  0
 16 15  1  0  0  0
 16 19  1  0  0  0
 17 16  1  0  0  0
 17 18  2  0  0  0
 15  8  1  0  0  0
 20 21  1  0  0  0
 21 24  1  0  0  0
 21 22  1  0  0  0
 22 23  2  0  0  0
 24 26  1  0  0  0
 24 25  1  0  0  0
 17 20  1  0  0  0
 22 27  1  0  0  0
  1 28  1  0  0  0
  1 29  1  0  0  0
  1 30  1  0  0  0
  2 31  1  0  0  0
  5 32  1  0  0  0
  5 33  1  0  0  0
  5 34  1  0  0  0
  6 35  1  0  0  0
  7 36  1  0  0  0
 10 37  1  0  0  0
 10 38  1  0  0  0
 11 39  1  0  0  0
 11 40  1  0  0  0
 14 41  1  0  0  0
 15 42  1  0  0  0
 16 43  1  0  0  0
 19 44  1  0  0  0
 19 45  1  0  0  0
 19 46  1  0  0  0
 20 47  1  0  0  0
 21 48  1  0  0  0
 24 49  1  0  0  0
 25 50  1  0  0  0
 25 51  1  0  0  0
 25 52  1  0  0  0
 26 53  1  0  0  0
 26 54  1  0  0  0
 26 55  1  0  0  0
 27 56  1  0  0  0
M  END
$$$$
