4c9x_ligand
  -I-interpret- 

 53 56  0  0  0  0  0  0  0  0999 V2000
  -12.8480  -13.9590   10.5830 Cl  0  0  0  0  0
  -14.3320  -13.1490   10.5750 C   0  0  0  0  0
  -14.6490  -12.4340    9.4210 C   0  0  0  0  0
  -13.8060  -12.4370    8.4070 F   0  0  0  0  0
  -15.8360  -11.7260    9.3230 C   0  0  0  0  0
  -16.7160  -11.7280   10.3850 C   0  0  0  0  0
  -16.4030  -12.4310   11.5430 C   0  0  0  0  0
  -17.5270  -12.3530   12.7580 Cl  0  0  0  0  0
  -15.2060  -13.1680   11.6720 C   0  0  0  0  0
  -14.9170  -13.8990   12.8830 C   0  0  0  0  0
  -13.8460  -13.2030   13.7290 C   0  0  0  0  0
  -14.4390  -15.2460   12.6430 O   0  0  0  0  0
  -15.2550  -16.1620   12.0530 C   0  0  0  0  0
  -16.5650  -15.9320   11.6040 C   0  0  0  0  0
  -14.6820  -17.4210   11.9070 C   0  0  0  0  0
  -13.4290  -17.6220   12.3560 N   0  0  0  0  0
  -15.3980  -18.3870   11.3500 N   0  0  0  0  0
  -16.7100  -18.1870   10.8800 C   0  0  0  0  0
  -17.3290  -16.9370   11.0090 C   0  0  0  0  0
  -18.6050  -16.6900   10.5850 C   0  0  0  0  0
  -19.1080  -15.5450   10.1110 C   0  0  0  0  0
  -19.6110  -17.5560   10.5800 C   0  0  0  0  0
  -20.6920  -16.9280   10.1060 N   0  0  0  0  0
  -20.4060  -15.7590    9.8280 N   0  0  0  0  0
  -21.4570  -14.8430    9.2670 C   0  0  0  0  0
  -21.8350  -15.2970    7.9270 C   0  0  0  0  0
  -22.9780  -14.4100    7.5050 C   0  0  0  0  0
  -22.5050  -13.0360    7.3110 N   0  3  0  0  0
  -22.0600  -12.5050    8.6080 C   0  0  0  0  0
  -20.9730  -13.4010    9.2040 C   0  0  0  0  0
  -16.0723  -11.1722    8.4144 H   0  0  0  0  0
  -17.6554  -11.1793   10.3166 H   0  0  0  0  0
  -15.8733  -13.9350   13.4048 H   0  0  0  0  0
  -12.9253  -13.1207   13.1514 H   0  0  0  0  0
  -14.1933  -12.2074   14.0053 H   0  0  0  0  0
  -13.6601  -13.7874   14.6301 H   0  0  0  0  0
  -16.9983  -14.9390   11.7236 H   0  0  0  0  0
  -12.9157  -16.8576   12.7948 H   0  0  0  0  0
  -12.9928  -18.5387   12.2574 H   0  0  0  0  0
  -17.2483  -19.0113   10.4121 H   0  0  0  0  0
  -18.5654  -14.6090    9.9781 H   0  0  0  0  0
  -19.5641  -18.5954   10.9049 H   0  0  0  0  0
  -22.3211  -14.8745    9.9307 H   0  0  0  0  0
  -22.1263  -16.3474    7.9299 H   0  0  0  0  0
  -20.9984  -15.2261    7.2319 H   0  0  0  0  0
  -23.7428  -14.4186    8.2816 H   0  0  0  0  0
  -23.3916  -14.7815    6.5674 H   0  0  0  0  0
  -23.2593  -12.4584    6.9398 H   0  0  0  0  0
  -21.7303  -13.0260    6.6476 H   0  0  0  0  0
  -22.9095  -12.4744    9.2903 H   0  0  0  0  0
  -21.6552  -11.5035    8.4624 H   0  0  0  0  0
  -20.0840  -13.3500    8.5754 H   0  0  0  0  0
  -20.7408  -13.0580   10.2123 H   0  0  0  0  0
  1  2  1  0  0  0
  2  3  4  0  0  0
  2  9  4  0  0  0
  3  4  1  0  0  0
  3  5  4  0  0  0
  5  6  4  0  0  0
  6  7  4  0  0  0
  7  8  1  0  0  0
  7  9  4  0  0  0
  9 10  1  0  0  0
 10 11  1  0  0  0
 10 12  1  0  0  0
 12 13  1  0  0  0
 13 14  4  0  0  0
 13 15  4  0  0  0
 14 19  4  0  0  0
 15 16  1  0  0  0
 15 17  4  0  0  0
 17 18  4  0  0  0
 18 19  4  0  0  0
 19 20  1  0  0  0
 20 21  4  0  0  0
 20 22  4  0  0  0
 21 24  4  0  0  0
 22 23  4  0  0  0
 23 24  4  0  0  0
 24 25  1  0  0  0
 25 26  1  0  0  0
 25 30  1  0  0  0
 26 27  1  0  0  0
 27 28  1  0  0  0
 28 29  1  0  0  0
 29 30  1  0  0  0
  5 31  1  0  0  0
  6 32  1  0  0  0
 10 33  1  0  0  0
 11 34  1  0  0  0
 11 35  1  0  0  0
 11 36  1  0  0  0
 14 37  1  0  0  0
 16 38  1  0  0  0
 16 39  1  0  0  0
 18 40  1  0  0  0
 21 41  1  0  0  0
 22 42  1  0  0  0
 25 43  1  0  0  0
 26 44  1  0  0  0
 26 45  1  0  0  0
 27 46  1  0  0  0
 27 47  1  0  0  0
 28 48  1  0  0  0
 28 49  1  0  0  0
 29 50  1  0  0  0
 29 51  1  0  0  0
 30 52  1  0  0  0
 30 53  1  0  0  0
M  END
$$$$
