4p58_ligand
  -I-interpret- 

 21 22  0  0  0  0  0  0  0  0999 V2000
   18.0670   18.5270   16.7920 N   0  0  0  0  0
   18.7090   18.7660   14.3710 C   0  0  0  0  0
   16.5450   19.4360   15.4740 C   0  0  0  0  0
   16.0540   19.3910   16.7510 C   0  0  0  0  0
   14.6960   19.8600   17.1720 C   0  0  0  0  0
   12.5130   20.3240   17.0310 C   0  0  0  0  0
   16.9930   18.5000   19.0330 C   0  0  0  0  0
   17.0430   18.7910   17.5510 C   0  0  0  0  0
   17.7840   18.9150   15.4920 N   0  0  0  0  0
   13.5600   19.8500   16.3420 C   0  0  0  0  0
   12.9580   20.6310   18.2660 N   0  0  0  0  0
   14.3190   20.3410   18.3480 N   0  0  0  0  0
   19.6204   19.3274   14.5766 H   0  0  0  0  0
   18.9520   17.7116   14.2398 H   0  0  0  0  0
   18.2423   19.1483   13.4632 H   0  0  0  0  0
   16.0243   19.8248   14.5989 H   0  0  0  0  0
   11.4937   20.4396   16.6624 H   0  0  0  0  0
   17.1231   17.4302   19.1965 H   0  0  0  0  0
   17.7913   19.0455   19.5362 H   0  0  0  0  0
   16.0286   18.8151   19.4315 H   0  0  0  0  0
   13.5355   19.5115   15.3062 H   0  0  0  0  0
  1  8  4  0  0  0
  9  1  4  0  0  0
  9  2  1  0  0  0
  3  4  4  0  0  0
  3  9  4  0  0  0
  4  5  1  0  0  0
  4  8  4  0  0  0
  5 10  4  0  0  0
  5 12  4  0  0  0
 10  6  4  0  0  0
  6 11  4  0  0  0
  8  7  1  0  0  0
 11 12  4  0  0  0
  2 13  1  0  0  0
  2 14  1  0  0  0
  2 15  1  0  0  0
  3 16  1  0  0  0
  6 17  1  0  0  0
  7 18  1  0  0  0
  7 19  1  0  0  0
  7 20  1  0  0  0
 10 21  1  0  0  0
M  END
$$$$
