4m48_ligand
  -I-interpret- 

 42 44  0  0  0  0  0  0  0  0999 V2000
  -43.0980   -1.5900   52.1250 C   0  0  0  0  0
  -43.0980   -2.7380   53.0010 N   0  3  0  0  0
  -42.9720   -2.5550   54.4310 C   0  0  0  0  0
  -41.6120   -3.0090   54.9610 C   0  0  0  0  0
  -40.6070   -1.9090   54.7230 C   0  0  0  0  0
  -39.4070   -1.7540   55.3160 C   0  0  0  0  0
  -38.6270   -0.5640   54.8750 C   0  0  0  0  0
  -39.0420    0.7310   55.1650 C   0  0  0  0  0
  -38.2710    1.7950   54.7120 C   0  0  0  0  0
  -37.1110    1.5540   53.9750 C   0  0  0  0  0
  -38.7940   -2.6520   56.3600 C   0  0  0  0  0
  -39.5410   -2.9770   57.4890 C   0  0  0  0  0
  -39.0200   -3.7880   58.4920 C   0  0  0  0  0
  -37.7240   -4.2730   58.3930 C   0  0  0  0  0
  -36.9660   -3.9370   57.2800 C   0  0  0  0  0
  -37.4820   -3.1340   56.2650 C   0  0  0  0  0
  -36.5190   -2.8620   55.1240 C   0  0  0  0  0
  -37.1270   -2.2430   53.8760 C   0  0  0  0  0
  -37.4860   -0.8040   54.1470 C   0  0  0  0  0
  -36.7100    0.2520   53.6860 C   0  0  0  0  0
  -43.9322   -0.9376   52.3831 H   0  0  0  0  0
  -42.1605   -1.0462   52.2409 H   0  0  0  0  0
  -43.2013   -1.9227   51.0922 H   0  0  0  0  0
  -42.2638   -3.2617   52.7359 H   0  0  0  0  0
  -44.0210   -3.1541   52.8770 H   0  0  0  0  0
  -43.7403   -3.1569   54.9163 H   0  0  0  0  0
  -43.0786   -1.4915   54.6449 H   0  0  0  0  0
  -41.2975   -3.9156   54.4440 H   0  0  0  0  0
  -41.6828   -3.2208   56.0279 H   0  0  0  0  0
  -40.8832   -1.1535   53.9874 H   0  0  0  0  0
  -39.9534    0.9081   55.7360 H   0  0  0  0  0
  -38.5729    2.8188   54.9327 H   0  0  0  0  0
  -36.5124    2.3936   53.6217 H   0  0  0  0  0
  -40.5544   -2.5882   57.5890 H   0  0  0  0  0
  -39.6314   -4.0430   59.3576 H   0  0  0  0  0
  -37.3081   -4.9071   59.1760 H   0  0  0  0  0
  -35.9449   -4.3094   57.1982 H   0  0  0  0  0
  -36.1184   -3.8300   54.8228 H   0  0  0  0  0
  -35.7919   -2.1426   55.5007 H   0  0  0  0  0
  -38.0259   -2.7942   53.6000 H   0  0  0  0  0
  -36.4045   -2.2882   53.0611 H   0  0  0  0  0
  -35.8044    0.0651   53.1090 H   0  0  0  0  0
  1  2  1  0  0  0
  2  3  1  0  0  0
  3  4  1  0  0  0
  4  5  1  0  0  0
  5  6  2  0  0  0
  6  7  1  0  0  0
  6 11  1  0  0  0
  7  8  4  0  0  0
  7 19  4  0  0  0
  8  9  4  0  0  0
  9 10  4  0  0  0
 10 20  4  0  0  0
 11 12  4  0  0  0
 11 16  4  0  0  0
 12 13  4  0  0  0
 13 14  4  0  0  0
 14 15  4  0  0  0
 15 16  4  0  0  0
 16 17  1  0  0  0
 17 18  1  0  0  0
 18 19  1  0  0  0
 19 20  4  0  0  0
  1 21  1  0  0  0
  1 22  1  0  0  0
  1 23  1  0  0  0
  2 24  1  0  0  0
  2 25  1  0  0  0
  3 26  1  0  0  0
  3 27  1  0  0  0
  4 28  1  0  0  0
  4 29  1  0  0  0
  5 30  1  0  0  0
  8 31  1  0  0  0
  9 32  1  0  0  0
 10 33  1  0  0  0
 12 34  1  0  0  0
 13 35  1  0  0  0
 14 36  1  0  0  0
 15 37  1  0  0  0
 17 38  1  0  0  0
 17 39  1  0  0  0
 18 40  1  0  0  0
 18 41  1  0  0  0
 20 42  1  0  0  0
M  END
$$$$
