### 
### Created by X-TOOL on Mon Sep 10 21:13:23 2018
### 

@<TRIPOS>MOLECULE
4tky_ligand
   95    96     1     0     0
SMALL
GAST_HUCK


@<TRIPOS>ATOM
      1 N         -11.5080  -16.6020  -31.2810 N.4       1 PRO         0.2461
      2 CA        -10.8370  -16.6840  -29.9770 C.3       1 PRO         0.0670
      3 C          -9.4060  -17.2130  -30.0630 C.2       1 PRO         0.2269
      4 O          -8.6910  -17.1930  -29.0690 O.2       1 PRO        -0.3907
      5 CB        -11.7180  -17.6640  -29.1960 C.3       1 PRO         0.0127
      6 CG        -12.3750  -18.4960  -30.2500 C.3       1 PRO        -0.0053
      7 CD        -12.6010  -17.5820  -31.4110 C.3       1 PRO        -0.0313
      8 N          -8.9960  -17.6460  -31.2500 N.am      1 PHE        -0.2592
      9 CA         -7.6640  -18.1940  -31.4700 C.3       1 PHE         0.1406
     10 C          -6.8530  -17.3550  -32.4450 C.2       1 PHE         0.2059
     11 O          -5.7130  -17.6970  -32.7670 O.2       1 PHE        -0.3942
     12 CB         -7.7600  -19.6300  -31.9800 C.3       1 PHE         0.0214
     13 CG         -8.7890  -19.8170  -33.0430 C.ar      1 PHE        -0.0386
     14 CD1        -8.4960  -19.5340  -34.3650 C.ar      1 PHE        -0.0601
     15 CD2       -10.0590  -20.2580  -32.7180 C.ar      1 PHE        -0.0601
     16 CE1        -9.4470  -19.6980  -35.3480 C.ar      1 PHE        -0.0686
     17 CE2       -11.0180  -20.4230  -33.6970 C.ar      1 PHE        -0.0686
     18 CZ        -10.7100  -20.1380  -35.0130 C.ar      1 PHE        -0.0687
     19 N          -7.4550  -16.2790  -32.9420 N.am      1 ALA        -0.2639
     20 CA         -6.8070  -15.4280  -33.9350 C.3       1 ALA         0.1282
     21 C          -5.5800  -14.7120  -33.3590 C.2       1 ALA         0.2037
     22 O          -5.4750  -14.5110  -32.1500 O.2       1 ALA        -0.3944
     23 CB         -7.8060  -14.4130  -34.4860 C.3       1 ALA        -0.0244
     24 N          -4.6420  -14.3660  -34.2380 N.am      1 THR        -0.2613
     25 CA         -3.4200  -13.6630  -33.8510 C.3       1 THR         0.1565
     26 C          -3.0400  -12.5600  -34.8250 C.2       1 THR         0.2065
     27 O          -3.4390  -12.5740  -35.9880 O.2       1 THR        -0.3943
     28 CB         -2.2050  -14.6130  -33.7650 C.3       1 THR         0.0924
     29 OG1        -2.0470  -15.3010  -35.0130 O.3       1 THR        -0.3874
     30 CG2        -2.3470  -15.6160  -32.6110 C.3       1 THR        -0.0346
     31 N          -2.2670  -11.5960  -34.3400 N.am      1 CYS        -0.2628
     32 CA         -1.5890  -10.6690  -35.2330 C.3       1 CYS         0.1396
     33 C          -0.2060  -11.2510  -35.5030 C.2       1 CYS         0.2048
     34 O           0.6000  -11.4110  -34.5830 O.2       1 CYS        -0.3944
     35 CB         -1.4880   -9.2740  -34.6210 C.3       1 CYS         0.0311
     36 SG         -3.0530   -8.6310  -33.9660 S.3       1 CYS        -0.1735
     37 N           0.0590  -11.5850  -36.7610 N.am      1 ASP        -0.2621
     38 CA          1.2910  -12.2670  -37.1300 C.3       1 ASP         0.1423
     39 C           2.2550  -11.2700  -37.7340 C.2       1 ASP         0.2051
     40 O           1.8310  -10.2770  -38.3260 O.2       1 ASP        -0.3943
     41 CB          1.0230  -13.4020  -38.1180 C.3       1 ASP         0.0406
     42 CG          0.1050  -14.4580  -37.5520 C.2       1 ASP         0.0393
     43 OD1        -0.0130  -14.5330  -36.3150 O.co2     1 ASP        -0.5688
     44 OD2        -0.5050  -15.2070  -38.3430 O.co2     1 ASP        -0.5688
     45 N           3.5490  -11.5310  -37.5890 N.am      1 SER        -0.2671
     46 CA          4.5530  -10.6250  -38.1310 C.3       1 SER         0.1173
     47 C           4.7690  -10.8770  -39.6250 C.2       1 SER         0.0623
     48 O           5.5710  -10.1980  -40.2760 O.co2     1 SER        -0.5665
     49 CB          5.8690  -10.7660  -37.3680 C.3       1 SER         0.0789
     50 OG          6.3080  -12.1130  -37.3600 O.3       1 SER        -0.3910
     51 OXT         4.1470  -11.7660  -40.2170 O.co2     1 SER        -0.5665
     52 H1        -10.8295  -16.7753  -32.0060 H         1 PRO         0.2035
     53 H2        -11.8889  -15.6753  -31.3918 H         1 PRO         0.2035
     54 H3        -10.8229  -15.6964  -29.4928 H         1 PRO         0.1099
     55 H4        -12.4698  -17.1233  -28.6024 H         1 PRO         0.0347
     56 H5        -11.1068  -18.2910  -28.5302 H         1 PRO         0.0347
     57 H6        -13.3332  -18.8922  -29.8828 H         1 PRO         0.0320
     58 H7        -11.7207  -19.3307  -30.5418 H         1 PRO         0.0320
     59 H8        -12.5308  -18.1282  -32.3632 H         1 PRO         0.0814
     60 H9        -13.5826  -17.0905  -31.3416 H         1 PRO         0.0814
     61 H10        -9.6271  -17.5937  -32.0239 H         1 PHE         0.1886
     62 H11        -7.1362  -18.2018  -30.5050 H         1 PHE         0.0823
     63 H12        -8.0124  -20.2842  -31.1325 H         1 PHE         0.0474
     64 H13        -6.7809  -19.9204  -32.3886 H         1 PHE         0.0474
     65 H14        -7.5067  -19.1791  -34.6304 H         1 PHE         0.0557
     66 H15       -10.3035  -20.4761  -31.6847 H         1 PHE         0.0557
     67 H16        -9.2031  -19.4818  -36.3818 H         1 PHE         0.0599
     68 H17       -12.0090  -20.7749  -33.4341 H         1 PHE         0.0599
     69 H18       -11.4625  -20.2605  -35.7836 H         1 PHE         0.0559
     70 H19        -8.3754  -16.0467  -32.6274 H         1 ALA         0.1883
     71 H20        -6.4695  -16.0672  -34.7642 H         1 ALA         0.0797
     72 H21        -7.3083  -13.7770  -35.2329 H         1 ALA         0.0277
     73 H22        -8.1834  -13.7867  -33.6643 H         1 ALA         0.0277
     74 H23        -8.6458  -14.9441  -34.9579 H         1 ALA         0.0277
     75 H24        -4.7787  -14.5962  -35.2015 H         1 THR         0.1884
     76 H25        -3.5923  -13.2156  -32.8610 H         1 THR         0.0826
     77 H26        -1.3050  -14.0075  -33.5827 H         1 THR         0.0639
     78 H27        -1.9060  -14.6677  -35.7068 H         1 THR         0.2101
     79 H28        -1.4642  -16.2718  -32.5845 H         1 THR         0.0257
     80 H29        -3.2510  -16.2240  -32.7628 H         1 THR         0.0257
     81 H30        -2.4274  -15.0707  -31.6590 H         1 THR         0.0257
     82 H31        -2.1495  -11.5061  -33.3510 H         1 CYS         0.1884
     83 H32        -2.1478  -10.5969  -36.1778 H         1 CYS         0.0808
     84 H33        -1.1294   -8.5823  -35.3975 H         1 CYS         0.0422
     85 H34        -0.7593   -9.3108  -33.7978 H         1 CYS         0.0422
     86 H35        -3.3918   -9.2468  -33.2435 H         1 CYS         0.1019
     87 H36        -0.6058  -11.3619  -37.4739 H         1 ASP         0.1884
     88 H37         1.7423  -12.6937  -36.2221 H         1 ASP         0.0819
     89 H38         1.9813  -13.8729  -38.3823 H         1 ASP         0.0478
     90 H39         0.5599  -12.9803  -39.0222 H         1 ASP         0.0478
     91 H40         3.8368  -12.3566  -37.1036 H         1 SER         0.1876
     92 H41         4.1897   -9.5944  -38.0053 H         1 SER         0.0749
     93 H42         5.7219  -10.4292  -36.3312 H         1 SER         0.0599
     94 H43         6.6342  -10.1409  -37.8515 H         1 SER         0.0599
     95 H44         5.6516  -12.6563  -36.9401 H         1 SER         0.2096
@<TRIPOS>BOND
     1    1    2 1  
     2    1    7 1  
     3    2    3 1  
     4    2    5 1  
     5    3    4 2  
     6    3    8 am 
     7    5    6 1  
     8    6    7 1  
     9    8    9 1  
    10    9   10 1  
    11    9   12 1  
    12   10   11 2  
    13   10   19 am 
    14   12   13 1  
    15   13   14 ar 
    16   13   15 ar 
    17   14   16 ar 
    18   15   17 ar 
    19   16   18 ar 
    20   17   18 ar 
    21   19   20 1  
    22   20   21 1  
    23   20   23 1  
    24   21   22 2  
    25   21   24 am 
    26   24   25 1  
    27   25   26 1  
    28   25   28 1  
    29   26   27 2  
    30   26   31 am 
    31   28   29 1  
    32   28   30 1  
    33   31   32 1  
    34   32   33 1  
    35   32   35 1  
    36   33   34 2  
    37   33   37 am 
    38   35   36 1  
    39   37   38 1  
    40   38   39 1  
    41   38   41 1  
    42   39   40 2  
    43   39   45 am 
    44   41   42 1  
    45   42   43 ar 
    46   42   44 ar 
    47   45   46 1  
    48   46   47 1  
    49   46   49 1  
    50   47   48 ar 
    51   47   51 ar 
    52   49   50 1  
    53    1   52 1  
    54    1   53 1  
    55    2   54 1  
    56    5   55 1  
    57    5   56 1  
    58    6   57 1  
    59    6   58 1  
    60    7   59 1  
    61    7   60 1  
    62    8   61 1  
    63    9   62 1  
    64   12   63 1  
    65   12   64 1  
    66   14   65 1  
    67   15   66 1  
    68   16   67 1  
    69   17   68 1  
    70   18   69 1  
    71   19   70 1  
    72   20   71 1  
    73   23   72 1  
    74   23   73 1  
    75   23   74 1  
    76   24   75 1  
    77   25   76 1  
    78   28   77 1  
    79   29   78 1  
    80   30   79 1  
    81   30   80 1  
    82   30   81 1  
    83   31   82 1  
    84   32   83 1  
    85   35   84 1  
    86   35   85 1  
    87   36   86 1  
    88   37   87 1  
    89   38   88 1  
    90   41   89 1  
    91   41   90 1  
    92   45   91 1  
    93   46   92 1  
    94   49   93 1  
    95   49   94 1  
    96   50   95 1  
@<TRIPOS>SUBSTRUCTURE
     1 PRO         1

