4tky_ligand
  -I-interpret- 

 97 98  0  0  0  0  0  0  0  0999 V2000
  -11.5080  -16.6020  -31.2810 N   0  3  0  0  0
  -10.8370  -16.6840  -29.9770 C   0  0  0  0  0
   -9.4060  -17.2130  -30.0630 C   0  0  0  0  0
   -8.6910  -17.1930  -29.0690 O   0  0  0  0  0
  -11.7180  -17.6640  -29.1960 C   0  0  0  0  0
  -12.3750  -18.4960  -30.2500 C   0  0  0  0  0
  -12.6010  -17.5820  -31.4110 C   0  0  0  0  0
   -8.9960  -17.6460  -31.2500 N   0  0  0  0  0
   -7.6640  -18.1940  -31.4700 C   0  0  0  0  0
   -6.8530  -17.3550  -32.4450 C   0  0  0  0  0
   -5.7130  -17.6970  -32.7670 O   0  0  0  0  0
   -7.7600  -19.6300  -31.9800 C   0  0  0  0  0
   -8.7890  -19.8170  -33.0430 C   0  0  0  0  0
   -8.4960  -19.5340  -34.3650 C   0  0  0  0  0
  -10.0590  -20.2580  -32.7180 C   0  0  0  0  0
   -9.4470  -19.6980  -35.3480 C   0  0  0  0  0
  -11.0180  -20.4230  -33.6970 C   0  0  0  0  0
  -10.7100  -20.1380  -35.0130 C   0  0  0  0  0
   -7.4550  -16.2790  -32.9420 N   0  0  0  0  0
   -6.8070  -15.4280  -33.9350 C   0  0  0  0  0
   -5.5800  -14.7120  -33.3590 C   0  0  0  0  0
   -5.4750  -14.5110  -32.1500 O   0  0  0  0  0
   -7.8060  -14.4130  -34.4860 C   0  0  0  0  0
   -4.6420  -14.3660  -34.2380 N   0  0  0  0  0
   -3.4200  -13.6630  -33.8510 C   0  0  0  0  0
   -3.0400  -12.5600  -34.8250 C   0  0  0  0  0
   -3.4390  -12.5740  -35.9880 O   0  0  0  0  0
   -2.2050  -14.6130  -33.7650 C   0  0  0  0  0
   -2.0470  -15.3010  -35.0130 O   0  0  0  0  0
   -2.3470  -15.6160  -32.6110 C   0  0  0  0  0
   -2.2670  -11.5960  -34.3400 N   0  0  0  0  0
   -1.5890  -10.6690  -35.2330 C   0  0  0  0  0
   -0.2060  -11.2510  -35.5030 C   0  0  0  0  0
    0.6000  -11.4110  -34.5830 O   0  0  0  0  0
   -1.4880   -9.2740  -34.6210 C   0  0  0  0  0
   -3.0530   -8.6310  -33.9660 S   0  0  0  0  0
    0.0590  -11.5850  -36.7610 N   0  0  0  0  0
    1.2910  -12.2670  -37.1300 C   0  0  0  0  0
    2.2550  -11.2700  -37.7340 C   0  0  0  0  0
    1.8310  -10.2770  -38.3260 O   0  0  0  0  0
    1.0230  -13.4020  -38.1180 C   0  0  0  0  0
    0.1050  -14.4580  -37.5520 C   0  0  0  0  0
   -0.0130  -14.5330  -36.3150 O   0  0  0  0  0
   -0.5050  -15.2070  -38.3430 O   0  0  0  0  0
    3.5490  -11.5310  -37.5890 N   0  0  0  0  0
    4.5530  -10.6250  -38.1310 C   0  0  0  0  0
    4.7690  -10.8770  -39.6250 C   0  0  0  0  0
    5.5710  -10.1980  -40.2760 O   0  0  0  0  0
    5.8690  -10.7660  -37.3680 C   0  0  0  0  0
    6.3080  -12.1130  -37.3600 O   0  0  0  0  0
    4.1470  -11.7660  -40.2170 O   0  0  0  0  0
  -10.8175  -16.8006  -32.0050 H   0  0  0  0  0
  -11.9080  -15.6682  -31.3726 H   0  0  0  0  0
  -10.7360  -15.7006  -29.5179 H   0  0  0  0  0
  -12.4456  -17.1493  -28.5685 H   0  0  0  0  0
  -11.1382  -18.2694  -28.4993 H   0  0  0  0  0
  -13.3130  -18.9203  -29.8918 H   0  0  0  0  0
  -11.7513  -19.3449  -30.5301 H   0  0  0  0  0
  -12.5879  -18.1041  -32.3677 H   0  0  0  0  0
  -13.5873  -17.1182  -31.3970 H   0  0  0  0  0
   -9.6397  -17.5927  -32.0394 H   0  0  0  0  0
   -7.1473  -18.1793  -30.5103 H   0  0  0  0  0
   -8.0433  -20.2589  -31.1360 H   0  0  0  0  0
   -6.7931  -19.8896  -32.4111 H   0  0  0  0  0
   -7.5013  -19.1772  -34.6319 H   0  0  0  0  0
  -10.3049  -20.4773  -31.6790 H   0  0  0  0  0
   -9.2018  -19.4806  -36.3876 H   0  0  0  0  0
  -12.0145  -20.7768  -33.4326 H   0  0  0  0  0
  -11.4666  -20.2611  -35.7879 H   0  0  0  0  0
   -8.3938  -16.0421  -32.6212 H   0  0  0  0  0
   -6.4596  -16.0680  -34.7460 H   0  0  0  0  0
   -8.6376  -14.9405  -34.9532 H   0  0  0  0  0
   -8.1792  -13.7931  -33.6708 H   0  0  0  0  0
   -7.3117  -13.7835  -35.2259 H   0  0  0  0  0
   -4.7815  -14.6008  -35.2208 H   0  0  0  0  0
   -3.6507  -13.2377  -32.8743 H   0  0  0  0  0
   -1.3167  -14.0144  -33.5633 H   0  0  0  0  0
   -1.2917  -15.8911  -34.9584 H   0  0  0  0  0
   -2.4266  -15.0745  -31.6684 H   0  0  0  0  0
   -3.2431  -16.2178  -32.7626 H   0  0  0  0  0
   -1.4718  -16.2652  -32.5858 H   0  0  0  0  0
   -2.1472  -11.5043  -33.3312 H   0  0  0  0  0
   -2.1504  -10.5526  -36.1600 H   0  0  0  0  0
   -1.1705   -8.5978  -35.4147 H   0  0  0  0  0
   -0.7931   -9.3406  -33.7838 H   0  0  0  0  0
   -2.8545   -7.4175  -33.4592 H   0  0  0  0  0
   -0.6191  -11.3574  -37.4882 H   0  0  0  0  0
    1.7269  -12.7037  -36.2315 H   0  0  0  0  0
    1.9763  -13.8760  -38.3517 H   0  0  0  0  0
    0.5415  -12.9748  -38.9976 H   0  0  0  0  0
   -0.2691  -14.9781  -39.2450 H   0  0  0  0  0
    3.8425  -12.3731  -37.0939 H   0  0  0  0  0
    4.1891   -9.6048  -38.0094 H   0  0  0  0  0
    5.9817   -9.5496  -39.6993 H   0  0  0  0  0
    5.7135  -10.4423  -36.3389 H   0  0  0  0  0
    6.6257  -10.1540  -37.8589 H   0  0  0  0  0
    7.1346  -12.1761  -36.8759 H   0  0  0  0  0
  1  2  1  0  0  0
  1  7  1  0  0  0
  2  3  1  0  0  0
  2  5  1  0  0  0
  3  4  2  0  0  0
  3  8  1  0  0  0
  5  6  1  0  0  0
  6  7  1  0  0  0
  8  9  1  0  0  0
  9 10  1  0  0  0
  9 12  1  0  0  0
 10 11  2  0  0  0
 10 19  1  0  0  0
 12 13  1  0  0  0
 13 14  4  0  0  0
 13 15  4  0  0  0
 14 16  4  0  0  0
 15 17  4  0  0  0
 16 18  4  0  0  0
 17 18  4  0  0  0
 19 20  1  0  0  0
 20 21  1  0  0  0
 20 23  1  0  0  0
 21 22  2  0  0  0
 21 24  1  0  0  0
 24 25  1  0  0  0
 25 26  1  0  0  0
 25 28  1  0  0  0
 26 27  2  0  0  0
 26 31  1  0  0  0
 28 29  1  0  0  0
 28 30  1  0  0  0
 31 32  1  0  0  0
 32 33  1  0  0  0
 32 35  1  0  0  0
 33 34  2  0  0  0
 33 37  1  0  0  0
 35 36  1  0  0  0
 37 38  1  0  0  0
 38 39  1  0  0  0
 38 41  1  0  0  0
 39 40  2  0  0  0
 39 45  1  0  0  0
 41 42  1  0  0  0
 42 43  2  0  0  0
 42 44  1  0  0  0
 45 46  1  0  0  0
 46 47  1  0  0  0
 46 49  1  0  0  0
 47 48  1  0  0  0
 47 51  2  0  0  0
 49 50  1  0  0  0
  1 52  1  0  0  0
  1 53  1  0  0  0
  2 54  1  0  0  0
  5 55  1  0  0  0
  5 56  1  0  0  0
  6 57  1  0  0  0
  6 58  1  0  0  0
  7 59  1  0  0  0
  7 60  1  0  0  0
  8 61  1  0  0  0
  9 62  1  0  0  0
 12 63  1  0  0  0
 12 64  1  0  0  0
 14 65  1  0  0  0
 15 66  1  0  0  0
 16 67  1  0  0  0
 17 68  1  0  0  0
 18 69  1  0  0  0
 19 70  1  0  0  0
 20 71  1  0  0  0
 23 72  1  0  0  0
 23 73  1  0  0  0
 23 74  1  0  0  0
 24 75  1  0  0  0
 25 76  1  0  0  0
 28 77  1  0  0  0
 29 78  1  0  0  0
 30 79  1  0  0  0
 30 80  1  0  0  0
 30 81  1  0  0  0
 31 82  1  0  0  0
 32 83  1  0  0  0
 35 84  1  0  0  0
 35 85  1  0  0  0
 36 86  1  0  0  0
 37 87  1  0  0  0
 38 88  1  0  0  0
 41 89  1  0  0  0
 41 90  1  0  0  0
 44 91  1  0  0  0
 45 92  1  0  0  0
 46 93  1  0  0  0
 48 94  1  0  0  0
 49 95  1  0  0  0
 49 96  1  0  0  0
 50 97  1  0  0  0
M  END
$$$$
