3k3g_ligand
  -I-interpret- 

 14 13  0  0  0  0  0  0  0  0999 V2000
   49.4320  -12.4050    6.8790 N   0  0  0  0  0
   49.0360  -12.4070    9.1200 N   0  0  0  0  0
   50.0550  -13.0220    5.6890 C   0  0  0  0  0
   49.2280  -13.0580   10.4340 C   0  0  0  0  0
   50.2770  -14.0270    8.2010 O   0  0  0  0  0
   49.6080  -12.9920    8.0690 C   0  0  0  0  0
   48.8804  -11.5511    6.7952 H   0  0  0  0  0
   48.4911  -11.5502    9.0232 H   0  0  0  0  0
   51.1359  -13.0593    5.8245 H   0  0  0  0  0
   49.6685  -14.0331    5.5612 H   0  0  0  0  0
   49.8184  -12.4270    4.8069 H   0  0  0  0  0
   48.8201  -14.0682   10.4006 H   0  0  0  0  0
   50.2925  -13.1020   10.6641 H   0  0  0  0  0
   48.7124  -12.4818   11.2023 H   0  0  0  0  0
  1  3  1  0  0  0
  6  1  1  0  0  0
  2  4  1  0  0  0
  2  6  1  0  0  0
  6  5  2  0  0  0
  1  7  1  0  0  0
  2  8  1  0  0  0
  3  9  1  0  0  0
  3 10  1  0  0  0
  3 11  1  0  0  0
  4 12  1  0  0  0
  4 13  1  0  0  0
  4 14  1  0  0  0
M  END
$$$$
