2xk4_ligand
  -I-interpret- 

 54 56  0  0  0  0  0  0  0  0999 V2000
  -26.9990   19.1330  -13.1220 C   0  0  0  0  0
  -25.9840   19.4960  -14.2050 C   0  0  0  0  0
  -25.3220   20.7150  -14.0540 O   0  0  0  0  0
  -24.6760   21.3130  -15.1400 C   0  0  0  0  0
  -25.3670   21.5220  -16.3410 C   0  0  0  0  0
  -24.7160   22.1550  -17.4050 C   0  0  0  0  0
  -25.3530   22.3530  -18.6160 C   0  0  0  0  0
  -25.8770   21.3080  -19.2600 N   0  0  0  0  0
  -26.4430   21.4640  -20.4620 C   0  0  0  0  0
  -27.0020   20.3530  -21.0710 C   0  0  0  0  0
  -26.8730   19.1100  -20.4430 C   0  0  0  0  0
  -27.4120   17.9640  -21.0430 C   0  0  0  0  0
  -27.3030   16.7180  -20.4070 O   0  0  0  0  0
  -26.7810   16.6440  -19.1090 C   0  0  0  0  0
  -28.0780   18.0640  -22.2730 C   0  0  0  0  0
  -28.5700   16.8860  -22.8500 O   0  0  0  0  0
  -27.6560   15.9420  -23.3580 C   0  0  0  0  0
  -28.2010   19.3160  -22.9100 C   0  0  0  0  0
  -28.8730   19.4530  -24.1310 O   0  0  0  0  0
  -28.3710   18.7980  -25.2570 C   0  0  0  0  0
  -27.6620   20.4580  -22.3020 C   0  0  0  0  0
  -26.4290   22.7150  -21.0860 C   0  0  0  0  0
  -25.8530   23.7490  -20.4640 N   0  0  0  0  0
  -25.2920   23.5950  -19.2550 C   0  0  0  0  0
  -24.6630   24.7210  -18.5950 N   0  0  0  0  0
  -23.3830   22.5650  -17.2800 C   0  0  0  0  0
  -22.6960   22.3660  -16.0800 C   0  0  0  0  0
  -23.3450   21.7410  -15.0130 C   0  0  0  0  0
  -22.5770   21.5290  -13.7150 C   0  0  0  0  0
  -23.0810   21.7940  -12.6750 O   0  0  0  0  0
  -21.2030   21.2720  -13.7920 O   0  0  0  0  0
  -26.4956   19.0819  -12.1565 H   0  0  0  0  0
  -27.7787   19.8939  -13.0869 H   0  0  0  0  0
  -27.4442   18.1652  -13.3528 H   0  0  0  0  0
  -26.5483   19.5720  -15.1344 H   0  0  0  0  0
  -25.2128   18.7267  -14.1661 H   0  0  0  0  0
  -26.4014   21.1946  -16.4451 H   0  0  0  0  0
  -26.3537   19.0327  -19.4878 H   0  0  0  0  0
  -25.7638   17.0356  -19.1050 H   0  0  0  0  0
  -27.4017   17.2344  -18.4350 H   0  0  0  0  0
  -26.7728   15.6046  -18.7808 H   0  0  0  0  0
  -27.0580   16.4036  -24.1437 H   0  0  0  0  0
  -27.0025   15.6020  -22.5546 H   0  0  0  0  0
  -28.2028   15.0926  -23.7674 H   0  0  0  0  0
  -27.3596   19.1501  -25.4598 H   0  0  0  0  0
  -28.3531   17.7238  -25.0730 H   0  0  0  0  0
  -29.0098   19.0105  -26.1143 H   0  0  0  0  0
  -27.7565   21.4292  -22.7878 H   0  0  0  0  0
  -26.8825   22.8459  -22.0685 H   0  0  0  0  0
  -24.2640   24.6081  -17.6631 H   0  0  0  0  0
  -24.6191   25.6266  -19.0623 H   0  0  0  0  0
  -22.8798   23.0409  -18.1216 H   0  0  0  0  0
  -21.6622   22.6958  -15.9774 H   0  0  0  0  0
  -20.9657   21.0764  -14.7014 H   0  0  0  0  0
  1  2  1  0  0  0
  2  3  1  0  0  0
  3  4  1  0  0  0
  4  5  4  0  0  0
  4 28  4  0  0  0
  5  6  4  0  0  0
  6  7  1  0  0  0
  6 26  4  0  0  0
  7  8  4  0  0  0
  7 24  4  0  0  0
  8  9  4  0  0  0
  9 10  1  0  0  0
  9 22  4  0  0  0
 10 11  4  0  0  0
 10 21  4  0  0  0
 11 12  4  0  0  0
 12 13  1  0  0  0
 12 15  4  0  0  0
 13 14  1  0  0  0
 15 16  1  0  0  0
 15 18  4  0  0  0
 16 17  1  0  0  0
 18 19  1  0  0  0
 18 21  4  0  0  0
 19 20  1  0  0  0
 22 23  4  0  0  0
 23 24  4  0  0  0
 24 25  1  0  0  0
 26 27  4  0  0  0
 27 28  4  0  0  0
 28 29  1  0  0  0
 29 30  2  0  0  0
 29 31  1  0  0  0
  1 32  1  0  0  0
  1 33  1  0  0  0
  1 34  1  0  0  0
  2 35  1  0  0  0
  2 36  1  0  0  0
  5 37  1  0  0  0
 11 38  1  0  0  0
 14 39  1  0  0  0
 14 40  1  0  0  0
 14 41  1  0  0  0
 17 42  1  0  0  0
 17 43  1  0  0  0
 17 44  1  0  0  0
 20 45  1  0  0  0
 20 46  1  0  0  0
 20 47  1  0  0  0
 21 48  1  0  0  0
 22 49  1  0  0  0
 25 50  1  0  0  0
 25 51  1  0  0  0
 26 52  1  0  0  0
 27 53  1  0  0  0
 31 54  1  0  0  0
M  END
$$$$
