### 
### Created by X-TOOL on Sun Sep  9 21:53:49 2018
### 

@<TRIPOS>MOLECULE
5l3f_ligand
  188   189     1     0     0
SMALL
GAST_HUCK


@<TRIPOS>ATOM
      1 CAA        11.0030  -36.8340  -42.2480 C.3       1 NON        -0.0650
      2 CAB         9.6800  -37.4520  -42.6720 C.3       1 NON        -0.0533
      3 CAC         8.7470  -37.5380  -41.4730 C.3       1 NON        -0.0441
      4 CAD         9.3940  -38.3710  -40.3780 C.3       1 NON        -0.0624
      5 CAE         7.4190  -38.1620  -41.8840 C.3       1 NON        -0.0503
      6 CAF         7.6460  -39.3610  -42.7960 C.3       1 NON        -0.0507
      7 CAG         7.2020  -40.6450  -42.1100 C.3       1 NON        -0.0361
      8 CAH         5.8100  -40.4740  -41.5210 C.3       1 NON         0.0374
      9 CAI         5.8740  -40.7000  -40.0230 C.2       1 NON         0.1782
     10 OAJ         6.9320  -40.5660  -39.4190 O.2       1 NON        -0.3969
     11 N           4.7210  -41.0440  -39.4340 N.am      1 NON        -0.2654
     12 CA          4.6670  -41.3090  -38.0080 C.3       1 NON         0.1357
     13 C           3.2520  -41.1550  -37.4740 C.2       1 NON         0.2042
     14 O           2.3810  -41.9760  -37.7410 O.2       1 NON        -0.3944
     15 CB          5.1450  -42.7330  -37.7600 C.3       1 NON         0.0278
     16 CG          4.6690  -43.6510  -38.8770 C.3       1 NON        -0.0311
     17 NZ          5.1730  -44.9980  -38.7010 N.4       1 NON         0.2187
     18 N           3.0310  -40.0980  -36.6830 N.am      1 NON        -0.2613
     19 CA          1.7150  -39.8820  -36.1060 C.3       1 NON         0.1565
     20 CB          1.4910  -38.4100  -35.8160 C.3       1 NON         0.0924
     21 CG2         2.7450  -37.7980  -35.2130 C.3       1 NON        -0.0346
     22 OG1         0.4040  -38.2960  -34.8940 O.3       1 NON        -0.3874
     23 C           1.5870  -40.6810  -34.8160 C.2       1 NON         0.2065
     24 O           2.4710  -40.6110  -33.9640 O.2       1 NON        -0.3943
     25 N           0.4640  -41.4270  -34.7330 N.am      1 NON        -0.2635
     26 CA          0.0560  -42.3390  -33.6560 C.3       1 NON         0.1358
     27 C           0.8940  -42.2660  -32.3730 C.2       1 NON         0.2041
     28 O           0.5100  -41.5970  -31.4120 O.2       1 NON        -0.3944
     29 CB         -1.4130  -42.1260  -33.3060 C.3       1 NON         0.0278
     30 CG         -1.9040  -43.3190  -32.4980 C.3       1 NON        -0.0311
     31 NZ         -3.2110  -43.0790  -31.9180 N.4       1 NON         0.2187
     32 N           2.0220  -43.0080  -32.3460 N.am      1 NON        -0.2637
     33 CA          2.5020  -43.7960  -33.4720 C.3       1 NON         0.1328
     34 C           3.8970  -43.7910  -33.5190 C.2       1 NON         0.2040
     35 O           4.4870  -44.7420  -34.0240 O.2       1 NON        -0.3944
     36 CB          1.9700  -45.2280  -33.4400 C.3       1 NON         0.0078
     37 CG          2.1950  -45.9740  -32.1230 C.3       1 NON         0.0352
     38 NZ          1.0120  -46.0140  -31.2580 N.am      1 NON        -0.2848
     39 N           4.6120  -42.6970  -32.9950 N.am      1 NON        -0.2635
     40 CA          6.0690  -42.5940  -33.0140 C.3       1 NON         0.1358
     41 C           6.6110  -42.9980  -34.2260 C.2       1 NON         0.2042
     42 O           6.8490  -42.1910  -35.1200 O.2       1 NON        -0.3944
     43 CB          6.7070  -43.3930  -31.8900 C.3       1 NON         0.0278
     44 CG          7.0650  -42.4340  -30.7680 C.3       1 NON        -0.0311
     45 ND          6.0070  -41.4600  -30.5880 N.4       1 NON         0.2187
     46 N           6.8730  -44.3470  -34.4350 N.am      1 NON        -0.2619
     47 CA          7.4560  -44.7550  -35.6900 C.3       1 NON         0.1404
     48 C           6.9250  -45.9940  -36.0520 C.2       1 NON         0.2060
     49 O           6.0270  -46.0480  -36.8900 O.2       1 NON        -0.3942
     50 CB          8.9690  -44.7770  -35.5180 C.3       1 NON         0.0214
     51 CG          9.6790  -44.9770  -36.7050 C.ar      1 NON        -0.0386
     52 CD1        11.0630  -45.0700  -36.6380 C.ar      1 NON        -0.0601
     53 CD2         9.0520  -45.0850  -37.9440 C.ar      1 NON        -0.0601
     54 CE1        11.8120  -45.2780  -37.7910 C.ar      1 NON        -0.0686
     55 CE2         9.7990  -45.3000  -39.0940 C.ar      1 NON        -0.0686
     56 CZ         11.1810  -45.3930  -39.0200 C.ar      1 NON        -0.0687
     57 N           7.4300  -47.1760  -35.4880 N.am      1 NON        -0.2636
     58 CA          6.9270  -48.4880  -35.8750 C.3       1 NON         0.1312
     59 C           6.3890  -49.1780  -34.7780 C.2       1 NON         0.2039
     60 O           6.5230  -50.3970  -34.6960 O.2       1 NON        -0.3944
     61 CB          8.0660  -49.3070  -36.4780 C.3       1 NON        -0.0101
     62 CG          8.6520  -48.6080  -37.7010 C.3       1 NON        -0.0425
     63 CD1        10.1060  -49.0140  -37.8890 C.3       1 NON        -0.0625
     64 CD2         7.8700  -49.0090  -38.9410 C.3       1 NON        -0.0625
     65 N           5.6580  -48.5220  -33.7680 N.am      1 NON        -0.2635
     66 CA          5.1570  -49.2950  -32.6340 C.3       1 NON         0.1358
     67 C           3.9690  -49.9840  -32.9180 C.2       1 NON         0.2041
     68 O           3.5960  -50.1560  -34.0770 O.2       1 NON        -0.3944
     69 CB          5.0160  -48.4380  -31.3740 C.3       1 NON         0.0278
     70 CG          6.3960  -47.9940  -30.9020 C.3       1 NON        -0.0311
     71 ND          6.3240  -47.2260  -29.6720 N.4       1 NON         0.2187
     72 N           3.2300  -50.5430  -31.8610 N.am      1 NON        -0.2635
     73 CA          2.0190  -51.3110  -32.0940 C.3       1 NON         0.1358
     74 C           0.9550  -50.4340  -32.2370 C.2       1 NON         0.2042
     75 O          -0.0840  -50.8100  -32.7840 O.2       1 NON        -0.3944
     76 CB          1.7540  -52.2830  -30.9530 C.3       1 NON         0.0278
     77 CG          0.9830  -53.4900  -31.4710 C.3       1 NON        -0.0311
     78 ND         -0.4090  -53.4370  -31.0680 N.4       1 NON         0.2187
     79 N           1.0860  -49.1030  -31.8000 N.am      1 NON        -0.2613
     80 CA         -0.0290  -48.1910  -31.9880 C.3       1 NON         0.1563
     81 CB         -0.2410  -47.8690  -33.4610 C.3       1 NON         0.0924
     82 CG2        -1.0890  -46.6180  -33.6010 C.3       1 NON        -0.0346
     83 OG1        -0.8790  -48.9870  -34.0820 O.3       1 NON        -0.3874
     84 C           0.0220  -47.0380  -31.1830 C.2       1 NON         0.2042
     85 O          -0.8980  -46.8830  -30.3790 O.2       1 NON        -0.3944
     86 H1         11.6746  -36.7735  -43.1171 H         1 NON         0.0230
     87 H2         11.4663  -37.4578  -41.4694 H         1 NON         0.0230
     88 H3         10.8253  -35.8237  -41.8510 H         1 NON         0.0230
     89 H4          9.8588  -38.4620  -43.0694 H         1 NON         0.0265
     90 H5          9.2178  -36.8279  -43.4510 H         1 NON         0.0265
     91 H6          8.5617  -36.5236  -41.0901 H         1 NON         0.0298
     92 H7          8.7162  -38.4304  -39.5137 H         1 NON         0.0232
     93 H8         10.3400  -37.9014  -40.0705 H         1 NON         0.0232
     94 H9          9.5938  -39.3839  -40.7575 H         1 NON         0.0232
     95 H10         6.8173  -37.4115  -42.4176 H         1 NON         0.0268
     96 H11         6.8804  -38.4907  -40.9830 H         1 NON         0.0268
     97 H12         8.7162  -39.4326  -43.0400 H         1 NON         0.0267
     98 H13         7.0670  -39.2264  -43.7216 H         1 NON         0.0267
     99 H14         7.9096  -40.8894  -41.3041 H         1 NON         0.0290
    100 H15         7.1870  -41.4630  -42.8453 H         1 NON         0.0290
    101 H16         5.1255  -41.2057  -41.9750 H         1 NON         0.0502
    102 H17         5.4463  -39.4561  -41.7247 H         1 NON         0.0502
    103 H18         3.8884  -41.1190  -39.9828 H         1 NON         0.1883
    104 H19         5.3273  -40.6024  -37.4839 H         1 NON         0.0802
    105 H20         4.7419  -43.0894  -36.8006 H         1 NON         0.0364
    106 H21         6.2443  -42.7458  -37.7233 H         1 NON         0.0364
    107 H22         5.0255  -43.2579  -39.8405 H         1 NON         0.0815
    108 H23         3.5693  -43.6767  -38.8758 H         1 NON         0.0815
    109 H24         4.8423  -45.5815  -39.4535 H         1 NON         0.1994
    110 H25         4.8464  -45.3667  -37.8215 H         1 NON         0.1994
    111 H26         6.1809  -44.9829  -38.7056 H         1 NON         0.1994
    112 H27         3.7727  -39.4560  -36.4889 H         1 NON         0.1884
    113 H28         0.9518  -40.2249  -36.8201 H         1 NON         0.0826
    114 H29         1.2420  -37.8835  -36.7491 H         1 NON         0.0639
    115 H30         2.5701  -36.7316  -35.0074 H         1 NON         0.0257
    116 H31         3.5808  -37.9028  -35.9204 H         1 NON         0.0257
    117 H32         2.9915  -38.3166  -34.2748 H         1 NON         0.0257
    118 H33        -0.3760  -38.6801  -35.2767 H         1 NON         0.2101
    119 H34        -0.1701  -41.3485  -35.5023 H         1 NON         0.1883
    120 H35         0.1648  -43.3600  -34.0505 H         1 NON         0.0802
    121 H36        -2.0038  -42.0370  -34.2296 H         1 NON         0.0364
    122 H37        -1.5217  -41.2071  -32.7112 H         1 NON         0.0364
    123 H38        -1.1871  -43.5192  -31.6881 H         1 NON         0.0815
    124 H39        -1.9642  -44.1958  -33.1595 H         1 NON         0.0815
    125 H40        -3.4995  -43.8896  -31.3928 H         1 NON         0.1994
    126 H41        -3.8772  -42.9004  -32.6531 H         1 NON         0.1994
    127 H42        -3.1650  -42.2803  -31.3048 H         1 NON         0.1994
    128 H43         2.5593  -43.0167  -31.5027 H         1 NON         0.1883
    129 H44         2.1304  -43.3226  -34.3927 H         1 NON         0.0800
    130 H45         2.4667  -45.7942  -34.2416 H         1 NON         0.0332
    131 H46         0.8874  -45.1939  -33.6318 H         1 NON         0.0332
    132 H47         3.0083  -45.4749  -31.5759 H         1 NON         0.0522
    133 H48         2.4900  -47.0078  -32.3556 H         1 NON         0.0522
    134 H49         0.8841  -45.2313  -30.6489 H         1 NON         0.1851
    135 H50         4.0922  -41.9470  -32.5861 H         1 NON         0.1883
    136 H51         6.3253  -41.5346  -32.8656 H         1 NON         0.0802
    137 H52         7.6160  -43.8917  -32.2574 H         1 NON         0.0364
    138 H53         5.9977  -44.1486  -31.5214 H         1 NON         0.0364
    139 H54         8.0003  -41.9126  -31.0197 H         1 NON         0.0815
    140 H55         7.2005  -43.0003  -29.8348 H         1 NON         0.0815
    141 H56         6.2545  -40.8291  -29.8418 H         1 NON         0.1994
    142 H57         5.1489  -41.9351  -30.3556 H         1 NON         0.1994
    143 H58         5.8818  -40.9383  -31.4414 H         1 NON         0.1994
    144 H59         6.6613  -45.0223  -33.7285 H         1 NON         0.1885
    145 H60         7.2003  -44.0235  -36.4707 H         1 NON         0.0823
    146 H61         9.2250  -45.5896  -34.8222 H         1 NON         0.0474
    147 H62         9.2811  -43.8139  -35.0879 H         1 NON         0.0474
    148 H63        11.5628  -44.9798  -35.6804 H         1 NON         0.0557
    149 H64         7.9733  -45.0006  -38.0107 H         1 NON         0.0557
    150 H65        12.8918  -45.3504  -37.7287 H         1 NON         0.0599
    151 H66         9.3012  -45.3955  -40.0522 H         1 NON         0.0599
    152 H67        11.7648  -45.5548  -39.9189 H         1 NON         0.0559
    153 H68         8.1549  -47.1162  -34.8017 H         1 NON         0.1883
    154 H69         6.1382  -48.3553  -36.6301 H         1 NON         0.0800
    155 H70         7.6813  -50.2932  -36.7769 H         1 NON         0.0315
    156 H71         8.8561  -49.4349  -35.7235 H         1 NON         0.0315
    157 H72         8.5900  -47.5186  -37.5620 H         1 NON         0.0298
    158 H73        10.5176  -48.5045  -38.7727 H         1 NON         0.0232
    159 H74        10.1671  -50.1029  -38.0320 H         1 NON         0.0232
    160 H75        10.6847  -48.7281  -36.9983 H         1 NON         0.0232
    161 H76         6.8155  -48.7209  -38.8185 H         1 NON         0.0232
    162 H77         7.9387  -50.0978  -39.0817 H         1 NON         0.0232
    163 H78         8.2898  -48.4985  -39.8203 H         1 NON         0.0232
    164 H79         5.4841  -47.5390  -33.8266 H         1 NON         0.1883
    165 H80         5.9185  -50.0583  -32.4162 H         1 NON         0.0802
    166 H81         4.5303  -49.0275  -30.5825 H         1 NON         0.0364
    167 H82         4.4037  -47.5525  -31.5998 H         1 NON         0.0364
    168 H83         6.8566  -47.3720  -31.6836 H         1 NON         0.0815
    169 H84         7.0171  -48.8853  -30.7293 H         1 NON         0.0815
    170 H85         7.2527  -46.9513  -29.3926 H         1 NON         0.1994
    171 H86         5.9082  -47.7901  -28.9475 H         1 NON         0.1994
    172 H87         5.7612  -46.4033  -29.8220 H         1 NON         0.1994
    173 H88         3.5468  -50.4082  -30.9221 H         1 NON         0.1883
    174 H89         2.1367  -51.8869  -33.0238 H         1 NON         0.0802
    175 H90         1.1629  -51.7792  -30.1741 H         1 NON         0.0364
    176 H91         2.7120  -52.6169  -30.5279 H         1 NON         0.0364
    177 H92         1.4384  -54.4065  -31.0676 H         1 NON         0.0815
    178 H93         1.0378  -53.5061  -32.5695 H         1 NON         0.0815
    179 H94        -0.8929  -54.2463  -31.4242 H         1 NON         0.1994
    180 H95        -0.8344  -52.6014  -31.4380 H         1 NON         0.1994
    181 H96        -0.4673  -53.4265  -30.0618 H         1 NON         0.1994
    182 H97         1.9317  -48.7903  -31.3676 H         1 NON         0.1884
    183 H98        -0.9247  -48.7401  -31.6621 H         1 NON         0.0826
    184 H99         0.7334  -47.6954  -33.9410 H         1 NON         0.0639
    185 H100       -1.2371  -46.3929  -34.6675 H         1 NON         0.0257
    186 H101       -0.5790  -45.7730  -33.1153 H         1 NON         0.0257
    187 H102       -2.0655  -46.7814  -33.1218 H         1 NON         0.0257
    188 H103       -0.3322  -49.7576  -33.9827 H         1 NON         0.2101
@<TRIPOS>BOND
     1    1    2 1  
     2    2    3 1  
     3    3    4 1  
     4    3    5 1  
     5    5    6 1  
     6    6    7 1  
     7    7    8 1  
     8    8    9 1  
     9    9   10 2  
    10    9   11 am 
    11   11   12 1  
    12   12   13 1  
    13   12   15 1  
    14   13   14 2  
    15   13   18 am 
    16   15   16 1  
    17   16   17 1  
    18   18   19 1  
    19   19   20 1  
    20   19   23 1  
    21   20   21 1  
    22   20   22 1  
    23   23   24 2  
    24   23   25 am 
    25   25   26 1  
    26   26   27 1  
    27   26   29 1  
    28   27   28 2  
    29   27   32 am 
    30   29   30 1  
    31   30   31 1  
    32   32   33 1  
    33   33   34 1  
    34   33   36 1  
    35   34   35 2  
    36   34   39 am 
    37   36   37 1  
    38   37   38 1  
    39   38   84 am 
    40   39   40 1  
    41   40   41 1  
    42   40   43 1  
    43   41   42 2  
    44   41   46 am 
    45   43   44 1  
    46   44   45 1  
    47   46   47 1  
    48   47   48 1  
    49   47   50 1  
    50   48   49 2  
    51   48   57 am 
    52   50   51 1  
    53   51   52 ar 
    54   51   53 ar 
    55   52   54 ar 
    56   53   55 ar 
    57   54   56 ar 
    58   55   56 ar 
    59   57   58 1  
    60   58   59 1  
    61   58   61 1  
    62   59   60 2  
    63   59   65 am 
    64   61   62 1  
    65   62   63 1  
    66   62   64 1  
    67   65   66 1  
    68   66   67 1  
    69   66   69 1  
    70   67   68 2  
    71   67   72 am 
    72   69   70 1  
    73   70   71 1  
    74   72   73 1  
    75   73   74 1  
    76   73   76 1  
    77   74   75 2  
    78   74   79 am 
    79   76   77 1  
    80   77   78 1  
    81   79   80 1  
    82   80   81 1  
    83   80   84 1  
    84   81   82 1  
    85   81   83 1  
    86   84   85 2  
    87    1   86 1  
    88    1   87 1  
    89    1   88 1  
    90    2   89 1  
    91    2   90 1  
    92    3   91 1  
    93    4   92 1  
    94    4   93 1  
    95    4   94 1  
    96    5   95 1  
    97    5   96 1  
    98    6   97 1  
    99    6   98 1  
   100    7   99 1  
   101    7  100 1  
   102    8  101 1  
   103    8  102 1  
   104   11  103 1  
   105   12  104 1  
   106   15  105 1  
   107   15  106 1  
   108   16  107 1  
   109   16  108 1  
   110   17  109 1  
   111   17  110 1  
   112   17  111 1  
   113   18  112 1  
   114   19  113 1  
   115   20  114 1  
   116   21  115 1  
   117   21  116 1  
   118   21  117 1  
   119   22  118 1  
   120   25  119 1  
   121   26  120 1  
   122   29  121 1  
   123   29  122 1  
   124   30  123 1  
   125   30  124 1  
   126   31  125 1  
   127   31  126 1  
   128   31  127 1  
   129   32  128 1  
   130   33  129 1  
   131   36  130 1  
   132   36  131 1  
   133   37  132 1  
   134   37  133 1  
   135   38  134 1  
   136   39  135 1  
   137   40  136 1  
   138   43  137 1  
   139   43  138 1  
   140   44  139 1  
   141   44  140 1  
   142   45  141 1  
   143   45  142 1  
   144   45  143 1  
   145   46  144 1  
   146   47  145 1  
   147   50  146 1  
   148   50  147 1  
   149   52  148 1  
   150   53  149 1  
   151   54  150 1  
   152   55  151 1  
   153   56  152 1  
   154   57  153 1  
   155   58  154 1  
   156   61  155 1  
   157   61  156 1  
   158   62  157 1  
   159   63  158 1  
   160   63  159 1  
   161   63  160 1  
   162   64  161 1  
   163   64  162 1  
   164   64  163 1  
   165   65  164 1  
   166   66  165 1  
   167   69  166 1  
   168   69  167 1  
   169   70  168 1  
   170   70  169 1  
   171   71  170 1  
   172   71  171 1  
   173   71  172 1  
   174   72  173 1  
   175   73  174 1  
   176   76  175 1  
   177   76  176 1  
   178   77  177 1  
   179   77  178 1  
   180   78  179 1  
   181   78  180 1  
   182   78  181 1  
   183   79  182 1  
   184   80  183 1  
   185   81  184 1  
   186   82  185 1  
   187   82  186 1  
   188   82  187 1  
   189   83  188 1  
@<TRIPOS>SUBSTRUCTURE
     1 NON         1

