5l3f_ligand
  -I-interpret- 

188189  0  0  0  0  0  0  0  0999 V2000
   11.0030  -36.8340  -42.2480 C   0  0  0  0  0
    9.6800  -37.4520  -42.6720 C   0  0  0  0  0
    8.7470  -37.5380  -41.4730 C   0  0  0  0  0
    9.3940  -38.3710  -40.3780 C   0  0  0  0  0
    7.4190  -38.1620  -41.8840 C   0  0  0  0  0
    7.6460  -39.3610  -42.7960 C   0  0  0  0  0
    7.2020  -40.6450  -42.1100 C   0  0  0  0  0
    5.8100  -40.4740  -41.5210 C   0  0  0  0  0
    5.8740  -40.7000  -40.0230 C   0  0  0  0  0
    6.9320  -40.5660  -39.4190 O   0  0  0  0  0
    4.7210  -41.0440  -39.4340 N   0  0  0  0  0
    4.6670  -41.3090  -38.0080 C   0  0  0  0  0
    3.2520  -41.1550  -37.4740 C   0  0  0  0  0
    2.3810  -41.9760  -37.7410 O   0  0  0  0  0
    5.1450  -42.7330  -37.7600 C   0  0  0  0  0
    4.6690  -43.6510  -38.8770 C   0  0  0  0  0
    5.1730  -44.9980  -38.7010 N   0  3  0  0  0
    3.0310  -40.0980  -36.6830 N   0  0  0  0  0
    1.7150  -39.8820  -36.1060 C   0  0  0  0  0
    1.4910  -38.4100  -35.8160 C   0  0  0  0  0
    2.7450  -37.7980  -35.2130 C   0  0  0  0  0
    0.4040  -38.2960  -34.8940 O   0  0  0  0  0
    1.5870  -40.6810  -34.8160 C   0  0  0  0  0
    2.4710  -40.6110  -33.9640 O   0  0  0  0  0
    0.4640  -41.4270  -34.7330 N   0  0  0  0  0
    0.0560  -42.3390  -33.6560 C   0  0  0  0  0
    0.8940  -42.2660  -32.3730 C   0  0  0  0  0
    0.5100  -41.5970  -31.4120 O   0  0  0  0  0
   -1.4130  -42.1260  -33.3060 C   0  0  0  0  0
   -1.9040  -43.3190  -32.4980 C   0  0  0  0  0
   -3.2110  -43.0790  -31.9180 N   0  3  0  0  0
    2.0220  -43.0080  -32.3460 N   0  0  0  0  0
    2.5020  -43.7960  -33.4720 C   0  0  0  0  0
    3.8970  -43.7910  -33.5190 C   0  0  0  0  0
    4.4870  -44.7420  -34.0240 O   0  0  0  0  0
    1.9700  -45.2280  -33.4400 C   0  0  0  0  0
    2.1950  -45.9740  -32.1230 C   0  0  0  0  0
    1.0120  -46.0140  -31.2580 N   0  0  0  0  0
    4.6120  -42.6970  -32.9950 N   0  0  0  0  0
    6.0690  -42.5940  -33.0140 C   0  0  0  0  0
    6.6110  -42.9980  -34.2260 C   0  0  0  0  0
    6.8490  -42.1910  -35.1200 O   0  0  0  0  0
    6.7070  -43.3930  -31.8900 C   0  0  0  0  0
    7.0650  -42.4340  -30.7680 C   0  0  0  0  0
    6.0070  -41.4600  -30.5880 N   0  3  0  0  0
    6.8730  -44.3470  -34.4350 N   0  0  0  0  0
    7.4560  -44.7550  -35.6900 C   0  0  0  0  0
    6.9250  -45.9940  -36.0520 C   0  0  0  0  0
    6.0270  -46.0480  -36.8900 O   0  0  0  0  0
    8.9690  -44.7770  -35.5180 C   0  0  0  0  0
    9.6790  -44.9770  -36.7050 C   0  0  0  0  0
   11.0630  -45.0700  -36.6380 C   0  0  0  0  0
    9.0520  -45.0850  -37.9440 C   0  0  0  0  0
   11.8120  -45.2780  -37.7910 C   0  0  0  0  0
    9.7990  -45.3000  -39.0940 C   0  0  0  0  0
   11.1810  -45.3930  -39.0200 C   0  0  0  0  0
    7.4300  -47.1760  -35.4880 N   0  0  0  0  0
    6.9270  -48.4880  -35.8750 C   0  0  0  0  0
    6.3890  -49.1780  -34.7780 C   0  0  0  0  0
    6.5230  -50.3970  -34.6960 O   0  0  0  0  0
    8.0660  -49.3070  -36.4780 C   0  0  0  0  0
    8.6520  -48.6080  -37.7010 C   0  0  0  0  0
   10.1060  -49.0140  -37.8890 C   0  0  0  0  0
    7.8700  -49.0090  -38.9410 C   0  0  0  0  0
    5.6580  -48.5220  -33.7680 N   0  0  0  0  0
    5.1570  -49.2950  -32.6340 C   0  0  0  0  0
    3.9690  -49.9840  -32.9180 C   0  0  0  0  0
    3.5960  -50.1560  -34.0770 O   0  0  0  0  0
    5.0160  -48.4380  -31.3740 C   0  0  0  0  0
    6.3960  -47.9940  -30.9020 C   0  0  0  0  0
    6.3240  -47.2260  -29.6720 N   0  3  0  0  0
    3.2300  -50.5430  -31.8610 N   0  0  0  0  0
    2.0190  -51.3110  -32.0940 C   0  0  0  0  0
    0.9550  -50.4340  -32.2370 C   0  0  0  0  0
   -0.0840  -50.8100  -32.7840 O   0  0  0  0  0
    1.7540  -52.2830  -30.9530 C   0  0  0  0  0
    0.9830  -53.4900  -31.4710 C   0  0  0  0  0
   -0.4090  -53.4370  -31.0680 N   0  3  0  0  0
    1.0860  -49.1030  -31.8000 N   0  0  0  0  0
   -0.0290  -48.1910  -31.9880 C   0  0  0  0  0
   -0.2410  -47.8690  -33.4610 C   0  0  0  0  0
   -1.0890  -46.6180  -33.6010 C   0  0  0  0  0
   -0.8790  -48.9870  -34.0820 O   0  0  0  0  0
    0.0220  -47.0380  -31.1830 C   0  0  0  0  0
   -0.8980  -46.8830  -30.3790 O   0  0  0  0  0
   10.8255  -35.8330  -41.8548 H   0  0  0  0  0
   11.4610  -37.4529  -41.4765 H   0  0  0  0  0
   11.6676  -36.7746  -43.1099 H   0  0  0  0  0
    9.8580  -38.4533  -43.0641 H   0  0  0  0  0
    9.2220  -36.8321  -43.4427 H   0  0  0  0  0
    8.5604  -36.5323  -41.0963 H   0  0  0  0  0
    8.7316  -38.4096  -39.5133 H   0  0  0  0  0
    9.5701  -39.3811  -40.7478 H   0  0  0  0  0
   10.3426  -37.9174  -40.0907 H   0  0  0  0  0
    6.8313  -37.4174  -42.4210 H   0  0  0  0  0
    6.8943  -38.4951  -40.9885 H   0  0  0  0  0
    8.7086  -39.4330  -43.0281 H   0  0  0  0  0
    7.0638  -39.2273  -43.7078 H   0  0  0  0  0
    7.9016  -40.8805  -41.3079 H   0  0  0  0  0
    7.1819  -41.4516  -42.8428 H   0  0  0  0  0
    5.1297  -41.1963  -41.9721 H   0  0  0  0  0
    5.4468  -39.4667  -41.7247 H   0  0  0  0  0
    3.8718  -41.1205  -39.9938 H   0  0  0  0  0
    5.3053  -40.5916  -37.4923 H   0  0  0  0  0
    4.7385  -43.0852  -36.8119 H   0  0  0  0  0
    6.2346  -42.7430  -37.7307 H   0  0  0  0  0
    5.0384  -43.2632  -39.8264 H   0  0  0  0  0
    3.5796  -43.6828  -38.8599 H   0  0  0  0  0
    4.8377  -45.5874  -39.4629 H   0  0  0  0  0
    6.1929  -44.9815  -38.7058 H   0  0  0  0  0
    4.8420  -45.3700  -37.8108 H   0  0  0  0  0
    3.7876  -39.4432  -36.4850 H   0  0  0  0  0
    0.9627  -40.2136  -36.8217 H   0  0  0  0  0
    1.2602  -37.8797  -36.7399 H   0  0  0  0  0
    2.9882  -38.3128  -34.2835 H   0  0  0  0  0
    3.5724  -37.9025  -35.9149 H   0  0  0  0  0
    2.5705  -36.7414  -35.0098 H   0  0  0  0  0
    0.2476  -37.3692  -34.6985 H   0  0  0  0  0
   -0.1828  -41.3470  -35.5176 H   0  0  0  0  0
    0.2276  -43.3344  -34.0658 H   0  0  0  0  0
   -2.0001  -42.0324  -34.2196 H   0  0  0  0  0
   -1.5242  -41.2131  -32.7208 H   0  0  0  0  0
   -1.1977  -43.4961  -31.6869 H   0  0  0  0  0
   -1.9793  -44.1766  -33.1666 H   0  0  0  0  0
   -3.5019  -43.8998  -31.3869 H   0  0  0  0  0
   -3.1632  -42.2706  -31.2978 H   0  0  0  0  0
   -3.8842  -42.8983  -32.6627 H   0  0  0  0  0
    2.5701  -43.0168  -31.4858 H   0  0  0  0  0
    2.1187  -43.3283  -34.3789 H   0  0  0  0  0
    2.5087  -45.7804  -34.2099 H   0  0  0  0  0
    0.8915  -45.1657  -33.5854 H   0  0  0  0  0
    2.9783  -45.4459  -31.5793 H   0  0  0  0  0
    2.4515  -47.0038  -32.3717 H   0  0  0  0  0
    0.8816  -45.2156  -30.6367 H   0  0  0  0  0
    4.0818  -41.9320  -32.5779 H   0  0  0  0  0
    6.2918  -41.5367  -32.8703 H   0  0  0  0  0
    7.6032  -43.8974  -32.2514 H   0  0  0  0  0
    6.0116  -44.1500  -31.5276 H   0  0  0  0  0
    7.9892  -41.9151  -31.0225 H   0  0  0  0  0
    7.1935  -42.9972  -29.8437 H   0  0  0  0  0
    6.2585  -40.8222  -29.8328 H   0  0  0  0  0
    5.8812  -40.9328  -31.4521 H   0  0  0  0  0
    5.1393  -41.9419  -30.3529 H   0  0  0  0  0
    6.6570  -45.0358  -33.7143 H   0  0  0  0  0
    7.2224  -44.0626  -36.4988 H   0  0  0  0  0
    9.2050  -45.6119  -34.8581 H   0  0  0  0  0
    9.2621  -43.8019  -35.1289 H   0  0  0  0  0
   11.5656  -44.9793  -35.6751 H   0  0  0  0  0
    7.9674  -45.0001  -38.0110 H   0  0  0  0  0
   12.8978  -45.3508  -37.7283 H   0  0  0  0  0
    9.2984  -45.3960  -40.0575 H   0  0  0  0  0
   11.7681  -45.5557  -39.9239 H   0  0  0  0  0
    8.1694  -47.1150  -34.7880 H   0  0  0  0  0
    6.1326  -48.3444  -36.6074 H   0  0  0  0  0
    7.6759  -50.2780  -36.7830 H   0  0  0  0  0
    8.8505  -49.4200  -35.7297 H   0  0  0  0  0
    8.5897  -47.5302  -37.5508 H   0  0  0  0  0
   10.6782  -48.7302  -37.0058 H   0  0  0  0  0
   10.1652  -50.0931  -38.0306 H   0  0  0  0  0
   10.5127  -48.5085  -38.7649 H   0  0  0  0  0
    7.9331  -50.0888  -39.0754 H   0  0  0  0  0
    6.8267  -48.7168  -38.8213 H   0  0  0  0  0
    8.2913  -48.5079  -39.8125 H   0  0  0  0  0
    5.4806  -47.5193  -33.8278 H   0  0  0  0  0
    5.9141  -50.0540  -32.4368 H   0  0  0  0  0
    4.5352  -49.0226  -30.5897 H   0  0  0  0  0
    4.4097  -47.5604  -31.5983 H   0  0  0  0  0
    6.8357  -47.3631  -31.6745 H   0  0  0  0  0
    6.9970  -48.8840  -30.7155 H   0  0  0  0  0
    7.2642  -46.9486  -29.3902 H   0  0  0  0  0
    5.7542  -46.3939  -29.8250 H   0  0  0  0  0
    5.9031  -47.7978  -28.9397 H   0  0  0  0  0
    3.5531  -50.4055  -30.9033 H   0  0  0  0  0
    2.1408  -51.8999  -33.0031 H   0  0  0  0  0
    1.1658  -51.7832  -30.1834 H   0  0  0  0  0
    2.7042  -52.6151  -30.5348 H   0  0  0  0  0
    1.4309  -54.3928  -31.0556 H   0  0  0  0  0
    1.0297  -53.4909  -32.5600 H   0  0  0  0  0
   -0.8976  -54.2564  -31.4289 H   0  0  0  0  0
   -0.4667  -53.4264  -30.0497 H   0  0  0  0  0
   -0.8383  -52.5911  -31.4429 H   0  0  0  0  0
    1.9487  -48.7841  -31.3590 H   0  0  0  0  0
   -0.9108  -48.7258  -31.6352 H   0  0  0  0  0
    0.7160  -47.6817  -33.9480 H   0  0  0  0  0
   -2.0563  -46.7812  -33.1257 H   0  0  0  0  0
   -0.5826  -45.7816  -33.1193 H   0  0  0  0  0
   -1.2350  -46.3960  -34.6581 H   0  0  0  0  0
   -1.0191  -48.7977  -35.0127 H   0  0  0  0  0
  1  2  1  0  0  0
  2  3  1  0  0  0
  3  4  1  0  0  0
  3  5  1  0  0  0
  5  6  1  0  0  0
  6  7  1  0  0  0
  7  8  1  0  0  0
  8  9  1  0  0  0
  9 10  2  0  0  0
  9 11  1  0  0  0
 11 12  1  0  0  0
 12 13  1  0  0  0
 12 15  1  0  0  0
 13 14  2  0  0  0
 13 18  1  0  0  0
 15 16  1  0  0  0
 16 17  1  0  0  0
 18 19  1  0  0  0
 19 20  1  0  0  0
 19 23  1  0  0  0
 20 21  1  0  0  0
 20 22  1  0  0  0
 23 24  2  0  0  0
 23 25  1  0  0  0
 25 26  1  0  0  0
 26 27  1  0  0  0
 26 29  1  0  0  0
 27 28  2  0  0  0
 27 32  1  0  0  0
 29 30  1  0  0  0
 30 31  1  0  0  0
 32 33  1  0  0  0
 33 34  1  0  0  0
 33 36  1  0  0  0
 34 35  2  0  0  0
 34 39  1  0  0  0
 36 37  1  0  0  0
 37 38  1  0  0  0
 38 84  1  0  0  0
 39 40  1  0  0  0
 40 41  1  0  0  0
 40 43  1  0  0  0
 41 42  2  0  0  0
 41 46  1  0  0  0
 43 44  1  0  0  0
 44 45  1  0  0  0
 46 47  1  0  0  0
 47 48  1  0  0  0
 47 50  1  0  0  0
 48 49  2  0  0  0
 48 57  1  0  0  0
 50 51  1  0  0  0
 51 52  4  0  0  0
 51 53  4  0  0  0
 52 54  4  0  0  0
 53 55  4  0  0  0
 54 56  4  0  0  0
 55 56  4  0  0  0
 57 58  1  0  0  0
 58 59  1  0  0  0
 58 61  1  0  0  0
 59 60  2  0  0  0
 59 65  1  0  0  0
 61 62  1  0  0  0
 62 63  1  0  0  0
 62 64  1  0  0  0
 65 66  1  0  0  0
 66 67  1  0  0  0
 66 69  1  0  0  0
 67 68  2  0  0  0
 67 72  1  0  0  0
 69 70  1  0  0  0
 70 71  1  0  0  0
 72 73  1  0  0  0
 73 74  1  0  0  0
 73 76  1  0  0  0
 74 75  2  0  0  0
 74 79  1  0  0  0
 76 77  1  0  0  0
 77 78  1  0  0  0
 79 80  1  0  0  0
 80 81  1  0  0  0
 80 84  1  0  0  0
 81 82  1  0  0  0
 81 83  1  0  0  0
 84 85  2  0  0  0
  1 86  1  0  0  0
  1 87  1  0  0  0
  1 88  1  0  0  0
  2 89  1  0  0  0
  2 90  1  0  0  0
  3 91  1  0  0  0
  4 92  1  0  0  0
  4 93  1  0  0  0
  4 94  1  0  0  0
  5 95  1  0  0  0
  5 96  1  0  0  0
  6 97  1  0  0  0
  6 98  1  0  0  0
  7 99  1  0  0  0
  7100  1  0  0  0
  8101  1  0  0  0
  8102  1  0  0  0
 11103  1  0  0  0
 12104  1  0  0  0
 15105  1  0  0  0
 15106  1  0  0  0
 16107  1  0  0  0
 16108  1  0  0  0
 17109  1  0  0  0
 17110  1  0  0  0
 17111  1  0  0  0
 18112  1  0  0  0
 19113  1  0  0  0
 20114  1  0  0  0
 21115  1  0  0  0
 21116  1  0  0  0
 21117  1  0  0  0
 22118  1  0  0  0
 25119  1  0  0  0
 26120  1  0  0  0
 29121  1  0  0  0
 29122  1  0  0  0
 30123  1  0  0  0
 30124  1  0  0  0
 31125  1  0  0  0
 31126  1  0  0  0
 31127  1  0  0  0
 32128  1  0  0  0
 33129  1  0  0  0
 36130  1  0  0  0
 36131  1  0  0  0
 37132  1  0  0  0
 37133  1  0  0  0
 38134  1  0  0  0
 39135  1  0  0  0
 40136  1  0  0  0
 43137  1  0  0  0
 43138  1  0  0  0
 44139  1  0  0  0
 44140  1  0  0  0
 45141  1  0  0  0
 45142  1  0  0  0
 45143  1  0  0  0
 46144  1  0  0  0
 47145  1  0  0  0
 50146  1  0  0  0
 50147  1  0  0  0
 52148  1  0  0  0
 53149  1  0  0  0
 54150  1  0  0  0
 55151  1  0  0  0
 56152  1  0  0  0
 57153  1  0  0  0
 58154  1  0  0  0
 61155  1  0  0  0
 61156  1  0  0  0
 62157  1  0  0  0
 63158  1  0  0  0
 63159  1  0  0  0
 63160  1  0  0  0
 64161  1  0  0  0
 64162  1  0  0  0
 64163  1  0  0  0
 65164  1  0  0  0
 66165  1  0  0  0
 69166  1  0  0  0
 69167  1  0  0  0
 70168  1  0  0  0
 70169  1  0  0  0
 71170  1  0  0  0
 71171  1  0  0  0
 71172  1  0  0  0
 72173  1  0  0  0
 73174  1  0  0  0
 76175  1  0  0  0
 76176  1  0  0  0
 77177  1  0  0  0
 77178  1  0  0  0
 78179  1  0  0  0
 78180  1  0  0  0
 78181  1  0  0  0
 79182  1  0  0  0
 80183  1  0  0  0
 81184  1  0  0  0
 82185  1  0  0  0
 82186  1  0  0  0
 82187  1  0  0  0
 83188  1  0  0  0
M  END
$$$$
