1b52_ligand
  -I-interpret- 

 62 61  0  0  0  0  0  0  0  0999 V2000
    8.5460   31.6430   12.5700 N   0  3  0  0  0
    8.6540   33.0990   12.8650 C   0  0  0  0  0
    9.6220   33.8570   11.9360 C   0  0  0  0  0
   10.6870   33.3830   11.4410 O   0  0  0  0  0
    8.9700   33.3030   14.3830 C   0  0  0  0  0
   10.3210   32.7220   14.7820 C   0  0  0  0  0
   10.6790   32.8080   16.2700 C   0  0  0  0  0
    9.8270   31.9030   17.1300 C   0  0  0  0  0
   10.2280   30.4530   16.9580 N   0  3  0  0  0
    9.2240   35.1250   11.7480 N   0  0  0  0  0
    9.9110   35.9830   10.8200 C   0  0  0  0  0
   11.1750   36.5860   11.4360 C   0  0  0  0  0
   11.0840   37.1320   12.5030 O   0  0  0  0  0
    9.0780   37.1370   10.2500 C   0  0  0  0  0
    8.4520   37.8700   11.3030 O   0  0  0  0  0
    7.9720   36.6750    9.3020 C   0  0  0  0  0
   12.2760   36.5670   10.7210 N   0  0  0  0  0
   13.4830   37.2390   11.1340 C   0  0  0  0  0
   13.8510   38.3120   10.1360 C   0  0  0  0  0
   14.6420   39.2030   10.4880 O   0  0  0  0  0
   14.7040   36.3080   11.2360 C   0  0  0  0  0
   15.6240   36.7990   12.3910 C   0  0  0  0  0
   16.8680   35.9170   12.3510 C   0  0  0  0  0
   17.8000   36.0860   13.5760 C   0  0  0  0  0
   17.8600   37.5350   13.9730 N   0  3  0  0  0
   13.5510   38.2660    8.9650 O   0  0  0  0  0
    7.8909   31.2127   13.2228 H   0  0  0  0  0
    8.2103   31.5147   11.6154 H   0  0  0  0  0
    9.4631   31.2080   12.6705 H   0  0  0  0  0
    7.6867   33.5524   12.6483 H   0  0  0  0  0
    8.2001   32.7890   14.9585 H   0  0  0  0  0
    8.9938   34.3748   14.5801 H   0  0  0  0  0
   11.0732   33.3070   14.2527 H   0  0  0  0  0
   10.2806   31.6603   14.5386 H   0  0  0  0  0
   10.5099   33.8344   16.5955 H   0  0  0  0  0
   11.7171   32.4954   16.3824 H   0  0  0  0  0
    8.7853   32.0151   16.8295 H   0  0  0  0  0
    9.9657   32.1820   18.1745 H   0  0  0  0  0
    9.6384   29.8661   17.5482 H   0  0  0  0  0
   10.1102   30.1824   15.9816 H   0  0  0  0  0
   11.2046   30.3372   17.2287 H   0  0  0  0  0
    8.4246   35.4846   12.2696 H   0  0  0  0  0
   10.1487   35.3113    9.9951 H   0  0  0  0  0
    9.7830   37.7539    9.6929 H   0  0  0  0  0
    7.9355   38.5875   10.9288 H   0  0  0  0  0
    8.4154   36.1429    8.4603 H   0  0  0  0  0
    7.2918   36.0111    9.8355 H   0  0  0  0  0
    7.4227   37.5426    8.9364 H   0  0  0  0  0
   12.2776   36.0564    9.8380 H   0  0  0  0  0
   13.2589   37.6435   12.1211 H   0  0  0  0  0
   14.7996   39.1345   11.4325 H   0  0  0  0  0
   15.2559   36.3230   10.2962 H   0  0  0  0  0
   14.3725   35.2897   11.4390 H   0  0  0  0  0
   15.1194   36.7221   13.3541 H   0  0  0  0  0
   15.8841   37.8500   12.2655 H   0  0  0  0  0
   17.4393   36.2039   11.4682 H   0  0  0  0  0
   16.5295   34.8809   12.3429 H   0  0  0  0  0
   18.8012   35.7409   13.3179 H   0  0  0  0  0
   17.4114   35.4996   14.4086 H   0  0  0  0  0
   18.4750   37.6400   14.7799 H   0  0  0  0  0
   18.2222   38.0850   13.1941 H   0  0  0  0  0
   16.9233   37.8595   14.2134 H   0  0  0  0  0
  2  1  1  0  0  0
  2  5  1  0  0  0
  3  2  1  0  0  0
  3  4  2  0  0  0
  5  6  1  0  0  0
  6  7  1  0  0  0
  7  8  1  0  0  0
  8  9  1  0  0  0
 11 10  1  0  0  0
 11 14  1  0  0  0
 12 11  1  0  0  0
 12 13  2  0  0  0
 14 16  1  0  0  0
 14 15  1  0  0  0
 10  3  1  0  0  0
 17 18  1  0  0  0
 18 21  1  0  0  0
 18 19  1  0  0  0
 19 20  1  0  0  0
 19 26  2  0  0  0
 21 22  1  0  0  0
 22 23  1  0  0  0
 23 24  1  0  0  0
 24 25  1  0  0  0
 12 17  1  0  0  0
  1 27  1  0  0  0
  1 28  1  0  0  0
  1 29  1  0  0  0
  2 30  1  0  0  0
  5 31  1  0  0  0
  5 32  1  0  0  0
  6 33  1  0  0  0
  6 34  1  0  0  0
  7 35  1  0  0  0
  7 36  1  0  0  0
  8 37  1  0  0  0
  8 38  1  0  0  0
  9 39  1  0  0  0
  9 40  1  0  0  0
  9 41  1  0  0  0
 10 42  1  0  0  0
 11 43  1  0  0  0
 14 44  1  0  0  0
 15 45  1  0  0  0
 16 46  1  0  0  0
 16 47  1  0  0  0
 16 48  1  0  0  0
 17 49  1  0  0  0
 18 50  1  0  0  0
 20 51  1  0  0  0
 21 52  1  0  0  0
 21 53  1  0  0  0
 22 54  1  0  0  0
 22 55  1  0  0  0
 23 56  1  0  0  0
 23 57  1  0  0  0
 24 58  1  0  0  0
 24 59  1  0  0  0
 25 60  1  0  0  0
 25 61  1  0  0  0
 25 62  1  0  0  0
M  END
$$$$
