5l8n_ligand
  -I-interpret- 

 22 23  0  0  0  0  0  0  0  0999 V2000
   59.8180   -5.8950   57.1170 C   0  0  0  0  0
   58.9330   -6.4670   58.0280 C   0  0  0  0  0
   57.9440   -7.3540   57.6320 C   0  0  0  0  0
   57.8500   -7.6710   56.2830 C   0  0  0  0  0
   56.7840   -8.6320   55.8250 C   0  0  0  0  0
   60.3570   -5.1150   59.0660 C   0  0  0  0  0
   58.7500   -7.0950   55.3430 C   0  0  0  0  0
   58.6470   -7.4370   53.8750 C   0  0  0  0  0
   59.7260   -6.2050   55.7640 C   0  0  0  0  0
   59.3040   -5.9470   59.2550 N   0  0  0  0  0
   60.6920   -5.0540   57.7910 N   0  0  0  0  0
   60.9960   -4.4170   60.1280 N   0  0  0  0  0
   57.2592   -7.7905   58.3590 H   0  0  0  0  0
   56.9254   -9.5926   56.3204 H   0  0  0  0  0
   55.8024   -8.2318   56.0789 H   0  0  0  0  0
   56.8556   -8.7645   54.7455 H   0  0  0  0  0
   58.7852   -8.5101   53.7427 H   0  0  0  0  0
   57.6638   -7.1475   53.5039 H   0  0  0  0  0
   59.4179   -6.8993   53.3230 H   0  0  0  0  0
   60.4111   -5.7549   55.0456 H   0  0  0  0  0
   60.6645   -4.5315   61.0858 H   0  0  0  0  0
   61.7857   -3.8020   59.9317 H   0  0  0  0  0
  1  2  4  0  0  0
  1  9  4  0  0  0
  1 11  4  0  0  0
  2  3  4  0  0  0
  2 10  4  0  0  0
  3  4  4  0  0  0
  4  5  1  0  0  0
  4  7  4  0  0  0
 10  6  4  0  0  0
  6 11  4  0  0  0
  6 12  1  0  0  0
  7  8  1  0  0  0
  7  9  4  0  0  0
  3 13  1  0  0  0
  5 14  1  0  0  0
  5 15  1  0  0  0
  5 16  1  0  0  0
  8 17  1  0  0  0
  8 18  1  0  0  0
  8 19  1  0  0  0
  9 20  1  0  0  0
 12 21  1  0  0  0
 12 22  1  0  0  0
M  END
$$$$
