5gx6_ligand
  -I-interpret- 

 51 52  0  0  0  0  0  0  0  0999 V2000
   22.7210   15.8540   -4.3990 C   0  0  0  0  0
   22.7080   16.4090   -3.0020 C   0  0  0  0  0
   23.7100   15.6370   -2.1770 C   0  0  0  0  0
   23.3400   14.2920   -2.1590 C   0  0  0  0  0
   22.6580   13.7410   -3.2480 C   0  0  0  0  0
   22.3240   12.3960   -3.3430 C   0  0  0  0  0
   23.0850   17.7920   -3.0410 O   0  0  0  0  0
   23.5790   16.1490   -0.8390 O   0  0  0  0  0
   22.3230   14.4640   -4.3690 O   0  0  0  0  0
   21.6890   11.9890   -4.3420 O   0  0  0  0  0
   22.6570   11.5810   -2.4490 O   0  0  0  0  0
   22.2290   17.6710   -8.7830 C   0  0  0  0  0
   21.8930   17.7840   -7.3230 C   0  0  0  0  0
   22.2350   16.4840   -6.5950 C   0  0  0  0  0
   21.4470   15.3510   -7.2340 C   0  0  0  0  0
   21.8070   15.3300   -8.7320 C   0  0  0  0  0
   21.0120   14.3030   -9.5400 C   0  0  0  0  0
   22.0830   19.8470   -5.9760 C   0  0  0  0  0
   23.0750   20.8990   -5.4890 C   0  0  0  0  0
   21.7130   18.8240   -9.4290 O   0  0  0  0  0
   22.6410   18.9050   -6.7350 N   0  0  0  0  0
   21.8110   16.6070   -5.2200 O   0  0  0  0  0
   20.0470   15.6170   -7.1200 O   0  0  0  0  0
   21.5020   16.5870   -9.3550 O   0  0  0  0  0
   21.4390   14.4270  -10.9100 O   0  0  0  0  0
   20.8710   19.9570   -5.7940 O   0  0  0  0  0
   18.6630   14.8180   -5.2030 O   0  0  0  0  0
   19.8280   13.1550   -6.6370 O   0  0  0  0  0
   17.8830   14.4380   -7.5480 O   0  0  0  0  0
   19.1000   14.5010   -6.6270 S   0  0  0  0  0
   23.7258   15.9291   -4.8148 H   0  0  0  0  0
   21.7132   16.3196   -2.5656 H   0  0  0  0  0
   24.7219   15.7332   -2.5706 H   0  0  0  0  0
   23.5825   13.6712   -1.2965 H   0  0  0  0  0
   22.4474   18.2817   -3.5657 H   0  0  0  0  0
   23.8289   17.0758   -0.8263 H   0  0  0  0  0
   23.1334   12.0445   -1.7564 H   0  0  0  0  0
   23.3059   17.5462   -8.8959 H   0  0  0  0  0
   20.8237   17.9665   -7.2160 H   0  0  0  0  0
   23.3055   16.2870   -6.6526 H   0  0  0  0  0
   21.6817   14.4046   -6.7468 H   0  0  0  0  0
   22.8703   15.0903   -8.7431 H   0  0  0  0  0
   19.9412   14.4858   -9.4507 H   0  0  0  0  0
   21.1932   13.2945   -9.1683 H   0  0  0  0  0
   22.8452   21.8569   -5.9557 H   0  0  0  0  0
   22.9996   20.9938   -4.4057 H   0  0  0  0  0
   24.0864   20.5953   -5.7589 H   0  0  0  0  0
   21.9129   18.7803  -10.3669 H   0  0  0  0  0
   23.6426   18.9647   -6.9184 H   0  0  0  0  0
   20.9602   13.7954  -11.4517 H   0  0  0  0  0
   20.1061   12.9495   -7.5326 H   0  0  0  0  0
  1  2  1  0  0  0
  1  9  1  0  0  0
 22  1  1  0  0  0
  2  3  1  0  0  0
  2  7  1  0  0  0
  3  4  1  0  0  0
  3  8  1  0  0  0
  5  4  2  0  0  0
  5  6  1  0  0  0
  9  5  1  0  0  0
  6 10  2  0  0  0
  6 11  1  0  0  0
 13 12  1  0  0  0
 12 20  1  0  0  0
 12 24  1  0  0  0
 13 14  1  0  0  0
 21 13  1  0  0  0
 14 15  1  0  0  0
 14 22  1  0  0  0
 15 16  1  0  0  0
 15 23  1  0  0  0
 16 17  1  0  0  0
 24 16  1  0  0  0
 17 25  1  0  0  0
 18 19  1  0  0  0
 18 21  1  0  0  0
 18 26  2  0  0  0
 23 30  1  0  0  0
 30 27  2  0  0  0
 30 28  1  0  0  0
 30 29  2  0  0  0
  1 31  1  0  0  0
  2 32  1  0  0  0
  3 33  1  0  0  0
  4 34  1  0  0  0
  7 35  1  0  0  0
  8 36  1  0  0  0
 11 37  1  0  0  0
 12 38  1  0  0  0
 13 39  1  0  0  0
 14 40  1  0  0  0
 15 41  1  0  0  0
 16 42  1  0  0  0
 17 43  1  0  0  0
 17 44  1  0  0  0
 19 45  1  0  0  0
 19 46  1  0  0  0
 19 47  1  0  0  0
 20 48  1  0  0  0
 21 49  1  0  0  0
 25 50  1  0  0  0
 28 51  1  0  0  0
M  END
$$$$
