4zla_ligand
  -I-interpret- 

 47 47  0  0  0  0  0  0  0  0999 V2000
   39.3680   15.4580  -14.7910 N   0  3  0  0  0
   38.7840   16.6770  -15.1710 C   0  0  0  0  0
   39.1510   17.0150  -16.6200 C   0  0  0  0  0
   38.2630   16.3430  -17.7960 C   0  0  0  0  0
   37.1140   16.9880  -18.2670 C   0  0  0  0  0
   38.6540   15.1460  -18.3710 C   0  0  0  0  0
   36.3530   16.4250  -19.2980 C   0  0  0  0  0
   37.8870   14.5780  -19.4050 C   0  0  0  0  0
   36.7410   15.2280  -19.8660 C   0  0  0  0  0
   39.3640   17.8320  -14.3230 C   0  0  0  0  0
   39.7030   17.4900  -13.0300 O   0  0  0  0  0
   38.2780   18.9340  -14.2940 C   0  0  0  0  0
   37.1600   18.6610  -13.8220 O   0  0  0  0  0
   38.5830   20.2740  -14.8690 N   0  0  0  0  0
   37.6360   21.3550  -14.8890 C   0  0  0  0  0
   38.3830   22.6300  -14.3390 C   0  0  0  0  0
   37.3940   23.7110  -13.9090 C   0  0  0  0  0
   36.6630   23.3040  -12.6660 C   0  0  0  0  0
   38.1870   25.0000  -13.6240 C   0  0  0  0  0
   37.1340   21.5810  -16.2290 C   0  0  0  0  0
   35.9120   21.5760  -16.4460 O   0  0  0  0  0
   37.8850   21.7750  -17.1600 O   0  0  0  0  0
   38.9778   14.7044  -15.3569 H   0  0  0  0  0
   40.3766   15.5059  -14.9354 H   0  0  0  0  0
   39.1724   15.2812  -13.8057 H   0  0  0  0  0
   37.7070   16.5730  -15.0390 H   0  0  0  0  0
   40.1618   16.6327  -16.7623 H   0  0  0  0  0
   38.9989   18.0900  -16.7169 H   0  0  0  0  0
   36.8089   17.9374  -17.8270 H   0  0  0  0  0
   39.5563   14.6433  -18.0227 H   0  0  0  0  0
   35.4549   16.9311  -19.6521 H   0  0  0  0  0
   38.1885   13.6283  -19.8469 H   0  0  0  0  0
   36.1532   14.7911  -20.6733 H   0  0  0  0  0
   40.3001   18.1506  -14.7816 H   0  0  0  0  0
   40.3767   16.8063  -13.0472 H   0  0  0  0  0
   39.5085   20.4319  -15.2677 H   0  0  0  0  0
   36.7701   21.1209  -14.2697 H   0  0  0  0  0
   39.0128   23.0321  -15.1326 H   0  0  0  0  0
   38.9756   22.3376  -13.4721 H   0  0  0  0  0
   36.6632   23.8654  -14.7029 H   0  0  0  0  0
   36.1141   22.3813  -12.8545 H   0  0  0  0  0
   37.3797   23.1438  -11.8605 H   0  0  0  0  0
   35.9653   24.0918  -12.3819 H   0  0  0  0  0
   38.9085   24.8128  -12.8287 H   0  0  0  0  0
   38.7124   25.3091  -14.5276 H   0  0  0  0  0
   37.4994   25.7872  -13.3146 H   0  0  0  0  0
   35.4430   21.4118  -15.6246 H   0  0  0  0  0
  1  2  1  0  0  0
  2  3  1  0  0  0
  2 10  1  0  0  0
  3  4  1  0  0  0
  4  5  4  0  0  0
  4  6  4  0  0  0
  5  7  4  0  0  0
  6  8  4  0  0  0
  7  9  4  0  0  0
  8  9  4  0  0  0
 10 11  1  0  0  0
 10 12  1  0  0  0
 12 13  2  0  0  0
 12 14  1  0  0  0
 14 15  1  0  0  0
 15 16  1  0  0  0
 15 20  1  0  0  0
 16 17  1  0  0  0
 17 18  1  0  0  0
 17 19  1  0  0  0
 20 21  1  0  0  0
 20 22  2  0  0  0
  1 23  1  0  0  0
  1 24  1  0  0  0
  1 25  1  0  0  0
  2 26  1  0  0  0
  3 27  1  0  0  0
  3 28  1  0  0  0
  5 29  1  0  0  0
  6 30  1  0  0  0
  7 31  1  0  0  0
  8 32  1  0  0  0
  9 33  1  0  0  0
 10 34  1  0  0  0
 11 35  1  0  0  0
 14 36  1  0  0  0
 15 37  1  0  0  0
 16 38  1  0  0  0
 16 39  1  0  0  0
 17 40  1  0  0  0
 18 41  1  0  0  0
 18 42  1  0  0  0
 18 43  1  0  0  0
 19 44  1  0  0  0
 19 45  1  0  0  0
 19 46  1  0  0  0
 21 47  1  0  0  0
M  END
$$$$
