5ar7_ligand
  -I-interpret- 

 46 48  0  0  0  0  0  0  0  0999 V2000
   56.2320  -61.6840   12.8020 O   0  0  0  0  0
   56.0770  -62.8150   12.3500 C   0  0  0  0  0
   56.5590  -63.1960   11.0770 N   0  0  0  0  0
   57.2520  -62.3420   10.1980 C   0  0  0  0  0
   57.5850  -60.9840   10.3320 C   0  0  0  0  0
   58.2430  -60.6420    9.2130 C   0  0  0  0  0
   58.8850  -59.3850    8.6720 C   0  0  0  0  0
   58.7230  -58.2280    9.6470 C   0  0  0  0  0
   60.3730  -59.6430    8.4280 C   0  0  0  0  0
   58.1970  -58.9810    7.3770 C   0  0  0  0  0
   57.6750  -62.8200    9.0640 N   0  0  0  0  0
   55.4160  -63.7680   13.0900 N   0  0  0  0  0
   54.8600  -63.5870   14.3730 C   0  0  0  0  0
   53.9890  -62.5050   14.5790 C   0  0  0  0  0
   53.4310  -62.3110   15.8420 C   0  0  0  0  0
   53.7330  -63.1900   16.8920 C   0  0  0  0  0
   54.5980  -64.2740   16.6930 C   0  0  0  0  0
   55.1630  -64.4680   15.4210 C   0  0  0  0  0
   53.1650  -62.9730   18.1220 O   0  0  0  0  0
   53.8620  -62.3520   19.1450 C   0  0  0  0  0
   55.2600  -62.1420   19.0980 C   0  0  0  0  0
   55.8700  -61.5090   20.1770 C   0  0  0  0  0
   55.1690  -61.0980   21.2540 N   0  0  0  0  0
   53.8330  -61.2990   21.3000 C   0  0  0  0  0
   53.1320  -61.9230   20.2680 C   0  0  0  0  0
   58.3250  -61.7250    8.4090 O   0  0  0  0  0
   56.3933  -64.1559   10.7743 H   0  0  0  0  0
   57.3546  -60.3359   11.1776 H   0  0  0  0  0
   59.2080  -58.4789   10.5904 H   0  0  0  0  0
   59.1831  -57.3335    9.2271 H   0  0  0  0  0
   57.6623  -58.0457    9.8195 H   0  0  0  0  0
   60.8318  -58.7474    8.0090 H   0  0  0  0  0
   60.8568  -59.8928    9.3723 H   0  0  0  0  0
   60.4869  -60.4720    7.7295 H   0  0  0  0  0
   57.1421  -58.7881    7.5724 H   0  0  0  0  0
   58.6660  -58.0789    6.9840 H   0  0  0  0  0
   58.2916  -59.7875    6.6499 H   0  0  0  0  0
   55.3190  -64.6928   12.6709 H   0  0  0  0  0
   53.7519  -61.8247   13.7611 H   0  0  0  0  0
   52.7568  -61.4720   16.0140 H   0  0  0  0  0
   54.8290  -64.9558   17.5115 H   0  0  0  0  0
   55.8387  -65.3057   15.2485 H   0  0  0  0  0
   55.8451  -62.4679   18.2380 H   0  0  0  0  0
   56.9465  -61.3402   20.1512 H   0  0  0  0  0
   53.2822  -60.9604   22.1775 H   0  0  0  0  0
   52.0542  -62.0731   20.3299 H   0  0  0  0  0
  1  2  2  0  0  0
  2  3  1  0  0  0
  2 12  1  0  0  0
  3  4  1  0  0  0
  4  5  4  0  0  0
  4 11  4  0  0  0
  5  6  4  0  0  0
  6  7  1  0  0  0
  6 26  4  0  0  0
  7  8  1  0  0  0
  7  9  1  0  0  0
  7 10  1  0  0  0
 11 26  4  0  0  0
 12 13  1  0  0  0
 13 14  4  0  0  0
 13 18  4  0  0  0
 14 15  4  0  0  0
 15 16  4  0  0  0
 16 17  4  0  0  0
 16 19  1  0  0  0
 17 18  4  0  0  0
 19 20  1  0  0  0
 20 21  4  0  0  0
 20 25  4  0  0  0
 21 22  4  0  0  0
 22 23  4  0  0  0
 23 24  4  0  0  0
 24 25  4  0  0  0
  3 27  1  0  0  0
  5 28  1  0  0  0
  8 29  1  0  0  0
  8 30  1  0  0  0
  8 31  1  0  0  0
  9 32  1  0  0  0
  9 33  1  0  0  0
  9 34  1  0  0  0
 10 35  1  0  0  0
 10 36  1  0  0  0
 10 37  1  0  0  0
 12 38  1  0  0  0
 14 39  1  0  0  0
 15 40  1  0  0  0
 17 41  1  0  0  0
 18 42  1  0  0  0
 21 43  1  0  0  0
 22 44  1  0  0  0
 24 45  1  0  0  0
 25 46  1  0  0  0
M  END
$$$$
