3fui_ligand
  -I-interpret- 

 44 46  0  0  0  0  0  0  0  0999 V2000
    4.8220   -2.2950   -1.0420 C   0  0  0  0  0
    5.7930   -1.6680   -1.9290 N   0  3  0  0  0
    5.4830   -3.5610   -0.5080 C   0  0  0  0  0
    6.9640   -3.3400   -0.7850 C   0  0  0  0  0
    6.9990   -2.4690   -2.0290 C   0  0  0  0  0
    8.3120   -1.7020   -2.2240 C   0  0  0  0  0
    8.6590   -0.7850   -1.1960 O   0  0  0  0  0
    9.9770   -0.6380   -0.7700 C   0  0  0  0  0
   11.0440   -0.8880   -1.6430 C   0  0  0  0  0
   12.3510   -0.7670   -1.1790 C   0  0  0  0  0
   12.6150   -0.3970    0.1560 C   0  0  0  0  0
   11.5380   -0.1390    1.0060 C   0  0  0  0  0
   10.2270   -0.2510    0.5530 C   0  0  0  0  0
   13.9100   -0.2820    0.5850 N   0  0  0  0  0
   14.2820    0.2420    1.8950 C   0  0  0  0  0
   14.7580   -0.8630    2.8540 C   0  0  0  0  0
   15.1470   -0.5440    4.1590 C   0  0  0  0  0
   15.5790   -1.5280    5.0390 C   0  0  0  0  0
   15.6360   -2.8400    4.6190 C   0  0  0  0  0
   15.2540   -3.1770    3.3250 C   0  0  0  0  0
   14.8240   -2.2010    2.4390 C   0  0  0  0  0
    3.8999   -2.5293   -1.5739 H   0  0  0  0  0
    4.5451   -1.6248   -0.2282 H   0  0  0  0  0
    6.0383   -0.7529   -1.5512 H   0  0  0  0  0
    5.3798   -1.5812   -2.8575 H   0  0  0  0  0
    5.1008   -4.4628   -0.9862 H   0  0  0  0  0
    5.2777   -3.7224    0.5503 H   0  0  0  0  0
    7.4945   -4.2807   -0.9327 H   0  0  0  0  0
    7.4685   -2.8661    0.0570 H   0  0  0  0  0
    6.9961   -3.0497   -2.9514 H   0  0  0  0  0
    8.1881   -1.1107   -3.1313 H   0  0  0  0  0
    9.1031   -2.4515   -2.2441 H   0  0  0  0  0
   10.8523   -1.1749   -2.6770 H   0  0  0  0  0
   13.1820   -0.9610   -1.8571 H   0  0  0  0  0
   11.7266    0.1542    2.0387 H   0  0  0  0  0
    9.3965   -0.0381    1.2260 H   0  0  0  0  0
   14.6551   -0.5787   -0.0452 H   0  0  0  0  0
   13.4017    0.7127    2.3327 H   0  0  0  0  0
   15.1030    0.9455    1.7565 H   0  0  0  0  0
   15.1106    0.4936    4.4908 H   0  0  0  0  0
   15.8712   -1.2646    6.0555 H   0  0  0  0  0
   15.9814   -3.6152    5.3030 H   0  0  0  0  0
   15.2930   -4.2180    3.0043 H   0  0  0  0  0
   14.5381   -2.4729    1.4229 H   0  0  0  0  0
  1  2  1  0  0  0
  1  3  1  0  0  0
  2  5  1  0  0  0
  3  4  1  0  0  0
  4  5  1  0  0  0
  5  6  1  0  0  0
  6  7  1  0  0  0
  7  8  1  0  0  0
  8  9  4  0  0  0
  8 13  4  0  0  0
  9 10  4  0  0  0
 10 11  4  0  0  0
 11 12  4  0  0  0
 11 14  1  0  0  0
 12 13  4  0  0  0
 14 15  1  0  0  0
 15 16  1  0  0  0
 16 17  4  0  0  0
 16 21  4  0  0  0
 17 18  4  0  0  0
 18 19  4  0  0  0
 19 20  4  0  0  0
 20 21  4  0  0  0
  1 22  1  0  0  0
  1 23  1  0  0  0
  2 24  1  0  0  0
  2 25  1  0  0  0
  3 26  1  0  0  0
  3 27  1  0  0  0
  4 28  1  0  0  0
  4 29  1  0  0  0
  5 30  1  0  0  0
  6 31  1  0  0  0
  6 32  1  0  0  0
  9 33  1  0  0  0
 10 34  1  0  0  0
 12 35  1  0  0  0
 13 36  1  0  0  0
 14 37  1  0  0  0
 15 38  1  0  0  0
 15 39  1  0  0  0
 17 40  1  0  0  0
 18 41  1  0  0  0
 19 42  1  0  0  0
 20 43  1  0  0  0
 21 44  1  0  0  0
M  END
$$$$
