1b1h_ligand
  -I-interpret- 

 71 71  0  0  0  0  0  0  0  0999 V2000
    7.1430   17.0090   15.3230 N   0  3  0  0  0
    6.6920   18.3230   14.7300 C   0  0  0  0  0
    5.4310   18.7950   15.4310 C   0  0  0  0  0
    4.6680   17.9560   15.9050 O   0  0  0  0  0
    6.4710   18.2370   13.2230 C   0  0  0  0  0
    5.5920   17.0480   12.7690 C   0  0  0  0  0
    5.5240   17.0240   11.2350 C   0  0  0  0  0
    6.7940   16.3990   10.6400 C   0  0  0  0  0
    6.7700   14.9290   11.0090 N   0  3  0  0  0
    5.2270   20.1070   15.5120 N   0  0  0  0  0
    4.0650   20.6460   16.2050 C   0  0  0  0  0
    2.7840   20.7020   15.3730 C   0  0  0  0  0
    2.8060   21.0920   14.2150 O   0  0  0  0  0
    4.3770   22.0850   16.6990 C   0  0  0  0  0
    5.5320   22.0670   17.7200 C   0  0  0  0  0
    5.8860   23.4160   18.2790 C   0  0  0  0  0
    6.7170   24.3090   17.6270 C   0  0  0  0  0
    5.3850   23.7520   19.5200 C   0  0  0  0  0
    7.0250   25.5460   18.1620 C   0  0  0  0  0
    5.6980   24.9930   20.0610 C   0  0  0  0  0
    6.5170   25.9060   19.4090 C   0  0  0  0  0
    1.6760   20.3060   16.0000 N   0  0  0  0  0
    0.3820   20.3570   15.3410 C   0  0  0  0  0
   -0.5820   21.2570   16.1210 C   0  0  0  0  0
   -1.5620   21.6990   15.4890 O   0  0  0  0  0
   -0.2230   18.9460   15.2170 C   0  0  0  0  0
   -1.2690   18.8930   14.1060 C   0  0  0  0  0
   -2.0760   17.5960   14.1360 C   0  0  0  0  0
   -2.8370   17.4390   12.8060 C   0  0  0  0  0
   -3.5670   18.7110   12.5220 N   0  3  0  0  0
   -0.3170   21.5930   17.2940 O   0  0  0  0  0
    7.2762   17.1189   16.3283 H   0  0  0  0  0
    6.4334   16.2973   15.1487 H   0  0  0  0  0
    8.0228   16.7266   14.8911 H   0  0  0  0  0
    7.4901   19.0485   14.8874 H   0  0  0  0  0
    7.4507   18.1021   12.7646 H   0  0  0  0  0
    5.9528   19.1483   12.9246 H   0  0  0  0  0
    4.5875   17.1600   13.1771 H   0  0  0  0  0
    6.0253   16.1152   13.1297 H   0  0  0  0  0
    5.4340   18.0479   10.8721 H   0  0  0  0  0
    4.6641   16.4268   10.9315 H   0  0  0  0  0
    7.6870   16.8839   11.0344 H   0  0  0  0  0
    6.8198   16.5275    9.5579 H   0  0  0  0  0
    7.6000   14.4715   10.6320 H   0  0  0  0  0
    6.7600   14.8347   12.0246 H   0  0  0  0  0
    5.9339   14.4951   10.6179 H   0  0  0  0  0
    5.8954   20.7461   15.0817 H   0  0  0  0  0
    3.8773   19.9531   17.0252 H   0  0  0  0  0
    3.4879   22.4957   17.1774 H   0  0  0  0  0
    4.6685   22.6970   15.8454 H   0  0  0  0  0
    6.4141   21.6947   17.1991 H   0  0  0  0  0
    5.2097   21.4480   18.5573 H   0  0  0  0  0
    7.1416   24.0292   16.6629 H   0  0  0  0  0
    4.7526   23.0537   20.0682 H   0  0  0  0  0
    7.6627   26.2371   17.6107 H   0  0  0  0  0
    5.2852   25.2602   21.0338 H   0  0  0  0  0
    6.7543   26.8709   19.8572 H   0  0  0  0  0
    1.7377   19.9616   16.9581 H   0  0  0  0  0
    0.5307   20.7687   14.3428 H   0  0  0  0  0
   -0.7030   18.6878   16.1610 H   0  0  0  0  0
    0.5756   18.2435   14.9784 H   0  0  0  0  0
   -0.7506   18.9483   13.1487 H   0  0  0  0  0
   -1.9584   19.7252   14.2487 H   0  0  0  0  0
   -2.7869   17.6276   14.9616 H   0  0  0  0  0
   -1.4023   16.7502   14.2729 H   0  0  0  0  0
   -3.5446   16.6131   12.8784 H   0  0  0  0  0
   -2.1353   17.2257   11.9997 H   0  0  0  0  0
   -4.0759   18.6205   11.6427 H   0  0  0  0  0
   -4.2242   18.9006   13.2786 H   0  0  0  0  0
   -2.8976   19.4773   12.4515 H   0  0  0  0  0
    0.4753   21.1359   17.5854 H   0  0  0  0  0
  3  2  1  0  0  0
  2  5  1  0  0  0
  2  1  1  0  0  0
  5  6  1  0  0  0
  6  7  1  0  0  0
  7  8  1  0  0  0
  8  9  1  0  0  0
  3  4  2  0  0  0
 10 11  1  0  0  0
 11 14  1  0  0  0
 11 12  1  0  0  0
 12 13  2  0  0  0
 14 15  1  0  0  0
 15 16  1  0  0  0
 16 18  4  0  0  0
 16 17  4  0  0  0
 17 19  4  0  0  0
 19 21  4  0  0  0
 20 21  4  0  0  0
 18 20  4  0  0  0
 23 24  1  0  0  0
 23 26  1  0  0  0
 22 23  1  0  0  0
 26 27  1  0  0  0
 27 28  1  0  0  0
 28 29  1  0  0  0
 29 30  1  0  0  0
 24 31  1  0  0  0
 24 25  2  0  0  0
 12 22  1  0  0  0
 10  3  1  0  0  0
  1 32  1  0  0  0
  1 33  1  0  0  0
  1 34  1  0  0  0
  2 35  1  0  0  0
  5 36  1  0  0  0
  5 37  1  0  0  0
  6 38  1  0  0  0
  6 39  1  0  0  0
  7 40  1  0  0  0
  7 41  1  0  0  0
  8 42  1  0  0  0
  8 43  1  0  0  0
  9 44  1  0  0  0
  9 45  1  0  0  0
  9 46  1  0  0  0
 10 47  1  0  0  0
 11 48  1  0  0  0
 14 49  1  0  0  0
 14 50  1  0  0  0
 15 51  1  0  0  0
 15 52  1  0  0  0
 17 53  1  0  0  0
 18 54  1  0  0  0
 19 55  1  0  0  0
 20 56  1  0  0  0
 21 57  1  0  0  0
 22 58  1  0  0  0
 23 59  1  0  0  0
 26 60  1  0  0  0
 26 61  1  0  0  0
 27 62  1  0  0  0
 27 63  1  0  0  0
 28 64  1  0  0  0
 28 65  1  0  0  0
 29 66  1  0  0  0
 29 67  1  0  0  0
 30 68  1  0  0  0
 30 69  1  0  0  0
 30 70  1  0  0  0
 31 71  1  0  0  0
M  END
$$$$
