5wg3_ligand
  -I-interpret- 

 57 61  0  0  0  0  0  0  0  0999 V2000
  -21.9930   27.7380   17.3330 C   0  0  0  0  0
  -24.5520   26.6900   16.9250 C   0  0  0  0  0
  -23.6510   26.0100   17.7070 C   0  0  0  0  0
  -18.3520   32.0030   18.1330 C   0  0  0  0  0
  -17.7190   30.8170   17.3960 C   0  0  0  0  0
  -15.8810   26.8870   16.8390 C   0  0  0  0  0
  -13.3240   24.6740   20.0030 C   0  0  0  0  0
  -15.6140   25.2750   15.1140 F   0  0  0  0  0
  -16.3190   26.2990   15.6700 C   0  0  0  0  0
  -17.4770   26.7480   15.0650 C   0  0  0  0  0
  -18.1910   27.7930   15.6340 C   0  0  0  0  0
  -17.7550   28.3950   16.8070 C   0  0  0  0  0
  -18.5760   29.5940   17.4460 C   0  0  0  0  0
  -18.9760   29.2180   18.8370 C   0  0  0  0  0
  -20.1320   28.1730   18.7670 C   0  0  0  0  0
  -20.7200   28.2920   17.5030 O   0  0  0  0  0
  -22.9110   28.4210   16.5380 C   0  0  0  0  0
  -24.1800   27.9090   16.3330 C   0  0  0  0  0
  -25.7000   25.9840   16.8900 N   0  0  0  0  0
  -25.5750   24.8650   17.6260 N   0  0  0  0  0
  -24.3540   24.8400   18.1390 C   0  0  0  0  0
  -22.3530   26.5290   17.9190 C   0  0  0  0  0
  -19.5070   30.3900   19.6780 C   0  0  0  0  0
  -18.8050   31.6980   19.5230 N   0  3  0  0  0
  -16.5940   27.9370   17.4060 C   0  0  0  0  0
  -14.5990   26.3870   17.5020 C   0  0  0  0  0
  -14.3870   26.5960   18.9270 N   0  0  0  0  0
  -13.1610   26.1250   19.5580 C   0  0  0  0  0
  -12.3330   23.8520   20.4750 C   0  0  0  0  0
  -12.9120   22.6240   20.7650 C   0  0  0  0  0
  -14.2120   22.7150   20.4730 N   0  0  0  0  0
  -14.4370   23.9850   20.0090 N   0  0  0  0  0
  -13.7790   25.8350   16.8540 O   0  0  0  0  0
  -19.2360   32.2957   17.5664 H   0  0  0  0  0
  -17.5874   32.7762   18.2091 H   0  0  0  0  0
  -16.7708   30.5851   17.8810 H   0  0  0  0  0
  -17.5920   31.0979   16.3505 H   0  0  0  0  0
  -17.8286   26.2830   14.1440 H   0  0  0  0  0
  -19.1044   28.1453   15.1548 H   0  0  0  0  0
  -19.4931   29.8037   16.8955 H   0  0  0  0  0
  -18.0706   28.8378   19.3101 H   0  0  0  0  0
  -20.8659   28.3588   19.5512 H   0  0  0  0  0
  -19.7478   27.1643   18.9186 H   0  0  0  0  0
  -22.6274   29.3657   16.0741 H   0  0  0  0  0
  -24.8921   28.4519   15.7115 H   0  0  0  0  0
  -23.9513   24.0583   18.7832 H   0  0  0  0  0
  -21.6391   25.9852   18.5376 H   0  0  0  0  0
  -19.3716   30.0980   20.7194 H   0  0  0  0  0
  -20.5316   30.5578   19.3462 H   0  0  0  0  0
  -19.4711   32.4250   19.7842 H   0  0  0  0  0
  -17.9685   31.6566   20.1053 H   0  0  0  0  0
  -16.2377   28.4014   18.3255 H   0  0  0  0  0
  -15.0967   27.0722   19.4837 H   0  0  0  0  0
  -12.3422   26.1895   18.8414 H   0  0  0  0  0
  -12.9462   26.7443   20.4289 H   0  0  0  0  0
  -11.2825   24.1148   20.5997 H   0  0  0  0  0
  -12.3995   21.7463   21.1589 H   0  0  0  0  0
 16  1  1  0  0  0
  1 17  4  0  0  0
  1 22  4  0  0  0
  3  2  4  0  0  0
 18  2  4  0  0  0
  2 19  4  0  0  0
  3 21  4  0  0  0
 22  3  4  0  0  0
  5  4  1  0  0  0
  4 24  1  0  0  0
 13  5  1  0  0  0
  6  9  4  0  0  0
  6 25  4  0  0  0
 26  6  1  0  0  0
 28  7  1  0  0  0
  7 29  4  0  0  0
  7 32  4  0  0  0
  9  8  1  0  0  0
  9 10  4  0  0  0
 10 11  4  0  0  0
 12 11  4  0  0  0
 12 13  1  0  0  0
 25 12  4  0  0  0
 13 14  1  0  0  0
 14 15  1  0  0  0
 14 23  1  0  0  0
 15 16  1  0  0  0
 17 18  4  0  0  0
 20 19  4  0  0  0
 21 20  4  0  0  0
 23 24  1  0  0  0
 27 26  1  0  0  0
 26 33  2  0  0  0
 27 28  1  0  0  0
 29 30  4  0  0  0
 30 31  4  0  0  0
 31 32  4  0  0  0
  4 34  1  0  0  0
  4 35  1  0  0  0
  5 36  1  0  0  0
  5 37  1  0  0  0
 10 38  1  0  0  0
 11 39  1  0  0  0
 13 40  1  0  0  0
 14 41  1  0  0  0
 15 42  1  0  0  0
 15 43  1  0  0  0
 17 44  1  0  0  0
 18 45  1  0  0  0
 21 46  1  0  0  0
 22 47  1  0  0  0
 23 48  1  0  0  0
 23 49  1  0  0  0
 24 50  1  0  0  0
 24 51  1  0  0  0
 25 52  1  0  0  0
 27 53  1  0  0  0
 28 54  1  0  0  0
 28 55  1  0  0  0
 29 56  1  0  0  0
 30 57  1  0  0  0
M  END
$$$$
