4lng_ligand
  -I-interpret- 

 62 66  0  0  0  0  0  0  0  0999 V2000
   26.4840   -2.7060    6.8600 C   0  0  0  0  0
   25.1360   -2.2490    6.2880 N   0  3  0  0  0
   24.2120   -1.9740    7.1620 C   0  0  0  0  0
   23.2430   -1.4340    6.5670 N   0  0  0  0  0
   23.3160   -1.3510    5.1560 C   0  0  0  0  0
   24.7480   -1.7340    5.0100 C   0  0  0  0  0
   25.5990   -1.9410    3.5940 C   0  0  0  0  0
   25.9760   -3.4610    3.6110 C   0  0  0  0  0
   24.9940   -4.3610    3.8350 C   0  0  0  0  0
   25.0850   -5.7530    3.6350 C   0  0  0  0  0
   26.4620   -5.8080    2.9500 C   0  0  0  0  0
   26.5860   -7.6860    2.4800 Cl  0  0  0  0  0
   27.3760   -5.0460    2.7180 C   0  0  0  0  0
   27.1350   -3.6740    3.0940 C   0  0  0  0  0
   26.8180   -1.2690    3.9060 N   0  3  0  0  0
   24.5910   -1.3910    2.5750 C   0  0  0  0  0
   24.2740   -2.1660    1.6540 C   0  0  0  0  0
   23.6050   -1.5640    0.6080 C   0  0  0  0  0
   24.5260   -0.0180    2.7100 C   0  0  0  0  0
   23.5720    0.6780    1.6170 C   0  0  0  0  0
   23.1010   -0.4510    0.6580 C   0  0  0  0  0
   22.3620    0.2910   -0.3730 N   0  0  0  0  0
   21.9580    1.7970   -0.1870 C   0  0  0  0  0
   21.7100   -0.4820   -1.2810 C   0  0  0  0  0
   20.9700    0.1280   -2.0920 O   0  0  0  0  0
   22.1260   -1.8020   -1.2470 C   0  0  0  0  0
   23.0900   -2.3800   -0.4950 C   0  0  0  0  0
   23.4000   -3.8110   -0.5700 C   0  0  0  0  0
   22.9000   -4.7160    0.4720 C   0  0  0  0  0
   23.3140   -6.0040    0.1460 C   0  0  0  0  0
   22.7950   -7.2130    1.3520 Cl  0  0  0  0  0
   24.2280   -6.5380   -0.9120 C   0  0  0  0  0
   24.4220   -5.5200   -1.9230 C   0  0  0  0  0
   24.0910   -4.2940   -1.6380 C   0  0  0  0  0
   26.8916   -1.9213    7.4973 H   0  0  0  0  0
   26.3396   -3.6135    7.4462 H   0  0  0  0  0
   27.1753   -2.9068    6.0415 H   0  0  0  0  0
   24.2678   -2.1774    8.2314 H   0  0  0  0  0
   22.4393   -1.0716    7.0800 H   0  0  0  0  0
   23.0370   -0.3901    4.7237 H   0  0  0  0  0
   22.6033   -1.9677    4.6085 H   0  0  0  0  0
   25.3557   -0.9644    4.5341 H   0  0  0  0  0
   24.0439   -3.9751    4.2044 H   0  0  0  0  0
   24.3884   -6.5518    3.8894 H   0  0  0  0  0
   28.3095   -5.3728    2.2599 H   0  0  0  0  0
   27.8727   -2.8842    2.9520 H   0  0  0  0  0
   26.6569   -0.2618    3.9152 H   0  0  0  0  0
   27.1458   -1.5705    4.8236 H   0  0  0  0  0
   27.5199   -1.4959    3.2015 H   0  0  0  0  0
   24.5055   -3.2310    1.6722 H   0  0  0  0  0
   25.5324    0.3769    2.5712 H   0  0  0  0  0
   24.1145    0.1992    3.6957 H   0  0  0  0  0
   24.1068    1.4553    1.0712 H   0  0  0  0  0
   22.7213    1.1638    2.0949 H   0  0  0  0  0
   21.3175    1.8944    0.6896 H   0  0  0  0  0
   22.8566    2.3987   -0.0507 H   0  0  0  0  0
   21.4205    2.1395   -1.0712 H   0  0  0  0  0
   21.5997   -2.4735   -1.9254 H   0  0  0  0  0
   22.3109   -4.4307    1.3436 H   0  0  0  0  0
   24.6751   -7.5321   -0.9201 H   0  0  0  0  0
   24.8352   -5.7742   -2.8991 H   0  0  0  0  0
   24.4146   -3.5447   -2.3604 H   0  0  0  0  0
  1  2  1  0  0  0
  2  3  2  0  0  0
  2  6  1  0  0  0
  3  4  1  0  0  0
  4  5  1  0  0  0
  5  6  1  0  0  0
  6  7  1  0  0  0
  7  8  1  0  0  0
  7 15  1  0  0  0
  7 16  1  0  0  0
  8  9  4  0  0  0
  8 14  4  0  0  0
  9 10  4  0  0  0
 10 11  4  0  0  0
 11 12  1  0  0  0
 11 13  4  0  0  0
 13 14  4  0  0  0
 16 17  2  0  0  0
 16 19  1  0  0  0
 17 18  1  0  0  0
 18 21  2  0  0  0
 18 27  1  0  0  0
 19 20  1  0  0  0
 20 21  1  0  0  0
 21 22  1  0  0  0
 22 23  1  0  0  0
 22 24  1  0  0  0
 24 25  2  0  0  0
 24 26  1  0  0  0
 26 27  2  0  0  0
 27 28  1  0  0  0
 28 29  4  0  0  0
 28 34  4  0  0  0
 29 30  4  0  0  0
 30 31  1  0  0  0
 30 32  4  0  0  0
 32 33  4  0  0  0
 33 34  4  0  0  0
  1 35  1  0  0  0
  1 36  1  0  0  0
  1 37  1  0  0  0
  3 38  1  0  0  0
  4 39  1  0  0  0
  5 40  1  0  0  0
  5 41  1  0  0  0
  6 42  1  0  0  0
  9 43  1  0  0  0
 10 44  1  0  0  0
 13 45  1  0  0  0
 14 46  1  0  0  0
 15 47  1  0  0  0
 15 48  1  0  0  0
 15 49  1  0  0  0
 17 50  1  0  0  0
 19 51  1  0  0  0
 19 52  1  0  0  0
 20 53  1  0  0  0
 20 54  1  0  0  0
 23 55  1  0  0  0
 23 56  1  0  0  0
 23 57  1  0  0  0
 26 58  1  0  0  0
 29 59  1  0  0  0
 32 60  1  0  0  0
 33 61  1  0  0  0
 34 62  1  0  0  0
M  END
$$$$
