2xdw_ligand
  -I-interpret- 

 51 53  0  0  0  0  0  0  0  0999 V2000
   45.1100   37.4500   88.2230 C   0  0  0  0  0
   45.7190   36.4260   88.9420 C   0  0  0  0  0
   45.8460   35.1560   88.3670 C   0  0  0  0  0
   45.4000   34.8960   87.0770 C   0  0  0  0  0
   44.7800   35.9200   86.3600 C   0  0  0  0  0
   44.6350   37.1820   86.9300 C   0  0  0  0  0
   43.9710   38.2880   86.1530 C   0  0  0  0  0
   42.5510   38.0930   86.3090 O   0  0  0  0  0
   41.8040   37.5250   85.2350 C   0  0  0  0  0
   42.3650   37.2600   84.1690 O   0  0  0  0  0
   40.4980   37.3490   85.4990 N   0  0  0  0  0
   39.5960   36.8000   84.5140 C   0  0  0  0  0
   39.2830   37.8560   83.4850 C   0  0  0  0  0
   39.6890   39.0340   83.6500 O   0  0  0  0  0
   38.3480   36.5200   85.3550 C   0  0  0  0  0
   38.4110   37.5160   86.4960 C   0  0  0  0  0
   39.8920   37.6880   86.7900 C   0  0  0  0  0
   36.7440   39.0120   81.7070 C   0  0  0  0  0
   38.5630   37.5020   82.4160 N   0  0  0  0  0
   35.8670   37.8970   81.9070 O   0  0  0  0  0
   38.1990   38.5680   81.4270 C   0  0  0  0  0
   38.3260   38.0370   79.9700 C   0  0  0  0  0
   38.2230   35.6820   80.7310 C   0  0  0  0  0
   38.0240   36.1230   82.1780 C   0  0  0  0  0
   37.6530   36.6850   79.7300 C   0  0  0  0  0
   45.0036   38.4442   88.6571 H   0  0  0  0  0
   46.0953   36.6119   89.9480 H   0  0  0  0  0
   46.3050   34.3532   88.9441 H   0  0  0  0  0
   45.5321   33.9094   86.6329 H   0  0  0  0  0
   44.4088   35.7317   85.3526 H   0  0  0  0  0
   44.2587   38.2574   85.1021 H   0  0  0  0  0
   44.2763   39.2666   86.5236 H   0  0  0  0  0
   39.9819   35.9302   83.9823 H   0  0  0  0  0
   38.3277   35.4921   85.7172 H   0  0  0  0  0
   37.4344   36.6323   84.7712 H   0  0  0  0  0
   37.8649   37.1622   87.3705 H   0  0  0  0  0
   37.9401   38.4627   86.2311 H   0  0  0  0  0
   40.1503   38.6875   87.1400 H   0  0  0  0  0
   40.2454   37.0640   87.6109 H   0  0  0  0  0
   36.7418   39.6127   82.6166 H   0  0  0  0  0
   36.3882   39.5726   80.8426 H   0  0  0  0  0
   34.9780   38.2170   82.0770 H   0  0  0  0  0
   38.8793   39.4130   81.5326 H   0  0  0  0  0
   39.3892   37.9055   79.7688 H   0  0  0  0  0
   37.8315   38.7602   79.3215 H   0  0  0  0  0
   37.7005   34.7354   80.5931 H   0  0  0  0  0
   39.2945   35.5978   80.5495 H   0  0  0  0  0
   36.9551   36.1303   82.3911 H   0  0  0  0  0
   38.5590   35.4284   82.8256 H   0  0  0  0  0
   37.8446   36.3472   78.7115 H   0  0  0  0  0
   36.5749   36.7749   79.8631 H   0  0  0  0  0
  1  2  4  0  0  0
  6  1  4  0  0  0
  2  3  4  0  0  0
  4  3  4  0  0  0
  5  4  4  0  0  0
  6  5  4  0  0  0
  7  6  1  0  0  0
  8  7  1  0  0  0
  9  8  1  0  0  0
  9 10  2  0  0  0
 11  9  1  0  0  0
 12 11  1  0  0  0
 11 17  1  0  0  0
 13 12  1  0  0  0
 12 15  1  0  0  0
 13 14  2  0  0  0
 19 13  1  0  0  0
 15 16  1  0  0  0
 16 17  1  0  0  0
 18 20  1  0  0  0
 21 18  1  0  0  0
 19 21  1  0  0  0
 19 24  1  0  0  0
 21 22  1  0  0  0
 22 25  1  0  0  0
 24 23  1  0  0  0
 23 25  1  0  0  0
  1 26  1  0  0  0
  2 27  1  0  0  0
  3 28  1  0  0  0
  4 29  1  0  0  0
  5 30  1  0  0  0
  7 31  1  0  0  0
  7 32  1  0  0  0
 12 33  1  0  0  0
 15 34  1  0  0  0
 15 35  1  0  0  0
 16 36  1  0  0  0
 16 37  1  0  0  0
 17 38  1  0  0  0
 17 39  1  0  0  0
 18 40  1  0  0  0
 18 41  1  0  0  0
 20 42  1  0  0  0
 21 43  1  0  0  0
 22 44  1  0  0  0
 22 45  1  0  0  0
 23 46  1  0  0  0
 23 47  1  0  0  0
 24 48  1  0  0  0
 24 49  1  0  0  0
 25 50  1  0  0  0
 25 51  1  0  0  0
M  END
$$$$
