3k97_ligand
  -I-interpret- 

 41 43  0  0  0  0  0  0  0  0999 V2000
   67.4650   78.9670   22.8120 N   0  0  0  0  0
   67.9820   79.8930   23.8650 C   0  0  0  0  0
   69.4610   79.6540   24.3000 C   0  0  0  0  0
   70.4200   79.0410   23.4040 C   0  0  0  0  0
   71.7620   78.8180   23.7990 C   0  0  0  0  0
   72.1930   79.1950   25.0890 C   0  0  0  0  0
   69.9230   80.0350   25.6240 C   0  0  0  0  0
   68.3240   76.4470   24.7470 C   0  0  0  0  0
   67.1970   75.5530   26.7450 C   0  0  0  0  0
   65.8860   76.6740   24.9940 C   0  0  0  0  0
   67.8230   81.2830   23.2210 C   0  0  0  0  0
   67.9440   81.0460   21.7170 C   0  0  0  0  0
   67.3770   79.6480   21.5120 C   0  0  0  0  0
   71.2850   79.7960   25.9920 C   0  0  0  0  0
   69.0280   80.6810   26.6570 C   0  0  0  0  0
   67.0680   76.9080   24.2400 C   0  0  0  0  0
   68.3880   75.7710   25.9980 C   0  0  0  0  0
   65.9470   76.0010   26.2440 C   0  0  0  0  0
   64.6610   77.0720   24.5790 O   0  0  0  0  0
   67.2480   74.9130   27.9510 O   0  0  0  0  0
   67.0050   77.6310   22.9250 C   0  0  0  0  0
   66.5210   77.0000   21.9840 O   0  0  0  0  0
   69.9240   75.2350   26.5690 Cl  0  0  0  0  0
   67.4321   79.7500   24.7952 H   0  0  0  0  0
   70.1022   78.7449   22.4043 H   0  0  0  0  0
   72.4632   78.3543   23.1052 H   0  0  0  0  0
   73.2265   79.0229   25.3897 H   0  0  0  0  0
   69.2354   76.6141   24.1730 H   0  0  0  0  0
   68.5800   81.9805   23.5796 H   0  0  0  0  0
   66.8671   81.7384   23.4800 H   0  0  0  0  0
   68.9740   81.1270   21.3695 H   0  0  0  0  0
   67.4063   81.7968   21.1379 H   0  0  0  0  0
   66.3450   79.6926   21.1639 H   0  0  0  0  0
   67.9378   79.1074   20.7495 H   0  0  0  0  0
   71.6290   80.0822   26.9859 H   0  0  0  0  0
   68.6434   81.6225   26.2649 H   0  0  0  0  0
   68.1965   80.0137   26.8838 H   0  0  0  0  0
   69.6010   80.8710   27.5646 H   0  0  0  0  0
   65.0357   75.8292   26.8168 H   0  0  0  0  0
   64.0048   76.8168   25.2316 H   0  0  0  0  0
   66.3625   74.8505   28.3165 H   0  0  0  0  0
  1  2  1  0  0  0
  1 13  1  0  0  0
 21  1  1  0  0  0
  2  3  1  0  0  0
  2 11  1  0  0  0
  3  4  4  0  0  0
  3  7  4  0  0  0
  4  5  4  0  0  0
  5  6  4  0  0  0
 14  6  4  0  0  0
  7 14  4  0  0  0
  7 15  1  0  0  0
 16  8  4  0  0  0
  8 17  4  0  0  0
 17  9  4  0  0  0
 18  9  4  0  0  0
  9 20  1  0  0  0
 16 10  4  0  0  0
 10 18  4  0  0  0
 10 19  1  0  0  0
 12 11  1  0  0  0
 13 12  1  0  0  0
 16 21  1  0  0  0
 17 23  1  0  0  0
 21 22  2  0  0  0
  2 24  1  0  0  0
  4 25  1  0  0  0
  5 26  1  0  0  0
  6 27  1  0  0  0
  8 28  1  0  0  0
 11 29  1  0  0  0
 11 30  1  0  0  0
 12 31  1  0  0  0
 12 32  1  0  0  0
 13 33  1  0  0  0
 13 34  1  0  0  0
 14 35  1  0  0  0
 15 36  1  0  0  0
 15 37  1  0  0  0
 15 38  1  0  0  0
 18 39  1  0  0  0
 19 40  1  0  0  0
 20 41  1  0  0  0
M  END
$$$$
