3k3e_ligand
  -I-interpret- 

 39 41  0  0  0  0  0  0  0  0999 V2000
   78.3700   49.9710   39.6290 C   0  0  0  0  0
   78.9880   49.8850   38.3870 C   0  0  0  0  0
   80.2390   50.4610   38.1910 C   0  0  0  0  0
   80.8690   51.1250   39.2370 C   0  0  0  0  0
   75.4250   55.1560   42.9860 F   0  0  0  0  0
   80.2490   51.2110   40.4790 C   0  0  0  0  0
   73.9320   56.3570   41.8900 F   0  0  0  0  0
   79.0010   50.6320   40.6780 C   0  0  0  0  0
   76.1010   56.5990   41.4460 F   0  0  0  0  0
   78.4320   50.6800   41.9010 N   0  0  0  0  0
   78.9090   50.1450   42.9300 N   0  0  0  0  0
   78.1320   50.3760   44.0100 C   0  0  0  0  0
   77.2810   51.3190   42.2040 C   0  0  0  0  0
   77.0620   51.1420   43.5640 C   0  0  0  0  0
   76.3850   52.0320   41.4690 N   0  0  0  0  0
   75.2780   52.5690   42.0510 C   0  0  0  0  0
   75.0460   52.4060   43.3820 N   0  0  0  0  0
   75.9360   51.6940   44.1580 C   0  0  0  0  0
   75.7350   51.5710   45.3670 O   0  0  0  0  0
   74.3060   53.3950   41.2230 C   0  0  0  0  0
   75.0360   54.6340   40.6990 C   0  0  0  0  0
   74.3100   55.1790   39.4670 C   0  0  0  0  0
   75.1250   55.7140   41.7830 C   0  0  0  0  0
   76.8210   49.2570   39.8590 C   0  0  0  0  0
   78.4924   49.3662   37.5665 H   0  0  0  0  0
   80.7249   50.3916   37.2177 H   0  0  0  0  0
   81.8485   51.5781   39.0840 H   0  0  0  0  0
   80.7428   51.7336   41.2982 H   0  0  0  0  0
   78.3089   50.0305   45.0285 H   0  0  0  0  0
   74.2119   52.8114   43.8065 H   0  0  0  0  0
   73.4593   53.6975   41.8393 H   0  0  0  0  0
   73.9361   52.8022   40.3864 H   0  0  0  0  0
   76.0507   54.3486   40.4213 H   0  0  0  0  0
   74.2914   54.4147   38.6901 H   0  0  0  0  0
   73.2892   55.4484   39.7380 H   0  0  0  0  0
   74.8341   56.0608   39.0985 H   0  0  0  0  0
   76.1071   49.7118   39.1722 H   0  0  0  0  0
   76.8833   48.1864   39.6640 H   0  0  0  0  0
   76.4950   49.4222   40.8859 H   0  0  0  0  0
  1  2  4  0  0  0
  8  1  4  0  0  0
  1 24  1  0  0  0
  2  3  4  0  0  0
  4  3  4  0  0  0
  6  4  4  0  0  0
 23  5  1  0  0  0
  8  6  4  0  0  0
 23  7  1  0  0  0
 10  8  1  0  0  0
 23  9  1  0  0  0
 10 11  4  0  0  0
 13 10  4  0  0  0
 12 11  4  0  0  0
 14 12  4  0  0  0
 13 14  4  0  0  0
 15 13  1  0  0  0
 18 14  1  0  0  0
 16 15  2  0  0  0
 16 17  1  0  0  0
 20 16  1  0  0  0
 17 18  1  0  0  0
 18 19  2  0  0  0
 21 20  1  0  0  0
 21 22  1  0  0  0
 21 23  1  0  0  0
  2 25  1  0  0  0
  3 26  1  0  0  0
  4 27  1  0  0  0
  6 28  1  0  0  0
 12 29  1  0  0  0
 17 30  1  0  0  0
 20 31  1  0  0  0
 20 32  1  0  0  0
 21 33  1  0  0  0
 22 34  1  0  0  0
 22 35  1  0  0  0
 22 36  1  0  0  0
 24 37  1  0  0  0
 24 38  1  0  0  0
 24 39  1  0  0  0
M  END
$$$$
