5tol_ligand
  -I-interpret- 

 43 46  0  0  0  0  0  0  0  0999 V2000
  -24.9190   47.6990   27.1240 C   0  0  0  0  0
  -25.6710   53.5910   18.5030 C   0  0  0  0  0
  -26.5770   53.8310   19.7140 C   0  0  0  0  0
  -25.5540   55.0160   17.9480 C   0  0  0  0  0
  -26.9900   55.5130   18.1390 C   0  0  0  0  0
  -24.3040   52.9910   18.8080 C   0  0  0  0  0
  -24.8620   54.3040   21.3510 C   0  0  0  0  0
  -25.8740   49.4410   25.6940 C   0  0  0  0  0
  -25.2520   49.0480   26.8930 C   0  0  0  0  0
  -28.3040   49.9900   20.9980 C   0  0  0  0  0
  -28.7500   50.6320   19.8250 C   0  0  0  0  0
  -28.1860   51.8620   19.4160 C   0  0  0  0  0
  -27.1790   52.4940   20.1700 C   0  0  0  0  0
  -26.7480   51.8260   21.3240 C   0  0  0  0  0
  -27.2780   50.6000   21.7500 C   0  0  0  0  0
  -26.7920   50.0730   22.8900 N   0  0  0  0  0
  -26.8340   48.8360   23.4410 C   0  0  0  0  0
  -27.4820   47.9360   22.9110 O   0  0  0  0  0
  -26.1550   48.4940   24.7180 C   0  0  0  0  0
  -25.2400   46.7990   26.0970 C   0  0  0  0  0
  -25.8340   47.2070   24.9440 N   0  0  0  0  0
  -24.1150   47.0820   28.7300 Br  0  0  0  0  0
  -27.5950   54.6930   19.1660 O   0  0  0  0  0
  -23.5930   53.8290   20.2310 S   0  0  0  0  0
  -26.0140   54.5770   20.8400 N   0  0  0  0  0
  -24.4860   55.0350   22.4080 N   0  0  0  0  0
  -28.6620   52.4100   18.2840 F   0  0  0  0  0
  -26.0829   52.8443   17.8242 H   0  0  0  0  0
  -25.2006   55.0640   16.9180 H   0  0  0  0  0
  -24.8023   55.6270   18.4476 H   0  0  0  0  0
  -27.5498   55.4350   17.2070 H   0  0  0  0  0
  -26.9964   56.5625   18.4332 H   0  0  0  0  0
  -23.6494   53.1163   17.9455 H   0  0  0  0  0
  -24.4118   51.9285   19.0260 H   0  0  0  0  0
  -26.1349   50.4868   25.5314 H   0  0  0  0  0
  -25.0250   49.7963   27.6523 H   0  0  0  0  0
  -28.7418   49.0440   21.3167 H   0  0  0  0  0
  -29.5383   50.1750   19.2268 H   0  0  0  0  0
  -25.9595   52.2835   21.9216 H   0  0  0  0  0
  -26.2840   50.7492   23.4601 H   0  0  0  0  0
  -25.0065   45.7423   26.2270 H   0  0  0  0  0
  -26.5553   55.3449   21.2372 H   0  0  0  0  0
  -23.5055   55.2880   22.5303 H   0  0  0  0  0
  9  1  4  0  0  0
  1 20  4  0  0  0
  1 22  1  0  0  0
  3  2  1  0  0  0
  2  4  1  0  0  0
  2  6  1  0  0  0
 13  3  1  0  0  0
  3 23  1  0  0  0
  3 25  1  0  0  0
  5  4  1  0  0  0
 23  5  1  0  0  0
  6 24  1  0  0  0
  7 24  1  0  0  0
 25  7  1  0  0  0
  7 26  2  0  0  0
  8  9  4  0  0  0
 19  8  4  0  0  0
 10 11  4  0  0  0
 15 10  4  0  0  0
 11 12  4  0  0  0
 13 12  4  0  0  0
 12 27  1  0  0  0
 14 13  4  0  0  0
 15 14  4  0  0  0
 16 15  1  0  0  0
 17 16  1  0  0  0
 17 18  2  0  0  0
 17 19  1  0  0  0
 19 21  4  0  0  0
 20 21  4  0  0  0
  2 28  1  0  0  0
  4 29  1  0  0  0
  4 30  1  0  0  0
  5 31  1  0  0  0
  5 32  1  0  0  0
  6 33  1  0  0  0
  6 34  1  0  0  0
  8 35  1  0  0  0
  9 36  1  0  0  0
 10 37  1  0  0  0
 11 38  1  0  0  0
 14 39  1  0  0  0
 16 40  1  0  0  0
 20 41  1  0  0  0
 25 42  1  0  0  0
 26 43  1  0  0  0
M  END
$$$$
