2uw0_ligand
  -I-interpret- 

 48 52  0  0  0  0  0  0  0  0999 V2000
   13.5680   13.7150   -0.4550 Cl  0  0  0  0  0
   12.9930   12.4950    0.6220 C   0  0  0  0  0
   12.5300   12.8440    1.8770 C   0  0  0  0  0
   12.0640   11.8740    2.7340 C   0  0  0  0  0
   12.0410   10.5420    2.3410 C   0  0  0  0  0
   12.5180   10.2000    1.0790 C   0  0  0  0  0
   12.9900   11.1710    0.2270 C   0  0  0  0  0
   11.5430    9.4670    3.3110 C   0  0  0  0  0
   11.9940    8.0940    2.7760 C   0  0  0  0  0
   11.8190    6.9810    3.7840 C   0  0  0  0  0
   12.6260    7.2940    4.9950 N   0  3  0  0  0
   12.1440    8.5600    5.6160 C   0  0  0  0  0
   12.2900    9.7050    4.6340 C   0  0  0  0  0
   10.0020    9.5250    3.4300 C   0  0  0  0  0
    9.3610   10.0190    4.5650 C   0  0  0  0  0
    7.9810   10.0460    4.6440 C   0  0  0  0  0
    7.2000    9.5910    3.5850 C   0  0  0  0  0
    7.8400    9.0810    2.4620 C   0  0  0  0  0
    9.2180    9.0590    2.3810 C   0  0  0  0  0
    5.7120    9.5840    3.6790 C   0  0  0  0  0
    5.1860    9.5540    4.9170 N   0  0  0  0  0
    3.8540    9.5290    5.0330 C   0  0  0  0  0
    2.9320    9.4850    4.0690 N   0  0  0  0  0
    3.4880    9.4840    2.8510 C   0  0  0  0  0
    2.8640    9.4480    1.6410 N   0  0  0  0  0
    3.8150    9.4770    0.6790 C   0  0  0  0  0
    5.0510    9.5250    1.1890 N   0  0  0  0  0
    4.8460    9.5270    2.5790 C   0  0  0  0  0
   12.5342   13.8887    2.1878 H   0  0  0  0  0
   11.7109   12.1523    3.7270 H   0  0  0  0  0
   12.5175    9.1565    0.7641 H   0  0  0  0  0
   13.3618   10.8960   -0.7600 H   0  0  0  0  0
   13.0555    8.1626    2.5380 H   0  0  0  0  0
   11.3777    7.8567    1.9088 H   0  0  0  0  0
   12.1538    6.0377    3.3524 H   0  0  0  0  0
   10.7671    6.8926    4.0556 H   0  0  0  0  0
   13.6042    7.4029    4.7273 H   0  0  0  0  0
   12.5307    6.5330    5.6675 H   0  0  0  0  0
   12.7366    8.7721    6.5059 H   0  0  0  0  0
   11.0938    8.4504    5.8866 H   0  0  0  0  0
   11.8646   10.5947    5.0982 H   0  0  0  0  0
   13.3499    9.8075    4.4012 H   0  0  0  0  0
    9.9552   10.3886    5.4007 H   0  0  0  0  0
    7.4995   10.4274    5.5445 H   0  0  0  0  0
    7.2463    8.6932    1.6342 H   0  0  0  0  0
    9.6977    8.6710    1.4824 H   0  0  0  0  0
    3.4693    9.5470    6.0527 H   0  0  0  0  0
    3.5989    9.4629   -0.3893 H   0  0  0  0  0
  1  2  1  0  0  0
  2  3  4  0  0  0
  2  7  4  0  0  0
  3  4  4  0  0  0
  4  5  4  0  0  0
  5  6  4  0  0  0
  5  8  1  0  0  0
  6  7  4  0  0  0
  8  9  1  0  0  0
  8 13  1  0  0  0
  8 14  1  0  0  0
  9 10  1  0  0  0
 10 11  1  0  0  0
 11 12  1  0  0  0
 12 13  1  0  0  0
 14 15  4  0  0  0
 14 19  4  0  0  0
 15 16  4  0  0  0
 16 17  4  0  0  0
 17 18  4  0  0  0
 17 20  1  0  0  0
 18 19  4  0  0  0
 20 21  4  0  0  0
 20 28  4  0  0  0
 21 22  4  0  0  0
 22 23  4  0  0  0
 23 24  4  0  0  0
 24 25  4  0  0  0
 24 28  4  0  0  0
 25 26  4  0  0  0
 26 27  4  0  0  0
 27 28  4  0  0  0
  3 29  1  0  0  0
  4 30  1  0  0  0
  6 31  1  0  0  0
  7 32  1  0  0  0
  9 33  1  0  0  0
  9 34  1  0  0  0
 10 35  1  0  0  0
 10 36  1  0  0  0
 11 37  1  0  0  0
 11 38  1  0  0  0
 12 39  1  0  0  0
 12 40  1  0  0  0
 13 41  1  0  0  0
 13 42  1  0  0  0
 15 43  1  0  0  0
 16 44  1  0  0  0
 18 45  1  0  0  0
 19 46  1  0  0  0
 22 47  1  0  0  0
 26 48  1  0  0  0
M  END
$$$$
