3ctq_ligand
  -I-interpret- 

 76 79  0  0  0  0  0  0  0  0999 V2000
   33.6700   36.7730   12.7730 N   0  0  0  0  0
   30.3730   36.2720   11.0270 C   0  0  0  0  0
   32.5490   34.7030   12.1160 C   0  0  0  0  0
   31.4210   34.0570   11.5040 C   0  0  0  0  0
   30.3580   34.8300   10.9710 C   0  0  0  0  0
   32.1650   42.4930   21.5960 C   0  0  0  0  0
   29.2370   37.1760   10.4670 C   0  0  0  0  0
   29.7990   38.1090    9.3620 C   0  0  0  0  0
   30.7610   42.5470   21.7800 C   0  0  0  0  0
   31.0740   44.2880   23.4760 C   0  0  0  0  0
   33.0370   32.8220    9.1590 C   0  0  0  0  0
   37.1670   38.9430   14.0170 C   0  0  0  0  0
   38.3930   40.1900   15.8230 C   0  0  0  0  0
   34.7830   38.4090   14.1740 C   0  0  0  0  0
   33.0430   43.3440   22.3380 C   0  0  0  0  0
   32.5900   36.1270   12.1870 C   0  0  0  0  0
   31.5120   36.8840   11.6410 C   0  0  0  0  0
   33.4400   33.6560   14.0330 C   0  0  0  0  0
   28.6330   38.0300   11.6150 C   0  0  0  0  0
   28.0580   36.3770    9.8380 C   0  0  0  0  0
   33.5280   37.8310   13.6580 C   0  0  0  0  0
   30.2150   43.4470   22.7200 C   0  0  0  0  0
   32.4810   44.2300   23.2870 C   0  0  0  0  0
   37.1200   39.5830   15.2890 C   0  0  0  0  0
   36.0110   38.3570   13.4530 C   0  0  0  0  0
   33.5760   33.9010   12.6300 O   0  0  0  0  0
   32.4120   38.2610   13.9730 O   0  0  0  0  0
   31.3480   32.6900   11.4250 N   0  0  0  0  0
   32.3250   31.8110   10.4300 S   0  0  0  0  0
   31.4940   30.8300    9.8180 O   0  0  0  0  0
   33.3620   31.3130   11.3040 O   0  0  0  0  0
   34.7540   39.0450   15.4340 C   0  0  0  0  0
   35.8940   39.6370   16.0160 C   0  0  0  0  0
   35.7300   40.2370   17.2790 N   0  0  0  0  0
   35.4500   41.5410   17.5850 C   0  0  0  0  0
   35.8730   39.4210   18.3880 N   0  0  0  0  0
   35.6600   40.3230   19.3880 N   0  0  0  0  0
   35.4090   41.5760   18.9520 C   0  0  0  0  0
   35.1400   42.7320   19.7980 C   0  0  0  0  0
   35.1190   43.9010   19.4330 O   0  0  0  0  0
   34.8850   42.3490   21.0700 N   0  0  0  0  0
   34.5530   43.2660   22.1620 C   0  0  0  0  0
   34.6112   36.4548   12.5420 H   0  0  0  0  0
   29.5107   34.3236   10.5087 H   0  0  0  0  0
   32.5835   41.7900   20.8758 H   0  0  0  0  0
   28.9938   38.7287    8.9673 H   0  0  0  0  0
   30.5750   38.7461    9.7863 H   0  0  0  0  0
   30.2216   37.5053    8.5589 H   0  0  0  0  0
   30.1066   41.8972   21.1989 H   0  0  0  0  0
   30.6522   44.9808   24.2042 H   0  0  0  0  0
   33.6294   32.1983    8.4896 H   0  0  0  0  0
   32.2412   33.3085    8.5950 H   0  0  0  0  0
   33.6765   33.5785    9.6138 H   0  0  0  0  0
   38.1092   38.9047   13.4702 H   0  0  0  0  0
   39.1503   39.4125   15.9239 H   0  0  0  0  0
   38.7464   40.9558   15.1325 H   0  0  0  0  0
   38.1992   40.6389   16.7972 H   0  0  0  0  0
   31.5571   37.9718   11.6933 H   0  0  0  0  0
   33.4578   34.6046   14.5696 H   0  0  0  0  0
   32.4943   33.1480   14.2218 H   0  0  0  0  0
   34.2647   33.0294   14.3727 H   0  0  0  0  0
   29.4090   38.6671   12.0391 H   0  0  0  0  0
   27.8279   38.6497   11.2202 H   0  0  0  0  0
   28.2397   37.3704   12.3885 H   0  0  0  0  0
   27.2915   37.0722    9.4955 H   0  0  0  0  0
   28.4254   35.7943    8.9933 H   0  0  0  0  0
   27.6346   35.7071   10.5864 H   0  0  0  0  0
   29.1359   43.4965   22.8655 H   0  0  0  0  0
   33.1327   44.8734   23.8780 H   0  0  0  0  0
   36.0583   37.8712   12.4784 H   0  0  0  0  0
   30.6649   32.1997   12.0024 H   0  0  0  0  0
   33.8111   39.0800   15.9798 H   0  0  0  0  0
   35.2942   42.3685   16.8929 H   0  0  0  0  0
   34.9269   41.3524   21.2831 H   0  0  0  0  0
   35.0026   42.9007   23.0853 H   0  0  0  0  0
   34.9375   44.2582   21.9256 H   0  0  0  0  0
  1 16  1  0  0  0
 21  1  1  0  0  0
  2  5  4  0  0  0
  2  7  1  0  0  0
 17  2  4  0  0  0
  3  4  4  0  0  0
 16  3  4  0  0  0
  3 26  1  0  0  0
  4  5  4  0  0  0
  4 28  1  0  0  0
  6  9  4  0  0  0
 15  6  4  0  0  0
  7  8  1  0  0  0
  7 19  1  0  0  0
  7 20  1  0  0  0
  9 22  4  0  0  0
 10 22  4  0  0  0
 23 10  4  0  0  0
 29 11  1  0  0  0
 24 12  4  0  0  0
 12 25  4  0  0  0
 24 13  1  0  0  0
 14 21  1  0  0  0
 14 25  4  0  0  0
 32 14  4  0  0  0
 15 23  4  0  0  0
 42 15  1  0  0  0
 16 17  4  0  0  0
 26 18  1  0  0  0
 21 27  2  0  0  0
 33 24  4  0  0  0
 28 29  1  0  0  0
 29 30  2  0  0  0
 29 31  2  0  0  0
 33 32  4  0  0  0
 34 33  1  0  0  0
 35 34  4  0  0  0
 36 34  4  0  0  0
 38 35  4  0  0  0
 37 36  4  0  0  0
 38 37  4  0  0  0
 39 38  1  0  0  0
 39 40  2  0  0  0
 41 39  1  0  0  0
 41 42  1  0  0  0
  1 43  1  0  0  0
  5 44  1  0  0  0
  6 45  1  0  0  0
  8 46  1  0  0  0
  8 47  1  0  0  0
  8 48  1  0  0  0
  9 49  1  0  0  0
 10 50  1  0  0  0
 11 51  1  0  0  0
 11 52  1  0  0  0
 11 53  1  0  0  0
 12 54  1  0  0  0
 13 55  1  0  0  0
 13 56  1  0  0  0
 13 57  1  0  0  0
 17 58  1  0  0  0
 18 59  1  0  0  0
 18 60  1  0  0  0
 18 61  1  0  0  0
 19 62  1  0  0  0
 19 63  1  0  0  0
 19 64  1  0  0  0
 20 65  1  0  0  0
 20 66  1  0  0  0
 20 67  1  0  0  0
 22 68  1  0  0  0
 23 69  1  0  0  0
 25 70  1  0  0  0
 28 71  1  0  0  0
 32 72  1  0  0  0
 35 73  1  0  0  0
 41 74  1  0  0  0
 42 75  1  0  0  0
 42 76  1  0  0  0
M  END
$$$$
