4ymb_ligand
  -I-interpret- 

 40 41  0  0  0  0  0  0  0  0999 V2000
   -1.0740   38.1410  -11.5570 N   0  3  0  0  0
   -0.4070   39.2550  -12.2680 C   0  0  0  0  0
    0.0770   38.6800  -13.6300 C   0  0  0  0  0
   -1.4330   40.4100  -12.3910 C   0  0  0  0  0
   -2.5350   40.3470  -11.7970 O   0  0  0  0  0
   -1.1180   41.3880  -13.0770 O   0  0  0  0  0
    3.8210   40.5040  -14.9560 C   0  0  0  0  0
   -1.0480   36.9480  -12.4490 C   0  0  0  0  0
    0.1710   37.1600  -13.3640 C   0  0  0  0  0
    5.0070   39.3320  -13.0390 C   0  0  0  0  0
    2.6190   40.7380  -15.6760 C   0  0  0  0  0
    3.7890   39.6590  -13.8230 C   0  0  0  0  0
    5.0380   38.2000  -12.5140 O   0  0  0  0  0
    5.9450   40.1520  -12.9220 O   0  0  0  0  0
    1.3640   39.3250  -14.1150 C   0  0  0  0  0
    1.4010   40.1650  -15.2510 C   0  0  0  0  0
    2.5660   39.0780  -13.4150 C   0  0  0  0  0
    0.2340   36.2190  -14.6020 C   0  0  0  0  0
    0.1850   34.7170  -14.2510 C   0  0  0  0  0
    1.0630   33.8630  -15.1840 C   0  0  0  0  0
   -2.0364   38.3921  -11.3307 H   0  0  0  0  0
   -0.5890   37.9391  -10.6827 H   0  0  0  0  0
    0.4624   39.6638  -11.7532 H   0  0  0  0  0
   -0.6004   38.8945  -14.4566 H   0  0  0  0  0
   -2.5933   39.5157  -11.3204 H   0  0  0  0  0
    4.7545   40.9692  -15.2725 H   0  0  0  0  0
   -1.9705   36.8520  -13.0215 H   0  0  0  0  0
   -0.9699   36.0210  -11.8810 H   0  0  0  0  0
    1.1275   36.8765  -12.9249 H   0  0  0  0  0
    2.6374   41.3668  -16.5662 H   0  0  0  0  0
    5.7261   40.9569  -13.3972 H   0  0  0  0  0
    0.4836   40.3716  -15.8022 H   0  0  0  0  0
    2.5504   38.4257  -12.5419 H   0  0  0  0  0
    1.1853   36.4039  -15.1009 H   0  0  0  0  0
   -0.6386   36.4360  -15.2181 H   0  0  0  0  0
   -0.8461   34.3804  -14.3591 H   0  0  0  0  0
    0.5599   34.5973  -13.2345 H   0  0  0  0  0
    0.7187   33.9790  -16.2117 H   0  0  0  0  0
    2.0993   34.1920  -15.1074 H   0  0  0  0  0
    0.9904   32.8156  -14.8911 H   0  0  0  0  0
  2  1  1  0  0  0
  8  1  1  0  0  0
  3  2  1  0  0  0
  2  4  1  0  0  0
  3  9  1  0  0  0
 15  3  1  0  0  0
  4  5  1  0  0  0
  4  6  2  0  0  0
 11  7  4  0  0  0
  7 12  4  0  0  0
  9  8  1  0  0  0
  9 18  1  0  0  0
 12 10  1  0  0  0
 10 13  2  0  0  0
 10 14  1  0  0  0
 16 11  4  0  0  0
 12 17  4  0  0  0
 15 16  4  0  0  0
 15 17  4  0  0  0
 18 19  1  0  0  0
 19 20  1  0  0  0
  1 21  1  0  0  0
  1 22  1  0  0  0
  2 23  1  0  0  0
  3 24  1  0  0  0
  5 25  1  0  0  0
  7 26  1  0  0  0
  8 27  1  0  0  0
  8 28  1  0  0  0
  9 29  1  0  0  0
 11 30  1  0  0  0
 14 31  1  0  0  0
 16 32  1  0  0  0
 17 33  1  0  0  0
 18 34  1  0  0  0
 18 35  1  0  0  0
 19 36  1  0  0  0
 19 37  1  0  0  0
 20 38  1  0  0  0
 20 39  1  0  0  0
 20 40  1  0  0  0
M  END
$$$$
