6jjm_ligand
  -I-interpret- 

109112  0  0  0  0  0  0  0  0999 V2000
  108.3410  149.3000  -30.5070 C   0  0  0  0  0
  109.2230  148.0820  -30.7350 C   0  0  0  0  0
  109.7200  147.4890  -29.4250 C   0  0  0  0  0
  110.4180  148.6070  -28.6700 C   0  0  0  0  0
  109.3110  149.5880  -28.3240 C   0  0  0  0  0
  109.7170  150.6590  -27.3210 C   0  0  0  0  0
  108.5860  146.9830  -32.8160 C   0  0  0  0  0
  107.5130  146.1630  -33.4880 C   0  0  0  0  0
  108.4830  147.0820  -31.4880 N   0  0  0  0  0
  108.3230  149.9800  -31.7620 O   0  0  0  0  0
  110.6010  146.3860  -29.6840 O   0  0  0  0  0
  111.0610  148.1100  -27.4980 O   0  0  0  0  0
  108.9080  150.1980  -29.5490 O   0  0  0  0  0
  108.5530  151.3960  -26.9290 O   0  0  0  0  0
  109.4940  147.5240  -33.4420 O   0  0  0  0  0
  108.0660  151.8420  -34.5120 C   0  0  0  0  0
  107.1840  150.6180  -34.1650 C   0  0  0  0  0
  106.4470  150.8550  -32.8770 C   0  0  0  0  0
  107.4990  151.0850  -31.7850 C   0  0  0  0  0
  108.2270  152.3580  -32.1420 C   0  0  0  0  0
  109.2580  152.8250  -31.0930 C   0  0  0  0  0
  106.2140  150.3670  -35.1780 O   0  0  0  0  0
  105.6280  149.7260  -32.5230 O   0  0  0  0  0
  108.9250  152.1860  -33.3960 O   0  0  0  0  0
  109.8710  154.0290  -31.4790 O   0  0  0  0  0
  111.4100  153.5520  -37.3070 C   0  0  0  0  0
  110.7730  152.4660  -36.5200 C   0  0  0  0  0
  109.3060  152.7060  -36.3070 C   0  0  0  0  0
  108.5670  152.9630  -37.6330 C   0  0  0  0  0
  107.1190  153.3330  -37.4200 C   0  0  0  0  0
  110.6760  153.7780  -38.6250 C   0  0  0  0  0
  111.2320  154.8400  -39.2640 O   0  0  0  0  0
  112.7820  153.1920  -37.5810 O   0  0  0  0  0
  111.4490  152.3500  -35.2340 O   0  0  0  0  0
  108.7940  151.5150  -35.7100 O   0  0  0  0  0
  109.2080  154.0440  -38.4060 O   0  0  0  0  0
  107.0410  154.4130  -36.5230 O   0  0  0  0  0
  104.4120  150.9320  -30.9460 C   0  0  0  0  0
  104.3440  149.7800  -32.0330 C   0  0  0  0  0
  103.8370  148.4270  -31.4880 C   0  0  0  0  0
  102.7700  147.6440  -32.2550 C   0  0  0  0  0
  102.6940  148.1030  -33.7070 C   0  0  0  0  0
  102.4840  149.6320  -33.7400 C   0  0  0  0  0
  102.3970  150.1580  -35.1960 C   0  0  0  0  0
  101.9460  151.6370  -35.2150 C   0  0  0  0  0
  101.8940  152.1780  -36.6430 C   0  0  0  0  0
  101.7510  146.7100  -35.5420 C   0  0  0  0  0
  100.4550  146.1510  -36.1280 C   0  0  0  0  0
  101.5920  147.4640  -34.4240 N   0  0  0  0  0
  104.0180  152.0780  -31.2590 O   0  0  0  0  0
  104.8990  150.5180  -29.8660 O   0  0  0  0  0
  103.0400  146.2310  -32.2520 O   0  0  0  0  0
  103.6020  150.3120  -33.1910 O   0  0  0  0  0
  103.6560  149.9640  -35.8440 O   0  0  0  0  0
  100.6910  151.7850  -34.5450 O   0  0  0  0  0
  100.8430  151.5300  -37.3620 O   0  0  0  0  0
  102.8400  146.4770  -36.0660 O   0  0  0  0  0
  107.3614  148.9916  -30.1418 H   0  0  0  0  0
  110.0984  148.3998  -31.3014 H   0  0  0  0  0
  108.8985  147.0959  -28.8260 H   0  0  0  0  0
  111.2056  149.0756  -29.2601 H   0  0  0  0  0
  108.5037  149.0385  -27.8397 H   0  0  0  0  0
  110.4427  151.3329  -27.7764 H   0  0  0  0  0
  110.1678  150.1910  -26.4458 H   0  0  0  0  0
  106.9729  146.7872  -34.1999 H   0  0  0  0  0
  107.9727  145.3255  -34.0128 H   0  0  0  0  0
  106.8208  145.7858  -32.7352 H   0  0  0  0  0
  107.8687  146.4388  -30.9886 H   0  0  0  0  0
  110.1246  145.7025  -30.1609 H   0  0  0  0  0
  111.7532  147.4947  -27.7507 H   0  0  0  0  0
  108.8026  152.0733  -26.2961 H   0  0  0  0  0
  107.4637  152.7316  -34.6963 H   0  0  0  0  0
  107.8517  149.7608  -34.0784 H   0  0  0  0  0
  105.7873  151.7158  -32.9867 H   0  0  0  0  0
  107.0768  151.2008  -30.7868 H   0  0  0  0  0
  107.4522  153.1226  -32.1985 H   0  0  0  0  0
  110.0276  152.0589  -30.9985 H   0  0  0  0  0
  108.7411  152.9869  -30.1471 H   0  0  0  0  0
  105.6859  149.6040  -34.9318 H   0  0  0  0  0
  110.5052  154.2932  -30.8085 H   0  0  0  0  0
  111.3663  154.4739  -36.7271 H   0  0  0  0  0
  110.8691  151.5386  -37.0846 H   0  0  0  0  0
  109.1587  153.5879  -35.6836 H   0  0  0  0  0
  108.6188  152.0253  -38.1863 H   0  0  0  0  0
  106.5813  152.4785  -37.0091 H   0  0  0  0  0
  106.6717  153.6174  -38.3724 H   0  0  0  0  0
  110.7687  152.8737  -39.2265 H   0  0  0  0  0
  110.7742  154.9876  -40.0948 H   0  0  0  0  0
  113.1995  153.8908  -38.0900 H   0  0  0  0  0
  111.0406  151.6487  -34.7212 H   0  0  0  0  0
  106.1204  154.6488  -36.3871 H   0  0  0  0  0
  103.3621  148.6765  -30.5391 H   0  0  0  0  0
  104.7144  147.7805  -31.5056 H   0  0  0  0  0
  101.8247  147.8356  -31.7472 H   0  0  0  0  0
  103.6269  147.8228  -34.1961 H   0  0  0  0  0
  101.5672  149.8138  -33.1792 H   0  0  0  0  0
  101.6438  149.5961  -35.7484 H   0  0  0  0  0
  102.6835  152.2307  -34.6749 H   0  0  0  0  0
  102.8453  151.9847  -37.1388 H   0  0  0  0  0
  101.7074  153.2516  -36.6174 H   0  0  0  0  0
  100.3292  146.5199  -37.1459 H   0  0  0  0  0
  100.5023  145.0621  -36.1380 H   0  0  0  0  0
   99.6124  146.4737  -35.5165 H   0  0  0  0  0
  100.6468  147.5922  -34.0627 H   0  0  0  0  0
  105.1013  149.5829  -29.9451 H   0  0  0  0  0
  102.3519  145.7738  -32.7410 H   0  0  0  0  0
  103.6040  150.2892  -36.7458 H   0  0  0  0  0
  100.4254  152.7073  -34.5655 H   0  0  0  0  0
  100.8124  151.8715  -38.2587 H   0  0  0  0  0
  1  2  1  0  0  0
 10  1  1  0  0  0
  1 13  1  0  0  0
  2  3  1  0  0  0
  2  9  1  0  0  0
  3  4  1  0  0  0
  3 11  1  0  0  0
  5  4  1  0  0  0
  4 12  1  0  0  0
  5  6  1  0  0  0
 13  5  1  0  0  0
  6 14  1  0  0  0
  7  8  1  0  0  0
  9  7  1  0  0  0
  7 15  2  0  0  0
 19 10  1  0  0  0
 17 16  1  0  0  0
 16 24  1  0  0  0
 16 35  1  0  0  0
 18 17  1  0  0  0
 17 22  1  0  0  0
 18 19  1  0  0  0
 23 18  1  0  0  0
 19 20  1  0  0  0
 20 21  1  0  0  0
 20 24  1  0  0  0
 21 25  1  0  0  0
 39 23  1  0  0  0
 27 26  1  0  0  0
 26 31  1  0  0  0
 26 33  1  0  0  0
 28 27  1  0  0  0
 27 34  1  0  0  0
 28 29  1  0  0  0
 35 28  1  0  0  0
 29 30  1  0  0  0
 29 36  1  0  0  0
 30 37  1  0  0  0
 31 32  1  0  0  0
 36 31  1  0  0  0
 39 38  1  0  0  0
 38 50  2  0  0  0
 38 51  1  0  0  0
 40 39  1  0  0  0
 53 39  1  0  0  0
 41 40  1  0  0  0
 42 41  1  0  0  0
 41 52  1  0  0  0
 42 43  1  0  0  0
 49 42  1  0  0  0
 43 44  1  0  0  0
 43 53  1  0  0  0
 44 45  1  0  0  0
 44 54  1  0  0  0
 45 46  1  0  0  0
 45 55  1  0  0  0
 46 56  1  0  0  0
 47 48  1  0  0  0
 47 49  1  0  0  0
 47 57  2  0  0  0
  1 58  1  0  0  0
  2 59  1  0  0  0
  3 60  1  0  0  0
  4 61  1  0  0  0
  5 62  1  0  0  0
  6 63  1  0  0  0
  6 64  1  0  0  0
  8 65  1  0  0  0
  8 66  1  0  0  0
  8 67  1  0  0  0
  9 68  1  0  0  0
 11 69  1  0  0  0
 12 70  1  0  0  0
 14 71  1  0  0  0
 16 72  1  0  0  0
 17 73  1  0  0  0
 18 74  1  0  0  0
 19 75  1  0  0  0
 20 76  1  0  0  0
 21 77  1  0  0  0
 21 78  1  0  0  0
 22 79  1  0  0  0
 25 80  1  0  0  0
 26 81  1  0  0  0
 27 82  1  0  0  0
 28 83  1  0  0  0
 29 84  1  0  0  0
 30 85  1  0  0  0
 30 86  1  0  0  0
 31 87  1  0  0  0
 32 88  1  0  0  0
 33 89  1  0  0  0
 34 90  1  0  0  0
 37 91  1  0  0  0
 40 92  1  0  0  0
 40 93  1  0  0  0
 41 94  1  0  0  0
 42 95  1  0  0  0
 43 96  1  0  0  0
 44 97  1  0  0  0
 45 98  1  0  0  0
 46 99  1  0  0  0
 46100  1  0  0  0
 48101  1  0  0  0
 48102  1  0  0  0
 48103  1  0  0  0
 49104  1  0  0  0
 51105  1  0  0  0
 52106  1  0  0  0
 54107  1  0  0  0
 55108  1  0  0  0
 56109  1  0  0  0
M  END
$$$$
