6c99_ligand
  -I-interpret- 

 40 43  0  0  0  0  0  0  0  0999 V2000
   -8.1550  -11.8330  161.7760 C   0  0  0  0  0
   -4.5370  -11.6120  161.7020 C   0  0  0  0  0
   -3.5980  -13.7000  165.7910 C   0  0  0  0  0
   -3.0610  -15.4840  164.2380 C   0  0  0  0  0
   -2.4110  -15.6740  166.4530 C   0  0  0  0  0
   -2.9680  -14.4450  166.7740 C   0  0  0  0  0
   -0.0780  -12.6950  163.3410 C   0  0  0  0  0
   -2.3480  -12.1800  162.7170 C   0  0  0  0  0
   -3.7430  -12.4420  162.6880 C   0  0  0  0  0
   -4.3140  -13.4640  163.4080 C   0  0  0  0  0
   -6.4960  -12.7890  162.7270 C   0  0  0  0  0
   -4.1910  -11.9810  160.2550 C   0  0  0  0  0
   -4.2700  -13.2980  159.8280 C   0  0  0  0  0
   -3.9690  -13.6220  158.5010 C   0  0  0  0  0
   -3.5910  -12.6340  157.6140 C   0  0  0  0  0
   -3.5130  -11.3280  158.0340 C   0  0  0  0  0
   -3.8110  -11.0030  159.3570 C   0  0  0  0  0
   -3.6310  -14.2230  164.4770 C   0  0  0  0  0
   -4.0330  -14.8960  158.0510 F   0  0  0  0  0
   -3.1370  -10.3750  157.1570 F   0  0  0  0  0
   -5.6890  -13.5870  163.5020 N   0  0  0  0  0
   -7.7990  -12.7690  162.6510 N   0  0  0  0  0
   -7.0740  -11.2770  161.2770 N   0  0  0  0  0
   -5.9750  -11.8570  161.8910 N   0  0  0  0  0
   -2.4720  -16.1570  165.2150 N   0  0  0  0  0
   -1.4750  -13.0250  163.2940 O   0  0  0  0  0
   -1.9320  -11.1670  162.1780 O   0  0  0  0  0
   -9.1798  -11.5692  161.5145 H   0  0  0  0  0
   -4.2881  -10.5661  161.8817 H   0  0  0  0  0
   -4.0553  -12.7382  166.0232 H   0  0  0  0  0
   -3.1038  -15.9138  163.2372 H   0  0  0  0  0
   -1.9139  -16.2550  167.2298 H   0  0  0  0  0
   -2.9102  -14.0673  167.7949 H   0  0  0  0  0
    0.3007  -12.5777  162.3256 H   0  0  0  0  0
    0.0556  -11.7628  163.8899 H   0  0  0  0  0
    0.4663  -13.4949  163.8430 H   0  0  0  0  0
   -4.5666  -14.0806  160.5264 H   0  0  0  0  0
   -3.3546  -12.8897  156.5811 H   0  0  0  0  0
   -3.7433   -9.9660  159.6858 H   0  0  0  0  0
   -6.1010  -14.2656  164.1424 H   0  0  0  0  0
 22  1  4  0  0  0
  1 23  4  0  0  0
  9  2  1  0  0  0
  2 12  1  0  0  0
  2 24  1  0  0  0
  3  6  4  0  0  0
 18  3  4  0  0  0
 18  4  4  0  0  0
  4 25  4  0  0  0
  6  5  4  0  0  0
 25  5  4  0  0  0
 26  7  1  0  0  0
  9  8  1  0  0  0
  8 26  1  0  0  0
  8 27  2  0  0  0
 10  9  2  0  0  0
 10 18  1  0  0  0
 21 10  1  0  0  0
 11 21  1  0  0  0
 11 22  4  0  0  0
 11 24  4  0  0  0
 12 13  4  0  0  0
 12 17  4  0  0  0
 13 14  4  0  0  0
 14 15  4  0  0  0
 14 19  1  0  0  0
 15 16  4  0  0  0
 16 17  4  0  0  0
 16 20  1  0  0  0
 23 24  4  0  0  0
  1 28  1  0  0  0
  2 29  1  0  0  0
  3 30  1  0  0  0
  4 31  1  0  0  0
  5 32  1  0  0  0
  6 33  1  0  0  0
  7 34  1  0  0  0
  7 35  1  0  0  0
  7 36  1  0  0  0
 13 37  1  0  0  0
 15 38  1  0  0  0
 17 39  1  0  0  0
 21 40  1  0  0  0
M  END
$$$$
