1zp5_ligand
  -I-interpret- 

 40 41  0  0  0  0  0  0  0  0999 V2000
   -2.9740   22.8540    8.2950 C   0  0  0  0  0
   -3.3910   23.2990    9.5870 C   0  0  0  0  0
   -2.6530   22.9260   10.7680 C   0  0  0  0  0
   -1.4870   22.0970   10.6060 C   0  0  0  0  0
   -1.0710   21.6490    9.3090 C   0  0  0  0  0
   -1.8140   22.0220    8.1290 C   0  0  0  0  0
   -1.3910   21.5410    6.7540 C   0  0  0  0  0
   -0.3690   20.5280    6.6060 C   0  0  0  0  0
    0.0180   20.0600    5.3090 C   0  0  0  0  0
   -0.6100   20.5980    4.1370 C   0  0  0  0  0
   -1.6180   21.6040    4.2600 C   0  0  0  0  0
   -2.0070   22.0720    5.5520 C   0  0  0  0  0
   -0.2160   20.1060    2.8140 C   0  0  0  0  0
    0.0740   19.6960    1.7790 N   0  0  0  0  0
   -3.0860   23.3680   12.0860 O   0  0  0  0  0
   -3.7560   24.6570   12.1150 C   0  0  0  0  0
   -2.8750   25.8140   12.5920 C   0  0  0  0  0
   -3.4620   27.1780   12.1430 N   0  0  0  0  0
   -3.9890   27.8210   13.3900 C   0  0  0  0  0
   -2.3340   27.9090   11.5260 C   0  0  0  0  0
   -2.4710   29.1400   11.3990 O   0  0  0  0  0
   -1.1370   27.2530   11.0780 N   0  0  0  0  0
   -1.1470   26.1930   10.0580 O   0  0  0  0  0
   -3.5475   23.1516    7.4171 H   0  0  0  0  0
   -4.2767   23.9273    9.6808 H   0  0  0  0  0
   -0.9109   21.8051   11.4840 H   0  0  0  0  0
   -0.1854   21.0209    9.2132 H   0  0  0  0  0
    0.1126   20.1157    7.4927 H   0  0  0  0  0
    0.7891   19.2957    5.2126 H   0  0  0  0  0
   -2.0900   22.0142    3.3672 H   0  0  0  0  0
   -2.7772   22.8386    5.6365 H   0  0  0  0  0
   -4.5836   24.5725   12.8193 H   0  0  0  0  0
   -4.0584   24.8844   11.0928 H   0  0  0  0  0
   -1.8815   25.7000   12.1584 H   0  0  0  0  0
   -2.8286   25.7936   13.6808 H   0  0  0  0  0
   -4.7561   27.1835   13.8297 H   0  0  0  0  0
   -3.1737   27.9539   14.1012 H   0  0  0  0  0
   -4.4191   28.7916   13.1429 H   0  0  0  0  0
   -0.2441   27.5335   11.4835 H   0  0  0  0  0
   -0.2491   25.8903    9.9039 H   0  0  0  0  0
  1  2  4  0  0  0
  1  6  4  0  0  0
  2  3  4  0  0  0
  3  4  4  0  0  0
  3 15  1  0  0  0
  4  5  4  0  0  0
  5  6  4  0  0  0
  6  7  1  0  0  0
  7  8  4  0  0  0
  7 12  4  0  0  0
  8  9  4  0  0  0
  9 10  4  0  0  0
 10 11  4  0  0  0
 10 13  1  0  0  0
 11 12  4  0  0  0
 13 14  3  0  0  0
 15 16  1  0  0  0
 16 17  1  0  0  0
 17 18  1  0  0  0
 18 19  1  0  0  0
 18 20  1  0  0  0
 20 21  2  0  0  0
 20 22  1  0  0  0
 22 23  1  0  0  0
  1 24  1  0  0  0
  2 25  1  0  0  0
  4 26  1  0  0  0
  5 27  1  0  0  0
  8 28  1  0  0  0
  9 29  1  0  0  0
 11 30  1  0  0  0
 12 31  1  0  0  0
 16 32  1  0  0  0
 16 33  1  0  0  0
 17 34  1  0  0  0
 17 35  1  0  0  0
 19 36  1  0  0  0
 19 37  1  0  0  0
 19 38  1  0  0  0
 22 39  1  0  0  0
 23 40  1  0  0  0
M  END
$$$$
