4pov_ligand
  -I-interpret- 

 32 33  0  0  0  0  0  0  0  0999 V2000
   13.9450   14.5230   41.7640 C   0  0  0  0  0
   14.3000   10.4160   44.3050 N   0  0  0  0  0
   17.4620    9.8950   48.2600 C   0  0  0  0  0
   19.5860    8.0480   48.0880 O   0  0  0  0  0
   19.8030    8.1050   46.7220 C   0  0  0  0  0
   17.5960   10.7000   44.5490 C   0  0  0  0  0
   18.8550    9.5500   44.5600 S   0  0  0  0  0
   18.8410    9.1400   46.1650 C   0  0  0  0  0
   17.8290    9.9350   46.8000 C   0  0  0  0  0
   17.1410   10.8330   45.9000 C   0  0  0  0  0
   16.0170   11.7490   46.3540 C   0  0  0  0  0
   14.6330   11.7790   44.1820 C   0  0  0  0  0
   14.1790   12.4760   43.1190 N   0  0  0  0  0
   14.4790   13.7740   42.9780 C   0  0  0  0  0
   15.2290   14.4320   43.8650 N   0  0  0  0  0
   15.7420   13.8300   44.9440 C   0  0  0  0  0
   15.4440   12.4530   45.1370 C   0  0  0  0  0
   14.3197   14.0528   40.8548 H   0  0  0  0  0
   12.8555   14.4905   41.7689 H   0  0  0  0  0
   14.2790   15.5598   41.8025 H   0  0  0  0  0
   13.7217    9.9662   43.5953 H   0  0  0  0  0
   14.6371    9.8787   45.1038 H   0  0  0  0  0
   17.1274    8.8912   48.5218 H   0  0  0  0  0
   18.3337   10.1568   48.8597 H   0  0  0  0  0
   16.6602   10.6081   48.4514 H   0  0  0  0  0
   20.1785    7.4013   48.4783 H   0  0  0  0  0
   19.6321    7.1315   46.2625 H   0  0  0  0  0
   20.8352    8.3806   46.5057 H   0  0  0  0  0
   17.2110   11.2324   43.6792 H   0  0  0  0  0
   16.4004   12.4841   47.0616 H   0  0  0  0  0
   15.2387   11.1656   46.8458 H   0  0  0  0  0
   16.3668   14.3761   45.6507 H   0  0  0  0  0
 14  1  1  0  0  0
 12  2  1  0  0  0
  9  3  1  0  0  0
  5  4  1  0  0  0
  8  5  1  0  0  0
  6  7  4  0  0  0
 10  6  4  0  0  0
  8  7  4  0  0  0
  9  8  4  0  0  0
 10  9  4  0  0  0
 11 10  1  0  0  0
 17 11  1  0  0  0
 13 12  4  0  0  0
 12 17  4  0  0  0
 13 14  4  0  0  0
 14 15  4  0  0  0
 15 16  4  0  0  0
 16 17  4  0  0  0
  1 18  1  0  0  0
  1 19  1  0  0  0
  1 20  1  0  0  0
  2 21  1  0  0  0
  2 22  1  0  0  0
  3 23  1  0  0  0
  3 24  1  0  0  0
  3 25  1  0  0  0
  4 26  1  0  0  0
  5 27  1  0  0  0
  5 28  1  0  0  0
  6 29  1  0  0  0
 11 30  1  0  0  0
 11 31  1  0  0  0
 16 32  1  0  0  0
M  END
$$$$
