6ajj_ligand
  -I-interpret- 

 48 51  0  0  0  0  0  0  0  0999 V2000
    8.0030    5.1200   17.2780 C   0  0  0  0  0
    8.0780    6.4320   19.3090 C   0  0  0  0  0
    7.6730    7.8300   19.6950 C   0  0  0  0  0
    8.3110    8.1000   21.0270 C   0  0  0  0  0
    7.4940    7.3450   22.0260 C   0  0  0  0  0
    6.2330    8.1180   22.2870 C   0  0  0  0  0
    5.7000    7.6990   23.6420 C   0  0  0  0  0
    6.7550    7.9090   24.7120 C   0  0  0  0  0
    8.0620    7.2240   24.3700 C   0  0  0  0  0
    8.5590    7.6980   23.0270 C   0  0  0  0  0
    7.2920    5.8870   21.6790 C   0  0  0  0  0
    7.9700    5.4080   20.4110 C   0  0  0  0  0
    7.3370    4.6410   16.0060 C   0  0  0  0  0
    6.2680    5.2160   15.3700 C   0  0  0  0  0
    5.9990    4.4570   14.2310 C   0  0  0  0  0
    5.0440    4.5200   13.2050 C   0  0  0  0  0
    5.0410    3.5990   12.2020 C   0  0  0  0  0
    5.9910    2.6100   12.2180 C   0  0  0  0  0
    6.9360    2.5240   13.2100 C   0  0  0  0  0
    6.9160    3.4810   14.2300 C   0  0  0  0  0
    4.1080    5.4730   13.1510 F   0  0  0  0  0
    5.9800    1.7020   11.2270 F   0  0  0  0  0
    7.3140    6.0240   18.1600 N   0  0  0  0  0
    7.7210    3.6080   15.3050 N   0  0  0  0  0
    9.0820    4.7580   17.5360 O   0  0  0  0  0
    9.1426    6.4737   19.0788 H   0  0  0  0  0
    6.5885    7.9223   19.7535 H   0  0  0  0  0
    8.0012    8.5537   18.9489 H   0  0  0  0  0
    8.3280    9.1665   21.2513 H   0  0  0  0  0
    9.3528    7.7799   21.0415 H   0  0  0  0  0
    5.4960    7.9100   21.5113 H   0  0  0  0  0
    6.4383    9.1885   22.2773 H   0  0  0  0  0
    5.4336    6.6426   23.6080 H   0  0  0  0  0
    4.8251    8.3031   23.8821 H   0  0  0  0  0
    6.3825    7.4827   25.6435 H   0  0  0  0  0
    6.9449    8.9791   24.7953 H   0  0  0  0  0
    7.9023    6.1464   24.3326 H   0  0  0  0  0
    8.8031    7.4661   25.1318 H   0  0  0  0  0
    8.7432    8.7723   23.0370 H   0  0  0  0  0
    9.5060    7.2221   22.7722 H   0  0  0  0  0
    6.2214    5.7540   21.5236 H   0  0  0  0  0
    7.7294    5.3136   22.4963 H   0  0  0  0  0
    8.9896    5.1380   20.6861 H   0  0  0  0  0
    7.3600    4.5935   20.0204 H   0  0  0  0  0
    5.7266    6.1045   15.6949 H   0  0  0  0  0
    4.3000    3.6468   11.4041 H   0  0  0  0  0
    7.6829    1.7302   13.2030 H   0  0  0  0  0
    6.3630    6.3487   17.9853 H   0  0  0  0  0
  1 13  1  0  0  0
 23  1  1  0  0  0
  1 25  2  0  0  0
  2  3  1  0  0  0
  2 12  1  0  0  0
  2 23  1  0  0  0
  3  4  1  0  0  0
  4  5  1  0  0  0
  5  6  1  0  0  0
  5 10  1  0  0  0
  5 11  1  0  0  0
  6  7  1  0  0  0
  7  8  1  0  0  0
  8  9  1  0  0  0
  9 10  1  0  0  0
 11 12  1  0  0  0
 13 14  4  0  0  0
 13 24  4  0  0  0
 14 15  4  0  0  0
 15 16  4  0  0  0
 15 20  4  0  0  0
 16 17  4  0  0  0
 16 21  1  0  0  0
 17 18  4  0  0  0
 18 19  4  0  0  0
 18 22  1  0  0  0
 19 20  4  0  0  0
 20 24  4  0  0  0
  2 26  1  0  0  0
  3 27  1  0  0  0
  3 28  1  0  0  0
  4 29  1  0  0  0
  4 30  1  0  0  0
  6 31  1  0  0  0
  6 32  1  0  0  0
  7 33  1  0  0  0
  7 34  1  0  0  0
  8 35  1  0  0  0
  8 36  1  0  0  0
  9 37  1  0  0  0
  9 38  1  0  0  0
 10 39  1  0  0  0
 10 40  1  0  0  0
 11 41  1  0  0  0
 11 42  1  0  0  0
 12 43  1  0  0  0
 12 44  1  0  0  0
 14 45  1  0  0  0
 17 46  1  0  0  0
 19 47  1  0  0  0
 23 48  1  0  0  0
M  END
$$$$
