### 
### Created by X-TOOL on Mon Sep 10 21:13:33 2018
### 

@<TRIPOS>MOLECULE
5jjm_ligand
  120   120     1     0     0
SMALL
GAST_HUCK


@<TRIPOS>ATOM
      1 N         -23.4770  -15.4020  -14.0830 N.4       1 SER         0.2396
      2 CA        -22.6020  -14.3000  -14.5900 C.3       1 SER         0.0885
      3 C         -23.3540  -12.9720  -14.7580 C.2       1 SER         0.2290
      4 O         -24.3980  -12.8780  -15.4640 O.2       1 SER        -0.3906
      5 CB        -21.8490  -14.6690  -15.8820 C.3       1 SER         0.1041
      6 OG        -21.1030  -13.5480  -16.3980 O.3       1 SER        -0.3870
      7 N         -22.7680  -11.9640  -14.0730 N.am      1 LEU        -0.2609
      8 CA        -23.1080  -10.5620  -14.2370 C.3       1 LEU         0.1313
      9 C         -23.0500  -10.1970  -15.7080 C.2       1 LEU         0.2039
     10 O         -24.0670   -9.7620  -16.2950 O.2       1 LEU        -0.3944
     11 CB        -22.1420   -9.6570  -13.4530 C.3       1 LEU        -0.0101
     12 CG        -22.6930   -8.4490  -12.6460 C.3       1 LEU        -0.0425
     13 CD1       -21.6000   -7.5300  -12.1460 C.3       1 LEU        -0.0625
     14 CD2       -23.7510   -7.6020  -13.3640 C.3       1 LEU        -0.0625
     15 N         -21.8720  -10.4190  -16.2990 N.am      1 GLN        -0.2636
     16 CA        -21.6130  -10.0280  -17.6580 C.3       1 GLN         0.1330
     17 C         -22.6660  -10.5110  -18.6790 C.2       1 GLN         0.2042
     18 O         -23.1200   -9.6840  -19.4870 O.2       1 GLN        -0.3944
     19 CB        -20.1750  -10.3860  -18.0440 C.3       1 GLN         0.0045
     20 CG        -19.8100  -10.0720  -19.4770 C.3       1 GLN         0.0412
     21 CD        -19.5240   -8.6030  -19.7400 C.2       1 GLN         0.1737
     22 OE1       -19.4570   -7.7630  -18.8280 O.2       1 GLN        -0.3973
     23 NE2       -19.3250   -8.2890  -21.0130 N.am      1 GLN        -0.3009
     24 N         -23.0860  -11.7900  -18.6260 N.am      1 PHE        -0.2619
     25 CA        -24.1980  -12.2680  -19.5050 C.3       1 PHE         0.1404
     26 C         -25.5720  -11.5340  -19.3550 C.2       1 PHE         0.2060
     27 O         -26.3530  -11.4050  -20.3180 O.2       1 PHE        -0.3942
     28 CB        -24.4170  -13.7990  -19.4600 C.3       1 PHE         0.0214
     29 CG        -25.6840  -14.2390  -20.1960 C.ar      1 PHE        -0.0386
     30 CD1       -26.8890  -14.4840  -19.4950 C.ar      1 PHE        -0.0601
     31 CD2       -25.7180  -14.3210  -21.6030 C.ar      1 PHE        -0.0601
     32 CE1       -28.0660  -14.8430  -20.1880 C.ar      1 PHE        -0.0686
     33 CE2       -26.8910  -14.6760  -22.2900 C.ar      1 PHE        -0.0686
     34 CZ        -28.0630  -14.9410  -21.5880 C.ar      1 PHE        -0.0687
     35 N         -25.8840  -11.0970  -18.1450 N.am      1 LEU        -0.2636
     36 CA        -27.1370  -10.3790  -17.8730 C.3       1 LEU         0.1312
     37 C         -27.0780   -8.9370  -18.4320 C.2       1 LEU         0.2039
     38 O         -28.0250   -8.4490  -19.0840 O.2       1 LEU        -0.3944
     39 CB        -27.3360  -10.3500  -16.3700 C.3       1 LEU        -0.0101
     40 CG        -28.6240  -10.7510  -15.6940 C.3       1 LEU        -0.0425
     41 CD1       -29.3880  -11.9080  -16.3420 C.3       1 LEU        -0.0625
     42 CD2       -28.1720  -11.0820  -14.2720 C.3       1 LEU        -0.0625
     43 N         -25.9540   -8.2620  -18.1680 N.am      1 LEU        -0.2637
     44 CA        -25.6870   -6.9420  -18.7330 C.3       1 LEU         0.1312
     45 C         -25.9120   -6.9810  -20.2520 C.2       1 LEU         0.2034
     46 O         -26.5520   -6.0690  -20.7810 O.2       1 LEU        -0.3944
     47 CB        -24.3040   -6.4250  -18.3490 C.3       1 LEU        -0.0101
     48 CG        -24.1920   -4.9330  -18.6890 C.3       1 LEU        -0.0425
     49 CD1       -25.3650   -4.0880  -18.0960 C.3       1 LEU        -0.0625
     50 CD2       -22.8120   -4.3740  -18.3280 C.3       1 LEU        -0.0625
     51 N         -25.4300   -8.0560  -20.9050 N.am      1 ASP        -0.2679
     52 CA        -25.9700   -8.5540  -22.2020 C.3       1 ASP         0.1057
     53 C         -27.2640   -9.3650  -21.8800 C.2       1 ASP         0.0618
     54 O         -28.0950   -9.6890  -22.7340 O.co2     1 ASP        -0.5665
     55 CB        -24.9760   -9.4900  -22.9140 C.3       1 ASP         0.0351
     56 CG        -23.4830   -9.0760  -22.7280 C.2       1 ASP         0.0387
     57 OD1       -22.5980   -9.9900  -22.6530 O.co2     1 ASP        -0.5688
     58 OD2       -23.1790   -7.8530  -22.6610 O.co2     1 ASP        -0.5688
     59 OXT       -27.5620   -9.7490  -20.7450 O.co2     1 ASP        -0.5665
     60 H1        -22.9346  -16.2467  -13.9918 H         1 SER         0.2016
     61 H2        -24.2328  -15.5564  -14.7318 H         1 SER         0.2016
     62 H3        -23.8532  -15.1456  -13.1837 H         1 SER         0.2016
     63 H4        -21.8374  -14.1344  -13.8168 H         1 SER         0.1122
     64 H5        -22.5773  -14.9928  -16.6400 H         1 SER         0.0640
     65 H6        -21.1527  -15.4930  -15.6669 H         1 SER         0.0640
     66 H7        -20.6517  -13.8081  -17.1924 H         1 SER         0.2099
     67 H8        -22.0556  -12.1990  -13.4118 H         1 LEU         0.1884
     68 H9        -24.1297  -10.3990  -13.8635 H         1 LEU         0.0800
     69 H10       -21.4244   -9.2516  -14.1815 H         1 LEU         0.0315
     70 H11       -21.6124  -10.3025  -12.7369 H         1 LEU         0.0315
     71 H12       -23.1838   -8.8800  -11.7609 H         1 LEU         0.0298
     72 H13       -22.0492   -6.6975  -11.5846 H         1 LEU         0.0232
     73 H14       -21.0351   -7.1324  -13.0020 H         1 LEU         0.0232
     74 H15       -20.9210   -8.0919  -11.4878 H         1 LEU         0.0232
     75 H16       -24.5544   -8.2557  -13.7345 H         1 LEU         0.0232
     76 H17       -23.2865   -7.0759  -14.2110 H         1 LEU         0.0232
     77 H18       -24.1709   -6.8671  -12.6615 H         1 LEU         0.0232
     78 H19       -21.1475  -10.8716  -15.7792 H         1 GLN         0.1883
     79 H20       -21.6722   -8.9297  -17.6752 H         1 GLN         0.0801
     80 H21       -20.0354  -11.4652  -17.8833 H         1 GLN         0.0337
     81 H22       -19.4939   -9.8262  -17.3862 H         1 GLN         0.0337
     82 H23       -20.6460  -10.3813  -20.1215 H         1 GLN         0.0504
     83 H24       -18.9117  -10.6504  -19.7388 H         1 GLN         0.0504
     84 H25       -19.1308   -7.3423  -21.2700 H         1 GLN         0.1814
     85 H26       -19.3692   -8.9989  -21.7159 H         1 GLN         0.1814
     86 H27       -22.6491  -12.4275  -17.9914 H         1 PHE         0.1885
     87 H28       -23.8583  -12.0430  -20.5267 H         1 PHE         0.0823
     88 H29       -24.4950  -14.1121  -18.4084 H         1 PHE         0.0474
     89 H30       -23.5510  -14.2917  -19.9260 H         1 PHE         0.0474
     90 H31       -26.9086  -14.3951  -18.4148 H         1 PHE         0.0557
     91 H32       -24.8183  -14.1052  -22.1678 H         1 PHE         0.0557
     92 H33       -28.9767  -15.0440  -19.6355 H         1 PHE         0.0599
     93 H34       -26.8831  -14.7438  -23.3719 H         1 PHE         0.0599
     94 H35       -28.9662  -15.2208  -22.1182 H         1 PHE         0.0559
     95 H36       -25.2467  -11.2607  -17.3920 H         1 LEU         0.1883
     96 H37       -27.9750  -10.9120  -18.3459 H         1 LEU         0.0800
     97 H38       -27.1446   -9.3118  -16.0611 H         1 LEU         0.0315
     98 H39       -26.5592  -11.0064  -15.9509 H         1 LEU         0.0315
     99 H40       -29.3019   -9.8849  -15.6755 H         1 LEU         0.0298
    100 H41       -30.3037  -12.1104  -15.7670 H         1 LEU         0.0232
    101 H42       -28.7541  -12.8070  -16.3503 H         1 LEU         0.0232
    102 H43       -29.6554  -11.6383  -17.3743 H         1 LEU         0.0232
    103 H44       -27.6296  -10.2229  -13.8504 H         1 LEU         0.0232
    104 H45       -27.5093  -11.9597  -14.2928 H         1 LEU         0.0232
    105 H46       -29.0518  -11.3015  -13.6493 H         1 LEU         0.0232
    106 H47       -25.2732   -8.6752  -17.5632 H         1 LEU         0.1883
    107 H48       -26.4212   -6.2418  -18.3079 H         1 LEU         0.0800
    108 H49       -23.5378   -6.9845  -18.9056 H         1 LEU         0.0315
    109 H50       -24.1487   -6.5657  -17.2692 H         1 LEU         0.0315
    110 H51       -24.2815   -4.8558  -19.7826 H         1 LEU         0.0298
    111 H52       -25.2314   -3.0314  -18.3713 H         1 LEU         0.0232
    112 H53       -25.3685   -4.1838  -17.0002 H         1 LEU         0.0232
    113 H54       -26.3208   -4.4539  -18.4991 H         1 LEU         0.0232
    114 H55       -22.0315   -5.0091  -18.7723 H         1 LEU         0.0232
    115 H56       -22.6960   -4.3616  -17.2342 H         1 LEU         0.0232
    116 H57       -22.7176   -3.3500  -18.7184 H         1 LEU         0.0232
    117 H58       -24.6634   -8.5500  -20.4948 H         1 ASP         0.1876
    118 H59       -26.2046   -7.7022  -22.8573 H         1 ASP         0.0745
    119 H60       -25.2058   -9.4875  -23.9897 H         1 ASP         0.0471
    120 H61       -25.1073  -10.5060  -22.5133 H         1 ASP         0.0471
@<TRIPOS>BOND
     1    1    2 1  
     2    2    3 1  
     3    2    5 1  
     4    3    4 2  
     5    3    7 am 
     6    5    6 1  
     7    7    8 1  
     8    8    9 1  
     9    8   11 1  
    10    9   10 2  
    11    9   15 am 
    12   11   12 1  
    13   12   13 1  
    14   12   14 1  
    15   15   16 1  
    16   16   17 1  
    17   16   19 1  
    18   17   18 2  
    19   17   24 am 
    20   19   20 1  
    21   20   21 1  
    22   21   22 2  
    23   21   23 am 
    24   24   25 1  
    25   25   26 1  
    26   25   28 1  
    27   26   27 2  
    28   26   35 am 
    29   28   29 1  
    30   29   30 ar 
    31   29   31 ar 
    32   30   32 ar 
    33   31   33 ar 
    34   32   34 ar 
    35   33   34 ar 
    36   35   36 1  
    37   36   37 1  
    38   36   39 1  
    39   37   38 2  
    40   37   43 am 
    41   39   40 1  
    42   40   41 1  
    43   40   42 1  
    44   43   44 1  
    45   44   45 1  
    46   44   47 1  
    47   45   46 2  
    48   45   51 am 
    49   47   48 1  
    50   48   49 1  
    51   48   50 1  
    52   51   52 1  
    53   52   53 1  
    54   52   55 1  
    55   53   54 ar 
    56   53   59 ar 
    57   55   56 1  
    58   56   57 ar 
    59   56   58 ar 
    60    1   60 1  
    61    1   61 1  
    62    1   62 1  
    63    2   63 1  
    64    5   64 1  
    65    5   65 1  
    66    6   66 1  
    67    7   67 1  
    68    8   68 1  
    69   11   69 1  
    70   11   70 1  
    71   12   71 1  
    72   13   72 1  
    73   13   73 1  
    74   13   74 1  
    75   14   75 1  
    76   14   76 1  
    77   14   77 1  
    78   15   78 1  
    79   16   79 1  
    80   19   80 1  
    81   19   81 1  
    82   20   82 1  
    83   20   83 1  
    84   23   84 1  
    85   23   85 1  
    86   24   86 1  
    87   25   87 1  
    88   28   88 1  
    89   28   89 1  
    90   30   90 1  
    91   31   91 1  
    92   32   92 1  
    93   33   93 1  
    94   34   94 1  
    95   35   95 1  
    96   36   96 1  
    97   39   97 1  
    98   39   98 1  
    99   40   99 1  
   100   41  100 1  
   101   41  101 1  
   102   41  102 1  
   103   42  103 1  
   104   42  104 1  
   105   42  105 1  
   106   43  106 1  
   107   44  107 1  
   108   47  108 1  
   109   47  109 1  
   110   48  110 1  
   111   49  111 1  
   112   49  112 1  
   113   49  113 1  
   114   50  114 1  
   115   50  115 1  
   116   50  116 1  
   117   51  117 1  
   118   52  118 1  
   119   55  119 1  
   120   55  120 1  
@<TRIPOS>SUBSTRUCTURE
     1 SER         1

