5jjm_ligand
  -I-interpret- 

122122  0  0  0  0  0  0  0  0999 V2000
  -23.4770  -15.4020  -14.0830 N   0  3  0  0  0
  -22.6020  -14.3000  -14.5900 C   0  0  0  0  0
  -23.3540  -12.9720  -14.7580 C   0  0  0  0  0
  -24.3980  -12.8780  -15.4640 O   0  0  0  0  0
  -21.8490  -14.6690  -15.8820 C   0  0  0  0  0
  -21.1030  -13.5480  -16.3980 O   0  0  0  0  0
  -22.7680  -11.9640  -14.0730 N   0  0  0  0  0
  -23.1080  -10.5620  -14.2370 C   0  0  0  0  0
  -23.0500  -10.1970  -15.7080 C   0  0  0  0  0
  -24.0670   -9.7620  -16.2950 O   0  0  0  0  0
  -22.1420   -9.6570  -13.4530 C   0  0  0  0  0
  -22.6930   -8.4490  -12.6460 C   0  0  0  0  0
  -21.6000   -7.5300  -12.1460 C   0  0  0  0  0
  -23.7510   -7.6020  -13.3640 C   0  0  0  0  0
  -21.8720  -10.4190  -16.2990 N   0  0  0  0  0
  -21.6130  -10.0280  -17.6580 C   0  0  0  0  0
  -22.6660  -10.5110  -18.6790 C   0  0  0  0  0
  -23.1200   -9.6840  -19.4870 O   0  0  0  0  0
  -20.1750  -10.3860  -18.0440 C   0  0  0  0  0
  -19.8100  -10.0720  -19.4770 C   0  0  0  0  0
  -19.5240   -8.6030  -19.7400 C   0  0  0  0  0
  -19.4570   -7.7630  -18.8280 O   0  0  0  0  0
  -19.3250   -8.2890  -21.0130 N   0  0  0  0  0
  -23.0860  -11.7900  -18.6260 N   0  0  0  0  0
  -24.1980  -12.2680  -19.5050 C   0  0  0  0  0
  -25.5720  -11.5340  -19.3550 C   0  0  0  0  0
  -26.3530  -11.4050  -20.3180 O   0  0  0  0  0
  -24.4170  -13.7990  -19.4600 C   0  0  0  0  0
  -25.6840  -14.2390  -20.1960 C   0  0  0  0  0
  -26.8890  -14.4840  -19.4950 C   0  0  0  0  0
  -25.7180  -14.3210  -21.6030 C   0  0  0  0  0
  -28.0660  -14.8430  -20.1880 C   0  0  0  0  0
  -26.8910  -14.6760  -22.2900 C   0  0  0  0  0
  -28.0630  -14.9410  -21.5880 C   0  0  0  0  0
  -25.8840  -11.0970  -18.1450 N   0  0  0  0  0
  -27.1370  -10.3790  -17.8730 C   0  0  0  0  0
  -27.0780   -8.9370  -18.4320 C   0  0  0  0  0
  -28.0250   -8.4490  -19.0840 O   0  0  0  0  0
  -27.3360  -10.3500  -16.3700 C   0  0  0  0  0
  -28.6240  -10.7510  -15.6940 C   0  0  0  0  0
  -29.3880  -11.9080  -16.3420 C   0  0  0  0  0
  -28.1720  -11.0820  -14.2720 C   0  0  0  0  0
  -25.9540   -8.2620  -18.1680 N   0  0  0  0  0
  -25.6870   -6.9420  -18.7330 C   0  0  0  0  0
  -25.9120   -6.9810  -20.2520 C   0  0  0  0  0
  -26.5520   -6.0690  -20.7810 O   0  0  0  0  0
  -24.3040   -6.4250  -18.3490 C   0  0  0  0  0
  -24.1920   -4.9330  -18.6890 C   0  0  0  0  0
  -25.3650   -4.0880  -18.0960 C   0  0  0  0  0
  -22.8120   -4.3740  -18.3280 C   0  0  0  0  0
  -25.4300   -8.0560  -20.9050 N   0  0  0  0  0
  -25.9700   -8.5540  -22.2020 C   0  0  0  0  0
  -27.2640   -9.3650  -21.8800 C   0  0  0  0  0
  -28.0950   -9.6890  -22.7340 O   0  0  0  0  0
  -24.9760   -9.4900  -22.9140 C   0  0  0  0  0
  -23.4830   -9.0760  -22.7280 C   0  0  0  0  0
  -22.5980   -9.9900  -22.6530 O   0  0  0  0  0
  -23.1790   -7.8530  -22.6610 O   0  0  0  0  0
  -27.5620   -9.7490  -20.7450 O   0  0  0  0  0
  -23.9458  -15.0972  -13.2299 H   0  0  0  0  0
  -24.1738  -15.6343  -14.7908 H   0  0  0  0  0
  -22.9061  -16.2235  -13.8837 H   0  0  0  0  0
  -21.8529  -14.1576  -13.8111 H   0  0  0  0  0
  -22.5792  -14.9724  -16.6323 H   0  0  0  0  0
  -21.1499  -15.4741  -15.6560 H   0  0  0  0  0
  -20.6469  -13.8109  -17.2008 H   0  0  0  0  0
  -22.0413  -12.2037  -13.3986 H   0  0  0  0  0
  -24.1149  -10.4091  -13.8486 H   0  0  0  0  0
  -21.5078   -9.2080  -14.2174 H   0  0  0  0  0
  -21.7053  -10.3122  -12.6993 H   0  0  0  0  0
  -23.1877   -8.9373  -11.8064 H   0  0  0  0  0
  -20.9279   -8.0880  -11.4940 H   0  0  0  0  0
  -21.0410   -7.1367  -12.9951 H   0  0  0  0  0
  -22.0464   -6.7056  -11.5900 H   0  0  0  0  0
  -23.3259   -7.1921  -14.2802 H   0  0  0  0  0
  -24.6102   -8.2267  -13.6083 H   0  0  0  0  0
  -24.0662   -6.7874  -12.7120 H   0  0  0  0  0
  -21.1330  -10.8807  -15.7688 H   0  0  0  0  0
  -21.7150   -8.9436  -17.7004 H   0  0  0  0  0
  -20.0714  -11.4638  -17.9186 H   0  0  0  0  0
  -19.5182   -9.7894  -17.4109 H   0  0  0  0  0
  -20.6647  -10.3485  -20.0943 H   0  0  0  0  0
  -18.8973  -10.6228  -19.7042 H   0  0  0  0  0
  -19.1077   -7.3269  -21.2730 H   0  0  0  0  0
  -19.3893   -9.0095  -21.7321 H   0  0  0  0  0
  -22.6404  -12.4402  -17.9787 H   0  0  0  0  0
  -23.8171  -11.9908  -20.4879 H   0  0  0  0  0
  -24.5200  -14.0907  -18.4148 H   0  0  0  0  0
  -23.5656  -14.2723  -19.9491 H   0  0  0  0  0
  -26.9087  -14.3946  -18.4088 H   0  0  0  0  0
  -24.8133  -14.1040  -22.1710 H   0  0  0  0  0
  -28.9818  -15.0451  -19.6325 H   0  0  0  0  0
  -26.8830  -14.7442  -23.3778 H   0  0  0  0  0
  -28.9712  -15.2224  -22.1211 H   0  0  0  0  0
  -25.2339  -11.2640  -17.3769 H   0  0  0  0  0
  -27.9697  -10.8858  -18.3607 H   0  0  0  0  0
  -27.2551   -9.2892  -16.1329 H   0  0  0  0  0
  -26.6295  -11.1003  -16.0151 H   0  0  0  0  0
  -29.3605   -9.9503  -15.7608 H   0  0  0  0  0
  -29.6523  -11.6395  -17.3648 H   0  0  0  0  0
  -28.7589  -12.7981  -16.3497 H   0  0  0  0  0
  -30.2950  -12.1075  -15.7714 H   0  0  0  0  0
  -27.4431  -11.8918  -14.3031 H   0  0  0  0  0
  -27.7175  -10.1994  -13.8219 H   0  0  0  0  0
  -29.0342  -11.3899  -13.6805 H   0  0  0  0  0
  -25.2596   -8.6835  -17.5511 H   0  0  0  0  0
  -26.3885   -6.2246  -18.3073 H   0  0  0  0  0
  -23.5463   -6.9783  -18.9039 H   0  0  0  0  0
  -24.1532   -6.5623  -17.2783 H   0  0  0  0  0
  -24.2917   -4.8467  -19.7710 H   0  0  0  0  0
  -26.3115   -4.4515  -18.4962 H   0  0  0  0  0
  -25.3674   -4.1838  -17.0102 H   0  0  0  0  0
  -25.2315   -3.0413  -18.3694 H   0  0  0  0  0
  -22.6397   -4.4976  -17.2588 H   0  0  0  0  0
  -22.0459   -4.9129  -18.8855 H   0  0  0  0  0
  -22.7721   -3.3152  -18.5837 H   0  0  0  0  0
  -24.6480   -8.5598  -20.4866 H   0  0  0  0  0
  -26.1611   -7.7054  -22.8588 H   0  0  0  0  0
  -27.8126   -9.3654  -23.5926 H   0  0  0  0  0
  -25.1956   -9.4486  -23.9808 H   0  0  0  0  0
  -25.0956  -10.4832  -22.4811 H   0  0  0  0  0
  -23.0202  -10.8493  -22.7235 H   0  0  0  0  0
  1  2  1  0  0  0
  2  3  1  0  0  0
  2  5  1  0  0  0
  3  4  2  0  0  0
  3  7  1  0  0  0
  5  6  1  0  0  0
  7  8  1  0  0  0
  8  9  1  0  0  0
  8 11  1  0  0  0
  9 10  2  0  0  0
  9 15  1  0  0  0
 11 12  1  0  0  0
 12 13  1  0  0  0
 12 14  1  0  0  0
 15 16  1  0  0  0
 16 17  1  0  0  0
 16 19  1  0  0  0
 17 18  2  0  0  0
 17 24  1  0  0  0
 19 20  1  0  0  0
 20 21  1  0  0  0
 21 22  2  0  0  0
 21 23  1  0  0  0
 24 25  1  0  0  0
 25 26  1  0  0  0
 25 28  1  0  0  0
 26 27  2  0  0  0
 26 35  1  0  0  0
 28 29  1  0  0  0
 29 30  4  0  0  0
 29 31  4  0  0  0
 30 32  4  0  0  0
 31 33  4  0  0  0
 32 34  4  0  0  0
 33 34  4  0  0  0
 35 36  1  0  0  0
 36 37  1  0  0  0
 36 39  1  0  0  0
 37 38  2  0  0  0
 37 43  1  0  0  0
 39 40  1  0  0  0
 40 41  1  0  0  0
 40 42  1  0  0  0
 43 44  1  0  0  0
 44 45  1  0  0  0
 44 47  1  0  0  0
 45 46  2  0  0  0
 45 51  1  0  0  0
 47 48  1  0  0  0
 48 49  1  0  0  0
 48 50  1  0  0  0
 51 52  1  0  0  0
 52 53  1  0  0  0
 52 55  1  0  0  0
 53 54  1  0  0  0
 53 59  2  0  0  0
 55 56  1  0  0  0
 56 57  1  0  0  0
 56 58  2  0  0  0
  1 60  1  0  0  0
  1 61  1  0  0  0
  1 62  1  0  0  0
  2 63  1  0  0  0
  5 64  1  0  0  0
  5 65  1  0  0  0
  6 66  1  0  0  0
  7 67  1  0  0  0
  8 68  1  0  0  0
 11 69  1  0  0  0
 11 70  1  0  0  0
 12 71  1  0  0  0
 13 72  1  0  0  0
 13 73  1  0  0  0
 13 74  1  0  0  0
 14 75  1  0  0  0
 14 76  1  0  0  0
 14 77  1  0  0  0
 15 78  1  0  0  0
 16 79  1  0  0  0
 19 80  1  0  0  0
 19 81  1  0  0  0
 20 82  1  0  0  0
 20 83  1  0  0  0
 23 84  1  0  0  0
 23 85  1  0  0  0
 24 86  1  0  0  0
 25 87  1  0  0  0
 28 88  1  0  0  0
 28 89  1  0  0  0
 30 90  1  0  0  0
 31 91  1  0  0  0
 32 92  1  0  0  0
 33 93  1  0  0  0
 34 94  1  0  0  0
 35 95  1  0  0  0
 36 96  1  0  0  0
 39 97  1  0  0  0
 39 98  1  0  0  0
 40 99  1  0  0  0
 41100  1  0  0  0
 41101  1  0  0  0
 41102  1  0  0  0
 42103  1  0  0  0
 42104  1  0  0  0
 42105  1  0  0  0
 43106  1  0  0  0
 44107  1  0  0  0
 47108  1  0  0  0
 47109  1  0  0  0
 48110  1  0  0  0
 49111  1  0  0  0
 49112  1  0  0  0
 49113  1  0  0  0
 50114  1  0  0  0
 50115  1  0  0  0
 50116  1  0  0  0
 51117  1  0  0  0
 52118  1  0  0  0
 54119  1  0  0  0
 55120  1  0  0  0
 55121  1  0  0  0
 57122  1  0  0  0
M  END
$$$$
