4ntj_ligand
  -I-interpret- 

 59 61  0  0  0  0  0  0  0  0999 V2000
   15.9210   94.1750   57.3890 C   0  0  0  0  0
   13.7710  100.3390   55.7690 C   0  0  0  0  0
   18.7320   97.5250   52.1240 N   0  0  0  0  0
   19.3140  103.0570   48.9460 O   0  0  0  0  0
   13.9550   97.9480   57.2890 O   0  0  0  0  0
   17.2190  106.0380   46.4550 O   0  0  0  0  0
   19.1540  105.9810   48.0450 O   0  0  0  0  0
   17.8800   97.9800   52.7570 C   0  0  0  0  0
   17.5640  101.5630   43.1690 C   0  0  0  0  0
   18.0810  102.7790   42.7150 C   0  0  0  0  0
   17.6190  101.2490   44.5310 C   0  0  0  0  0
   18.6560  103.6760   43.6240 C   0  0  0  0  0
   18.1880  102.1480   45.4390 C   0  0  0  0  0
   16.3670   97.8880   54.6700 C   0  0  0  0  0
   15.0310   95.2870   56.8260 C   0  0  0  0  0
   17.0380  102.9050   51.1080 C   0  0  0  0  0
   17.5770  100.7870   49.7120 C   0  0  0  0  0
   16.1740  102.0070   51.9960 C   0  0  0  0  0
   16.6730   99.9840   50.6710 C   0  0  0  0  0
   19.3190  104.2820   45.8810 C   0  0  0  0  0
   15.2540  100.2950   53.9820 N   0  0  0  0  0
   17.4270  104.0470   48.0910 N   0  0  0  0  0
   15.7140   96.5520   56.8950 O   0  0  0  0  0
   18.0870  103.1560   48.8540 C   0  0  0  0  0
   14.9350   97.6440   56.6050 C   0  0  0  0  0
   14.7980   99.6680   55.0910 C   0  0  0  0  0
   18.6840  103.3830   44.9960 C   0  0  0  0  0
   16.8140   98.5660   53.5360 C   0  0  0  0  0
   15.3500   98.4110   55.4850 C   0  0  0  0  0
   16.2130   99.7860   53.1770 C   0  0  0  0  0
   17.1430  102.2920   49.6980 C   0  0  0  0  0
   16.7030  100.6040   52.0280 N   0  0  0  0  0
   18.2510  105.1280   47.1410 S   0  0  0  0  0
   16.8405   94.1173   56.8065 H   0  0  0  0  0
   16.1615   94.3954   58.4290 H   0  0  0  0  0
   15.3922   93.2236   57.3308 H   0  0  0  0  0
   14.1270  101.3190   56.0869 H   0  0  0  0  0
   12.9164  100.4598   55.1033 H   0  0  0  0  0
   13.4738   99.7582   56.6422 H   0  0  0  0  0
   17.1190  100.8610   42.4638 H   0  0  0  0  0
   18.0369  103.0292   41.6550 H   0  0  0  0  0
   17.2169  100.3001   44.8861 H   0  0  0  0  0
   19.0857  104.6102   43.2624 H   0  0  0  0  0
   18.2463  101.8876   46.4958 H   0  0  0  0  0
   16.8175   96.9300   54.9296 H   0  0  0  0  0
   14.1149   95.3433   57.4139 H   0  0  0  0  0
   14.7964   95.0641   55.7851 H   0  0  0  0  0
   18.0348  102.9904   51.5406 H   0  0  0  0  0
   16.5824  103.8929   51.0401 H   0  0  0  0  0
   17.4839  100.3782   48.7059 H   0  0  0  0  0
   18.6106  100.7157   50.0506 H   0  0  0  0  0
   15.1622  101.9878   51.5911 H   0  0  0  0  0
   16.1859  102.4062   53.0102 H   0  0  0  0  0
   17.0351   98.9579   50.7345 H   0  0  0  0  0
   15.6505   99.9901   50.2936 H   0  0  0  0  0
   19.7244  105.0769   45.2550 H   0  0  0  0  0
   20.0309  103.6840   46.4500 H   0  0  0  0  0
   16.4071  104.0574   48.0972 H   0  0  0  0  0
   16.1500  102.2913   49.2485 H   0  0  0  0  0
 15  1  1  0  0  0
 26  2  1  0  0  0
  8  3  3  0  0  0
 24  4  2  0  0  0
 25  5  2  0  0  0
 33  6  2  0  0  0
 33  7  2  0  0  0
 28  8  1  0  0  0
 10  9  4  0  0  0
 11  9  4  0  0  0
 12 10  4  0  0  0
 13 11  4  0  0  0
 27 12  4  0  0  0
 27 13  4  0  0  0
 28 14  4  0  0  0
 14 29  4  0  0  0
 23 15  1  0  0  0
 18 16  1  0  0  0
 16 31  1  0  0  0
 19 17  1  0  0  0
 17 31  1  0  0  0
 32 18  1  0  0  0
 32 19  1  0  0  0
 20 27  1  0  0  0
 33 20  1  0  0  0
 21 26  4  0  0  0
 30 21  4  0  0  0
 24 22  1  0  0  0
 22 33  1  0  0  0
 25 23  1  0  0  0
 31 24  1  0  0  0
 29 25  1  0  0  0
 26 29  4  0  0  0
 30 28  4  0  0  0
 30 32  1  0  0  0
  1 34  1  0  0  0
  1 35  1  0  0  0
  1 36  1  0  0  0
  2 37  1  0  0  0
  2 38  1  0  0  0
  2 39  1  0  0  0
  9 40  1  0  0  0
 10 41  1  0  0  0
 11 42  1  0  0  0
 12 43  1  0  0  0
 13 44  1  0  0  0
 14 45  1  0  0  0
 15 46  1  0  0  0
 15 47  1  0  0  0
 16 48  1  0  0  0
 16 49  1  0  0  0
 17 50  1  0  0  0
 17 51  1  0  0  0
 18 52  1  0  0  0
 18 53  1  0  0  0
 19 54  1  0  0  0
 19 55  1  0  0  0
 20 56  1  0  0  0
 20 57  1  0  0  0
 22 58  1  0  0  0
 31 59  1  0  0  0
M  END
$$$$
