5lif_ligand
  -I-interpret- 

 73 74  0  0  0  0  0  0  0  0999 V2000
   17.3760   40.0210  -12.2730 C   0  0  0  0  0
   17.2710   40.6110  -11.0100 C   0  0  0  0  0
   16.0330   41.0300  -10.5350 C   0  0  0  0  0
   13.5420   41.3590  -10.7810 C   0  0  0  0  0
   12.5290   40.5960   -8.8510 C   0  0  0  0  0
   11.8920   39.8530   -6.6690 C   0  0  0  0  0
   10.0010   38.1790   -3.6600 C   0  0  0  0  0
    8.8000   39.0660   -3.8400 C   0  0  0  0  0
   10.3770   38.2050   -2.1550 C   0  0  0  0  0
    9.2670   37.7340   -1.2080 C   0  0  0  0  0
    9.5810   38.1300    0.2410 C   0  0  0  0  0
    7.2790   43.3920   -2.4810 C   0  0  0  0  0
    6.8630   46.0880   -1.3710 C   0  0  0  0  0
    6.3410   44.8400   -0.6360 C   0  0  0  0  0
    7.2980   43.6870   -0.9700 C   0  0  0  0  0
    8.1170   42.1940   -5.2730 C   0  0  0  0  0
   14.8850   40.8800  -11.3150 C   0  0  0  0  0
   11.3840   38.2750   -5.9270 P   0  0  0  0  0
   10.0520   37.8400   -6.5190 O   0  0  0  0  0
   12.4620   37.2590   -6.1250 O   0  0  0  0  0
   11.1850   38.6450   -4.4140 N   0  0  0  0  0
    9.1040   36.2120   -1.3190 C   0  0  0  0  0
    7.6690   38.6080   -3.8150 O   0  0  0  0  0
    9.0750   40.3660   -3.9690 N   0  0  0  0  0
    8.0340   41.3760   -4.0320 C   0  0  0  0  0
    9.3280   42.3770   -5.7710 O   0  0  0  0  0
    7.1230   42.6500   -5.8060 O   0  0  0  0  0
    8.2410   42.2300   -2.7490 C   0  0  0  0  0
    6.9110   45.8430   -2.8940 C   0  0  0  0  0
    7.8020   44.6310   -3.2200 C   0  0  0  0  0
   14.9790   40.3210  -12.5840 C   0  0  0  0  0
   16.2200   39.8860  -13.0550 C   0  0  0  0  0
   13.2090   40.2460   -9.9280 O   0  0  0  0  0
   11.9260   41.6430   -8.7600 O   0  0  0  0  0
   12.6060   39.6410   -7.9080 N   0  0  0  0  0
   18.3399   39.6719  -12.6435 H   0  0  0  0  0
   18.1618   40.7430  -10.3959 H   0  0  0  0  0
   15.9583   41.4795   -9.5448 H   0  0  0  0  0
   12.8009   41.5786  -11.5496 H   0  0  0  0  0
   13.5735   42.3241  -10.2753 H   0  0  0  0  0
   12.5509   40.3699   -5.9713 H   0  0  0  0  0
   10.9996   40.4430   -6.8778 H   0  0  0  0  0
    9.7380   37.1868   -4.0266 H   0  0  0  0  0
   10.5920   39.2427   -1.9000 H   0  0  0  0  0
   11.2153   37.5204   -2.0259 H   0  0  0  0  0
    8.3339   38.2179   -1.4965 H   0  0  0  0  0
   10.5215   37.6712    0.5460 H   0  0  0  0  0
    9.6652   39.2146    0.3098 H   0  0  0  0  0
    8.7786   37.7845    0.8928 H   0  0  0  0  0
    6.2712   43.1448   -2.8148 H   0  0  0  0  0
    7.8700   46.3099   -1.0176 H   0  0  0  0  0
    6.1917   46.9227   -1.1691 H   0  0  0  0  0
    5.3259   44.6023   -0.9542 H   0  0  0  0  0
    6.3070   45.0128    0.4397 H   0  0  0  0  0
    8.3091   43.9694   -0.6767 H   0  0  0  0  0
    6.9798   42.7948   -0.4307 H   0  0  0  0  0
    9.3963   38.5242   -6.3658 H   0  0  0  0  0
   11.8853   39.2174   -3.9424 H   0  0  0  0  0
    8.8410   35.9498   -2.3438 H   0  0  0  0  0
   10.0415   35.7267   -1.0476 H   0  0  0  0  0
    8.3141   35.8823   -0.6441 H   0  0  0  0  0
   10.0502   40.6598   -4.0252 H   0  0  0  0  0
    7.0387   40.9333   -4.0702 H   0  0  0  0  0
    9.9731   41.9418   -5.2088 H   0  0  0  0  0
    8.0911   41.5389   -1.9195 H   0  0  0  0  0
    9.2204   42.6930   -2.8699 H   0  0  0  0  0
    7.3243   46.7263   -3.3809 H   0  0  0  0  0
    5.9006   45.6450   -3.2519 H   0  0  0  0  0
    7.7826   44.4464   -4.2941 H   0  0  0  0  0
    8.8239   44.8374   -2.9017 H   0  0  0  0  0
   14.0903   40.2227  -13.2075 H   0  0  0  0  0
   16.2908   39.4351  -14.0448 H   0  0  0  0  0
   13.1514   38.7929   -8.0620 H   0  0  0  0  0
  2  1  4  0  0  0
  1 32  4  0  0  0
  3  2  4  0  0  0
 17  3  4  0  0  0
  4 17  1  0  0  0
 33  4  1  0  0  0
  5 33  1  0  0  0
  5 34  2  0  0  0
 35  5  1  0  0  0
 18  6  1  0  0  0
  6 35  1  0  0  0
  8  7  1  0  0  0
  7  9  1  0  0  0
  7 21  1  0  0  0
  8 23  2  0  0  0
 24  8  1  0  0  0
  9 10  1  0  0  0
 10 11  1  0  0  0
 10 22  1  0  0  0
 12 15  1  0  0  0
 28 12  1  0  0  0
 12 30  1  0  0  0
 14 13  1  0  0  0
 13 29  1  0  0  0
 15 14  1  0  0  0
 25 16  1  0  0  0
 16 26  1  0  0  0
 16 27  2  0  0  0
 17 31  4  0  0  0
 18 19  1  0  0  0
 18 20  2  0  0  0
 21 18  1  0  0  0
 25 24  1  0  0  0
 25 28  1  0  0  0
 29 30  1  0  0  0
 31 32  4  0  0  0
  1 36  1  0  0  0
  2 37  1  0  0  0
  3 38  1  0  0  0
  4 39  1  0  0  0
  4 40  1  0  0  0
  6 41  1  0  0  0
  6 42  1  0  0  0
  7 43  1  0  0  0
  9 44  1  0  0  0
  9 45  1  0  0  0
 10 46  1  0  0  0
 11 47  1  0  0  0
 11 48  1  0  0  0
 11 49  1  0  0  0
 12 50  1  0  0  0
 13 51  1  0  0  0
 13 52  1  0  0  0
 14 53  1  0  0  0
 14 54  1  0  0  0
 15 55  1  0  0  0
 15 56  1  0  0  0
 19 57  1  0  0  0
 21 58  1  0  0  0
 22 59  1  0  0  0
 22 60  1  0  0  0
 22 61  1  0  0  0
 24 62  1  0  0  0
 25 63  1  0  0  0
 26 64  1  0  0  0
 28 65  1  0  0  0
 28 66  1  0  0  0
 29 67  1  0  0  0
 29 68  1  0  0  0
 30 69  1  0  0  0
 30 70  1  0  0  0
 31 71  1  0  0  0
 32 72  1  0  0  0
 35 73  1  0  0  0
M  END
$$$$
