6ufo_ligand
  -I-interpret- 

 44 43  0  0  0  0  0  0  0  0999 V2000
  -24.6410  -40.3310   36.0380 C   0  0  0  0  0
  -25.8750  -39.9250   35.1800 C   0  0  0  0  0
  -28.1340  -40.6730   34.4000 C   0  0  0  0  0
  -29.1790  -39.5410   34.6180 C   0  0  0  0  0
  -30.5570  -40.0420   35.1500 C   0  0  0  0  0
  -16.8520  -40.7910   35.3000 C   0  0  0  0  0
  -18.7140  -41.6180   34.2190 C   0  0  0  0  0
  -19.8990  -40.5770   34.0730 C   0  0  0  0  0
  -20.8570  -41.0250   35.1950 C   0  0  0  0  0
  -22.1220  -40.1410   35.3100 C   0  0  0  0  0
  -23.4610  -40.9200   35.2200 C   0  0  0  0  0
  -27.1050  -40.7190   35.4920 N   0  3  0  0  0
  -30.9300  -39.3930   36.4310 N   0  3  0  0  0
  -18.0970  -41.3930   35.4470 O   0  0  0  0  0
  -20.4440  -40.6700   32.8020 O   0  0  0  0  0
  -19.4730  -39.2800   34.3300 O   0  0  0  0  0
  -24.9716  -41.1068   36.7286 H   0  0  0  0  0
  -24.2753  -39.4258   36.5226 H   0  0  0  0  0
  -25.6227  -40.1078   34.1355 H   0  0  0  0  0
  -26.0956  -38.8798   35.3966 H   0  0  0  0  0
  -27.6190  -40.4802   33.4589 H   0  0  0  0  0
  -28.6641  -41.6254   34.3955 H   0  0  0  0  0
  -29.3571  -39.0749   33.6489 H   0  0  0  0  0
  -28.7700  -38.8640   35.3680 H   0  0  0  0  0
  -30.4853  -41.1161   35.3212 H   0  0  0  0  0
  -31.3177  -39.7948   34.4095 H   0  0  0  0  0
  -16.2054  -41.4369   34.7060 H   0  0  0  0  0
  -16.9709  -39.8316   34.7965 H   0  0  0  0  0
  -16.4073  -40.6343   36.2827 H   0  0  0  0  0
  -17.9976  -41.4915   33.4073 H   0  0  0  0  0
  -19.0979  -42.6370   34.1700 H   0  0  0  0  0
  -20.3165  -40.9506   36.1386 H   0  0  0  0  0
  -21.1838  -42.0388   34.9636 H   0  0  0  0  0
  -22.1014  -39.4438   34.4724 H   0  0  0  0  0
  -22.0930  -39.6684   36.2918 H   0  0  0  0  0
  -23.7657  -40.8888   34.1739 H   0  0  0  0  0
  -23.2681  -41.9120   35.6283 H   0  0  0  0  0
  -27.5265  -40.3182   36.3299 H   0  0  0  0  0
  -26.8225  -41.6921   35.6087 H   0  0  0  0  0
  -31.8343  -39.7491   36.7405 H   0  0  0  0  0
  -30.2221  -39.6014   37.1351 H   0  0  0  0  0
  -30.9891  -38.3838   36.2949 H   0  0  0  0  0
  -20.7319  -41.5720   32.6437 H   0  0  0  0  0
  -19.0994  -39.2362   35.2132 H   0  0  0  0  0
  1  2  1  0  0  0
 11  1  1  0  0  0
  2 12  1  0  0  0
  3  4  1  0  0  0
 12  3  1  0  0  0
  4  5  1  0  0  0
  5 13  1  0  0  0
 14  6  1  0  0  0
  8  7  1  0  0  0
  7 14  1  0  0  0
  9  8  1  0  0  0
  8 15  1  0  0  0
  8 16  1  0  0  0
 10  9  1  0  0  0
 10 11  1  0  0  0
  1 17  1  0  0  0
  1 18  1  0  0  0
  2 19  1  0  0  0
  2 20  1  0  0  0
  3 21  1  0  0  0
  3 22  1  0  0  0
  4 23  1  0  0  0
  4 24  1  0  0  0
  5 25  1  0  0  0
  5 26  1  0  0  0
  6 27  1  0  0  0
  6 28  1  0  0  0
  6 29  1  0  0  0
  7 30  1  0  0  0
  7 31  1  0  0  0
  9 32  1  0  0  0
  9 33  1  0  0  0
 10 34  1  0  0  0
 10 35  1  0  0  0
 11 36  1  0  0  0
 11 37  1  0  0  0
 12 38  1  0  0  0
 12 39  1  0  0  0
 13 40  1  0  0  0
 13 41  1  0  0  0
 13 42  1  0  0  0
 15 43  1  0  0  0
 16 44  1  0  0  0
M  END
$$$$
