2r0z_ligand
  -I-interpret- 

108109  0  0  0  0  0  0  0  0999 V2000
  -10.9960   12.8400   23.8020 N   0  3  0  0  0
  -10.7420   13.5570   25.0880 C   0  0  0  0  0
   -9.3660   14.2250   25.1060 C   0  0  0  0  0
   -8.4790   13.8890   24.3080 O   0  0  0  0  0
  -10.8870   12.6050   26.2780 C   0  0  0  0  0
   -9.1930   15.1840   26.0120 N   0  0  0  0  0
   -7.8700   15.7560   26.2280 C   0  0  0  0  0
   -7.2820   15.4290   27.5940 C   0  0  0  0  0
   -8.0020   15.1460   28.5560 O   0  0  0  0  0
   -7.8250   17.2650   25.9390 C   0  0  0  0  0
   -8.9730   18.0980   26.4740 C   0  0  0  0  0
   -8.8860   19.5120   25.9110 C   0  0  0  0  0
   -8.6670   19.5320   24.3960 C   0  0  0  0  0
   -8.6320   20.9320   23.8660 N   0  3  0  0  0
   -5.9540   15.4490   27.6520 N   0  0  0  0  0
   -5.2290   15.1150   28.8660 C   0  0  0  0  0
   -5.4770   16.1660   29.9460 C   0  0  0  0  0
   -5.7910   17.3270   29.6520 O   0  0  0  0  0
   -3.7400   15.0000   28.5550 C   0  0  0  0  0
   -2.9800   14.1530   29.5200 C   0  0  0  0  0
   -3.2840   12.8040   29.6760 C   0  0  0  0  0
   -1.9270   14.6940   30.2540 C   0  0  0  0  0
   -2.5680   12.0090   30.5670 C   0  0  0  0  0
   -1.1970   13.9030   31.1460 C   0  0  0  0  0
   -1.5220   12.5580   31.2990 C   0  0  0  0  0
   -5.3270   15.7420   31.1970 N   0  0  0  0  0
   -5.5760   16.5950   32.3410 C   0  0  0  0  0
   -4.4760   17.6530   32.5470 C   0  0  0  0  0
   -3.2960   17.3260   32.7090 O   0  0  0  0  0
   -5.7500   15.7180   33.5780 C   0  0  0  0  0
   -6.2920   16.4340   34.7900 C   0  0  0  0  0
   -6.8130   15.4440   35.7870 C   0  0  0  0  0
   -7.0220   16.0750   37.0820 N   0  0  0  0  0
   -7.4010   15.4250   38.1830 C   0  0  0  0  0
   -7.6080   14.1200   38.1410 N   0  0  0  0  0
   -7.5700   16.0810   39.3260 N   0  0  0  0  0
   -4.8770   18.9200   32.5170 N   0  0  0  0  0
   -4.0020   20.0510   32.8410 C   0  0  0  0  0
   -4.8550   21.1230   33.4910 C   0  0  0  0  0
   -5.9790   21.3800   33.0500 O   0  0  0  0  0
   -3.3590   20.6530   31.5920 C   0  0  0  0  0
   -2.4990   19.7030   30.8220 C   0  0  0  0  0
   -1.1810   19.4540   31.1490 N   0  0  0  0  0
   -2.7640   18.9540   29.7250 C   0  0  0  0  0
   -0.6740   18.5890   30.2910 C   0  0  0  0  0
   -1.6140   18.2700   29.4170 N   0  0  0  0  0
   -4.3200   21.7610   34.5230 N   0  0  0  0  0
   -5.0600   22.7960   35.2470 C   0  0  0  0  0
   -5.2040   24.1020   34.4540 C   0  0  0  0  0
   -4.2170   24.6990   34.0150 O   0  0  0  0  0
   -4.4300   23.0500   36.6210 C   0  0  0  0  0
   -4.8700   22.0360   37.6590 C   0  0  0  0  0
   -5.8060   21.2560   37.3800 O   0  0  0  0  0
   -4.2890   22.0270   38.7650 O   0  0  0  0  0
   -6.3220   24.5850   34.2340 O   0  0  0  0  0
  -10.8941   13.4923   23.0245 H   0  0  0  0  0
  -10.3240   12.0795   23.6996 H   0  0  0  0  0
  -11.9427   12.4603   23.8070 H   0  0  0  0  0
  -11.4923   14.3431   25.1726 H   0  0  0  0  0
  -10.1169   11.8357   26.2221 H   0  0  0  0  0
  -10.7755   13.1658   27.2060 H   0  0  0  0  0
  -11.8715   12.1381   26.2502 H   0  0  0  0  0
   -9.9877   15.5194   26.5563 H   0  0  0  0  0
   -7.2273   15.2671   25.4958 H   0  0  0  0  0
   -7.8642   17.3632   24.8541 H   0  0  0  0  0
   -6.9285   17.6379   26.4342 H   0  0  0  0  0
   -8.9152   18.1375   27.5618 H   0  0  0  0  0
   -9.9185   17.6465   26.1735 H   0  0  0  0  0
   -8.0349   20.0068   26.3788 H   0  0  0  0  0
   -9.8308   20.0140   26.1193 H   0  0  0  0  0
   -9.4928   19.0029   23.9204 H   0  0  0  0  0
   -7.7107   19.0562   24.1787 H   0  0  0  0  0
   -8.4850   20.9087   22.8569 H   0  0  0  0  0
   -9.5178   21.3942   24.0712 H   0  0  0  0  0
   -7.8694   21.4434   24.3101 H   0  0  0  0  0
   -5.4272   15.7071   26.8176 H   0  0  0  0  0
   -5.5867   14.1572   29.2437 H   0  0  0  0  0
   -3.3208   16.0048   28.6081 H   0  0  0  0  0
   -3.6504   14.5318   27.5748 H   0  0  0  0  0
   -4.0932   12.3640   29.0931 H   0  0  0  0  0
   -1.6693   15.7460   30.1315 H   0  0  0  0  0
   -2.8275   10.9575   30.6902 H   0  0  0  0  0
   -0.3775   14.3371   31.7188 H   0  0  0  0  0
   -0.9563   11.9358   31.9926 H   0  0  0  0  0
   -5.0255   14.7808   31.3572 H   0  0  0  0  0
   -6.4905   17.1593   32.1581 H   0  0  0  0  0
   -4.7602   15.3481   33.8454 H   0  0  0  0  0
   -6.4724   14.9442   33.3182 H   0  0  0  0  0
   -7.1052   17.0911   34.4818 H   0  0  0  0  0
   -5.4915   17.0143   35.2488 H   0  0  0  0  0
   -6.0831   14.6425   35.9005 H   0  0  0  0  0
   -7.7654   15.0529   35.4290 H   0  0  0  0  0
   -6.8684   17.0809   37.1519 H   0  0  0  0  0
   -7.4778   13.6108   37.2668 H   0  0  0  0  0
   -7.8580   15.5777   40.1651 H   0  0  0  0  0
   -7.4117   17.0879   39.3643 H   0  0  0  0  0
   -5.8432   19.1155   32.2551 H   0  0  0  0  0
   -3.2070   19.6964   33.4970 H   0  0  0  0  0
   -2.7169   21.4688   31.9241 H   0  0  0  0  0
   -4.1695   20.9591   30.9306 H   0  0  0  0  0
   -3.7113   18.9037   29.1881 H   0  0  0  0  0
    0.3454   18.2033   30.3009 H   0  0  0  0  0
   -3.3726   21.5256   34.8187 H   0  0  0  0  0
   -6.0715   22.4152   35.3882 H   0  0  0  0  0
   -4.7477   24.0363   36.9591 H   0  0  0  0  0
   -3.3480   22.9732   36.5139 H   0  0  0  0  0
   -6.1090   21.4286   36.4856 H   0  0  0  0  0
   -6.9946   24.0247   34.6281 H   0  0  0  0  0
  1  2  1  0  0  0
  2  3  1  0  0  0
  2  5  1  0  0  0
  3  4  2  0  0  0
  3  6  1  0  0  0
  6  7  1  0  0  0
  7  8  1  0  0  0
  7 10  1  0  0  0
  8  9  2  0  0  0
  8 15  1  0  0  0
 10 11  1  0  0  0
 11 12  1  0  0  0
 12 13  1  0  0  0
 13 14  1  0  0  0
 15 16  1  0  0  0
 16 17  1  0  0  0
 16 19  1  0  0  0
 17 18  2  0  0  0
 17 26  1  0  0  0
 19 20  1  0  0  0
 20 21  4  0  0  0
 20 22  4  0  0  0
 21 23  4  0  0  0
 22 24  4  0  0  0
 23 25  4  0  0  0
 24 25  4  0  0  0
 26 27  1  0  0  0
 27 28  1  0  0  0
 27 30  1  0  0  0
 28 29  2  0  0  0
 28 37  1  0  0  0
 30 31  1  0  0  0
 31 32  1  0  0  0
 32 33  1  0  0  0
 33 34  1  0  0  0
 34 35  2  0  0  0
 34 36  1  0  0  0
 37 38  1  0  0  0
 38 39  1  0  0  0
 38 41  1  0  0  0
 39 40  2  0  0  0
 39 47  1  0  0  0
 41 42  1  0  0  0
 42 43  4  0  0  0
 42 44  4  0  0  0
 43 45  4  0  0  0
 44 46  4  0  0  0
 45 46  4  0  0  0
 47 48  1  0  0  0
 48 49  1  0  0  0
 48 51  1  0  0  0
 49 50  2  0  0  0
 49 55  1  0  0  0
 51 52  1  0  0  0
 52 53  1  0  0  0
 52 54  2  0  0  0
  1 56  1  0  0  0
  1 57  1  0  0  0
  1 58  1  0  0  0
  2 59  1  0  0  0
  5 60  1  0  0  0
  5 61  1  0  0  0
  5 62  1  0  0  0
  6 63  1  0  0  0
  7 64  1  0  0  0
 10 65  1  0  0  0
 10 66  1  0  0  0
 11 67  1  0  0  0
 11 68  1  0  0  0
 12 69  1  0  0  0
 12 70  1  0  0  0
 13 71  1  0  0  0
 13 72  1  0  0  0
 14 73  1  0  0  0
 14 74  1  0  0  0
 14 75  1  0  0  0
 15 76  1  0  0  0
 16 77  1  0  0  0
 19 78  1  0  0  0
 19 79  1  0  0  0
 21 80  1  0  0  0
 22 81  1  0  0  0
 23 82  1  0  0  0
 24 83  1  0  0  0
 25 84  1  0  0  0
 26 85  1  0  0  0
 27 86  1  0  0  0
 30 87  1  0  0  0
 30 88  1  0  0  0
 31 89  1  0  0  0
 31 90  1  0  0  0
 32 91  1  0  0  0
 32 92  1  0  0  0
 33 93  1  0  0  0
 35 94  1  0  0  0
 36 95  1  0  0  0
 36 96  1  0  0  0
 37 97  1  0  0  0
 38 98  1  0  0  0
 41 99  1  0  0  0
 41100  1  0  0  0
 44101  1  0  0  0
 45102  1  0  0  0
 47103  1  0  0  0
 48104  1  0  0  0
 51105  1  0  0  0
 51106  1  0  0  0
 53107  1  0  0  0
 55108  1  0  0  0
M  END
$$$$
