5izj_ligand
  -I-interpret- 

 99101  0  0  0  0  0  0  0  0999 V2000
   29.1230  -13.5490   86.8300 C   0  0  0  0  0
   29.2370  -15.0370   86.9120 C   0  0  0  0  0
   29.2200  -15.7490   85.6260 C   0  0  0  0  0
   29.1960  -11.1580   90.2770 N   0  0  0  0  0
   29.3580  -15.9800   87.9730 C   0  0  0  0  0
   29.4130  -17.2000   87.3130 C   0  0  0  0  0
   29.0210  -12.9840   85.5980 N   0  0  0  0  0
   29.0270  -13.7140   84.4620 C   0  0  0  0  0
   29.1160  -12.7380   87.9780 N   0  0  0  0  0
   28.1110  -12.9610   89.0220 C   0  0  0  0  0
   30.1150  -11.6780   88.0910 C   0  0  0  0  0
   29.4930  -10.5880   88.9540 C   0  0  0  0  0
   28.7380  -12.5580   90.3560 C   0  0  0  0  0
   29.1240  -15.0590   84.4590 N   0  0  0  0  0
   29.3360  -17.0450   85.9600 N   0  0  0  0  0
   32.8200  -12.2740   99.1280 C   0  0  0  0  0
   33.1990  -13.2950   98.0840 C   0  0  0  0  0
   32.4700  -13.0060   96.7780 C   0  0  0  0  0
   33.2600  -12.0810   95.8660 C   0  0  0  0  0
   32.6430  -12.0410   94.4730 C   0  0  0  0  0
   31.6910  -10.8630   94.3140 C   0  0  0  0  0
   31.2820  -10.6990   92.8590 C   0  0  0  0  0
   29.8000  -10.9930   92.6690 C   0  0  0  0  0
   29.3350  -10.3830   91.3620 C   0  0  0  0  0
   33.6220  -11.3820   99.3610 O   0  0  0  0  0
   29.1020   -9.1820   91.3410 O   0  0  0  0  0
   31.6290  -12.4190   99.7240 N   0  0  0  0  0
   30.9040  -11.3260  100.3730 C   0  0  0  0  0
   29.6810  -11.8460  101.1490 C   0  0  0  0  0
   28.5930  -12.5090  100.2990 C   0  0  0  0  0
   27.5070  -13.1500  101.1600 C   0  0  0  0  0
   26.4860  -12.2000  101.5780 N   0  0  0  0  0
   25.3760  -11.8940  100.8930 C   0  0  0  0  0
   24.5270  -11.0020  101.4050 N   0  0  0  0  0
   25.0900  -12.4490   99.7120 N   0  0  0  0  0
   30.5360  -10.2440   99.3820 C   0  0  0  0  0
   30.2440  -10.5280   98.2130 O   0  0  0  0  0
   30.5640   -8.9960   99.8470 N   0  0  0  0  0
   30.1850   -7.8440   99.0250 C   0  0  0  0  0
   30.8690   -6.5700   99.5170 C   0  0  0  0  0
   31.2200   -5.6710   98.3350 C   0  0  0  0  0
   32.0130   -4.4460   98.7730 C   0  0  0  0  0
   33.4230   -4.5530   98.4290 N   0  0  0  0  0
   34.4230   -4.5850   99.3200 C   0  0  0  0  0
   34.2080   -4.5210  100.6380 N   0  0  0  0  0
   35.6760   -4.6850   98.8790 N   0  0  0  0  0
   28.6920   -7.6680   99.0430 C   0  0  0  0  0
   28.1080   -7.2870   98.0420 O   0  0  0  0  0
   28.0590   -7.9060  100.0590 O   0  0  0  0  0
   29.3978  -15.7893   89.0455 H   0  0  0  0  0
   29.5063  -18.1634   87.8143 H   0  0  0  0  0
   28.9502  -13.1941   83.5071 H   0  0  0  0  0
   27.8092  -14.0082   89.0434 H   0  0  0  0  0
   27.2184  -12.3671   88.8252 H   0  0  0  0  0
   30.3862  -11.2910   87.1088 H   0  0  0  0  0
   31.0343  -12.0542   88.5399 H   0  0  0  0  0
   30.1843   -9.7513   89.0545 H   0  0  0  0  0
   28.5767  -10.2223   88.4907 H   0  0  0  0  0
   27.9984  -12.6554   91.1507 H   0  0  0  0  0
   29.5864  -13.2076   90.5712 H   0  0  0  0  0
   32.9193  -14.2876   98.4371 H   0  0  0  0  0
   34.2741  -13.2469   97.9111 H   0  0  0  0  0
   31.5265  -12.5165   97.0195 H   0  0  0  0  0
   32.3255  -13.9518   96.2559 H   0  0  0  0  0
   34.2820  -12.4520   95.7880 H   0  0  0  0  0
   33.2457  -11.0755   96.2865 H   0  0  0  0  0
   32.0798  -12.9616   94.3196 H   0  0  0  0  0
   33.4463  -11.9350   93.7439 H   0  0  0  0  0
   32.1947   -9.9545   94.6441 H   0  0  0  0  0
   30.7991  -11.0460   94.9133 H   0  0  0  0  0
   31.8568  -11.4003   92.2542 H   0  0  0  0  0
   31.4747   -9.6697   92.5566 H   0  0  0  0  0
   29.2330  -10.5641   93.4952 H   0  0  0  0  0
   29.6407  -12.0711   92.6469 H   0  0  0  0  0
   31.2025  -13.3456   99.7255 H   0  0  0  0  0
   31.5718  -10.8712  101.1046 H   0  0  0  0  0
   29.2204  -10.9776  101.6200 H   0  0  0  0  0
   30.0497  -12.6109  101.8325 H   0  0  0  0  0
   29.0582  -13.2908   99.6987 H   0  0  0  0  0
   28.1287  -11.7414   99.6798 H   0  0  0  0  0
   27.9823  -13.5462  102.0573 H   0  0  0  0  0
   27.0208  -13.9226  100.5643 H   0  0  0  0  0
   26.6281  -11.7262  102.4700 H   0  0  0  0  0
   24.7277  -10.5647  102.3044 H   0  0  0  0  0
   24.2357  -12.1883   99.2195 H   0  0  0  0  0
   25.7260  -13.1334   99.3027 H   0  0  0  0  0
   30.8600   -8.8367  100.8100 H   0  0  0  0  0
   30.5123   -8.0323   98.0025 H   0  0  0  0  0
   31.7836   -6.8374  100.0462 H   0  0  0  0  0
   30.1917   -6.0356  100.1832 H   0  0  0  0  0
   30.2920   -5.3321   97.8744 H   0  0  0  0  0
   31.8314   -6.2441   97.6379 H   0  0  0  0  0
   31.9336   -4.3599   99.8567 H   0  0  0  0  0
   31.6037   -3.5755   98.2603 H   0  0  0  0  0
   33.6670   -4.6075   97.4401 H   0  0  0  0  0
   34.9959   -4.5490  101.2852 H   0  0  0  0  0
   33.2561   -4.4442  100.9963 H   0  0  0  0  0
   35.8616   -4.7358   97.8773 H   0  0  0  0  0
   28.6608   -8.1930  100.7497 H   0  0  0  0  0
  1  2  4  0  0  0
  1  7  4  0  0  0
  9  1  1  0  0  0
  2  3  4  0  0  0
  2  5  4  0  0  0
  3 14  4  0  0  0
  3 15  4  0  0  0
  4 12  1  0  0  0
  4 13  1  0  0  0
 24  4  1  0  0  0
  5  6  4  0  0  0
  6 15  4  0  0  0
  7  8  4  0  0  0
  8 14  4  0  0  0
 10  9  1  0  0  0
 11  9  1  0  0  0
 13 10  1  0  0  0
 12 11  1  0  0  0
 17 16  1  0  0  0
 16 25  2  0  0  0
 16 27  1  0  0  0
 18 17  1  0  0  0
 19 18  1  0  0  0
 20 19  1  0  0  0
 21 20  1  0  0  0
 22 21  1  0  0  0
 23 22  1  0  0  0
 23 24  1  0  0  0
 24 26  2  0  0  0
 27 28  1  0  0  0
 28 29  1  0  0  0
 28 36  1  0  0  0
 29 30  1  0  0  0
 30 31  1  0  0  0
 31 32  1  0  0  0
 32 33  1  0  0  0
 33 34  2  0  0  0
 33 35  1  0  0  0
 36 37  2  0  0  0
 36 38  1  0  0  0
 38 39  1  0  0  0
 39 40  1  0  0  0
 39 47  1  0  0  0
 40 41  1  0  0  0
 41 42  1  0  0  0
 42 43  1  0  0  0
 43 44  1  0  0  0
 44 45  1  0  0  0
 44 46  2  0  0  0
 47 48  2  0  0  0
 47 49  1  0  0  0
  5 50  1  0  0  0
  6 51  1  0  0  0
  8 52  1  0  0  0
 10 53  1  0  0  0
 10 54  1  0  0  0
 11 55  1  0  0  0
 11 56  1  0  0  0
 12 57  1  0  0  0
 12 58  1  0  0  0
 13 59  1  0  0  0
 13 60  1  0  0  0
 17 61  1  0  0  0
 17 62  1  0  0  0
 18 63  1  0  0  0
 18 64  1  0  0  0
 19 65  1  0  0  0
 19 66  1  0  0  0
 20 67  1  0  0  0
 20 68  1  0  0  0
 21 69  1  0  0  0
 21 70  1  0  0  0
 22 71  1  0  0  0
 22 72  1  0  0  0
 23 73  1  0  0  0
 23 74  1  0  0  0
 27 75  1  0  0  0
 28 76  1  0  0  0
 29 77  1  0  0  0
 29 78  1  0  0  0
 30 79  1  0  0  0
 30 80  1  0  0  0
 31 81  1  0  0  0
 31 82  1  0  0  0
 32 83  1  0  0  0
 34 84  1  0  0  0
 35 85  1  0  0  0
 35 86  1  0  0  0
 38 87  1  0  0  0
 39 88  1  0  0  0
 40 89  1  0  0  0
 40 90  1  0  0  0
 41 91  1  0  0  0
 41 92  1  0  0  0
 42 93  1  0  0  0
 42 94  1  0  0  0
 43 95  1  0  0  0
 45 96  1  0  0  0
 45 97  1  0  0  0
 46 98  1  0  0  0
 49 99  1  0  0  0
M  END
$$$$
