3s3v_ligand
  -I-interpret- 

 39 40  0  0  0  0  0  0  0  0999 V2000
   16.4120    5.4590    2.7790 C   0  0  0  0  0
   16.8690    5.9450    3.9240 N   0  0  0  0  0
   17.7980    7.0010    3.9810 C   0  0  0  0  0
   18.1990    7.4510    5.2160 N   0  0  0  0  0
   18.3110    7.4730    2.8510 N   0  0  0  0  0
   17.9410    6.9990    1.6570 C   0  0  0  0  0
   18.4700    7.5740    0.5670 N   0  0  0  0  0
   16.9160    5.9390    1.5660 C   0  0  0  0  0
   16.3050    5.3940    0.3060 C   0  0  0  0  0
   15.1070    6.2160   -0.2030 C   0  0  0  0  0
   13.8970    6.2670    0.5090 C   0  0  0  0  0
   12.8190    7.0650    0.0010 C   0  0  0  0  0
   11.5820    7.1870    0.5260 O   0  0  0  0  0
   11.4560    6.5320    1.8190 C   0  0  0  0  0
   12.8990    7.6560   -1.3040 C   0  0  0  0  0
   11.7470    8.3270   -1.7410 O   0  0  0  0  0
   11.0300    7.5350   -2.7570 C   0  0  0  0  0
   14.1150    7.5150   -2.0070 C   0  0  0  0  0
   14.0980    8.2110   -3.2170 O   0  0  0  0  0
   15.3160    8.0590   -3.9210 C   0  0  0  0  0
   15.2650    6.8440   -1.4940 C   0  0  0  0  0
   15.6438    4.6857    2.7826 H   0  0  0  0  0
   17.8245    7.0211    6.0618 H   0  0  0  0  0
   18.8712    8.2149    5.2869 H   0  0  0  0  0
   19.1301    8.3451    0.6667 H   0  0  0  0  0
   18.2122    7.2402   -0.3617 H   0  0  0  0  0
   15.9427    4.3898    0.5261 H   0  0  0  0  0
   17.0723    5.4208   -0.4677 H   0  0  0  0  0
   13.7789    5.7067    1.4365 H   0  0  0  0  0
   11.6702    5.4689    1.7087 H   0  0  0  0  0
   12.1631    6.9756    2.5200 H   0  0  0  0  0
   10.4407    6.6625    2.1935 H   0  0  0  0  0
   11.6839    7.3667   -3.6127 H   0  0  0  0  0
   10.7366    6.5767   -2.3283 H   0  0  0  0  0
   10.1413    8.0780   -3.0785 H   0  0  0  0  0
   16.1356    8.4428   -3.3135 H   0  0  0  0  0
   15.4825    7.0028   -4.1326 H   0  0  0  0  0
   15.2648    8.6148   -4.8573 H   0  0  0  0  0
   16.2058    6.8076   -2.0432 H   0  0  0  0  0
  1  2  4  0  0  0
  1  8  4  0  0  0
  2  3  4  0  0  0
  3  4  1  0  0  0
  3  5  4  0  0  0
  5  6  4  0  0  0
  6  7  1  0  0  0
  6  8  4  0  0  0
  8  9  1  0  0  0
  9 10  1  0  0  0
 10 11  4  0  0  0
 10 21  4  0  0  0
 11 12  4  0  0  0
 12 13  1  0  0  0
 12 15  4  0  0  0
 13 14  1  0  0  0
 15 16  1  0  0  0
 15 18  4  0  0  0
 16 17  1  0  0  0
 18 19  1  0  0  0
 18 21  4  0  0  0
 19 20  1  0  0  0
  1 22  1  0  0  0
  4 23  1  0  0  0
  4 24  1  0  0  0
  7 25  1  0  0  0
  7 26  1  0  0  0
  9 27  1  0  0  0
  9 28  1  0  0  0
 11 29  1  0  0  0
 14 30  1  0  0  0
 14 31  1  0  0  0
 14 32  1  0  0  0
 17 33  1  0  0  0
 17 34  1  0  0  0
 17 35  1  0  0  0
 20 36  1  0  0  0
 20 37  1  0  0  0
 20 38  1  0  0  0
 21 39  1  0  0  0
M  END
$$$$
