4aof_ligand
  -I-interpret- 

 36 38  0  0  0  0  0  0  0  0999 V2000
   52.1740   15.0530   29.3790 C   0  0  0  0  0
   50.7570   14.8050   29.9150 C   0  0  0  0  0
   50.3700   15.3630   30.9430 O   0  0  0  0  0
   50.0250   13.9550   29.1790 N   0  0  0  0  0
   48.7580   13.5680   29.4430 C   0  0  0  0  0
   48.1440   12.5440   28.8470 N   0  0  0  0  0
   47.9390   14.1430   30.3290 N   0  0  0  0  0
   46.8580   13.5490   30.3250 N   0  0  0  0  0
   45.6750   13.7620   31.0660 C   0  0  0  0  0
   46.9350   12.5100   29.3850 C   0  0  0  0  0
   45.8410   11.6890   29.1830 C   0  0  0  0  0
   44.6780   11.8990   29.9180 C   0  0  0  0  0
   44.5760   12.9340   30.8550 C   0  0  0  0  0
   43.3910   13.0740   31.5800 C   0  0  0  0  0
   43.3940   13.5910   32.8760 C   0  0  0  0  0
   42.1880   12.6250   31.0330 C   0  0  0  0  0
   41.0560   12.7050   31.7110 N   0  0  0  0  0
   41.0220   13.2120   32.9310 C   0  0  0  0  0
   42.1800   13.6700   33.5560 C   0  0  0  0  0
   42.0620   14.3360   35.1870 S   0  0  0  0  0
   43.5170   13.9020   36.1110 C   0  0  0  0  0
   40.8610   13.7790   35.8980 O   0  0  0  0  0
   41.8870   15.8310   35.1260 O   0  0  0  0  0
   52.2978   16.1136   29.1601 H   0  0  0  0  0
   52.9034   14.7480   30.1293 H   0  0  0  0  0
   52.3233   14.4729   28.4684 H   0  0  0  0  0
   50.4648   13.5660   28.3450 H   0  0  0  0  0
   45.6227   14.5684   31.7975 H   0  0  0  0  0
   45.8891   10.8818   28.4521 H   0  0  0  0  0
   43.8241   11.2402   29.7599 H   0  0  0  0  0
   44.3205   13.9240   33.3438 H   0  0  0  0  0
   42.1818   12.2008   30.0289 H   0  0  0  0  0
   40.0700   13.2730   33.4583 H   0  0  0  0  0
   43.4487   14.3244   37.1135 H   0  0  0  0  0
   43.5936   12.8167   36.1771 H   0  0  0  0  0
   44.3979   14.2996   35.6071 H   0  0  0  0  0
  1  2  1  0  0  0
  2  3  2  0  0  0
  2  4  1  0  0  0
  4  5  1  0  0  0
  5  6  4  0  0  0
  5  7  4  0  0  0
  6 10  4  0  0  0
  7  8  4  0  0  0
  8  9  4  0  0  0
  8 10  4  0  0  0
  9 13  4  0  0  0
 10 11  4  0  0  0
 11 12  4  0  0  0
 12 13  4  0  0  0
 13 14  1  0  0  0
 14 15  4  0  0  0
 14 16  4  0  0  0
 15 19  4  0  0  0
 16 17  4  0  0  0
 17 18  4  0  0  0
 18 19  4  0  0  0
 19 20  1  0  0  0
 20 21  1  0  0  0
 20 22  2  0  0  0
 20 23  2  0  0  0
  1 24  1  0  0  0
  1 25  1  0  0  0
  1 26  1  0  0  0
  4 27  1  0  0  0
  9 28  1  0  0  0
 11 29  1  0  0  0
 12 30  1  0  0  0
 15 31  1  0  0  0
 16 32  1  0  0  0
 18 33  1  0  0  0
 21 34  1  0  0  0
 21 35  1  0  0  0
 21 36  1  0  0  0
M  END
$$$$
