1drj_ligand
  -I-interpret- 

 20 20  0  0  0  0  0  0  0  0999 V2000
   50.1230   34.0140   43.2800 C   0  0  0  0  0
   49.4070   33.4660   44.5170 C   0  0  0  0  0
   49.0130   34.5990   45.4310 C   0  0  0  0  0
   50.2290   35.4740   45.7600 C   0  0  0  0  0
   50.9290   35.9190   44.4860 C   0  0  0  0  0
   50.5470   32.9690   42.4360 O   0  0  0  0  0
   48.2460   32.7680   44.1460 O   0  0  0  0  0
   48.0230   35.3570   44.7770 O   0  0  0  0  0
   49.8410   36.6150   46.4860 O   0  0  0  0  0
   51.2510   34.7940   43.6660 O   0  0  0  0  0
   49.4151   34.6397   42.7365 H   0  0  0  0  0
   50.0909   32.7907   45.0311 H   0  0  0  0  0
   48.6274   34.2061   46.3717 H   0  0  0  0  0
   50.9120   34.8752   46.3625 H   0  0  0  0  0
   51.8511   36.4353   44.7530 H   0  0  0  0  0
   50.2632   36.5799   43.9311 H   0  0  0  0  0
   49.7881   32.4422   42.1748 H   0  0  0  0  0
   48.4825   32.0428   43.5631 H   0  0  0  0  0
   47.2703   34.7951   44.5787 H   0  0  0  0  0
   49.3976   36.3438   47.2931 H   0  0  0  0  0
  1 10  1  0  0  0
  1  6  1  0  0  0
  1  2  1  0  0  0
  2  7  1  0  0  0
  2  3  1  0  0  0
  3  8  1  0  0  0
  3  4  1  0  0  0
  4  9  1  0  0  0
  4  5  1  0  0  0
  5 10  1  0  0  0
  1 11  1  0  0  0
  2 12  1  0  0  0
  3 13  1  0  0  0
  4 14  1  0  0  0
  5 15  1  0  0  0
  5 16  1  0  0  0
  6 17  1  0  0  0
  7 18  1  0  0  0
  8 19  1  0  0  0
  9 20  1  0  0  0
M  END
$$$$
