6hop_ligand
  -I-interpret- 

 24 24  0  0  0  0  0  0  0  0999 V2000
  -23.0810   17.6870  -11.1120 C   0  0  0  0  0
  -23.1920   16.5350  -10.3470 C   0  0  0  0  0
  -23.0740   15.3190  -10.9850 C   0  0  0  0  0
  -22.8410   17.6320  -12.4750 C   0  0  0  0  0
  -22.7180   16.4070  -13.1080 C   0  0  0  0  0
  -22.8520   15.2480  -12.3440 C   0  0  0  0  0
  -22.6840   18.7050  -14.6040 C   0  0  0  0  0
  -22.6990   13.8740  -12.9290 C   0  0  0  0  0
  -22.4180   13.6540  -14.2120 C   0  0  0  0  0
  -22.2400   12.2130  -14.5930 C   0  0  0  0  0
  -22.1960   11.9060  -15.8040 O   0  0  0  0  0
  -22.0620   11.3510  -13.6770 O   0  0  0  0  0
  -23.1950   18.9260  -10.4710 O   0  0  0  0  0
  -22.7360   18.8390  -13.1960 O   0  0  0  0  0
  -23.3674   16.5900   -9.2726 H   0  0  0  0  0
  -23.1575   14.3991  -10.4062 H   0  0  0  0  0
  -22.5210   16.3497  -14.1785 H   0  0  0  0  0
  -21.8162   18.1054  -14.8788 H   0  0  0  0  0
  -23.5920   18.2145  -14.9548 H   0  0  0  0  0
  -22.6039   19.6923  -15.0589 H   0  0  0  0  0
  -22.8241   13.0139  -12.2712 H   0  0  0  0  0
  -22.3238   14.4640  -14.9352 H   0  0  0  0  0
  -22.1335   11.7772  -12.8198 H   0  0  0  0  0
  -23.0987   19.6294  -11.1172 H   0  0  0  0  0
  1  2  4  0  0  0
  1  4  4  0  0  0
  1 13  1  0  0  0
  2  3  4  0  0  0
  3  6  4  0  0  0
  4  5  4  0  0  0
  4 14  1  0  0  0
  5  6  4  0  0  0
  6  8  1  0  0  0
 14  7  1  0  0  0
  8  9  2  0  0  0
  9 10  1  0  0  0
 10 11  2  0  0  0
 10 12  1  0  0  0
  2 15  1  0  0  0
  3 16  1  0  0  0
  5 17  1  0  0  0
  7 18  1  0  0  0
  7 19  1  0  0  0
  7 20  1  0  0  0
  8 21  1  0  0  0
  9 22  1  0  0  0
 12 23  1  0  0  0
 13 24  1  0  0  0
M  END
$$$$
