3mrx_ligand
  -I-interpret- 

 46 47  0  0  0  0  0  0  0  0999 V2000
   19.3590   15.2360   56.1620 C   0  0  0  0  0
   18.9160   13.9420   55.6700 N   0  0  0  0  0
   18.4350   13.1230   58.1600 S   0  0  0  0  0
   20.6970   15.5840   55.4940 C   0  0  0  0  0
   18.0590   11.8350   55.9170 N   0  0  0  0  0
   21.7350   14.7060   55.9440 O   0  0  0  0  0
   21.0550   17.0400   55.7940 C   0  0  0  0  0
   18.0790   11.7090   54.6820 N   0  0  0  0  0
   22.2580   17.4080   55.1060 O   0  0  0  0  0
   19.9250   17.9570   55.3320 C   0  0  0  0  0
   20.1820   19.3100   55.7230 O   0  0  0  0  0
   18.5760   17.5310   55.9030 C   0  0  0  0  0
   18.3350   16.1300   55.7160 O   0  0  0  0  0
   17.4770   18.2760   55.1650 C   0  0  0  0  0
   16.5110   18.6540   56.1410 O   0  0  0  0  0
   18.4660   12.9680   56.4690 C   0  0  0  0  0
   17.5630    9.6100   48.6660 O   0  0  0  0  0
   17.6910   10.6330   54.1800 C   0  0  0  0  0
   17.6890   10.4110   52.7220 C   0  0  0  0  0
   18.3900   11.2440   51.8430 C   0  0  0  0  0
   18.3540   10.9820   50.4760 C   0  0  0  0  0
   17.6190    9.8870   50.0030 C   0  0  0  0  0
   16.9210    9.0670   50.8860 C   0  0  0  0  0
   16.9530    9.3350   52.2470 C   0  0  0  0  0
   17.3370    8.2610   48.2620 C   0  0  0  0  0
   19.5073   15.2745   57.2412 H   0  0  0  0  0
   18.9499   13.7679   54.6655 H   0  0  0  0  0
   20.5972   15.4558   54.4162 H   0  0  0  0  0
   21.4924   13.7982   55.7472 H   0  0  0  0  0
   21.2035   17.1443   56.8688 H   0  0  0  0  0
   22.9753   16.8366   55.3899 H   0  0  0  0  0
   19.8846   17.8824   54.2453 H   0  0  0  0  0
   19.4621   19.8705   55.4243 H   0  0  0  0  0
   18.5839   17.7544   56.9698 H   0  0  0  0  0
   17.0276   17.6449   54.3983 H   0  0  0  0  0
   17.8771   19.1524   54.6552 H   0  0  0  0  0
   15.7953   19.1301   55.7136 H   0  0  0  0  0
   16.6355   10.5892   54.4487 H   0  0  0  0  0
   18.4094    9.9019   54.5509 H   0  0  0  0  0
   18.9596   12.0911   52.2253 H   0  0  0  0  0
   18.8934   11.6237   49.7793 H   0  0  0  0  0
   16.3514    8.2175   50.5092 H   0  0  0  0  0
   16.4011    8.7016   52.9415 H   0  0  0  0  0
   18.1380    7.6291   48.6457 H   0  0  0  0  0
   16.3811    7.9194   48.6591 H   0  0  0  0  0
   17.3198    8.2071   47.1735 H   0  0  0  0  0
  2  1  1  0  0  0
  1  4  1  0  0  0
  1 13  1  0  0  0
 16  2  1  0  0  0
 16  3  2  0  0  0
  4  6  1  0  0  0
  4  7  1  0  0  0
  8  5  2  0  0  0
  5 16  1  0  0  0
  7  9  1  0  0  0
  7 10  1  0  0  0
 18  8  1  0  0  0
 10 11  1  0  0  0
 12 10  1  0  0  0
 13 12  1  0  0  0
 12 14  1  0  0  0
 14 15  1  0  0  0
 22 17  1  0  0  0
 17 25  1  0  0  0
 19 18  1  0  0  0
 20 19  4  0  0  0
 19 24  4  0  0  0
 21 20  4  0  0  0
 21 22  4  0  0  0
 22 23  4  0  0  0
 23 24  4  0  0  0
  1 26  1  0  0  0
  2 27  1  0  0  0
  4 28  1  0  0  0
  6 29  1  0  0  0
  7 30  1  0  0  0
  9 31  1  0  0  0
 10 32  1  0  0  0
 11 33  1  0  0  0
 12 34  1  0  0  0
 14 35  1  0  0  0
 14 36  1  0  0  0
 15 37  1  0  0  0
 18 38  1  0  0  0
 18 39  1  0  0  0
 20 40  1  0  0  0
 21 41  1  0  0  0
 23 42  1  0  0  0
 24 43  1  0  0  0
 25 44  1  0  0  0
 25 45  1  0  0  0
 25 46  1  0  0  0
M  END
$$$$
