5ml6_ligand
  -I-interpret- 

 85 89  0  0  0  0  0  0  0  0999 V2000
  -21.1830   33.8730    4.0960 C   0  0  0  0  0
  -22.1880   34.9900    4.3260 C   0  0  0  0  0
  -21.9220   35.5280    5.6790 N   0  3  0  0  0
  -22.1440   34.5030    6.7230 C   0  0  0  0  0
  -21.1950   33.3220    6.5310 C   0  0  0  0  0
  -21.3480   32.7500    5.1240 C   0  0  0  0  0
  -20.2840   31.6640    4.9230 C   0  0  0  0  0
  -20.2660   31.2290    3.4890 N   0  0  0  0  0
  -18.9880   30.6160    3.1130 C   0  0  0  0  0
  -18.2470   31.5780    2.3780 C   0  0  0  0  0
  -17.2640   32.3680    2.9930 C   0  0  0  0  0
  -16.5370   33.3080    2.2510 C   0  0  0  0  0
  -15.5990   34.0620    2.8390 N   0  0  0  0  0
  -16.7550   33.5100    0.8760 C   0  0  0  0  0
  -16.0210   34.4700    0.1330 C   0  0  0  0  0
  -16.4070   34.8890   -0.9950 O   0  0  0  0  0
  -14.9520   34.9420    0.6030 O   0  0  0  0  0
  -17.7320   32.7070    0.2780 C   0  0  0  0  0
  -18.4720   31.7600    1.0090 C   0  0  0  0  0
  -21.7030   30.2370    3.0030 S   0  0  0  0  0
  -21.5640   29.8020    1.5540 O   0  0  0  0  0
  -22.9790   31.0210    3.1750 O   0  0  0  0  0
  -21.8850   28.7430    4.0000 C   0  0  0  0  0
  -20.9820   27.7120    3.8310 C   0  0  0  0  0
  -21.1160   26.5550    4.5850 C   0  0  0  0  0
  -22.9370   28.6210    4.9060 C   0  0  0  0  0
  -23.0730   27.4600    5.6640 C   0  0  0  0  0
  -22.1630   26.4270    5.4850 C   0  0  0  0  0
  -22.2890   24.9530    6.4100 S   0  0  0  0  0
  -23.2030   25.2260    7.5810 O   0  0  0  0  0
  -20.8880   24.6490    6.8820 O   0  0  0  0  0
  -22.9330   23.4640    5.4730 N   0  0  0  0  0
  -23.6790   23.5040    4.2140 C   0  0  0  0  0
  -24.1400   24.8170    3.7920 C   0  0  0  0  0
  -25.1700   24.3440    2.7590 C   0  0  0  0  0
  -25.5540   22.9060    3.0820 C   0  0  0  0  0
  -24.9560   22.7400    4.4320 C   0  0  0  0  0
  -21.8680   22.4760    5.1940 C   0  0  0  0  0
  -21.8360   21.4730    6.1530 C   0  0  0  0  0
  -21.1200   20.3300    5.8470 C   0  0  0  0  0
  -21.0390   19.3010    6.7700 C   0  0  0  0  0
  -21.6710   19.4350    7.9950 C   0  0  0  0  0
  -21.5630   18.2080    9.1090 Cl  0  0  0  0  0
  -22.3870   20.5740    8.3210 C   0  0  0  0  0
  -22.4730   21.6010    7.3950 C   0  0  0  0  0
  -20.1790   34.2860    4.1937 H   0  0  0  0  0
  -21.3489   33.4583    3.1017 H   0  0  0  0  0
  -23.2090   34.6161    4.2501 H   0  0  0  0  0
  -22.0835   35.7687    3.5705 H   0  0  0  0  0
  -22.5598   36.3057    5.8488 H   0  0  0  0  0
  -20.9479   35.8275    5.7220 H   0  0  0  0  0
  -23.1710   34.1447    6.6521 H   0  0  0  0  0
  -21.9579   34.9492    7.6999 H   0  0  0  0  0
  -21.4349   32.5480    7.2600 H   0  0  0  0  0
  -20.1685   33.6615    6.6696 H   0  0  0  0  0
  -22.3372   32.3113    4.9931 H   0  0  0  0  0
  -20.5189   30.8083    5.5560 H   0  0  0  0  0
  -19.3060   32.0643    5.1902 H   0  0  0  0  0
  -19.1582   29.7255    2.5080 H   0  0  0  0  0
  -18.4369   30.3122    4.0030 H   0  0  0  0  0
  -17.0641   32.2493    4.0579 H   0  0  0  0  0
  -15.4088   33.9544    3.8353 H   0  0  0  0  0
  -15.0749   34.7437    2.2904 H   0  0  0  0  0
  -17.2276   34.4517   -1.2339 H   0  0  0  0  0
  -17.9261   32.8187   -0.7887 H   0  0  0  0  0
  -19.2294   31.1611    0.5032 H   0  0  0  0  0
  -20.1697   27.8065    3.1103 H   0  0  0  0  0
  -20.3963   25.7446    4.4695 H   0  0  0  0  0
  -23.6536   29.4342    5.0216 H   0  0  0  0  0
  -23.8826   27.3641    6.3875 H   0  0  0  0  0
  -22.9894   23.1179    3.4633 H   0  0  0  0  0
  -23.3702   25.4926    3.4191 H   0  0  0  0  0
  -24.5233   25.4618    4.5829 H   0  0  0  0  0
  -24.7442   24.3991    1.7571 H   0  0  0  0  0
  -26.0531   24.9819    2.7955 H   0  0  0  0  0
  -25.1934   22.1819    2.3514 H   0  0  0  0  0
  -26.6281   22.7227    3.0534 H   0  0  0  0  0
  -25.5724   23.0973    5.2569 H   0  0  0  0  0
  -24.8264   21.7072    4.7555 H   0  0  0  0  0
  -20.9083   22.9926    5.2045 H   0  0  0  0  0
  -22.0681   22.0190    4.2249 H   0  0  0  0  0
  -20.6210   20.2395    4.8822 H   0  0  0  0  0
  -20.4828   18.3936    6.5345 H   0  0  0  0  0
  -22.8757   20.6616    9.2914 H   0  0  0  0  0
  -23.0339   22.5052    7.6314 H   0  0  0  0  0
  1  2  1  0  0  0
  1  6  1  0  0  0
  2  3  1  0  0  0
  3  4  1  0  0  0
  4  5  1  0  0  0
  5  6  1  0  0  0
  6  7  1  0  0  0
  7  8  1  0  0  0
  8  9  1  0  0  0
  8 20  1  0  0  0
  9 10  1  0  0  0
 10 11  4  0  0  0
 10 19  4  0  0  0
 11 12  4  0  0  0
 12 13  1  0  0  0
 12 14  4  0  0  0
 14 15  1  0  0  0
 14 18  4  0  0  0
 15 16  1  0  0  0
 15 17  2  0  0  0
 18 19  4  0  0  0
 20 21  2  0  0  0
 20 22  2  0  0  0
 20 23  1  0  0  0
 23 24  4  0  0  0
 23 26  4  0  0  0
 24 25  4  0  0  0
 25 28  4  0  0  0
 26 27  4  0  0  0
 27 28  4  0  0  0
 28 29  1  0  0  0
 29 30  2  0  0  0
 29 31  2  0  0  0
 29 32  1  0  0  0
 32 33  1  0  0  0
 32 38  1  0  0  0
 33 34  1  0  0  0
 33 37  1  0  0  0
 34 35  1  0  0  0
 35 36  1  0  0  0
 36 37  1  0  0  0
 38 39  1  0  0  0
 39 40  4  0  0  0
 39 45  4  0  0  0
 40 41  4  0  0  0
 41 42  4  0  0  0
 42 43  1  0  0  0
 42 44  4  0  0  0
 44 45  4  0  0  0
  1 46  1  0  0  0
  1 47  1  0  0  0
  2 48  1  0  0  0
  2 49  1  0  0  0
  3 50  1  0  0  0
  3 51  1  0  0  0
  4 52  1  0  0  0
  4 53  1  0  0  0
  5 54  1  0  0  0
  5 55  1  0  0  0
  6 56  1  0  0  0
  7 57  1  0  0  0
  7 58  1  0  0  0
  9 59  1  0  0  0
  9 60  1  0  0  0
 11 61  1  0  0  0
 13 62  1  0  0  0
 13 63  1  0  0  0
 16 64  1  0  0  0
 18 65  1  0  0  0
 19 66  1  0  0  0
 24 67  1  0  0  0
 25 68  1  0  0  0
 26 69  1  0  0  0
 27 70  1  0  0  0
 33 71  1  0  0  0
 34 72  1  0  0  0
 34 73  1  0  0  0
 35 74  1  0  0  0
 35 75  1  0  0  0
 36 76  1  0  0  0
 36 77  1  0  0  0
 37 78  1  0  0  0
 37 79  1  0  0  0
 38 80  1  0  0  0
 38 81  1  0  0  0
 40 82  1  0  0  0
 41 83  1  0  0  0
 44 84  1  0  0  0
 45 85  1  0  0  0
M  END
$$$$
