### 
### Created by X-TOOL on Mon Sep 10 21:12:49 2018
### 

@<TRIPOS>MOLECULE
1kcs_ligand
  102   103     1     0     0
SMALL
GAST_HUCK


@<TRIPOS>ATOM
      1 N          -3.8900   -7.4420   -4.6880 N.4       1 GLN         0.2380
      2 CA         -4.2740   -6.1630   -4.0170 C.3       1 GLN         0.0671
      3 C          -3.0520   -5.4300   -3.4560 C.2       1 GLN         0.2269
      4 O          -2.7400   -5.5210   -2.2630 O.2       1 GLN        -0.3907
      5 CB         -5.2820   -6.4470   -2.8960 C.3       1 GLN         0.0247
      6 CG         -6.5780   -7.0790   -3.3900 C.3       1 GLN         0.0443
      7 CD         -7.4200   -6.1220   -4.2120 C.2       1 GLN         0.1738
      8 OE1        -8.0440   -6.5160   -5.2010 O.2       1 GLN        -0.3973
      9 NE2        -7.4560   -4.8570   -3.7990 N.am      1 GLN        -0.3009
     10 N          -2.3650   -4.7060   -4.3370 N.am      1 LEU        -0.2610
     11 CA         -1.1750   -3.9420   -3.9660 C.3       1 LEU         0.1313
     12 C          -1.4700   -2.4460   -4.0160 C.2       1 LEU         0.2040
     13 O          -2.2880   -1.9960   -4.8220 O.2       1 LEU        -0.3944
     14 CB         -0.0060   -4.2600   -4.9180 C.3       1 LEU        -0.0101
     15 CG          0.5560   -5.6900   -4.9600 C.3       1 LEU        -0.0425
     16 CD1         1.7790   -5.7150   -5.8640 C.3       1 LEU        -0.0625
     17 CD2         0.9500   -6.1520   -3.5690 C.3       1 LEU        -0.0625
     18 N          -0.8070   -1.6830   -3.1480 N.am      1 ASP        -0.2622
     19 CA         -0.9930   -0.2340   -3.1200 C.3       1 ASP         0.1425
     20 C          -0.4330    0.3370   -4.4140 C.2       1 ASP         0.2081
     21 O           0.5970   -0.1060   -4.9030 O.2       1 ASP        -0.3941
     22 CB         -0.2730    0.3930   -1.9300 C.3       1 ASP         0.0406
     23 CG         -0.8940    0.0160   -0.6170 C.2       1 ASP         0.0393
     24 OD1        -2.0470   -0.4570   -0.6140 O.co2     1 ASP        -0.5688
     25 OD2        -0.2310    0.2080    0.4200 O.co2     1 ASP        -0.5688
     26 N          -1.0880    1.3650   -4.9560 N.am      1 PRO        -0.2497
     27 CA         -0.6720    2.0060   -6.2110 C.3       1 PRO         0.1338
     28 C           0.8280    2.1950   -6.3630 C.2       1 PRO         0.2041
     29 O           1.3920    1.9140   -7.4220 O.2       1 PRO        -0.3944
     30 CB         -1.4180    3.3410   -6.1940 C.3       1 PRO        -0.0104
     31 CG         -2.6240    3.0820   -5.3050 C.3       1 PRO        -0.0281
     32 CD         -2.0560    2.1980   -4.2160 C.3       1 PRO         0.0369
     33 N           1.4650    2.6600   -5.2910 N.am      1 ALA        -0.2640
     34 CA          2.9000    2.9360   -5.2870 C.3       1 ALA         0.1282
     35 C           3.7740    1.7420   -5.6710 C.2       1 ALA         0.2037
     36 O           4.9670    1.8850   -5.9250 O.2       1 ALA        -0.3944
     37 CB          3.3130    3.4670   -3.9090 C.3       1 ALA        -0.0244
     38 N           3.1790    0.5590   -5.7180 N.am      1 PHE        -0.2619
     39 CA          3.9400   -0.6300   -6.0450 C.3       1 PHE         0.1404
     40 C           3.8100   -1.0500   -7.4970 C.2       1 PHE         0.2052
     41 O           3.7780   -2.2360   -7.8020 O.2       1 PHE        -0.3942
     42 CB          3.5360   -1.7770   -5.1140 C.3       1 PHE         0.0214
     43 CG          3.8830   -1.5330   -3.6600 C.ar      1 PHE        -0.0386
     44 CD1         5.2150   -1.4090   -3.2560 C.ar      1 PHE        -0.0601
     45 CD2         2.8850   -1.4200   -2.7010 C.ar      1 PHE        -0.0601
     46 CE1         5.5500   -1.1750   -1.9160 C.ar      1 PHE        -0.0686
     47 CE2         3.2130   -1.1850   -1.3590 C.ar      1 PHE        -0.0686
     48 CZ          4.5490   -1.0630   -0.9720 C.ar      1 PHE        -0.0687
     49 N           3.7490   -0.0730   -8.3940 N.am      1 GLY        -0.2720
     50 CA          3.6550   -0.3830   -9.8100 C.3       1 GLY         0.0833
     51 C           2.2360   -0.4960  -10.3190 C.2       1 GLY         0.0570
     52 O           1.2983   -0.1667   -9.5445 O.co2     1 GLY        -0.5669
     53 O50         1.9975   -0.9081  -11.4856 O.co2     1 GLY        -0.5669
     54 H1         -4.7166   -7.8960   -5.0440 H         1 GLN         0.2015
     55 H2         -3.4346   -8.0470   -4.0227 H         1 GLN         0.2015
     56 H3         -3.2599   -7.2457   -5.4499 H         1 GLN         0.2015
     57 H4         -4.7532   -5.5119   -4.7629 H         1 GLN         0.1100
     58 H5         -5.5257   -5.4970   -2.3978 H         1 GLN         0.0370
     59 H6         -4.8146   -7.1312   -2.1725 H         1 GLN         0.0370
     60 H7         -7.1651   -7.4048   -2.5187 H         1 GLN         0.0506
     61 H8         -6.3293   -7.9517   -4.0117 H         1 GLN         0.0506
     62 H9         -7.9951   -4.1818   -4.3025 H         1 GLN         0.1814
     63 H10        -6.9439   -4.5819   -2.9853 H         1 GLN         0.1814
     64 H11        -2.6744   -4.6839   -5.2877 H         1 LEU         0.1884
     65 H12        -0.8850   -4.2159   -2.9409 H         1 LEU         0.0800
     66 H13         0.8254   -3.5955   -4.6400 H         1 LEU         0.0315
     67 H14        -0.3448   -4.0173   -5.9360 H         1 LEU         0.0315
     68 H15        -0.2109   -6.3686   -5.3616 H         1 LEU         0.0298
     69 H16         2.1878   -6.7356   -5.8997 H         1 LEU         0.0232
     70 H17         2.5417   -5.0282   -5.4682 H         1 LEU         0.0232
     71 H18         1.4921   -5.3993   -6.8779 H         1 LEU         0.0232
     72 H19         0.0671   -6.1348   -2.9132 H         1 LEU         0.0232
     73 H20         1.7207   -5.4798   -3.1639 H         1 LEU         0.0232
     74 H21         1.3477   -7.1762   -3.6217 H         1 LEU         0.0232
     75 H22        -0.1712   -2.1093   -2.5046 H         1 ASP         0.1884
     76 H23        -2.0668   -0.0063   -3.0494 H         1 ASP         0.0819
     77 H24        -0.3066    1.4875   -2.0344 H         1 ASP         0.0478
     78 H25         0.7742    0.0562   -1.9342 H         1 ASP         0.0478
     79 H26        -1.0175    1.3974   -7.0597 H         1 PRO         0.0802
     80 H27        -1.7348    3.6241   -7.2087 H         1 PRO         0.0313
     81 H28        -0.7857    4.1361   -5.7720 H         1 PRO         0.0313
     82 H29        -3.4209    2.5647   -5.8594 H         1 PRO         0.0287
     83 H30        -3.0174    4.0208   -4.8879 H         1 PRO         0.0287
     84 H31        -1.5553    2.7951   -3.4396 H         1 PRO         0.0524
     85 H32        -2.8411    1.5809   -3.7547 H         1 PRO         0.0524
     86 H33         0.9412    2.8270   -4.4557 H         1 ALA         0.1883
     87 H34         3.0839    3.7265   -6.0294 H         1 ALA         0.0797
     88 H35         4.3931    3.6751   -3.9049 H         1 ALA         0.0277
     89 H36         3.0819    2.7138   -3.1414 H         1 ALA         0.0277
     90 H37         2.7604    4.3931   -3.6922 H         1 ALA         0.0277
     91 H38         2.2001    0.4864   -5.5269 H         1 PHE         0.1885
     92 H39         5.0009   -0.4027   -5.8641 H         1 PHE         0.0823
     93 H40         4.0511   -2.6908   -5.4451 H         1 PHE         0.0474
     94 H41         2.4482   -1.9206   -5.1919 H         1 PHE         0.0474
     95 H42         6.0044   -1.4956   -3.9938 H         1 PHE         0.0557
     96 H43         1.8452   -1.5142   -2.9925 H         1 PHE         0.0557
     97 H44         6.5893   -1.0824   -1.6221 H         1 PHE         0.0599
     98 H45         2.4263   -1.0976   -0.6184 H         1 PHE         0.0599
     99 H46         4.7995   -0.8808    0.0668 H         1 PHE         0.0559
    100 H47         3.7679    0.8806   -8.0934 H         1 GLY         0.1873
    101 H48         4.1647   -1.3411   -9.9895 H         1 GLY         0.0689
    102 H49         4.1627    0.4137  -10.3735 H         1 GLY         0.0689
@<TRIPOS>BOND
     1    1    2 1  
     2    2    3 1  
     3    2    5 1  
     4    3    4 2  
     5    3   10 am 
     6    5    6 1  
     7    6    7 1  
     8    7    8 2  
     9    7    9 am 
    10   10   11 1  
    11   11   12 1  
    12   11   14 1  
    13   12   13 2  
    14   12   18 am 
    15   14   15 1  
    16   15   16 1  
    17   15   17 1  
    18   18   19 1  
    19   19   20 1  
    20   19   22 1  
    21   20   21 2  
    22   20   26 am 
    23   22   23 1  
    24   23   24 ar 
    25   23   25 ar 
    26   26   27 1  
    27   26   32 1  
    28   27   28 1  
    29   27   30 1  
    30   28   29 2  
    31   28   33 am 
    32   30   31 1  
    33   31   32 1  
    34   33   34 1  
    35   34   35 1  
    36   34   37 1  
    37   35   36 2  
    38   35   38 am 
    39   38   39 1  
    40   39   40 1  
    41   39   42 1  
    42   40   41 2  
    43   40   49 am 
    44   42   43 1  
    45   43   44 ar 
    46   43   45 ar 
    47   44   46 ar 
    48   45   47 ar 
    49   46   48 ar 
    50   47   48 ar 
    51   49   50 1  
    52   50   51 1  
    53   51   52 ar 
    54   51   53 ar 
    55    1   54 1  
    56    1   55 1  
    57    1   56 1  
    58    2   57 1  
    59    5   58 1  
    60    5   59 1  
    61    6   60 1  
    62    6   61 1  
    63    9   62 1  
    64    9   63 1  
    65   10   64 1  
    66   11   65 1  
    67   14   66 1  
    68   14   67 1  
    69   15   68 1  
    70   16   69 1  
    71   16   70 1  
    72   16   71 1  
    73   17   72 1  
    74   17   73 1  
    75   17   74 1  
    76   18   75 1  
    77   19   76 1  
    78   22   77 1  
    79   22   78 1  
    80   27   79 1  
    81   30   80 1  
    82   30   81 1  
    83   31   82 1  
    84   31   83 1  
    85   32   84 1  
    86   32   85 1  
    87   33   86 1  
    88   34   87 1  
    89   37   88 1  
    90   37   89 1  
    91   37   90 1  
    92   38   91 1  
    93   39   92 1  
    94   42   93 1  
    95   42   94 1  
    96   44   95 1  
    97   45   96 1  
    98   46   97 1  
    99   47   98 1  
   100   48   99 1  
   101   49  100 1  
   102   50  101 1  
   103   50  102 1  
@<TRIPOS>SUBSTRUCTURE
     1 GLN         1

