1kcs_ligand
  -I-interpret- 

104105  0  0  0  0  0  0  0  0999 V2000
   -3.8900   -7.4420   -4.6880 N   0  3  0  0  0
   -4.2740   -6.1630   -4.0170 C   0  0  0  0  0
   -3.0520   -5.4300   -3.4560 C   0  0  0  0  0
   -2.7400   -5.5210   -2.2630 O   0  0  0  0  0
   -5.2820   -6.4470   -2.8960 C   0  0  0  0  0
   -6.5780   -7.0790   -3.3900 C   0  0  0  0  0
   -7.4200   -6.1220   -4.2120 C   0  0  0  0  0
   -8.0440   -6.5160   -5.2010 O   0  0  0  0  0
   -7.4560   -4.8570   -3.7990 N   0  0  0  0  0
   -2.3650   -4.7060   -4.3370 N   0  0  0  0  0
   -1.1750   -3.9420   -3.9660 C   0  0  0  0  0
   -1.4700   -2.4460   -4.0160 C   0  0  0  0  0
   -2.2880   -1.9960   -4.8220 O   0  0  0  0  0
   -0.0060   -4.2600   -4.9180 C   0  0  0  0  0
    0.5560   -5.6900   -4.9600 C   0  0  0  0  0
    1.7790   -5.7150   -5.8640 C   0  0  0  0  0
    0.9500   -6.1520   -3.5690 C   0  0  0  0  0
   -0.8070   -1.6830   -3.1480 N   0  0  0  0  0
   -0.9930   -0.2340   -3.1200 C   0  0  0  0  0
   -0.4330    0.3370   -4.4140 C   0  0  0  0  0
    0.5970   -0.1060   -4.9030 O   0  0  0  0  0
   -0.2730    0.3930   -1.9300 C   0  0  0  0  0
   -0.8940    0.0160   -0.6170 C   0  0  0  0  0
   -2.0470   -0.4570   -0.6140 O   0  0  0  0  0
   -0.2310    0.2080    0.4200 O   0  0  0  0  0
   -1.0880    1.3650   -4.9560 N   0  0  0  0  0
   -0.6720    2.0060   -6.2110 C   0  0  0  0  0
    0.8280    2.1950   -6.3630 C   0  0  0  0  0
    1.3920    1.9140   -7.4220 O   0  0  0  0  0
   -1.4180    3.3410   -6.1940 C   0  0  0  0  0
   -2.6240    3.0820   -5.3050 C   0  0  0  0  0
   -2.0560    2.1980   -4.2160 C   0  0  0  0  0
    1.4650    2.6600   -5.2910 N   0  0  0  0  0
    2.9000    2.9360   -5.2870 C   0  0  0  0  0
    3.7740    1.7420   -5.6710 C   0  0  0  0  0
    4.9670    1.8850   -5.9250 O   0  0  0  0  0
    3.3130    3.4670   -3.9090 C   0  0  0  0  0
    3.1790    0.5590   -5.7180 N   0  0  0  0  0
    3.9400   -0.6300   -6.0450 C   0  0  0  0  0
    3.8100   -1.0500   -7.4970 C   0  0  0  0  0
    3.7780   -2.2360   -7.8020 O   0  0  0  0  0
    3.5360   -1.7770   -5.1140 C   0  0  0  0  0
    3.8830   -1.5330   -3.6600 C   0  0  0  0  0
    5.2150   -1.4090   -3.2560 C   0  0  0  0  0
    2.8850   -1.4200   -2.7010 C   0  0  0  0  0
    5.5500   -1.1750   -1.9160 C   0  0  0  0  0
    3.2130   -1.1850   -1.3590 C   0  0  0  0  0
    4.5490   -1.0630   -0.9720 C   0  0  0  0  0
    3.7490   -0.0730   -8.3940 N   0  0  0  0  0
    3.6550   -0.3830   -9.8100 C   0  0  0  0  0
    2.2360   -0.4960  -10.3190 C   0  0  0  0  0
    1.2983   -0.1667   -9.5445 O   0  0  0  0  0
    1.9975   -0.9081  -11.4856 O   0  0  0  0  0
   -3.2200   -7.2465   -5.4319 H   0  0  0  0  0
   -3.4671   -8.0696   -4.0042 H   0  0  0  0  0
   -4.7217   -7.8797   -5.0843 H   0  0  0  0  0
   -4.7325   -5.5149   -4.7639 H   0  0  0  0  0
   -5.5375   -5.4927   -2.4354 H   0  0  0  0  0
   -4.8159   -7.1511   -2.2068 H   0  0  0  0  0
   -7.1611   -7.3726   -2.5171 H   0  0  0  0  0
   -6.3167   -7.9252   -4.0255 H   0  0  0  0  0
   -8.0151   -4.1708   -4.3058 H   0  0  0  0  0
   -6.9245   -4.5740   -2.9757 H   0  0  0  0  0
   -2.6805   -4.6835   -5.3067 H   0  0  0  0  0
   -0.8960   -4.2244   -2.9509 H   0  0  0  0  0
    0.8203   -3.6448   -4.5619 H   0  0  0  0  0
   -0.4039   -4.0861   -5.9178 H   0  0  0  0  0
   -0.2122   -6.3608   -5.3446 H   0  0  0  0  0
    1.4934   -5.4020   -6.8683 H   0  0  0  0  0
    2.5339   -5.0341   -5.4708 H   0  0  0  0  0
    2.1831   -6.7267   -5.8985 H   0  0  0  0  0
    1.7128   -5.4844   -3.1683 H   0  0  0  0  0
    0.0741   -6.1357   -2.9205 H   0  0  0  0  0
    1.3451   -7.1665   -3.6228 H   0  0  0  0  0
   -0.1584   -2.1179   -2.4918 H   0  0  0  0  0
   -2.0549   -0.0086   -3.0214 H   0  0  0  0  0
   -0.3358    1.4764   -2.0324 H   0  0  0  0  0
    0.7553    0.0314   -1.9312 H   0  0  0  0  0
   -2.3684   -0.5193   -1.5164 H   0  0  0  0  0
   -0.9142    1.3776   -7.0681 H   0  0  0  0  0
   -1.7059    3.6645   -7.1943 H   0  0  0  0  0
   -0.7973    4.1547   -5.8189 H   0  0  0  0  0
   -3.4523    2.6168   -5.8395 H   0  0  0  0  0
   -3.0694    3.9983   -4.9176 H   0  0  0  0  0
   -1.6008    2.7615   -3.4016 H   0  0  0  0  0
   -2.8170    1.6129   -3.6996 H   0  0  0  0  0
    0.9307    2.8304   -4.4390 H   0  0  0  0  0
    3.0692    3.6847   -6.0609 H   0  0  0  0  0
    2.7647    4.3845   -3.6954 H   0  0  0  0  0
    3.0834    2.7198   -3.1494 H   0  0  0  0  0
    4.3834    3.6728   -3.9062 H   0  0  0  0  0
    2.1805    0.4849   -5.5231 H   0  0  0  0  0
    4.9913   -0.3833   -5.8965 H   0  0  0  0  0
    4.0819   -2.6643   -5.4346 H   0  0  0  0  0
    2.4529   -1.8816   -5.1772 H   0  0  0  0  0
    6.0088   -1.4960   -3.9979 H   0  0  0  0  0
    1.8394   -1.5147   -2.9941 H   0  0  0  0  0
    6.5950   -1.0819   -1.6205 H   0  0  0  0  0
    2.4220   -1.0971   -0.6143 H   0  0  0  0  0
    4.8009   -0.8798    0.0726 H   0  0  0  0  0
    3.7682    0.8996   -8.0874 H   0  0  0  0  0
    4.1323   -1.3510   -9.9625 H   0  0  0  0  0
    4.1303    0.4339  -10.3531 H   0  0  0  0  0
    2.8252   -1.1109  -11.9276 H   0  0  0  0  0
  1  2  1  0  0  0
  2  3  1  0  0  0
  2  5  1  0  0  0
  3  4  2  0  0  0
  3 10  1  0  0  0
  5  6  1  0  0  0
  6  7  1  0  0  0
  7  8  2  0  0  0
  7  9  1  0  0  0
 10 11  1  0  0  0
 11 12  1  0  0  0
 11 14  1  0  0  0
 12 13  2  0  0  0
 12 18  1  0  0  0
 14 15  1  0  0  0
 15 16  1  0  0  0
 15 17  1  0  0  0
 18 19  1  0  0  0
 19 20  1  0  0  0
 19 22  1  0  0  0
 20 21  2  0  0  0
 20 26  1  0  0  0
 22 23  1  0  0  0
 23 24  1  0  0  0
 23 25  2  0  0  0
 26 27  1  0  0  0
 26 32  1  0  0  0
 27 28  1  0  0  0
 27 30  1  0  0  0
 28 29  2  0  0  0
 28 33  1  0  0  0
 30 31  1  0  0  0
 31 32  1  0  0  0
 33 34  1  0  0  0
 34 35  1  0  0  0
 34 37  1  0  0  0
 35 36  2  0  0  0
 35 38  1  0  0  0
 38 39  1  0  0  0
 39 40  1  0  0  0
 39 42  1  0  0  0
 40 41  2  0  0  0
 40 49  1  0  0  0
 42 43  1  0  0  0
 43 44  4  0  0  0
 43 45  4  0  0  0
 44 46  4  0  0  0
 45 47  4  0  0  0
 46 48  4  0  0  0
 47 48  4  0  0  0
 49 50  1  0  0  0
 50 51  1  0  0  0
 51 52  2  0  0  0
 51 53  1  0  0  0
  1 54  1  0  0  0
  1 55  1  0  0  0
  1 56  1  0  0  0
  2 57  1  0  0  0
  5 58  1  0  0  0
  5 59  1  0  0  0
  6 60  1  0  0  0
  6 61  1  0  0  0
  9 62  1  0  0  0
  9 63  1  0  0  0
 10 64  1  0  0  0
 11 65  1  0  0  0
 14 66  1  0  0  0
 14 67  1  0  0  0
 15 68  1  0  0  0
 16 69  1  0  0  0
 16 70  1  0  0  0
 16 71  1  0  0  0
 17 72  1  0  0  0
 17 73  1  0  0  0
 17 74  1  0  0  0
 18 75  1  0  0  0
 19 76  1  0  0  0
 22 77  1  0  0  0
 22 78  1  0  0  0
 24 79  1  0  0  0
 27 80  1  0  0  0
 30 81  1  0  0  0
 30 82  1  0  0  0
 31 83  1  0  0  0
 31 84  1  0  0  0
 32 85  1  0  0  0
 32 86  1  0  0  0
 33 87  1  0  0  0
 34 88  1  0  0  0
 37 89  1  0  0  0
 37 90  1  0  0  0
 37 91  1  0  0  0
 38 92  1  0  0  0
 39 93  1  0  0  0
 42 94  1  0  0  0
 42 95  1  0  0  0
 44 96  1  0  0  0
 45 97  1  0  0  0
 46 98  1  0  0  0
 47 99  1  0  0  0
 48100  1  0  0  0
 49101  1  0  0  0
 50102  1  0  0  0
 50103  1  0  0  0
 53104  1  0  0  0
M  END
$$$$
