5k4j_ligand
  -I-interpret- 

 51 54  0  0  0  0  0  0  0  0999 V2000
   -3.6390  -27.7880   44.6210 C   0  0  0  0  0
   -4.4050  -26.6070   44.5850 C   0  0  0  0  0
   -1.9790  -30.1670   43.4330 C   0  0  0  0  0
   -0.6690  -32.1250   43.6200 C   0  0  0  0  0
    0.1640  -27.9770   46.0680 C   0  0  0  0  0
    1.6750  -29.7940   46.5360 C   0  0  0  0  0
    2.2980  -26.9600   48.8730 C   0  0  0  0  0
    4.6510  -26.6940   49.4820 C   0  0  0  0  0
    6.2210  -25.3910   48.2750 C   0  0  0  0  0
   -4.8480  -27.7670   41.1860 C   0  0  0  0  0
   -4.4930  -27.5810   42.5990 N   0  0  0  0  0
   -3.6810  -28.3730   43.3810 C   0  0  0  0  0
   -4.9360  -26.4870   43.3880 N   0  0  0  0  0
   -3.0760  -29.5400   42.9340 N   0  0  0  0  0
   -1.7270  -31.4180   43.0660 N   0  0  0  0  0
    0.1860  -31.4550   44.4960 C   0  0  0  0  0
   -0.1360  -30.1110   44.8200 C   0  0  0  0  0
   -1.2140  -29.5090   44.3130 N   0  0  0  0  0
    0.6100  -29.3010   45.8220 C   0  0  0  0  0
    0.7590  -27.2100   47.0100 C   0  0  0  0  0
    1.7590  -27.7340   47.7470 N   0  0  0  0  0
    2.2440  -28.9710   47.5290 C   0  0  0  0  0
    3.1520  -29.4050   48.2330 O   0  0  0  0  0
    1.2090  -26.0040   49.4470 C   0  0  0  0  0
    1.5310  -25.7270   50.8350 O   0  0  0  0  0
    3.6490  -26.3570   48.5930 C   0  0  0  0  0
    5.9320  -26.2140   49.3420 C   0  0  0  0  0
    5.2150  -25.0390   47.3810 C   0  0  0  0  0
    3.9140  -25.5220   47.5350 C   0  0  0  0  0
    5.5260  -24.2320   46.3440 F   0  0  0  0  0
    7.8440  -24.8020   48.0930 Cl  0  0  0  0  0
   -3.1028  -28.1727   45.4885 H   0  0  0  0  0
   -4.5360  -25.9087   45.4116 H   0  0  0  0  0
   -0.5101  -33.1757   43.3773 H   0  0  0  0  0
   -0.6679  -27.5730   45.4911 H   0  0  0  0  0
    2.4662  -29.9519   45.8031 H   0  0  0  0  0
    1.2889  -30.6637   47.0676 H   0  0  0  0  0
    2.5336  -27.6413   49.6906 H   0  0  0  0  0
    4.4205  -27.3573   50.3157 H   0  0  0  0  0
   -3.9420  -27.7531   40.5802 H   0  0  0  0  0
   -5.3542  -28.7244   41.0629 H   0  0  0  0  0
   -5.5103  -26.9611   40.8700 H   0  0  0  0  0
   -3.5119  -29.9843   42.1259 H   0  0  0  0  0
    1.0657  -31.9440   44.9146 H   0  0  0  0  0
   -0.0300  -26.9861   47.7279 H   0  0  0  0  0
    1.2190  -26.3922   46.4553 H   0  0  0  0  0
    0.2269  -26.4716   49.3773 H   0  0  0  0  0
    1.1878  -25.0759   48.8758 H   0  0  0  0  0
    0.8688  -25.1383   51.2046 H   0  0  0  0  0
    6.7055  -26.4799   50.0625 H   0  0  0  0  0
    3.1281  -25.2433   46.8330 H   0  0  0  0  0
  1  2  4  0  0  0
 12  1  4  0  0  0
 13  2  4  0  0  0
  3 14  1  0  0  0
  3 15  4  0  0  0
 18  3  4  0  0  0
  4 15  4  0  0  0
 16  4  4  0  0  0
  5 19  2  0  0  0
 20  5  1  0  0  0
 19  6  1  0  0  0
  6 22  1  0  0  0
 21  7  1  0  0  0
  7 24  1  0  0  0
  7 26  1  0  0  0
 26  8  4  0  0  0
  8 27  4  0  0  0
 27  9  4  0  0  0
  9 28  4  0  0  0
  9 31  1  0  0  0
 11 10  1  0  0  0
 12 11  4  0  0  0
 11 13  4  0  0  0
 14 12  1  0  0  0
 17 16  4  0  0  0
 17 18  4  0  0  0
 19 17  1  0  0  0
 20 21  1  0  0  0
 21 22  1  0  0  0
 22 23  2  0  0  0
 24 25  1  0  0  0
 26 29  4  0  0  0
 28 29  4  0  0  0
 28 30  1  0  0  0
  1 32  1  0  0  0
  2 33  1  0  0  0
  4 34  1  0  0  0
  5 35  1  0  0  0
  6 36  1  0  0  0
  6 37  1  0  0  0
  7 38  1  0  0  0
  8 39  1  0  0  0
 10 40  1  0  0  0
 10 41  1  0  0  0
 10 42  1  0  0  0
 14 43  1  0  0  0
 16 44  1  0  0  0
 20 45  1  0  0  0
 20 46  1  0  0  0
 24 47  1  0  0  0
 24 48  1  0  0  0
 25 49  1  0  0  0
 27 50  1  0  0  0
 29 51  1  0  0  0
M  END
$$$$
