2zis_ligand
  -I-interpret- 

 53 57  0  0  0  0  0  0  0  0999 V2000
   72.3250   80.6270    3.1800 C   0  0  0  0  0
   70.0400   80.2090    0.3360 C   0  0  0  0  0
   68.5900   79.8560    0.5940 C   0  0  0  0  0
   67.5660   80.5170    1.2180 C   0  0  0  0  0
   66.4880   79.6060    1.3360 C   0  0  0  0  0
   65.2310   79.6100    1.9900 C   0  0  0  0  0
   64.4410   78.4620    1.8550 C   0  0  0  0  0
   64.8190   77.3350    1.0550 C   0  0  0  0  0
   66.0310   77.3300    0.3560 C   0  0  0  0  0
   70.5340   79.1100   -0.5600 C   0  0  0  0  0
   71.0230   77.9170   -0.0210 C   0  0  0  0  0
   71.3260   77.0650   -2.2710 C   0  0  0  0  0
   71.7180   75.9860   -3.1160 C   0  0  0  0  0
   66.4520   76.2520   -0.5700 C   0  0  0  0  0
   65.6160   75.8330   -1.6230 C   0  0  0  0  0
   66.0020   74.8330   -2.5090 C   0  0  0  0  0
   67.2500   74.2280   -2.3550 C   0  0  0  0  0
   68.1160   74.6180   -1.3150 C   0  0  0  0  0
   72.0670   80.7000    1.8420 N   0  0  0  0  0
   71.2980   80.2020    3.8610 N   0  0  0  0  0
   70.3750   80.0030    2.9390 C   0  0  0  0  0
   70.7670   80.2870    1.6640 C   0  0  0  0  0
   73.0490   81.1130    0.8100 C   0  0  0  0  0
   70.1390   81.4770   -0.3000 O   0  0  0  0  0
   68.1400   78.6400    0.1510 O   0  0  0  0  0
   66.8670   78.4700    0.5940 C   0  0  0  0  0
   71.4240   76.8950   -0.8840 C   0  0  0  0  0
   70.8350   78.2710   -2.8030 C   0  0  0  0  0
   70.4320   79.2970   -1.9420 C   0  0  0  0  0
   71.9850   75.0900   -3.7780 N   0  0  0  0  0
   67.7100   75.6280   -0.4290 C   0  0  0  0  0
   69.4040   73.9850   -1.1810 C   0  0  0  0  0
   70.4400   73.4910   -1.1080 N   0  0  0  0  0
   63.1590   78.4120    2.5800 N   0  0  0  0  0
   62.5660   79.4880    2.7930 O   0  0  0  0  0
   62.7030   77.3080    2.9550 O   0  0  0  0  0
   73.2818   80.8939    3.6286 H   0  0  0  0  0
   67.5782   81.5518    1.5603 H   0  0  0  0  0
   64.8943   80.4680    2.5719 H   0  0  0  0  0
   64.1555   76.4726    0.9903 H   0  0  0  0  0
   71.0905   77.7859    1.0590 H   0  0  0  0  0
   64.6412   76.3047   -1.7468 H   0  0  0  0  0
   65.3365   74.5249   -3.3155 H   0  0  0  0  0
   67.5581   73.4447   -3.0475 H   0  0  0  0  0
   69.3757   79.6394    3.1782 H   0  0  0  0  0
   73.3885   82.1275    1.0187 H   0  0  0  0  0
   73.9004   80.4327    0.8276 H   0  0  0  0  0
   72.5771   81.0813   -0.1721 H   0  0  0  0  0
   69.8170   82.1581    0.2949 H   0  0  0  0  0
   71.8144   75.9622   -0.4771 H   0  0  0  0  0
   70.7688   78.4056   -3.8826 H   0  0  0  0  0
   70.0426   80.2323   -2.3440 H   0  0  0  0  0
   68.3749   75.9344    0.3785 H   0  0  0  0  0
 19  1  4  0  0  0
  1 20  4  0  0  0
  2  3  1  0  0  0
  2 10  1  0  0  0
 22  2  1  0  0  0
  2 24  1  0  0  0
  3  4  4  0  0  0
  3 25  4  0  0  0
  4  5  4  0  0  0
  5  6  4  0  0  0
  5 26  4  0  0  0
  6  7  4  0  0  0
  7  8  4  0  0  0
  7 34  1  0  0  0
  9  8  4  0  0  0
  9 14  1  0  0  0
 26  9  4  0  0  0
 10 11  4  0  0  0
 10 29  4  0  0  0
 11 27  4  0  0  0
 12 13  1  0  0  0
 27 12  4  0  0  0
 12 28  4  0  0  0
 13 30  3  0  0  0
 14 15  4  0  0  0
 14 31  4  0  0  0
 15 16  4  0  0  0
 16 17  4  0  0  0
 18 17  4  0  0  0
 31 18  4  0  0  0
 18 32  1  0  0  0
 19 22  4  0  0  0
 19 23  1  0  0  0
 20 21  4  0  0  0
 21 22  4  0  0  0
 25 26  4  0  0  0
 28 29  4  0  0  0
 32 33  3  0  0  0
 34 35  2  0  0  0
 34 36  2  0  0  0
  1 37  1  0  0  0
  4 38  1  0  0  0
  6 39  1  0  0  0
  8 40  1  0  0  0
 11 41  1  0  0  0
 15 42  1  0  0  0
 16 43  1  0  0  0
 17 44  1  0  0  0
 21 45  1  0  0  0
 23 46  1  0  0  0
 23 47  1  0  0  0
 23 48  1  0  0  0
 24 49  1  0  0  0
 27 50  1  0  0  0
 28 51  1  0  0  0
 29 52  1  0  0  0
 31 53  1  0  0  0
M  END
$$$$
