4w4w_ligand
  -I-interpret- 

 51 54  0  0  0  0  0  0  0  0999 V2000
    2.9740  -30.9270  -31.9760 C   0  0  0  0  0
    4.4940  -27.7200  -32.0500 C   0  0  0  0  0
    5.9310  -23.6430  -33.1980 N   0  0  0  0  0
    6.9210  -23.4880  -34.2560 C   0  0  0  0  0
    8.7890  -22.3420  -35.2420 C   0  0  0  0  0
    8.6960  -23.1440  -36.3890 C   0  0  0  0  0
    7.6560  -24.0790  -36.5150 C   0  0  0  0  0
    6.3290  -28.5740  -33.0350 C   0  0  0  0  0
    1.1280  -34.8130  -34.6660 C   0  0  0  0  0
    1.0180  -35.8920  -35.5210 C   0  0  0  0  0
    3.9800  -37.9620  -34.6170 C   0  0  0  0  0
    2.9790  -36.8360  -34.6180 C   0  0  0  0  0
    3.1200  -35.7880  -33.7270 C   0  0  0  0  0
    2.1580  -34.7770  -33.7270 C   0  0  0  0  0
    2.3620  -33.5920  -32.8780 N   0  0  0  0  0
    1.3950  -32.8630  -32.1450 C   0  0  0  0  0
    0.2280  -33.1940  -32.0760 O   0  0  0  0  0
    1.8860  -31.6280  -31.4340 C   0  0  0  0  0
    1.2100  -31.1150  -30.3060 C   0  0  0  0  0
    1.6460  -29.9100  -29.7020 C   0  0  0  0  0
    2.7700  -29.2580  -30.1990 C   0  0  0  0  0
    3.4600  -29.7720  -31.3370 C   0  0  0  0  0
    4.4940  -29.0580  -31.9030 N   0  0  0  0  0
    5.6680  -27.3720  -32.7060 C   0  0  0  0  0
    6.0850  -26.0880  -33.0860 N   0  0  0  0  0
    5.4880  -24.9120  -32.6770 C   0  0  0  0  0
    4.5770  -24.9390  -31.9230 O   0  0  0  0  0
    7.9020  -22.4820  -34.1780 C   0  0  0  0  0
    6.7980  -24.2600  -35.4420 C   0  0  0  0  0
    5.5650  -29.5630  -32.6000 N   0  0  0  0  0
    1.9550  -36.8760  -35.4870 N   0  0  0  0  0
    3.4438  -31.2784  -32.8946 H   0  0  0  0  0
    3.7151  -27.0348  -31.7154 H   0  0  0  0  0
    5.5242  -22.7968  -32.7993 H   0  0  0  0  0
    9.5758  -21.5900  -35.1821 H   0  0  0  0  0
    9.4334  -23.0411  -37.1851 H   0  0  0  0  0
    7.5266  -24.6490  -37.4351 H   0  0  0  0  0
    7.2855  -28.6697  -33.5489 H   0  0  0  0  0
    0.4125  -33.9929  -34.7251 H   0  0  0  0  0
    0.1837  -35.9542  -36.2197 H   0  0  0  0  0
    4.9723  -37.5645  -34.8299 H   0  0  0  0  0
    3.9822  -38.4436  -33.6392 H   0  0  0  0  0
    3.7071  -38.6897  -35.3812 H   0  0  0  0  0
    3.9648  -35.7523  -33.0391 H   0  0  0  0  0
    3.3216  -33.2532  -32.8091 H   0  0  0  0  0
    0.3504  -31.6473  -29.8987 H   0  0  0  0  0
    1.1035  -29.4958  -28.8521 H   0  0  0  0  0
    3.1259  -28.3482  -29.7156 H   0  0  0  0  0
    6.8884  -26.0177  -33.7105 H   0  0  0  0  0
    7.9657  -21.8294  -33.3073 H   0  0  0  0  0
    6.0113  -25.0114  -35.5096 H   0  0  0  0  0
  1 18  4  0  0  0
 22  1  4  0  0  0
  2 23  4  0  0  0
 24  2  4  0  0  0
  3  4  1  0  0  0
 26  3  1  0  0  0
  4 28  4  0  0  0
  4 29  4  0  0  0
  5  6  4  0  0  0
 28  5  4  0  0  0
  7  6  4  0  0  0
 29  7  4  0  0  0
 24  8  4  0  0  0
  8 30  4  0  0  0
  9 10  4  0  0  0
 14  9  4  0  0  0
 10 31  4  0  0  0
 12 11  1  0  0  0
 13 12  4  0  0  0
 12 31  4  0  0  0
 14 13  4  0  0  0
 15 14  1  0  0  0
 16 15  1  0  0  0
 16 17  2  0  0  0
 18 16  1  0  0  0
 18 19  4  0  0  0
 20 19  4  0  0  0
 21 20  4  0  0  0
 22 21  4  0  0  0
 23 22  1  0  0  0
 30 23  4  0  0  0
 25 24  1  0  0  0
 25 26  1  0  0  0
 26 27  2  0  0  0
  1 32  1  0  0  0
  2 33  1  0  0  0
  3 34  1  0  0  0
  5 35  1  0  0  0
  6 36  1  0  0  0
  7 37  1  0  0  0
  8 38  1  0  0  0
  9 39  1  0  0  0
 10 40  1  0  0  0
 11 41  1  0  0  0
 11 42  1  0  0  0
 11 43  1  0  0  0
 13 44  1  0  0  0
 15 45  1  0  0  0
 19 46  1  0  0  0
 20 47  1  0  0  0
 21 48  1  0  0  0
 25 49  1  0  0  0
 28 50  1  0  0  0
 29 51  1  0  0  0
M  END
$$$$
