### 
### Created by X-TOOL on Mon Sep 10 21:13:20 2018
### 

@<TRIPOS>MOLECULE
4uv9_ligand
  113   119     1     0     0
SMALL
GAST_HUCK


@<TRIPOS>ATOM
      1 PA         -6.6440   67.4570   88.3170 P.3       1 D70         0.2972
      2 O1A        -5.7220   67.8690   87.1840 O.co2     1 D70        -0.6127
      3 O2A        -7.9720   66.8010   88.0170 O.co2     1 D70        -0.6127
      4 O5B        -6.9710   68.7400   89.2350 O.3       1 D70        -0.2476
      5 C5B        -6.0300   69.8050   89.3720 C.3       1 D70         0.1128
      6 C4B        -6.7220   71.1320   89.1020 C.3       1 D70         0.1189
      7 O4B        -5.8250   72.2150   89.3420 O.3       1 D70        -0.3364
      8 C3B        -7.1760   71.2690   87.6580 C.3       1 D70         0.1149
      9 O3B        -8.5740   71.5630   87.6750 O.3       1 D70        -0.3864
     10 C2B        -6.3850   72.4400   87.1040 C.3       1 D70         0.1385
     11 O2B        -7.1510   73.2140   86.1810 O.3       1 D70        -0.3836
     12 C1B        -6.0690   73.2190   88.3610 C.3       1 D70         0.2010
     13 N9A        -4.8830   74.0920   88.2760 N.pl3     1 D70        -0.1919
     14 C8A        -3.7120   73.8500   87.6490 C.2       1 D70         0.1123
     15 N7A        -2.8510   74.8900   87.8100 N.2       1 D70        -0.2958
     16 C5A        -3.4850   75.8120   88.5640 C.ar      1 D70         0.1045
     17 C6A        -3.1610   77.1450   89.1200 C.ar      1 D70         0.1298
     18 N6A        -1.9540   77.7120   88.8840 N.pl3     1 D70        -0.3152
     19 N1A        -4.1140   77.7660   89.8610 N.ar      1 D70        -0.2698
     20 C2A        -5.3250   77.2130   90.1020 C.ar      1 D70         0.0533
     21 N3A        -5.6860   76.0080   89.6280 N.ar      1 D70        -0.2714
     22 C4A        -4.8230   75.2790   88.8720 C.ar      1 D70         0.1613
     23 N1         -8.5160   57.9860   85.5740 N.am      1 D70        -0.2442
     24 C2         -9.4670   57.0240   85.7180 C.2       1 D70         0.2897
     25 O2         -9.9050   56.7280   86.8560 O.2       1 D70        -0.3910
     26 N3         -9.9660   56.4020   84.6340 N.am      1 D70        -0.1823
     27 C4         -9.5200   56.6900   83.3990 C.2       1 D70         0.2583
     28 O4        -10.0120   56.0910   82.4130 O.2       1 D70        -0.3310
     29 C4X        -8.1280   57.2110   83.2620 C.3       1 D70         0.1870
     30 N5         -8.1070   57.8740   81.9190 N.pl3     1 D70        -0.3176
     31 C5X        -7.4930   59.0540   81.6940 C.ar      1 D70         0.0434
     32 C6         -7.4190   59.5510   80.3950 C.ar      1 D70        -0.0603
     33 C7         -6.8040   60.7710   80.1380 C.ar      1 D70        -0.0686
     34 C7M        -6.7390   61.2820   78.7200 C.3       1 D70        -0.0426
     35 C8         -6.2190   61.5460   81.2730 C.ar      1 D70        -0.0686
     36 C8M        -5.5490   62.8730   81.0290 C.3       1 D70        -0.0426
     37 C9         -6.2940   61.0460   82.5750 C.ar      1 D70        -0.0599
     38 C9A        -6.9140   59.8200   82.8340 C.ar      1 D70         0.0478
     39 N10        -7.0190   59.2680   84.1370 N.pl3     1 D70        -0.2924
     40 C10        -8.0100   58.2680   84.3320 C.3       1 D70         0.1552
     41 C1'        -6.3360   59.9190   85.2700 C.3       1 D70         0.0535
     42 C2'        -7.2710   60.8540   86.0370 C.3       1 D70         0.1024
     43 O2'        -7.9990   61.6670   85.1150 O.3       1 D70        -0.3872
     44 C3'        -6.4930   61.7640   86.9800 C.3       1 D70         0.1111
     45 O3'        -5.6170   60.9700   87.7830 O.3       1 D70        -0.3865
     46 C4'        -7.3790   62.5770   87.9150 C.3       1 D70         0.1118
     47 O4'        -8.5340   63.0840   87.2320 O.3       1 D70        -0.3865
     48 C5'        -6.5540   63.7310   88.4720 C.3       1 D70         0.1124
     49 O5'        -7.2500   64.4250   89.5110 O.3       1 D70        -0.2477
     50 P          -6.4700   65.5220   90.3980 P.3       1 D70         0.2972
     51 O1P        -5.3070   64.8420   91.0840 O.co2     1 D70        -0.6127
     52 O2P        -7.5130   66.2580   91.2110 O.co2     1 D70        -0.6127
     53 O3P        -5.7990   66.5270   89.3270 O.3       1 D70        -0.1319
     54 CAH        -8.0560   53.7440   82.8570 C.ar      1 D70        -0.0599
     55 CAD        -8.1320   52.6040   82.0570 C.ar      1 D70        -0.0686
     56 CAB        -7.3770   52.5360   80.8870 C.ar      1 D70        -0.0687
     57 CAE        -6.5560   53.6040   80.5230 C.ar      1 D70        -0.0686
     58 CAI        -6.4870   54.7470   81.3200 C.ar      1 D70        -0.0599
     59 CAP        -7.2380   54.8260   82.4950 C.ar      1 D70        -0.0353
     60 CAM        -7.1670   55.9840   83.2980 C.3       1 D70         0.0472
     61 CAL        -6.4480   55.6080   84.6140 C.3       1 D70         0.0253
     62 CAO        -5.0420   55.0310   84.3860 C.2       1 D70         0.0093
     63 NAA        -4.1990   55.6300   83.5440 N.2       1 D70        -0.3860
     64 CAN        -4.5820   53.7840   85.1400 C.3       1 D70         0.0086
     65 CAQ        -3.3540   54.0330   85.7470 C.3       1 D70        -0.0467
     66 H          -5.2110   69.6655   88.6511 H         1 D70         0.0648
     67 H          -5.6229   69.8052   90.3939 H         1 D70         0.0648
     68 H          -7.5936   71.2147   89.7679 H         1 D70         0.0651
     69 H          -6.9808   70.3529   87.0812 H         1 D70         0.0648
     70 H          -8.7202   72.3736   88.1483 H         1 D70         0.2100
     71 H          -5.4648   72.0965   86.6088 H         1 D70         0.0676
     72 H          -7.9211   73.5564   86.6192 H         1 D70         0.2101
     73 H          -6.9378   73.8338   88.6389 H         1 D70         0.0996
     74 H          -3.4872   72.9433   87.0893 H         1 D70         0.1349
     75 H          -1.7357   78.6399   89.2742 H         1 D70         0.1820
     76 H          -1.2543   77.2153   88.3143 H         1 D70         0.1820
     77 H          -6.0362   77.7665   90.7044 H         1 D70         0.0996
     78 H          -8.1863   58.4872   86.3741 H         1 D70         0.1874
     79 H         -10.6816   55.7130   84.7493 H         1 D70         0.2260
     80 H          -8.5823   57.4085   81.1327 H         1 D70         0.1685
     81 H          -7.8448   58.9813   79.5769 H         1 D70         0.0400
     82 H          -7.2266   60.5607   78.0477 H         1 D70         0.0350
     83 H          -5.6872   61.4069   78.4231 H         1 D70         0.0350
     84 H          -7.2558   62.2508   78.6553 H         1 D70         0.0350
     85 H          -5.1865   63.2817   81.9837 H         1 D70         0.0350
     86 H          -6.2713   63.5717   80.5817 H         1 D70         0.0350
     87 H          -4.7000   62.7346   80.3435 H         1 D70         0.0350
     88 H          -5.8670   61.6145   83.3933 H         1 D70         0.0400
     89 H          -8.8608   58.8823   84.0021 H         1 D70         0.0824
     90 H          -5.4863   60.5024   84.8857 H         1 D70         0.0533
     91 H          -5.9672   59.1428   85.9567 H         1 D70         0.0533
     92 H          -7.9762   60.2476   86.6244 H         1 D70         0.0639
     93 H          -8.5788   62.2466   85.5949 H         1 D70         0.2100
     94 H          -5.8979   62.4608   86.3715 H         1 D70         0.0647
     95 H          -6.1283   60.3488   88.2882 H         1 D70         0.2100
     96 H          -7.7123   61.9344   88.7432 H         1 D70         0.0647
     97 H          -9.0422   62.3580   86.8896 H         1 D70         0.2100
     98 H          -6.3329   64.4369   87.6578 H         1 D70         0.0647
     99 H          -5.6124   63.3328   88.8779 H         1 D70         0.0647
    100 H          -8.6366   53.7953   83.7710 H         1 D70         0.0557
    101 H          -8.7728   51.7777   82.3426 H         1 D70         0.0599
    102 H          -7.4277   51.6533   80.2599 H         1 D70         0.0559
    103 H          -5.9676   53.5451   79.6145 H         1 D70         0.0599
    104 H          -5.8503   55.5741   81.0272 H         1 D70         0.0557
    105 H          -6.3359   56.4801   82.7754 H         1 D70         0.0509
    106 H          -7.0537   54.8570   85.1422 H         1 D70         0.0572
    107 H          -6.3597   56.5111   85.2357 H         1 D70         0.0572
    108 H          -3.2776   55.2486   83.3970 H         1 D70         0.0795
    109 H          -4.4786   52.9466   84.4343 H         1 D70         0.0545
    110 H          -5.3250   53.5260   85.9090 H         1 D70         0.0545
    111 H          -3.0242   53.1346   86.2893 H         1 D70         0.0264
    112 H          -3.4570   54.8702   86.4530 H         1 D70         0.0264
    113 H          -2.6106   54.2908   84.9783 H         1 D70         0.0264
@<TRIPOS>BOND
     1    1    2 ar 
     2    1    3 ar 
     3    1    4 1  
     4   53    1 1  
     5    4    5 1  
     6    5    6 1  
     7    6    7 1  
     8    6    8 1  
     9    7   12 1  
    10    8    9 1  
    11    8   10 1  
    12   10   11 1  
    13   10   12 1  
    14   12   13 1  
    15   13   14 1  
    16   13   22 1  
    17   14   15 2  
    18   16   15 1  
    19   16   17 ar 
    20   22   16 ar 
    21   17   18 1  
    22   17   19 ar 
    23   20   19 ar 
    24   21   20 ar 
    25   22   21 ar 
    26   23   24 am 
    27   40   23 1  
    28   24   25 2  
    29   26   24 am 
    30   27   26 am 
    31   27   28 2  
    32   29   27 1  
    33   29   30 1  
    34   29   40 1  
    35   60   29 1  
    36   30   31 1  
    37   31   32 ar 
    38   31   38 ar 
    39   32   33 ar 
    40   33   34 1  
    41   33   35 ar 
    42   35   36 1  
    43   37   35 ar 
    44   38   37 ar 
    45   39   38 1  
    46   40   39 1  
    47   39   41 1  
    48   41   42 1  
    49   42   43 1  
    50   42   44 1  
    51   44   45 1  
    52   44   46 1  
    53   46   47 1  
    54   46   48 1  
    55   48   49 1  
    56   49   50 1  
    57   50   51 ar 
    58   50   52 ar 
    59   50   53 1  
    60   54   55 ar 
    61   59   54 ar 
    62   55   56 ar 
    63   57   56 ar 
    64   58   57 ar 
    65   59   58 ar 
    66   59   60 1  
    67   60   61 1  
    68   61   62 1  
    69   62   63 2  
    70   62   64 1  
    71   64   65 1  
    72    5   66 1  
    73    5   67 1  
    74    6   68 1  
    75    8   69 1  
    76    9   70 1  
    77   10   71 1  
    78   11   72 1  
    79   12   73 1  
    80   14   74 1  
    81   18   75 1  
    82   18   76 1  
    83   20   77 1  
    84   23   78 1  
    85   26   79 1  
    86   30   80 1  
    87   32   81 1  
    88   34   82 1  
    89   34   83 1  
    90   34   84 1  
    91   36   85 1  
    92   36   86 1  
    93   36   87 1  
    94   37   88 1  
    95   40   89 1  
    96   41   90 1  
    97   41   91 1  
    98   42   92 1  
    99   43   93 1  
   100   44   94 1  
   101   45   95 1  
   102   46   96 1  
   103   47   97 1  
   104   48   98 1  
   105   48   99 1  
   106   54  100 1  
   107   55  101 1  
   108   56  102 1  
   109   57  103 1  
   110   58  104 1  
   111   60  105 1  
   112   61  106 1  
   113   61  107 1  
   114   63  108 1  
   115   64  109 1  
   116   64  110 1  
   117   65  111 1  
   118   65  112 1  
   119   65  113 1  
@<TRIPOS>SUBSTRUCTURE
     1 D70         1

