4uv9_ligand
  -I-interpret- 

115121  0  0  0  0  0  0  0  0999 V2000
   -6.6440   67.4570   88.3170 P   0  0  0  0  0
   -5.7220   67.8690   87.1840 O   0  0  0  0  0
   -7.9720   66.8010   88.0170 O   0  0  0  0  0
   -6.9710   68.7400   89.2350 O   0  0  0  0  0
   -6.0300   69.8050   89.3720 C   0  0  0  0  0
   -6.7220   71.1320   89.1020 C   0  0  0  0  0
   -5.8250   72.2150   89.3420 O   0  0  0  0  0
   -7.1760   71.2690   87.6580 C   0  0  0  0  0
   -8.5740   71.5630   87.6750 O   0  0  0  0  0
   -6.3850   72.4400   87.1040 C   0  0  0  0  0
   -7.1510   73.2140   86.1810 O   0  0  0  0  0
   -6.0690   73.2190   88.3610 C   0  0  0  0  0
   -4.8830   74.0920   88.2760 N   0  0  0  0  0
   -3.7120   73.8500   87.6490 C   0  0  0  0  0
   -2.8510   74.8900   87.8100 N   0  0  0  0  0
   -3.4850   75.8120   88.5640 C   0  0  0  0  0
   -3.1610   77.1450   89.1200 C   0  0  0  0  0
   -1.9540   77.7120   88.8840 N   0  0  0  0  0
   -4.1140   77.7660   89.8610 N   0  0  0  0  0
   -5.3250   77.2130   90.1020 C   0  0  0  0  0
   -5.6860   76.0080   89.6280 N   0  0  0  0  0
   -4.8230   75.2790   88.8720 C   0  0  0  0  0
   -8.5160   57.9860   85.5740 N   0  0  0  0  0
   -9.4670   57.0240   85.7180 C   0  0  0  0  0
   -9.9050   56.7280   86.8560 O   0  0  0  0  0
   -9.9660   56.4020   84.6340 N   0  0  0  0  0
   -9.5200   56.6900   83.3990 C   0  0  0  0  0
  -10.0120   56.0910   82.4130 O   0  0  0  0  0
   -8.1280   57.2110   83.2620 C   0  0  0  0  0
   -8.1070   57.8740   81.9190 N   0  0  0  0  0
   -7.4930   59.0540   81.6940 C   0  0  0  0  0
   -7.4190   59.5510   80.3950 C   0  0  0  0  0
   -6.8040   60.7710   80.1380 C   0  0  0  0  0
   -6.7390   61.2820   78.7200 C   0  0  0  0  0
   -6.2190   61.5460   81.2730 C   0  0  0  0  0
   -5.5490   62.8730   81.0290 C   0  0  0  0  0
   -6.2940   61.0460   82.5750 C   0  0  0  0  0
   -6.9140   59.8200   82.8340 C   0  0  0  0  0
   -7.0190   59.2680   84.1370 N   0  0  0  0  0
   -8.0100   58.2680   84.3320 C   0  0  0  0  0
   -6.3360   59.9190   85.2700 C   0  0  0  0  0
   -7.2710   60.8540   86.0370 C   0  0  0  0  0
   -7.9990   61.6670   85.1150 O   0  0  0  0  0
   -6.4930   61.7640   86.9800 C   0  0  0  0  0
   -5.6170   60.9700   87.7830 O   0  0  0  0  0
   -7.3790   62.5770   87.9150 C   0  0  0  0  0
   -8.5340   63.0840   87.2320 O   0  0  0  0  0
   -6.5540   63.7310   88.4720 C   0  0  0  0  0
   -7.2500   64.4250   89.5110 O   0  0  0  0  0
   -6.4700   65.5220   90.3980 P   0  0  0  0  0
   -5.3070   64.8420   91.0840 O   0  0  0  0  0
   -7.5130   66.2580   91.2110 O   0  0  0  0  0
   -5.7990   66.5270   89.3270 O   0  0  0  0  0
   -8.0560   53.7440   82.8570 C   0  0  0  0  0
   -8.1320   52.6040   82.0570 C   0  0  0  0  0
   -7.3770   52.5360   80.8870 C   0  0  0  0  0
   -6.5560   53.6040   80.5230 C   0  0  0  0  0
   -6.4870   54.7470   81.3200 C   0  0  0  0  0
   -7.2380   54.8260   82.4950 C   0  0  0  0  0
   -7.1670   55.9840   83.2980 C   0  0  0  0  0
   -6.4480   55.6080   84.6140 C   0  0  0  0  0
   -5.0420   55.0310   84.3860 C   0  0  0  0  0
   -4.1990   55.6300   83.5440 N   0  0  0  0  0
   -4.5820   53.7840   85.1400 C   0  0  0  0  0
   -3.3540   54.0330   85.7470 C   0  0  0  0  0
   -4.9279   68.2672   87.5479 H   0  0  0  0  0
   -5.2187   69.6667   88.6574 H   0  0  0  0  0
   -5.6270   69.8052   90.3847 H   0  0  0  0  0
   -7.5855   71.1576   89.7667 H   0  0  0  0  0
   -7.0160   70.3745   87.0561 H   0  0  0  0  0
   -9.0539   70.8103   88.0283 H   0  0  0  0  0
   -5.5046   72.1435   86.5339 H   0  0  0  0  0
   -6.6168   73.9420   85.8549 H   0  0  0  0  0
   -6.8953   73.8962   88.5770 H   0  0  0  0  0
   -3.4870   72.9425   87.0888 H   0  0  0  0  0
   -1.2611   77.2202   88.3198 H   0  0  0  0  0
   -1.7379   78.6309   89.2705 H   0  0  0  0  0
   -6.0401   77.7696   90.7078 H   0  0  0  0  0
   -8.1797   58.4972   86.3901 H   0  0  0  0  0
  -10.6959   55.6993   84.7516 H   0  0  0  0  0
   -8.5777   57.4130   81.1403 H   0  0  0  0  0
   -7.8472   58.9782   79.5724 H   0  0  0  0  0
   -6.1933   60.5684   78.1027 H   0  0  0  0  0
   -7.7504   61.4016   78.3315 H   0  0  0  0  0
   -6.2265   62.2439   78.7049 H   0  0  0  0  0
   -4.7080   62.7345   80.3496 H   0  0  0  0  0
   -6.2657   63.5644   80.5858 H   0  0  0  0  0
   -5.1902   63.2769   81.9757 H   0  0  0  0  0
   -5.8646   61.6177   83.3978 H   0  0  0  0  0
   -8.8420   58.9434   84.1327 H   0  0  0  0  0
   -5.5085   60.5096   84.8770 H   0  0  0  0  0
   -5.9919   59.1429   85.9537 H   0  0  0  0  0
   -7.9518   60.2377   86.6242 H   0  0  0  0  0
   -8.5849   62.2527   85.6000 H   0  0  0  0  0
   -5.9493   62.4662   86.3481 H   0  0  0  0  0
   -5.1253   61.5405   88.3783 H   0  0  0  0  0
   -7.7328   61.9348   88.7215 H   0  0  0  0  0
   -9.0708   63.5904   87.8460 H   0  0  0  0  0
   -6.3556   64.4336   87.6626 H   0  0  0  0  0
   -5.6320   63.3249   88.8879 H   0  0  0  0  0
   -8.1746   66.6273   90.6215 H   0  0  0  0  0
   -8.6398   53.7955   83.7760 H   0  0  0  0  0
   -8.7764   51.7731   82.3442 H   0  0  0  0  0
   -7.4280   51.6484   80.2564 H   0  0  0  0  0
   -5.9644   53.5448   79.6095 H   0  0  0  0  0
   -5.8468   55.5786   81.0256 H   0  0  0  0  0
   -6.6551   56.6867   82.6406 H   0  0  0  0  0
   -7.0443   54.8431   85.1115 H   0  0  0  0  0
   -6.3420   56.5170   85.2061 H   0  0  0  0  0
   -4.4866   56.4740   83.0488 H   0  0  0  0  0
   -4.4791   52.9546   84.4403 H   0  0  0  0  0
   -5.3182   53.5290   85.9023 H   0  0  0  0  0
   -2.6183   54.2884   84.9843 H   0  0  0  0  0
   -3.4574   54.8628   86.4462 H   0  0  0  0  0
   -3.0283   53.1421   86.2840 H   0  0  0  0  0
  1  2  1  0  0  0
  1  3  2  0  0  0
  1  4  1  0  0  0
 53  1  1  0  0  0
  4  5  1  0  0  0
  5  6  1  0  0  0
  6  7  1  0  0  0
  6  8  1  0  0  0
  7 12  1  0  0  0
  8  9  1  0  0  0
  8 10  1  0  0  0
 10 11  1  0  0  0
 10 12  1  0  0  0
 12 13  1  0  0  0
 13 14  4  0  0  0
 13 22  4  0  0  0
 14 15  4  0  0  0
 16 15  4  0  0  0
 16 17  4  0  0  0
 22 16  4  0  0  0
 17 18  1  0  0  0
 17 19  4  0  0  0
 20 19  4  0  0  0
 21 20  4  0  0  0
 22 21  4  0  0  0
 23 24  1  0  0  0
 40 23  1  0  0  0
 24 25  2  0  0  0
 26 24  1  0  0  0
 27 26  1  0  0  0
 27 28  2  0  0  0
 29 27  1  0  0  0
 29 30  1  0  0  0
 29 40  1  0  0  0
 60 29  1  0  0  0
 30 31  1  0  0  0
 31 32  4  0  0  0
 31 38  4  0  0  0
 32 33  4  0  0  0
 33 34  1  0  0  0
 33 35  4  0  0  0
 35 36  1  0  0  0
 37 35  4  0  0  0
 38 37  4  0  0  0
 39 38  1  0  0  0
 40 39  1  0  0  0
 39 41  1  0  0  0
 41 42  1  0  0  0
 42 43  1  0  0  0
 42 44  1  0  0  0
 44 45  1  0  0  0
 44 46  1  0  0  0
 46 47  1  0  0  0
 46 48  1  0  0  0
 48 49  1  0  0  0
 49 50  1  0  0  0
 50 51  2  0  0  0
 50 52  1  0  0  0
 50 53  1  0  0  0
 54 55  4  0  0  0
 59 54  4  0  0  0
 55 56  4  0  0  0
 57 56  4  0  0  0
 58 57  4  0  0  0
 59 58  4  0  0  0
 59 60  1  0  0  0
 60 61  1  0  0  0
 61 62  1  0  0  0
 62 63  2  0  0  0
 62 64  1  0  0  0
 64 65  1  0  0  0
  2 66  1  0  0  0
  5 67  1  0  0  0
  5 68  1  0  0  0
  6 69  1  0  0  0
  8 70  1  0  0  0
  9 71  1  0  0  0
 10 72  1  0  0  0
 11 73  1  0  0  0
 12 74  1  0  0  0
 14 75  1  0  0  0
 18 76  1  0  0  0
 18 77  1  0  0  0
 20 78  1  0  0  0
 23 79  1  0  0  0
 26 80  1  0  0  0
 30 81  1  0  0  0
 32 82  1  0  0  0
 34 83  1  0  0  0
 34 84  1  0  0  0
 34 85  1  0  0  0
 36 86  1  0  0  0
 36 87  1  0  0  0
 36 88  1  0  0  0
 37 89  1  0  0  0
 40 90  1  0  0  0
 41 91  1  0  0  0
 41 92  1  0  0  0
 42 93  1  0  0  0
 43 94  1  0  0  0
 44 95  1  0  0  0
 45 96  1  0  0  0
 46 97  1  0  0  0
 47 98  1  0  0  0
 48 99  1  0  0  0
 48100  1  0  0  0
 52101  1  0  0  0
 54102  1  0  0  0
 55103  1  0  0  0
 56104  1  0  0  0
 57105  1  0  0  0
 58106  1  0  0  0
 60107  1  0  0  0
 61108  1  0  0  0
 61109  1  0  0  0
 63110  1  0  0  0
 64111  1  0  0  0
 64112  1  0  0  0
 65113  1  0  0  0
 65114  1  0  0  0
 65115  1  0  0  0
M  END
$$$$
