5jnc_ligand
  -I-interpret- 

 23 23  0  0  0  0  0  0  0  0999 V2000
   33.1030    9.6660   19.2360 S   0  0  0  0  0
   39.6730    9.7890   19.2520 N   0  3  0  0  0
   38.9120   10.1630   20.4520 C   0  0  0  0  0
   37.4410   10.0420   20.1390 C   0  0  0  0  0
   32.8180    8.5150   18.2340 N   0  0  0  0  0
   32.5860   10.9720   18.7910 O   0  0  0  0  0
   36.7170   11.1580   19.7300 C   0  0  0  0  0
   32.4160    9.3750   20.5020 O   0  0  0  0  0
   35.3590   11.0410   19.4390 C   0  0  0  0  0
   34.6960    9.8080   19.5400 C   0  0  0  0  0
   35.4450    8.7040   19.9350 C   0  0  0  0  0
   36.7970    8.8300   20.2380 C   0  0  0  0  0
   40.6714    9.8654   19.4465 H   0  0  0  0  0
   39.4482    8.8281   18.9940 H   0  0  0  0  0
   39.4259   10.4148   18.4854 H   0  0  0  0  0
   39.1493   11.1870   20.7404 H   0  0  0  0  0
   39.1729    9.5038   21.2800 H   0  0  0  0  0
   32.3162    8.7063   17.3668 H   0  0  0  0  0
   33.1325    7.5674   18.4428 H   0  0  0  0  0
   37.2125   12.1244   19.6372 H   0  0  0  0  0
   34.8011   11.9239   19.1270 H   0  0  0  0  0
   34.9662    7.7275   20.0080 H   0  0  0  0  0
   37.3568    7.9519   20.5600 H   0  0  0  0  0
  1  5  1  0  0  0
  1  6  2  0  0  0
  1  8  2  0  0  0
 10  1  1  0  0  0
  3  2  1  0  0  0
  4  3  1  0  0  0
  7  4  4  0  0  0
  4 12  4  0  0  0
  9  7  4  0  0  0
  9 10  4  0  0  0
 10 11  4  0  0  0
 11 12  4  0  0  0
  2 13  1  0  0  0
  2 14  1  0  0  0
  2 15  1  0  0  0
  3 16  1  0  0  0
  3 17  1  0  0  0
  5 18  1  0  0  0
  5 19  1  0  0  0
  7 20  1  0  0  0
  9 21  1  0  0  0
 11 22  1  0  0  0
 12 23  1  0  0  0
M  END
$$$$
