4wx6_ligand
  -I-interpret- 

 69 69  0  0  0  0  0  0  0  0999 V2000
   37.1560   42.7860   12.4710 C   0  0  0  0  0
   37.7160   43.4290   13.5650 C   0  0  0  0  0
   38.9000   42.9540   14.1610 C   0  0  0  0  0
   39.4820   39.2770   17.2630 C   0  0  0  0  0
   38.2540   39.8750   17.8970 C   0  0  0  0  0
   40.5860   38.9970   18.3520 C   0  0  0  0  0
   40.2550   37.9080   19.4420 C   0  0  0  0  0
   41.9300   38.4980   17.7160 C   0  0  0  0  0
   40.7880   40.3790   19.0700 C   0  0  0  0  0
   36.3390   39.5020   19.2660 C   0  0  0  0  0
   35.9550   38.4590   20.2640 C   0  0  0  0  0
   35.0160   37.9850   22.5030 C   0  0  0  0  0
   33.4870   38.1270   22.5540 C   0  0  0  0  0
   32.9050   39.5420   22.7700 C   0  0  0  0  0
   33.9680   39.7940   25.2070 C   0  0  0  0  0
   39.5340   41.7960   13.6640 C   0  0  0  0  0
   38.9550   41.1490   12.5800 C   0  0  0  0  0
   37.7960   41.6550   12.0050 C   0  0  0  0  0
   37.1020   40.8470   10.6710 Cl  0  0  0  0  0
   36.8890   44.8550   14.1320 Cl  0  0  0  0  0
   40.8010   41.1880   14.2910 C   0  0  0  0  0
   40.2610   40.0380   15.1080 C   0  0  0  0  0
   41.7650   40.6700   13.3100 N   0  3  0  0  0
   40.0450   38.9390   14.5990 O   0  0  0  0  0
   39.9950   40.3220   16.4050 N   0  0  0  0  0
   37.5060   39.0030   18.5750 N   0  0  0  0  0
   38.0200   41.0940   17.8160 O   0  0  0  0  0
   35.4740   38.9070   21.4660 N   0  0  0  0  0
   36.0890   37.2910   19.8870 O   0  0  0  0  0
   32.3570   39.8870   24.3860 S   0  0  0  0  0
   31.5430   38.7020   24.7210 O   0  0  0  0  0
   31.8450   41.2530   24.5760 O   0  0  0  0  0
   43.1730   40.6990   13.7360 C   0  0  0  0  0
   44.0610   40.6310   12.4570 C   0  0  0  0  0
   36.2473   43.1586   11.9983 H   0  0  0  0  0
   39.3291   43.4841   15.0113 H   0  0  0  0  0
   39.2447   38.3451   16.7498 H   0  0  0  0  0
   40.1471   36.9357   18.9613 H   0  0  0  0  0
   41.0649   37.8668   20.1703 H   0  0  0  0  0
   39.3248   38.1709   19.9457 H   0  0  0  0  0
   42.6971   38.4419   18.4883 H   0  0  0  0  0
   41.7793   37.5107   17.2793 H   0  0  0  0  0
   42.2443   39.1958   16.9399 H   0  0  0  0  0
   39.8743   40.6488   19.5996 H   0  0  0  0  0
   41.6115   40.3012   19.7799 H   0  0  0  0  0
   41.0179   41.1428   18.3271 H   0  0  0  0  0
   36.5539   40.4507   19.7577 H   0  0  0  0  0
   35.5240   39.6907   18.5672 H   0  0  0  0  0
   35.3091   36.9599   22.2762 H   0  0  0  0  0
   35.4660   38.2216   23.4672 H   0  0  0  0  0
   33.1683   37.5450   23.4188 H   0  0  0  0  0
   33.1315   37.8116   21.5731 H   0  0  0  0  0
   32.0319   39.6211   22.1223 H   0  0  0  0  0
   33.7106   40.2450   22.5583 H   0  0  0  0  0
   33.8225   39.7547   26.2865 H   0  0  0  0  0
   34.4914   38.8967   24.8768 H   0  0  0  0  0
   34.5566   40.6747   24.9502 H   0  0  0  0  0
   39.4105   40.2431   12.1799 H   0  0  0  0  0
   41.3523   41.9428   14.8518 H   0  0  0  0  0
   41.6962   41.2701   12.4881 H   0  0  0  0  0
   41.5267   39.6903   13.1557 H   0  0  0  0  0
   40.1543   41.2603   16.7719 H   0  0  0  0  0
   37.7506   38.0132   18.6048 H   0  0  0  0  0
   35.4345   39.9110   21.6418 H   0  0  0  0  0
   43.3873   39.8538   14.3901 H   0  0  0  0  0
   43.3807   41.6132   14.2920 H   0  0  0  0  0
   43.8482   39.7083   11.9171 H   0  0  0  0  0
   43.8415   41.4863   11.8180 H   0  0  0  0  0
   45.1122   40.6510   12.7446 H   0  0  0  0  0
  2  1  4  0  0  0
 18  1  4  0  0  0
  3  2  4  0  0  0
  2 20  1  0  0  0
 16  3  4  0  0  0
  4  5  1  0  0  0
  4  6  1  0  0  0
 25  4  1  0  0  0
  5 26  1  0  0  0
  5 27  2  0  0  0
  6  7  1  0  0  0
  6  8  1  0  0  0
  6  9  1  0  0  0
 10 11  1  0  0  0
 26 10  1  0  0  0
 11 28  1  0  0  0
 11 29  2  0  0  0
 12 13  1  0  0  0
 28 12  1  0  0  0
 13 14  1  0  0  0
 14 30  1  0  0  0
 30 15  1  0  0  0
 16 17  4  0  0  0
 21 16  1  0  0  0
 17 18  4  0  0  0
 18 19  1  0  0  0
 22 21  1  0  0  0
 21 23  1  0  0  0
 22 24  2  0  0  0
 22 25  1  0  0  0
 23 33  1  0  0  0
 30 31  2  0  0  0
 30 32  2  0  0  0
 33 34  1  0  0  0
  1 35  1  0  0  0
  3 36  1  0  0  0
  4 37  1  0  0  0
  7 38  1  0  0  0
  7 39  1  0  0  0
  7 40  1  0  0  0
  8 41  1  0  0  0
  8 42  1  0  0  0
  8 43  1  0  0  0
  9 44  1  0  0  0
  9 45  1  0  0  0
  9 46  1  0  0  0
 10 47  1  0  0  0
 10 48  1  0  0  0
 12 49  1  0  0  0
 12 50  1  0  0  0
 13 51  1  0  0  0
 13 52  1  0  0  0
 14 53  1  0  0  0
 14 54  1  0  0  0
 15 55  1  0  0  0
 15 56  1  0  0  0
 15 57  1  0  0  0
 17 58  1  0  0  0
 21 59  1  0  0  0
 23 60  1  0  0  0
 23 61  1  0  0  0
 25 62  1  0  0  0
 26 63  1  0  0  0
 28 64  1  0  0  0
 33 65  1  0  0  0
 33 66  1  0  0  0
 34 67  1  0  0  0
 34 68  1  0  0  0
 34 69  1  0  0  0
M  END
$$$$
