1cj1_ligand
  -I-interpret- 

 86 89  0  0  0  0  0  0  0  0999 V2000
   24.9600  -12.2550   30.5780 N   0  0  0  0  0
   25.8700  -13.1800   30.2670 C   0  0  0  0  0
   25.4590  -14.4040   29.8100 C   0  0  0  0  0
   26.3660  -15.3050   29.4420 C   0  0  0  0  0
   27.6910  -14.9920   29.5290 C   0  0  0  0  0
   28.1470  -13.7820   29.9860 C   0  0  0  0  0
   27.2120  -12.8770   30.3570 C   0  0  0  0  0
   29.5850  -13.6360   30.4370 C   0  0  0  0  0
   29.8520  -12.3140   30.9450 O   0  0  0  0  0
   30.1630  -11.3550   29.9670 C   0  0  0  0  0
   30.1270  -11.6070   28.7500 O   0  0  0  0  0
   30.4330  -10.1540   30.4600 N   0  0  0  0  0
   30.8020   -9.0790   29.5820 C   0  0  0  0  0
   30.0270   -7.8460   29.9340 C   0  0  0  0  0
   28.5880   -8.1230   29.7910 C   0  0  0  0  0
   27.9760   -8.0820   28.5410 C   0  0  0  0  0
   26.6140   -8.5330   28.3580 C   0  0  0  0  0
   27.8530   -8.5770   30.8510 C   0  0  0  0  0
   26.5360   -9.0100   30.6750 C   0  0  0  0  0
   25.9180   -8.9880   29.4320 C   0  0  0  0  0
   32.2860   -8.8510   29.8040 C   0  0  0  0  0
   32.7980   -8.9840   30.9500 O   0  0  0  0  0
   24.5100   -9.4220   29.3640 O   0  0  0  0  0
   23.8390   -9.8610   27.9260 P   0  0  0  0  0
   23.6440   -8.6090   27.0600 O   0  0  0  0  0
   22.4820  -10.5270   28.1180 O   0  0  0  0  0
   24.7900  -10.7800   27.2470 O   0  0  0  0  0
   32.9790   -8.5400   28.7000 N   0  0  0  0  0
   34.4200   -8.3100   28.7230 C   0  0  0  0  0
   35.0520   -7.7300   27.5120 C   0  0  0  0  0
   34.9590   -8.6520   26.3390 C   0  0  0  0  0
   35.3910  -10.0650   26.7470 C   0  0  0  0  0
   34.7290  -10.5290   28.0340 C   0  0  0  0  0
   34.9910   -9.5880   29.1330 C   0  0  0  0  0
   34.7150   -7.3260   29.7720 C   0  0  0  0  0
   35.6780   -7.6200   30.4430 O   0  0  0  0  0
   33.9680   -6.2400   29.9580 N   0  0  0  0  0
   34.2740   -5.3080   30.9960 C   0  0  0  0  0
   33.6070   -5.9380   32.1370 C   0  0  0  0  0
   33.0070   -5.1580   33.0500 C   0  0  0  0  0
   32.9520   -3.6430   32.9820 C   0  0  0  0  0
   33.8090   -3.0710   31.9380 C   0  0  0  0  0
   33.8330   -3.8760   30.6730 C   0  0  0  0  0
   32.4460   -3.7870   30.0560 C   0  0  0  0  0
   31.9450   -2.5670   29.9830 N   0  0  0  0  0
   31.8390   -4.7880   29.6380 O   0  0  0  0  0
   23.9666  -12.4619   30.4747 H   0  0  0  0  0
   25.2578  -11.3410   30.9190 H   0  0  0  0  0
   24.3963  -14.6382   29.7483 H   0  0  0  0  0
   26.0539  -16.2827   29.0749 H   0  0  0  0  0
   28.4221  -15.7393   29.2206 H   0  0  0  0  0
   27.5222  -11.9009   30.7299 H   0  0  0  0  0
   30.2338  -13.8120   29.5790 H   0  0  0  0  0
   29.7694  -14.3547   31.2354 H   0  0  0  0  0
   30.3785   -9.9932   31.4658 H   0  0  0  0  0
   30.5882   -9.3150   28.5395 H   0  0  0  0  0
   30.3113   -7.0319   29.2673 H   0  0  0  0  0
   30.2441   -7.5581   30.9626 H   0  0  0  0  0
   28.5336   -7.7030   27.6845 H   0  0  0  0  0
   26.1521   -8.5081   27.3710 H   0  0  0  0  0
   28.2997   -8.6014   31.8450 H   0  0  0  0  0
   25.9785   -9.3751   31.5375 H   0  0  0  0  0
   23.0303   -8.0127   27.4952 H   0  0  0  0  0
   21.8861   -9.9158   28.5573 H   0  0  0  0  0
   32.4821   -8.4613   27.8127 H   0  0  0  0  0
   36.1063   -7.5555   27.7269 H   0  0  0  0  0
   34.5297   -6.8062   27.2630 H   0  0  0  0  0
   35.6149   -8.2913   25.5466 H   0  0  0  0  0
   33.9281   -8.6802   25.9860 H   0  0  0  0  0
   36.4688  -10.0528   26.9094 H   0  0  0  0  0
   35.0952  -10.7492   25.9517 H   0  0  0  0  0
   35.1364  -11.5032   28.3043 H   0  0  0  0  0
   33.6526  -10.5852   27.8720 H   0  0  0  0  0
   34.5427   -9.9372   30.0632 H   0  0  0  0  0
   36.0602   -9.4963   29.3239 H   0  0  0  0  0
   33.1660   -6.0712   29.3508 H   0  0  0  0  0
   35.3370   -5.1430   31.1717 H   0  0  0  0  0
   33.5978   -7.0228   32.2434 H   0  0  0  0  0
   32.5266   -5.6461   33.8980 H   0  0  0  0  0
   33.3035   -3.2597   33.9399 H   0  0  0  0  0
   31.9242   -3.3632   32.7510 H   0  0  0  0  0
   34.8264   -3.0451   32.3282 H   0  0  0  0  0
   33.4110   -2.0867   31.6914 H   0  0  0  0  0
   34.5508   -3.4961   29.9460 H   0  0  0  0  0
   31.0241   -2.4177   29.5706 H   0  0  0  0  0
   32.4790   -1.7742   30.3390 H   0  0  0  0  0
  1  2  1  0  0  0
  2  3  4  0  0  0
  2  7  4  0  0  0
  3  4  4  0  0  0
  4  5  4  0  0  0
  5  6  4  0  0  0
  6  7  4  0  0  0
  6  8  1  0  0  0
  8  9  1  0  0  0
  9 10  1  0  0  0
 10 11  2  0  0  0
 10 12  1  0  0  0
 12 13  1  0  0  0
 13 14  1  0  0  0
 13 21  1  0  0  0
 14 15  1  0  0  0
 15 16  4  0  0  0
 15 18  4  0  0  0
 16 17  4  0  0  0
 17 20  4  0  0  0
 18 19  4  0  0  0
 19 20  4  0  0  0
 20 23  1  0  0  0
 21 22  2  0  0  0
 21 28  1  0  0  0
 23 24  1  0  0  0
 24 25  1  0  0  0
 24 26  1  0  0  0
 24 27  2  0  0  0
 28 29  1  0  0  0
 29 30  1  0  0  0
 29 34  1  0  0  0
 29 35  1  0  0  0
 30 31  1  0  0  0
 31 32  1  0  0  0
 32 33  1  0  0  0
 33 34  1  0  0  0
 35 36  2  0  0  0
 35 37  1  0  0  0
 37 38  1  0  0  0
 38 39  1  0  0  0
 38 43  1  0  0  0
 39 40  2  0  0  0
 40 41  1  0  0  0
 41 42  1  0  0  0
 42 43  1  0  0  0
 43 44  1  0  0  0
 44 45  1  0  0  0
 44 46  2  0  0  0
  1 47  1  0  0  0
  1 48  1  0  0  0
  3 49  1  0  0  0
  4 50  1  0  0  0
  5 51  1  0  0  0
  7 52  1  0  0  0
  8 53  1  0  0  0
  8 54  1  0  0  0
 12 55  1  0  0  0
 13 56  1  0  0  0
 14 57  1  0  0  0
 14 58  1  0  0  0
 16 59  1  0  0  0
 17 60  1  0  0  0
 18 61  1  0  0  0
 19 62  1  0  0  0
 25 63  1  0  0  0
 26 64  1  0  0  0
 28 65  1  0  0  0
 30 66  1  0  0  0
 30 67  1  0  0  0
 31 68  1  0  0  0
 31 69  1  0  0  0
 32 70  1  0  0  0
 32 71  1  0  0  0
 33 72  1  0  0  0
 33 73  1  0  0  0
 34 74  1  0  0  0
 34 75  1  0  0  0
 37 76  1  0  0  0
 38 77  1  0  0  0
 39 78  1  0  0  0
 40 79  1  0  0  0
 41 80  1  0  0  0
 41 81  1  0  0  0
 42 82  1  0  0  0
 42 83  1  0  0  0
 43 84  1  0  0  0
 45 85  1  0  0  0
 45 86  1  0  0  0
M  END
$$$$
