### 
### Created by X-TOOL on Mon Sep 10 21:12:47 2018
### 

@<TRIPOS>MOLECULE
1cj1_ligand
   84    87     1     0     0
SMALL
GAST_HUCK


@<TRIPOS>ATOM
      1 N1         24.9600  -12.2550   30.5780 N.pl3     1 C78        -0.3383
      2 C2         25.8700  -13.1800   30.2670 C.ar      1 C78         0.0282
      3 C3         25.4590  -14.4040   29.8100 C.ar      1 C78        -0.0516
      4 C4         26.3660  -15.3050   29.4420 C.ar      1 C78        -0.0801
      5 C5         27.6910  -14.9920   29.5290 C.ar      1 C78        -0.0711
      6 C7         28.1470  -13.7820   29.9860 C.ar      1 C78        -0.0250
      7 C6         27.2120  -12.8770   30.3570 C.ar      1 C78        -0.0414
      8 C8         29.5850  -13.6360   30.4370 C.3       1 C78         0.1084
      9 O9         29.8520  -12.3140   30.9450 O.3       1 C78        -0.2508
     10 C10        30.1630  -11.3550   29.9670 C.2       1 C78         0.3241
     11 O11        30.1270  -11.6070   28.7500 O.2       1 C78        -0.3773
     12 N12        30.4330  -10.1540   30.4600 N.am      1 C78        -0.2380
     13 C13        30.8020   -9.0790   29.5820 C.3       1 C78         0.1484
     14 C14        30.0270   -7.8460   29.9340 C.3       1 C78         0.0400
     15 C15        28.5880   -8.1230   29.7910 C.ar      1 C78        -0.0004
     16 C16        27.9760   -8.0820   28.5410 C.ar      1 C78        -0.0239
     17 C17        26.6140   -8.5330   28.3580 C.ar      1 C78         0.0115
     18 C18        27.8530   -8.5770   30.8510 C.ar      1 C78        -0.0239
     19 C19        26.5360   -9.0100   30.6750 C.ar      1 C78         0.0115
     20 C20        25.9180   -8.9880   29.4320 C.ar      1 C78         0.1728
     21 C21        32.2860   -8.8510   29.8040 C.2       1 C78         0.2045
     22 O22        32.7980   -8.9840   30.9500 O.2       1 C78        -0.3944
     23 O23        24.5100   -9.4220   29.3640 O.3       1 C78        -0.2040
     24 P24        23.8390   -9.8610   27.9260 P.3       1 C78         0.1348
     25 O25        23.6440   -8.6090   27.0600 O.co2     1 C78        -0.6653
     26 O26        22.4820  -10.5270   28.1180 O.co2     1 C78        -0.6653
     27 O27        24.7900  -10.7800   27.2470 O.co2     1 C78        -0.6653
     28 N28        32.9790   -8.5400   28.7000 N.am      1 C78        -0.2738
     29 C29        34.4200   -8.3100   28.7230 C.3       1 C78         0.1331
     30 C30        35.0520   -7.7300   27.5120 C.3       1 C78        -0.0199
     31 C31        34.9590   -8.6520   26.3390 C.3       1 C78        -0.0516
     32 C32        35.3910  -10.0650   26.7470 C.3       1 C78        -0.0532
     33 C33        34.7290  -10.5290   28.0340 C.3       1 C78        -0.0516
     34 C34        34.9910   -9.5880   29.1330 C.3       1 C78        -0.0199
     35 C35        34.7150   -7.3260   29.7720 C.2       1 C78         0.2263
     36 O36        35.6780   -7.6200   30.4430 O.2       1 C78        -0.3419
     37 N37        33.9680   -6.2400   29.9580 N.am      1 C78        -0.2706
     38 C38        34.2740   -5.3080   30.9960 C.3       1 C78         0.0787
     39 C39        33.6070   -5.9380   32.1370 C.2       1 C78        -0.0712
     40 C40        33.0070   -5.1580   33.0500 C.2       1 C78        -0.0962
     41 C41        32.9520   -3.6430   32.9820 C.3       1 C78        -0.0338
     42 C42        33.8090   -3.0710   31.9380 C.3       1 C78        -0.0229
     43 C43        33.8330   -3.8760   30.6730 C.3       1 C78         0.0794
     44 C44        32.4460   -3.7870   30.0560 C.2       1 C78         0.1807
     45 N45        31.9450   -2.5670   29.9830 N.am      1 C78        -0.3005
     46 O46        31.8390   -4.7880   29.6380 O.2       1 C78        -0.3967
     47 H1         23.9564  -12.4773   30.5121 H         1 C78         0.1718
     48 H2         25.2611  -11.3187   30.8839 H         1 C78         0.1718
     49 H3         24.4021  -14.6369   29.7486 H         1 C78         0.0459
     50 H4         26.0556  -16.2773   29.0770 H         1 C78         0.0566
     51 H5         28.4181  -15.7352   29.2223 H         1 C78         0.0448
     52 H6         27.5205  -11.9062   30.7278 H         1 C78         0.0451
     53 H7         30.2485  -13.8299   29.5814 H         1 C78         0.0774
     54 H8         29.7861  -14.3704   31.2309 H         1 C78         0.0774
     55 H9         30.3795   -9.9963   31.4460 H         1 C78         0.1902
     56 H10        30.6077   -9.3520   28.5343 H         1 C78         0.0839
     57 H11        30.3129   -7.0261   29.2587 H         1 C78         0.0584
     58 H12        30.2450   -7.5582   30.9731 H         1 C78         0.0584
     59 H13        28.5306   -7.7051   27.6893 H         1 C78         0.0703
     60 H14        26.1546   -8.5082   27.3765 H         1 C78         0.0736
     61 H15        28.2972   -8.6013   31.8395 H         1 C78         0.0703
     62 H16        25.9816   -9.3731   31.5328 H         1 C78         0.0736
     63 H17        32.4918   -8.4628   27.8301 H         1 C78         0.1839
     64 H18        36.1127   -7.5313   27.7249 H         1 C78         0.0277
     65 H19        34.5448   -6.7861   27.2635 H         1 C78         0.0277
     66 H20        35.6168   -8.2876   25.5362 H         1 C78         0.0265
     67 H21        33.9202   -8.6787   25.9781 H         1 C78         0.0265
     68 H22        36.4817  -10.0729   26.8891 H         1 C78         0.0265
     69 H23        35.1212  -10.7627   25.9405 H         1 C78         0.0265
     70 H24        35.1259  -11.5182   28.3058 H         1 C78         0.0265
     71 H25        33.6431  -10.6009   27.8738 H         1 C78         0.0265
     72 H26        34.5114   -9.9401   30.0582 H         1 C78         0.0277
     73 H27        36.0739   -9.4862   29.2971 H         1 C78         0.0277
     74 H28        33.1817   -6.0745   29.3627 H         1 C78         0.1886
     75 H29        35.3594   -5.2817   31.1725 H         1 C78         0.0710
     76 H30        33.5978   -7.0218   32.2433 H         1 C78         0.0474
     77 H31        32.5270   -5.6456   33.8972 H         1 C78         0.0451
     78 H32        33.2715   -3.2393   33.9541 H         1 C78         0.0390
     79 H33        31.9131   -3.3412   32.7832 H         1 C78         0.0390
     80 H34        34.8355   -3.0055   32.3279 H         1 C78         0.0314
     81 H35        33.4417   -2.0616   31.7009 H         1 C78         0.0314
     82 H36        34.5596   -3.4403   29.9715 H         1 C78         0.0583
     83 H37        31.0370   -2.4221   29.5900 H         1 C78         0.1814
     84 H38        32.4738   -1.7883   30.3207 H         1 C78         0.1814
@<TRIPOS>BOND
     1    1    2 1  
     2    2    3 ar 
     3    2    7 ar 
     4    3    4 ar 
     5    4    5 ar 
     6    5    6 ar 
     7    6    7 ar 
     8    6    8 1  
     9    8    9 1  
    10    9   10 1  
    11   10   11 2  
    12   10   12 am 
    13   12   13 1  
    14   13   14 1  
    15   13   21 1  
    16   14   15 1  
    17   15   16 ar 
    18   15   18 ar 
    19   16   17 ar 
    20   17   20 ar 
    21   18   19 ar 
    22   19   20 ar 
    23   20   23 1  
    24   21   22 2  
    25   21   28 am 
    26   23   24 1  
    27   24   25 ar 
    28   24   26 ar 
    29   24   27 ar 
    30   28   29 1  
    31   29   30 1  
    32   29   34 1  
    33   29   35 1  
    34   30   31 1  
    35   31   32 1  
    36   32   33 1  
    37   33   34 1  
    38   35   36 2  
    39   35   37 am 
    40   37   38 1  
    41   38   39 1  
    42   38   43 1  
    43   39   40 2  
    44   40   41 1  
    45   41   42 1  
    46   42   43 1  
    47   43   44 1  
    48   44   45 am 
    49   44   46 2  
    50    1   47 1  
    51    1   48 1  
    52    3   49 1  
    53    4   50 1  
    54    5   51 1  
    55    7   52 1  
    56    8   53 1  
    57    8   54 1  
    58   12   55 1  
    59   13   56 1  
    60   14   57 1  
    61   14   58 1  
    62   16   59 1  
    63   17   60 1  
    64   18   61 1  
    65   19   62 1  
    66   28   63 1  
    67   30   64 1  
    68   30   65 1  
    69   31   66 1  
    70   31   67 1  
    71   32   68 1  
    72   32   69 1  
    73   33   70 1  
    74   33   71 1  
    75   34   72 1  
    76   34   73 1  
    77   37   74 1  
    78   38   75 1  
    79   39   76 1  
    80   40   77 1  
    81   41   78 1  
    82   41   79 1  
    83   42   80 1  
    84   42   81 1  
    85   43   82 1  
    86   45   83 1  
    87   45   84 1  
@<TRIPOS>SUBSTRUCTURE
     1 C78         1

