4ym2_ligand
  -I-interpret- 

 49 50  0  0  0  0  0  0  0  0999 V2000
  -48.7670   26.9760   38.6600 C   0  0  0  0  0
  -47.8720   28.1710   39.0190 C   0  0  0  0  0
  -46.4440   27.8250   38.5800 C   0  0  0  0  0
  -45.9370   26.5300   39.2730 C   0  0  0  0  0
  -46.9570   25.4330   38.9410 C   0  0  0  0  0
  -46.6120   24.0720   39.5460 C   0  0  0  0  0
  -50.1720   27.2070   38.9270 O   0  0  0  0  0
  -48.2750   29.3360   38.3030 O   0  0  0  0  0
  -45.5320   28.9480   38.6070 O   0  0  0  0  0
  -45.7560   26.5850   40.6960 O   0  0  0  0  0
  -48.2560   25.8520   39.3820 O   0  0  0  0  0
  -47.7000   23.1710   39.3170 O   0  0  0  0  0
  -44.4250   29.1050   37.5200 S   0  0  0  0  0
  -44.6560   30.4380   36.6110 O   0  0  0  0  0
  -44.4690   28.0170   36.6000 O   0  0  0  0  0
  -43.1220   29.1010   38.1190 O   0  0  0  0  0
  -53.2330   25.6130   40.4530 C   0  0  0  0  0
  -51.8560   26.2330   40.4760 C   0  0  0  0  0
  -51.1680   26.2980   39.1090 C   0  0  0  0  0
  -52.1290   26.3410   37.8710 C   0  0  0  0  0
  -51.7300   26.3100   36.3800 C   0  0  0  0  0
  -54.0670   26.2030   39.3280 C   0  0  0  0  0
  -55.4090   25.6900   39.3900 O   0  0  0  0  0
  -53.8790   25.8600   41.7030 O   0  0  0  0  0
  -50.9980   25.4780   41.3220 O   0  0  0  0  0
  -53.4540   25.8070   38.1100 O   0  0  0  0  0
  -52.5960   27.1570   35.6400 O   0  0  0  0  0
  -48.7324   26.7991   37.5850 H   0  0  0  0  0
  -47.9407   28.3664   40.0891 H   0  0  0  0  0
  -46.4799   27.5867   37.5170 H   0  0  0  0  0
  -44.9325   26.3480   38.8911 H   0  0  0  0  0
  -46.9392   25.2956   37.8598 H   0  0  0  0  0
  -46.4422   24.1784   40.6174 H   0  0  0  0  0
  -45.7071   23.6815   39.0803 H   0  0  0  0  0
  -49.1685   29.5750   38.5600 H   0  0  0  0  0
  -45.1184   27.2700   40.9101 H   0  0  0  0  0
  -47.4893   22.3140   39.6948 H   0  0  0  0  0
  -44.6377   31.2152   37.1743 H   0  0  0  0  0
  -53.1344   24.5402   40.2875 H   0  0  0  0  0
  -52.0155   27.2514   40.8302 H   0  0  0  0  0
  -50.6767   25.3261   39.1551 H   0  0  0  0  0
  -52.0160   27.4247   37.9001 H   0  0  0  0  0
  -51.8107   25.2902   36.0037 H   0  0  0  0  0
  -50.7026   26.6575   36.2718 H   0  0  0  0  0
  -54.1172   27.2890   39.4069 H   0  0  0  0  0
  -55.9281   26.0678   38.6763 H   0  0  0  0  0
  -54.7549   25.4673   41.6923 H   0  0  0  0  0
  -50.1257   25.8787   41.3308 H   0  0  0  0  0
  -52.3466   27.1366   34.7132 H   0  0  0  0  0
  1  2  1  0  0  0
  7  1  1  0  0  0
  1 11  1  0  0  0
  2  3  1  0  0  0
  2  8  1  0  0  0
  3  4  1  0  0  0
  3  9  1  0  0  0
  5  4  1  0  0  0
  4 10  1  0  0  0
  5  6  1  0  0  0
 11  5  1  0  0  0
  6 12  1  0  0  0
 19  7  1  0  0  0
  9 13  1  0  0  0
 13 14  1  0  0  0
 13 15  2  0  0  0
 13 16  2  0  0  0
 18 17  1  0  0  0
 17 22  1  0  0  0
 17 24  1  0  0  0
 18 19  1  0  0  0
 18 25  1  0  0  0
 19 20  1  0  0  0
 20 21  1  0  0  0
 20 26  1  0  0  0
 21 27  1  0  0  0
 22 23  1  0  0  0
 22 26  1  0  0  0
  1 28  1  0  0  0
  2 29  1  0  0  0
  3 30  1  0  0  0
  4 31  1  0  0  0
  5 32  1  0  0  0
  6 33  1  0  0  0
  6 34  1  0  0  0
  8 35  1  0  0  0
 10 36  1  0  0  0
 12 37  1  0  0  0
 14 38  1  0  0  0
 17 39  1  0  0  0
 18 40  1  0  0  0
 19 41  1  0  0  0
 20 42  1  0  0  0
 21 43  1  0  0  0
 21 44  1  0  0  0
 22 45  1  0  0  0
 23 46  1  0  0  0
 24 47  1  0  0  0
 25 48  1  0  0  0
 27 49  1  0  0  0
M  END
$$$$
