1jrs_ligand
  -I-interpret- 

 70 69  0  0  0  0  0  0  0  0999 V2000
   55.5410  -13.8830    9.6830 C   0  0  0  0  0
   56.0310  -12.9620    9.0020 O   0  0  0  0  0
   55.7130  -15.3410    9.2730 C   0  0  0  0  0
   54.7470  -13.6880   10.7460 N   0  0  0  0  0
   54.5780  -12.3540   11.2730 C   0  0  0  0  0
   55.4570  -12.2720   12.5000 C   0  0  0  0  0
   56.2130  -11.3200   12.6310 O   0  0  0  0  0
   53.1410  -12.0310   11.6780 C   0  0  0  0  0
   52.1010  -11.7480   10.5830 C   0  0  0  0  0
   50.8980  -11.1130   11.2610 C   0  0  0  0  0
   52.6050  -10.7660    9.5230 C   0  0  0  0  0
   55.3950  -13.2900   13.3740 N   0  0  0  0  0
   56.1860  -13.3330   14.6030 C   0  0  0  0  0
   57.6810  -13.3860   14.3570 C   0  0  0  0  0
   58.1760  -14.1670   13.5250 O   0  0  0  0  0
   55.8250  -14.5600   15.4670 C   0  0  0  0  0
   54.5730  -14.5940   16.3500 C   0  0  0  0  0
   53.3110  -14.4210   15.5080 C   0  0  0  0  0
   54.5100  -15.9360   17.0720 C   0  0  0  0  0
   58.3970  -12.5860   15.1320 N   0  0  0  0  0
   59.8310  -12.5560   15.0430 C   0  0  0  0  0
   60.4540  -13.3230   16.2390 C   0  0  0  0  0
   59.5220  -14.3590   16.5860 O   0  0  0  0  0
   60.2350  -11.0850   14.9760 C   0  0  0  0  0
   59.7910  -10.5330   13.6570 C   0  0  0  0  0
   60.2070   -9.0900   13.4780 C   0  0  0  0  0
   59.7380   -8.6660   12.1600 N   0  0  0  0  0
   59.9470   -7.4350   11.6560 C   0  0  0  0  0
   60.6380   -6.5380   12.3660 N   0  0  0  0  0
   59.4790   -7.0900   10.4370 N   0  0  0  0  0
   55.2747  -15.4939    8.2868 H   0  0  0  0  0
   56.7748  -15.5856    9.2421 H   0  0  0  0  0
   55.2121  -15.9825    9.9980 H   0  0  0  0  0
   54.2659  -14.4762   11.1792 H   0  0  0  0  0
   54.8422  -11.6363   10.4964 H   0  0  0  0  0
   53.2119  -11.1018   12.2433 H   0  0  0  0  0
   52.7825  -12.9305   12.1785 H   0  0  0  0  0
   51.8703  -12.6883   10.0823 H   0  0  0  0  0
   50.4961  -11.8015   12.0043 H   0  0  0  0  0
   51.2040  -10.1876   11.7490 H   0  0  0  0  0
   50.1342  -10.8961   10.5142 H   0  0  0  0  0
   52.8547   -9.8172    9.9980 H   0  0  0  0  0
   53.4921  -11.1772    9.0412 H   0  0  0  0  0
   51.8259  -10.6066    8.7775 H   0  0  0  0  0
   54.7677  -14.0683   13.1712 H   0  0  0  0  0
   55.9408  -12.4038   15.1173 H   0  0  0  0  0
   56.6445  -14.6180   16.1834 H   0  0  0  0  0
   55.6411  -15.3443   14.7327 H   0  0  0  0  0
   54.6288  -13.7763   17.0686 H   0  0  0  0  0
   53.3502  -13.4630   14.9895 H   0  0  0  0  0
   53.2492  -15.2283   14.7782 H   0  0  0  0  0
   52.4359  -14.4486   16.1573 H   0  0  0  0  0
   54.4644  -16.7403   16.3378 H   0  0  0  0  0
   55.3996  -16.0567   17.6902 H   0  0  0  0  0
   53.6212  -15.9667   17.7022 H   0  0  0  0  0
   57.9231  -11.9813   15.8030 H   0  0  0  0  0
   60.2053  -13.0616   14.1528 H   0  0  0  0  0
   60.6293  -12.6558   17.0829 H   0  0  0  0  0
   61.4239  -13.7427   15.9720 H   0  0  0  0  0
   59.8670  -14.8635   17.3263 H   0  0  0  0  0
   61.3163  -10.9901   15.0752 H   0  0  0  0  0
   59.7653  -10.5317   15.7892 H   0  0  0  0  0
   58.7029  -10.5817   13.6159 H   0  0  0  0  0
   60.2561  -11.1224   12.8668 H   0  0  0  0  0
   61.2900   -8.9906   13.5506 H   0  0  0  0  0
   59.7735   -8.4655   14.2592 H   0  0  0  0  0
   59.2245   -9.3392   11.5912 H   0  0  0  0  0
   61.0041   -6.7874   13.2848 H   0  0  0  0  0
   59.6545   -6.1549   10.0692 H   0  0  0  0  0
   58.9501   -7.7645    9.8841 H   0  0  0  0  0
  1  2  2  0  0  0
  1  3  1  0  0  0
  1  4  1  0  0  0
  4  5  1  0  0  0
  5  6  1  0  0  0
  5  8  1  0  0  0
  6  7  2  0  0  0
  6 12  1  0  0  0
  8  9  1  0  0  0
  9 10  1  0  0  0
  9 11  1  0  0  0
 12 13  1  0  0  0
 13 14  1  0  0  0
 13 16  1  0  0  0
 14 15  2  0  0  0
 14 20  1  0  0  0
 16 17  1  0  0  0
 17 18  1  0  0  0
 17 19  1  0  0  0
 20 21  1  0  0  0
 21 22  1  0  0  0
 21 24  1  0  0  0
 22 23  1  0  0  0
 24 25  1  0  0  0
 25 26  1  0  0  0
 26 27  1  0  0  0
 27 28  1  0  0  0
 28 29  2  0  0  0
 28 30  1  0  0  0
  3 31  1  0  0  0
  3 32  1  0  0  0
  3 33  1  0  0  0
  4 34  1  0  0  0
  5 35  1  0  0  0
  8 36  1  0  0  0
  8 37  1  0  0  0
  9 38  1  0  0  0
 10 39  1  0  0  0
 10 40  1  0  0  0
 10 41  1  0  0  0
 11 42  1  0  0  0
 11 43  1  0  0  0
 11 44  1  0  0  0
 12 45  1  0  0  0
 13 46  1  0  0  0
 16 47  1  0  0  0
 16 48  1  0  0  0
 17 49  1  0  0  0
 18 50  1  0  0  0
 18 51  1  0  0  0
 18 52  1  0  0  0
 19 53  1  0  0  0
 19 54  1  0  0  0
 19 55  1  0  0  0
 20 56  1  0  0  0
 21 57  1  0  0  0
 22 58  1  0  0  0
 22 59  1  0  0  0
 23 60  1  0  0  0
 24 61  1  0  0  0
 24 62  1  0  0  0
 25 63  1  0  0  0
 25 64  1  0  0  0
 26 65  1  0  0  0
 26 66  1  0  0  0
 27 67  1  0  0  0
 29 68  1  0  0  0
 30 69  1  0  0  0
 30 70  1  0  0  0
M  END
$$$$
