4qw6_ligand
  -I-interpret- 

114116  0  0  0  0  0  0  0  0999 V2000
   58.9640 -135.0750   31.4080 C   0  0  0  0  0
   59.5010 -134.0550   30.9740 O   0  0  0  0  0
   58.6590 -136.3020   30.5370 C   0  0  0  0  0
   58.3280 -135.9870   29.1310 N   0  3  0  0  0
   58.1310 -134.3990   26.9710 O   0  0  0  0  0
   59.5280 -135.5940   28.3400 C   0  0  0  0  0
   57.2070 -135.0150   29.0160 C   0  0  0  0  0
   59.0980 -135.4450   26.9190 C   0  0  0  0  0
   56.9060 -134.8490   27.6100 C   0  0  0  0  0
   58.5950 -135.2410   32.6720 N   0  0  0  0  0
   58.8250 -134.2340   33.6940 C   0  0  0  0  0
   60.0070 -134.7280   34.4960 C   0  0  0  0  0
   60.2100 -135.9340   34.6340 O   0  0  0  0  0
   57.6520 -134.2240   34.6270 C   0  0  0  0  0
   56.9290 -132.9120   34.4150 C   0  0  0  0  0
   55.6670 -133.0000   35.0520 C   0  0  0  0  0
   55.5230 -133.5340   36.3380 C   0  0  0  0  0
   54.5250 -132.5280   34.4020 C   0  0  0  0  0
   54.2780 -133.6090   36.9500 C   0  0  0  0  0
   53.2770 -132.6010   35.0150 C   0  0  0  0  0
   53.1500 -133.1420   36.2890 C   0  0  0  0  0
   60.7420 -133.7770   35.0590 N   0  0  0  0  0
   61.8690 -134.1330   35.9080 C   0  0  0  0  0
   61.3260 -134.3370   37.3150 C   0  0  0  0  0
   60.5010 -133.5550   37.7860 O   0  0  0  0  0
   62.8500 -133.0010   35.9360 C   0  0  0  0  0
   63.6400 -133.0890   34.6210 C   0  0  0  0  0
   64.4670 -131.8090   34.4440 C   0  0  0  0  0
   64.5810 -134.3020   34.6370 C   0  0  0  0  0
   61.7970 -135.4160   37.9510 N   0  0  0  0  0
   61.4060 -135.7220   39.3300 C   0  0  0  0  0
   62.6750 -135.6830   40.1630 C   0  0  0  0  0
   63.7790 -135.6200   39.6230 O   0  0  0  0  0
   60.7470 -137.0580   39.4480 C   0  0  0  0  0
   59.4460 -136.8630   38.9780 C   0  0  0  0  0
   58.4580 -136.3490   39.8210 C   0  0  0  0  0
   59.1250 -137.1820   37.6610 C   0  0  0  0  0
   57.1620 -136.1580   39.3450 C   0  0  0  0  0
   57.8300 -136.9930   37.1880 C   0  0  0  0  0
   56.8450 -136.4820   38.0290 C   0  0  0  0  0
   62.4660 -135.6970   41.4820 N   0  0  0  0  0
   63.5460 -135.5020   42.4390 C   0  0  0  0  0
   63.2520 -134.0990   42.9410 C   0  0  0  0  0
   64.3770 -133.1010   42.5950 C   0  0  0  0  0
   63.8440 -131.6830   42.8580 C   0  0  0  0  0
   64.8540 -133.1910   41.1350 C   0  0  0  0  0
   63.5020 -136.4580   43.6450 C   0  0  0  0  0
   63.9060 -137.9660   43.3720 C   0  0  0  0  0
   65.1250 -138.0150   42.4090 C   0  0  0  0  0
   62.6600 -138.6130   42.7180 C   0  0  0  0  0
   63.0900 -139.6130   41.7840 O   0  0  0  0  0
   62.1780 -136.4150   44.1930 O   0  0  0  0  0
   57.7860 -136.7914   30.9689 H   0  0  0  0  0
   59.5595 -136.9160   30.5234 H   0  0  0  0  0
   57.9889 -136.8518   28.7097 H   0  0  0  0  0
   60.3065 -136.3521   28.4256 H   0  0  0  0  0
   59.9414 -134.6573   28.7138 H   0  0  0  0  0
   57.4889 -134.0591   29.4575 H   0  0  0  0  0
   56.3307 -135.3840   29.5491 H   0  0  0  0  0
   59.9293 -135.2123   26.2535 H   0  0  0  0  0
   58.6920 -136.3687   26.5067 H   0  0  0  0  0
   56.5618 -135.7865   27.1732 H   0  0  0  0  0
   56.1046 -134.1241   27.4673 H   0  0  0  0  0
   58.1314 -136.1102   32.9366 H   0  0  0  0  0
   58.9796 -133.2478   33.2562 H   0  0  0  0  0
   57.9814 -134.3199   35.6616 H   0  0  0  0  0
   56.9904 -135.0661   34.4236 H   0  0  0  0  0
   56.8006 -132.7205   33.3497 H   0  0  0  0  0
   57.5077 -132.0905   34.8374 H   0  0  0  0  0
   56.4031 -133.8973   36.8685 H   0  0  0  0  0
   54.6114 -132.0979   33.4042 H   0  0  0  0  0
   54.1868 -134.0346   37.9493 H   0  0  0  0  0
   52.3944 -132.2317   34.4927 H   0  0  0  0  0
   52.1715 -133.1992   36.7658 H   0  0  0  0  0
   60.5167 -132.7956   34.8964 H   0  0  0  0  0
   62.3627 -135.0305   35.5352 H   0  0  0  0  0
   63.5120 -133.0748   36.7988 H   0  0  0  0  0
   62.3413 -132.0412   36.0264 H   0  0  0  0  0
   62.9380 -133.2007   33.7947 H   0  0  0  0  0
   63.7994 -130.9479   34.4139 H   0  0  0  0  0
   65.1579 -131.7057   35.2807 H   0  0  0  0  0
   65.0292 -131.8672   33.5120 H   0  0  0  0  0
   65.2825 -134.2051   35.4656 H   0  0  0  0  0
   63.9953 -135.2130   34.7598 H   0  0  0  0  0
   65.1310 -134.3460   33.6969 H   0  0  0  0  0
   62.4423 -136.0392   37.4655 H   0  0  0  0  0
   60.6742 -134.9923   39.6766 H   0  0  0  0  0
   60.7547 -137.4226   40.4752 H   0  0  0  0  0
   61.2737 -137.8201   38.8736 H   0  0  0  0  0
   58.7010 -136.0967   40.8532 H   0  0  0  0  0
   59.8918 -137.5817   36.9974 H   0  0  0  0  0
   56.3946 -135.7538   40.0052 H   0  0  0  0  0
   57.5860 -137.2457   36.1561 H   0  0  0  0  0
   55.8303 -136.3364   37.6585 H   0  0  0  0  0
   61.5194 -135.8492   41.8302 H   0  0  0  0  0
   64.5189 -135.6725   41.9781 H   0  0  0  0  0
   63.1619 -134.1417   44.0264 H   0  0  0  0  0
   62.3365 -133.7543   42.4602 H   0  0  0  0  0
   65.2378 -133.3450   43.2175 H   0  0  0  0  0
   62.9710 -131.5023   42.2309 H   0  0  0  0  0
   63.5646 -131.5901   43.9075 H   0  0  0  0  0
   64.6199 -130.9549   42.6215 H   0  0  0  0  0
   65.2361 -134.1930   40.9401 H   0  0  0  0  0
   64.0177 -132.9834   40.4674 H   0  0  0  0  0
   65.6449 -132.4601   40.9668 H   0  0  0  0  0
   64.2684 -136.0981   44.3315 H   0  0  0  0  0
   64.1940 -138.4918   44.2823 H   0  0  0  0  0
   64.8616 -137.5344   41.4668 H   0  0  0  0  0
   65.9662 -137.4912   42.8629 H   0  0  0  0  0
   65.3990 -139.0537   42.2243 H   0  0  0  0  0
   62.0792 -137.8505   42.1991 H   0  0  0  0  0
   62.0372 -139.0709   43.4864 H   0  0  0  0  0
   62.3220 -140.0183   41.3747 H   0  0  0  0  0
   62.1263 -137.0050   44.9485 H   0  0  0  0  0
  1  2  2  0  0  0
  3  1  1  0  0  0
  1 10  1  0  0  0
  4  3  1  0  0  0
  6  4  1  0  0  0
  4  7  1  0  0  0
  8  5  1  0  0  0
  5  9  1  0  0  0
  6  8  1  0  0  0
  7  9  1  0  0  0
 10 11  1  0  0  0
 11 12  1  0  0  0
 11 14  1  0  0  0
 12 13  2  0  0  0
 12 22  1  0  0  0
 14 15  1  0  0  0
 15 16  1  0  0  0
 16 17  4  0  0  0
 16 18  4  0  0  0
 17 19  4  0  0  0
 18 20  4  0  0  0
 19 21  4  0  0  0
 20 21  4  0  0  0
 22 23  1  0  0  0
 23 24  1  0  0  0
 23 26  1  0  0  0
 24 25  2  0  0  0
 24 30  1  0  0  0
 26 27  1  0  0  0
 27 28  1  0  0  0
 27 29  1  0  0  0
 30 31  1  0  0  0
 31 32  1  0  0  0
 31 34  1  0  0  0
 32 33  2  0  0  0
 32 41  1  0  0  0
 34 35  1  0  0  0
 35 36  4  0  0  0
 35 37  4  0  0  0
 36 38  4  0  0  0
 37 39  4  0  0  0
 38 40  4  0  0  0
 39 40  4  0  0  0
 41 42  1  0  0  0
 42 43  1  0  0  0
 42 47  1  0  0  0
 43 44  1  0  0  0
 44 45  1  0  0  0
 44 46  1  0  0  0
 47 48  1  0  0  0
 47 52  1  0  0  0
 48 49  1  0  0  0
 48 50  1  0  0  0
 50 51  1  0  0  0
  3 53  1  0  0  0
  3 54  1  0  0  0
  4 55  1  0  0  0
  6 56  1  0  0  0
  6 57  1  0  0  0
  7 58  1  0  0  0
  7 59  1  0  0  0
  8 60  1  0  0  0
  8 61  1  0  0  0
  9 62  1  0  0  0
  9 63  1  0  0  0
 10 64  1  0  0  0
 11 65  1  0  0  0
 14 66  1  0  0  0
 14 67  1  0  0  0
 15 68  1  0  0  0
 15 69  1  0  0  0
 17 70  1  0  0  0
 18 71  1  0  0  0
 19 72  1  0  0  0
 20 73  1  0  0  0
 21 74  1  0  0  0
 22 75  1  0  0  0
 23 76  1  0  0  0
 26 77  1  0  0  0
 26 78  1  0  0  0
 27 79  1  0  0  0
 28 80  1  0  0  0
 28 81  1  0  0  0
 28 82  1  0  0  0
 29 83  1  0  0  0
 29 84  1  0  0  0
 29 85  1  0  0  0
 30 86  1  0  0  0
 31 87  1  0  0  0
 34 88  1  0  0  0
 34 89  1  0  0  0
 36 90  1  0  0  0
 37 91  1  0  0  0
 38 92  1  0  0  0
 39 93  1  0  0  0
 40 94  1  0  0  0
 41 95  1  0  0  0
 42 96  1  0  0  0
 43 97  1  0  0  0
 43 98  1  0  0  0
 44 99  1  0  0  0
 45100  1  0  0  0
 45101  1  0  0  0
 45102  1  0  0  0
 46103  1  0  0  0
 46104  1  0  0  0
 46105  1  0  0  0
 47106  1  0  0  0
 48107  1  0  0  0
 49108  1  0  0  0
 49109  1  0  0  0
 49110  1  0  0  0
 50111  1  0  0  0
 50112  1  0  0  0
 51113  1  0  0  0
 52114  1  0  0  0
M  END
$$$$
