### 
### Created by X-TOOL on Mon Sep 10 21:13:23 2018
### 

@<TRIPOS>MOLECULE
4qw6_ligand
  114   116     1     0     0
SMALL
GAST_HUCK


@<TRIPOS>ATOM
      1 C8         58.9640 -135.0750   31.4080 C.2       1 3BV         0.2238
      2 O9         59.5010 -134.0550   30.9740 O.2       1 3BV        -0.3910
      3 C7         58.6590 -136.3020   30.5370 C.3       1 3BV         0.0582
      4 N4         58.3280 -135.9870   29.1310 N.4       1 3BV         0.2552
      5 O1         58.1310 -134.3990   26.9710 O.3       1 3BV        -0.3693
      6 C5         59.5280 -135.5940   28.3400 C.3       1 3BV        -0.0060
      7 C3         57.2070 -135.0150   29.0160 C.3       1 3BV        -0.0060
      8 C6         59.0980 -135.4450   26.9190 C.3       1 3BV         0.0878
      9 C2         56.9060 -134.8490   27.6100 C.3       1 3BV         0.0878
     10 N10        58.5950 -135.2410   32.6720 N.am      1 3BV        -0.2611
     11 C11        58.8250 -134.2340   33.6940 C.3       1 3BV         0.1328
     12 C20        60.0070 -134.7280   34.4960 C.2       1 3BV         0.2041
     13 O21        60.2100 -135.9340   34.6340 O.2       1 3BV        -0.3944
     14 C12        57.6520 -134.2240   34.6270 C.3       1 3BV        -0.0027
     15 C13        56.9290 -132.9120   34.4150 C.3       1 3BV        -0.0149
     16 C14        55.6670 -133.0000   35.0520 C.ar      1 3BV        -0.0428
     17 C19        55.5230 -133.5340   36.3380 C.ar      1 3BV        -0.0603
     18 C15        54.5250 -132.5280   34.4020 C.ar      1 3BV        -0.0603
     19 C18        54.2780 -133.6090   36.9500 C.ar      1 3BV        -0.0686
     20 C16        53.2770 -132.6010   35.0150 C.ar      1 3BV        -0.0686
     21 C17        53.1500 -133.1420   36.2890 C.ar      1 3BV        -0.0687
     22 N22        60.7420 -133.7770   35.0590 N.am      1 3BV        -0.2637
     23 C23        61.8690 -134.1330   35.9080 C.3       1 3BV         0.1312
     24 C28        61.3260 -134.3370   37.3150 C.2       1 3BV         0.2040
     25 O29        60.5010 -133.5550   37.7860 O.2       1 3BV        -0.3944
     26 C24        62.8500 -133.0010   35.9360 C.3       1 3BV        -0.0101
     27 C25        63.6400 -133.0890   34.6210 C.3       1 3BV        -0.0425
     28 C26        64.4670 -131.8090   34.4440 C.3       1 3BV        -0.0625
     29 C27        64.5810 -134.3020   34.6370 C.3       1 3BV        -0.0625
     30 N30        61.7970 -135.4160   37.9510 N.am      1 3BV        -0.2619
     31 C31        61.4060 -135.7220   39.3300 C.3       1 3BV         0.1403
     32 C39        62.6750 -135.6830   40.1630 C.2       1 3BV         0.2040
     33 O40        63.7790 -135.6200   39.6230 O.2       1 3BV        -0.3943
     34 C32        60.7470 -137.0580   39.4480 C.3       1 3BV         0.0214
     35 C33        59.4460 -136.8630   38.9780 C.ar      1 3BV        -0.0386
     36 C34        58.4580 -136.3490   39.8210 C.ar      1 3BV        -0.0601
     37 C38        59.1250 -137.1820   37.6610 C.ar      1 3BV        -0.0601
     38 C35        57.1620 -136.1580   39.3450 C.ar      1 3BV        -0.0686
     39 C37        57.8300 -136.9930   37.1880 C.ar      1 3BV        -0.0686
     40 C36        56.8450 -136.4820   38.0290 C.ar      1 3BV        -0.0687
     41 N41        62.4660 -135.6970   41.4820 N.am      1 3BV        -0.2794
     42 C42        63.5460 -135.5020   42.4390 C.3       1 3BV         0.0685
     43 C43        63.2520 -134.0990   42.9410 C.3       1 3BV        -0.0251
     44 C44        64.3770 -133.1010   42.5950 C.3       1 3BV        -0.0446
     45 C45        63.8440 -131.6830   42.8580 C.3       1 3BV        -0.0626
     46 C46        64.8540 -133.1910   41.1350 C.3       1 3BV        -0.0626
     47 C47        63.5020 -136.4580   43.6450 C.3       1 3BV         0.0827
     48 C51        63.9060 -137.9660   43.3720 C.3       1 3BV         0.0075
     49 C58        65.1250 -138.0150   42.4090 C.3       1 3BV        -0.0579
     50 C59        62.6600 -138.6130   42.7180 C.3       1 3BV         0.0492
     51 O60        63.0900 -139.6130   41.7840 O.3       1 3BV        -0.3947
     52 O48        62.1780 -136.4150   44.1930 O.3       1 3BV        -0.3892
     53 H1         57.8047 -136.8346   30.9803 H         1 3BV         0.1063
     54 H2         59.5429 -136.9568   30.5437 H         1 3BV         0.1063
     55 H3         57.9943 -136.8458   28.7221 H         1 3BV         0.2054
     56 H4         60.3014 -136.3722   28.4189 H         1 3BV         0.0837
     57 H5         59.9283 -134.6399   28.7134 H         1 3BV         0.0837
     58 H6         57.5032 -134.0493   29.4515 H         1 3BV         0.0837
     59 H7         56.3226 -135.3999   29.5448 H         1 3BV         0.0837
     60 H8         59.9472 -135.1637   26.2789 H         1 3BV         0.0613
     61 H9         58.6493 -136.3768   26.5444 H         1 3BV         0.0613
     62 H10        56.5817 -135.8064   27.1762 H         1 3BV         0.0613
     63 H11        56.1121 -134.0991   27.4783 H         1 3BV         0.0613
     64 H12        58.1405 -136.0931   32.9314 H         1 3BV         0.1884
     65 H13        59.0043 -133.2408   33.2565 H         1 3BV         0.0801
     66 H14        57.9972 -134.3010   35.6686 H         1 3BV         0.0334
     67 H15        56.9814 -135.0658   34.3997 H         1 3BV         0.0334
     68 H16        56.7920 -132.7308   33.3387 H         1 3BV         0.0428
     69 H17        57.5122 -132.0891   34.8541 H         1 3BV         0.0428
     70 H18        56.3983 -133.8953   36.8656 H         1 3BV         0.0557
     71 H19        54.6109 -132.1002   33.4097 H         1 3BV         0.0557
     72 H20        54.1873 -134.0322   37.9438 H         1 3BV         0.0599
     73 H21        52.3993 -132.2338   34.4956 H         1 3BV         0.0599
     74 H22        52.1769 -133.1989   36.7632 H         1 3BV         0.0559
     75 H23        60.5211 -132.8148   34.8996 H         1 3BV         0.1883
     76 H24        62.3545 -135.0493   35.5411 H         1 3BV         0.0800
     77 H25        63.5278 -133.1044   36.7961 H         1 3BV         0.0315
     78 H26        62.3209 -132.0388   35.9997 H         1 3BV         0.0315
     79 H27        62.9358 -133.1892   33.7820 H         1 3BV         0.0298
     80 H28        65.0349 -131.8665   33.5037 H         1 3BV         0.0232
     81 H29        65.1647 -131.7036   35.2878 H         1 3BV         0.0232
     82 H30        63.7944 -130.9391   34.4134 H         1 3BV         0.0232
     83 H31        63.9913 -135.2219   34.7638 H         1 3BV         0.0232
     84 H32        65.2914 -134.2040   35.4711 H         1 3BV         0.0232
     85 H33        65.1345 -134.3493   33.6876 H         1 3BV         0.0232
     86 H34        62.4296 -136.0269   37.4750 H         1 3BV         0.1885
     87 H35        60.7051 -134.9533   39.6876 H         1 3BV         0.0823
     88 H36        60.7333 -137.3910   40.4963 H         1 3BV         0.0474
     89 H37        61.2723 -137.8037   38.8332 H         1 3BV         0.0474
     90 H38        58.6997 -136.0981   40.8475 H         1 3BV         0.0557
     91 H39        59.8876 -137.5795   37.0011 H         1 3BV         0.0557
     92 H40        56.3988 -135.7560   40.0015 H         1 3BV         0.0599
     93 H41        57.5874 -137.2443   36.1618 H         1 3BV         0.0599
     94 H42        55.8359 -136.3372   37.6605 H         1 3BV         0.0559
     95 H43        61.5380 -135.8462   41.8234 H         1 3BV         0.1856
     96 H44        64.5267 -135.5720   41.9458 H         1 3BV         0.0582
     97 H45        63.1340 -134.1327   44.0341 H         1 3BV         0.0291
     98 H46        62.3159 -133.7487   42.4817 H         1 3BV         0.0291
     99 H47        65.2359 -133.2991   43.2530 H         1 3BV         0.0296
    100 H48        64.6262 -130.9472   42.6196 H         1 3BV         0.0232
    101 H49        63.5617 -131.5879   43.9169 H         1 3BV         0.0232
    102 H50        62.9629 -131.4993   42.2256 H         1 3BV         0.0232
    103 H51        65.2376 -134.2026   40.9363 H         1 3BV         0.0232
    104 H52        65.6540 -132.4555   40.9646 H         1 3BV         0.0232
    105 H53        64.0115 -132.9794   40.4602 H         1 3BV         0.0232
    106 H54        64.2064 -136.0683   44.3946 H         1 3BV         0.0620
    107 H55        64.1570 -138.4784   44.3125 H         1 3BV         0.0346
    108 H56        65.4025 -139.0628   42.2219 H         1 3BV         0.0234
    109 H57        65.9748 -137.4867   42.8659 H         1 3BV         0.0234
    110 H58        64.8605 -137.5303   41.4577 H         1 3BV         0.0234
    111 H59        62.0777 -137.8425   42.1915 H         1 3BV         0.0560
    112 H60        62.0352 -139.0780   43.4947 H         1 3BV         0.0560
    113 H61        62.3300 -140.0141   41.3790 H         1 3BV         0.2094
    114 H62        62.1577 -136.9031   45.0078 H         1 3BV         0.2099
@<TRIPOS>BOND
     1    1    2 2  
     2    3    1 1  
     3    1   10 am 
     4    4    3 1  
     5    6    4 1  
     6    4    7 1  
     7    8    5 1  
     8    5    9 1  
     9    6    8 1  
    10    7    9 1  
    11   10   11 1  
    12   11   12 1  
    13   11   14 1  
    14   12   13 2  
    15   12   22 am 
    16   14   15 1  
    17   15   16 1  
    18   16   17 ar 
    19   16   18 ar 
    20   17   19 ar 
    21   18   20 ar 
    22   19   21 ar 
    23   20   21 ar 
    24   22   23 1  
    25   23   24 1  
    26   23   26 1  
    27   24   25 2  
    28   24   30 am 
    29   26   27 1  
    30   27   28 1  
    31   27   29 1  
    32   30   31 1  
    33   31   32 1  
    34   31   34 1  
    35   32   33 2  
    36   32   41 am 
    37   34   35 1  
    38   35   36 ar 
    39   35   37 ar 
    40   36   38 ar 
    41   37   39 ar 
    42   38   40 ar 
    43   39   40 ar 
    44   41   42 1  
    45   42   43 1  
    46   42   47 1  
    47   43   44 1  
    48   44   45 1  
    49   44   46 1  
    50   47   48 1  
    51   47   52 1  
    52   48   49 1  
    53   48   50 1  
    54   50   51 1  
    55    3   53 1  
    56    3   54 1  
    57    4   55 1  
    58    6   56 1  
    59    6   57 1  
    60    7   58 1  
    61    7   59 1  
    62    8   60 1  
    63    8   61 1  
    64    9   62 1  
    65    9   63 1  
    66   10   64 1  
    67   11   65 1  
    68   14   66 1  
    69   14   67 1  
    70   15   68 1  
    71   15   69 1  
    72   17   70 1  
    73   18   71 1  
    74   19   72 1  
    75   20   73 1  
    76   21   74 1  
    77   22   75 1  
    78   23   76 1  
    79   26   77 1  
    80   26   78 1  
    81   27   79 1  
    82   28   80 1  
    83   28   81 1  
    84   28   82 1  
    85   29   83 1  
    86   29   84 1  
    87   29   85 1  
    88   30   86 1  
    89   31   87 1  
    90   34   88 1  
    91   34   89 1  
    92   36   90 1  
    93   37   91 1  
    94   38   92 1  
    95   39   93 1  
    96   40   94 1  
    97   41   95 1  
    98   42   96 1  
    99   43   97 1  
   100   43   98 1  
   101   44   99 1  
   102   45  100 1  
   103   45  101 1  
   104   45  102 1  
   105   46  103 1  
   106   46  104 1  
   107   46  105 1  
   108   47  106 1  
   109   48  107 1  
   110   49  108 1  
   111   49  109 1  
   112   49  110 1  
   113   50  111 1  
   114   50  112 1  
   115   51  113 1  
   116   52  114 1  
@<TRIPOS>SUBSTRUCTURE
     1 3BV         1

