1zm7_ligand
  -I-interpret- 

 46 47  0  0  0  0  0  0  0  0999 V2000
   36.0040   18.4750   11.8320 P   0  0  0  0  0
   35.7320   17.3920   12.7860 O   0  0  0  0  0
   34.9970   19.5550   11.7800 O   0  0  0  0  0
   37.4240   19.0920   12.2170 O   0  0  0  0  0
   38.1170   20.3990   11.5540 P   0  0  0  0  0
   39.4720   20.3220   12.1240 O   0  0  0  0  0
   37.9480   20.3850   10.0860 O   0  0  0  0  0
   37.2980   21.6030   12.2380 O   0  0  0  0  0
   37.8480   23.1320   12.5070 P   0  0  0  0  0
   38.3450   23.6980   11.2530 O   0  0  0  0  0
   36.6190   23.8010   13.0190 O   0  0  0  0  0
   38.8970   23.0560   13.5290 O   0  0  0  0  0
   36.1560   17.9420   10.3280 O   0  0  0  0  0
   37.1600   16.9600   10.0970 C   0  0  0  0  0
   36.9950   16.1600    8.9440 C   0  0  0  0  0
   36.4270   14.8860    9.2770 O   0  0  0  0  0
   36.1040   16.7280    8.0180 C   0  0  0  0  0
   36.6070   16.4130    6.7100 O   0  0  0  0  0
   34.8360   16.1180    8.2820 C   0  0  0  0  0
   35.1310   14.7920    8.6860 C   0  0  0  0  0
   34.2670   14.1780    9.5780 N   0  0  0  0  0
   33.4350   13.1550    9.1810 C   0  0  0  0  0
   33.4210   12.7730    8.0130 O   0  0  0  0  0
   32.6120   12.5110   10.1100 N   0  0  0  0  0
   32.5840   12.9090   11.4420 C   0  0  0  0  0
   31.9980   12.1910   12.2790 O   0  0  0  0  0
   33.4090   13.9710   11.8560 C   0  0  0  0  0
   33.4120   14.4550   13.3190 C   0  0  0  0  0
   34.2430   14.5690   10.9090 C   0  0  0  0  0
   35.2647   20.2096   11.1308 H   0  0  0  0  0
   37.0138   20.4411    9.8720 H   0  0  0  0  0
   36.3472   23.3837   13.8397 H   0  0  0  0  0
   38.5318   22.6806   14.3335 H   0  0  0  0  0
   37.1226   16.2798   10.9479 H   0  0  0  0  0
   38.0936   17.5053    9.9586 H   0  0  0  0  0
   37.9944   16.0702    8.5183 H   0  0  0  0  0
   36.0022   17.8110    8.0873 H   0  0  0  0  0
   36.0229   16.7856    6.0455 H   0  0  0  0  0
   34.1939   16.1339    7.4014 H   0  0  0  0  0
   34.2858   16.6575    9.0529 H   0  0  0  0  0
   35.0443   14.1558    7.8052 H   0  0  0  0  0
   32.0224   11.7364    9.8055 H   0  0  0  0  0
   34.4103   14.3320   13.7390 H   0  0  0  0  0
   33.1293   15.5071   13.3529 H   0  0  0  0  0
   32.6986   13.8670   13.8964 H   0  0  0  0  0
   34.9022   15.3761   11.2286 H   0  0  0  0  0
  1  2  2  0  0  0
  1  3  1  0  0  0
  1  4  1  0  0  0
  1 13  1  0  0  0
  4  5  1  0  0  0
  5  6  2  0  0  0
  5  7  1  0  0  0
  5  8  1  0  0  0
  8  9  1  0  0  0
  9 10  2  0  0  0
  9 11  1  0  0  0
  9 12  1  0  0  0
 13 14  1  0  0  0
 14 15  1  0  0  0
 15 16  1  0  0  0
 15 17  1  0  0  0
 16 20  1  0  0  0
 17 18  1  0  0  0
 17 19  1  0  0  0
 19 20  1  0  0  0
 20 21  1  0  0  0
 21 22  1  0  0  0
 21 29  1  0  0  0
 22 23  2  0  0  0
 22 24  1  0  0  0
 24 25  1  0  0  0
 25 26  2  0  0  0
 25 27  1  0  0  0
 27 28  1  0  0  0
 27 29  2  0  0  0
  3 30  1  0  0  0
  7 31  1  0  0  0
 11 32  1  0  0  0
 12 33  1  0  0  0
 14 34  1  0  0  0
 14 35  1  0  0  0
 15 36  1  0  0  0
 17 37  1  0  0  0
 18 38  1  0  0  0
 19 39  1  0  0  0
 19 40  1  0  0  0
 20 41  1  0  0  0
 24 42  1  0  0  0
 28 43  1  0  0  0
 28 44  1  0  0  0
 28 45  1  0  0  0
 29 46  1  0  0  0
M  END
$$$$
