### 
### Created by X-TOOL on Mon Sep 10 21:12:53 2018
### 

@<TRIPOS>MOLECULE
1zm7_ligand
   42    43     1     0     0
SMALL
GAST_HUCK


@<TRIPOS>ATOM
      1 PA         36.0040   18.4750   11.8320 P.3       1 TTP         0.3266
      2 O1A        35.7320   17.3920   12.7860 O.co2     1 TTP        -0.5692
      3 O2A        34.9970   19.5550   11.7800 O.co2     1 TTP        -0.5692
      4 O3A        37.4240   19.0920   12.2170 O.3       1 TTP        -0.1171
      5 PB         38.1170   20.3990   11.5540 P.3       1 TTP         0.3553
      6 O1B        39.4720   20.3220   12.1240 O.co2     1 TTP        -0.5652
      7 O2B        37.9480   20.3850   10.0860 O.co2     1 TTP        -0.5652
      8 O3B        37.2980   21.6030   12.2380 O.3       1 TTP        -0.1546
      9 PG         37.8480   23.1320   12.5070 P.3       1 TTP         0.1879
     10 O1G        38.3450   23.6980   11.2530 O.co2     1 TTP        -0.6091
     11 O2G        36.6190   23.8010   13.0190 O.co2     1 TTP        -0.6091
     12 O3G        38.8970   23.0560   13.5290 O.co2     1 TTP        -0.6091
     13 O5         36.1560   17.9420   10.3280 O.3       1 TTP        -0.2441
     14 C5         37.1600   16.9600   10.0970 C.3       1 TTP         0.1130
     15 C4         36.9950   16.1600    8.9440 C.3       1 TTP         0.1163
     16 O4         36.4270   14.8860    9.2770 O.3       1 TTP        -0.3395
     17 C3         36.1040   16.7280    8.0180 C.3       1 TTP         0.0889
     18 O3         36.6070   16.4130    6.7100 O.3       1 TTP        -0.3890
     19 C2         34.8360   16.1180    8.2820 C.3       1 TTP         0.0308
     20 C1         35.1310   14.7920    8.6860 C.3       1 TTP         0.1757
     21 N1         34.2670   14.1780    9.5780 N.am      1 TTP        -0.1736
     22 C2         33.4350   13.1550    9.1810 C.2       1 TTP         0.3265
     23 O2         33.4210   12.7730    8.0130 O.2       1 TTP        -0.3843
     24 N3         32.6120   12.5110   10.1100 N.am      1 TTP        -0.1859
     25 C4         32.5840   12.9090   11.4420 C.2       1 TTP         0.1930
     26 O4         31.9980   12.1910   12.2790 O.2       1 TTP        -0.4079
     27 C5         33.4090   13.9710   11.8560 C.2       1 TTP         0.0225
     28 C5M        33.4120   14.4550   13.3190 C.3       1 TTP        -0.0437
     29 C6         34.2430   14.5690   10.9090 C.2       1 TTP         0.0524
     30 H1         37.1823   16.2907   10.9697 H         1 TTP         0.0648
     31 H2         38.1251   17.4805   10.0093 H         1 TTP         0.0648
     32 H3         37.9790   16.0204    8.4726 H         1 TTP         0.0650
     33 H4         36.0353   17.8188    8.1424 H         1 TTP         0.0622
     34 H5         37.4775   16.7802    6.6098 H         1 TTP         0.2099
     35 H6         34.2147   16.1141    7.3743 H         1 TTP         0.0344
     36 H7         34.3099   16.6563    9.0842 H         1 TTP         0.0344
     37 H8         35.1731   14.1606    7.7862 H         1 TTP         0.0959
     38 H9         32.0339   11.7516    9.8115 H         1 TTP         0.2259
     39 H10        34.1221   15.2879   13.4282 H         1 TTP         0.0296
     40 H11        33.7132   13.6276   13.9783 H         1 TTP         0.0296
     41 H12        32.4029   14.7950   13.5948 H         1 TTP         0.0296
     42 H13        34.9016   15.3754   11.2283 H         1 TTP         0.1011
@<TRIPOS>BOND
     1    1    2 ar 
     2    1    3 ar 
     3    1    4 1  
     4    1   13 1  
     5    4    5 1  
     6    5    6 ar 
     7    5    7 ar 
     8    5    8 1  
     9    8    9 1  
    10    9   10 ar 
    11    9   11 ar 
    12    9   12 ar 
    13   13   14 1  
    14   14   15 1  
    15   15   16 1  
    16   15   17 1  
    17   16   20 1  
    18   17   18 1  
    19   17   19 1  
    20   19   20 1  
    21   20   21 1  
    22   21   22 am 
    23   21   29 1  
    24   22   23 2  
    25   22   24 am 
    26   24   25 am 
    27   25   26 2  
    28   25   27 1  
    29   27   28 1  
    30   27   29 2  
    31   14   30 1  
    32   14   31 1  
    33   15   32 1  
    34   17   33 1  
    35   18   34 1  
    36   19   35 1  
    37   19   36 1  
    38   20   37 1  
    39   24   38 1  
    40   28   39 1  
    41   28   40 1  
    42   28   41 1  
    43   29   42 1  
@<TRIPOS>SUBSTRUCTURE
     1 TTP         1

