1njb_ligand
  -I-interpret- 

 33 34  0  0  0  0  0  0  0  0999 V2000
   14.8350   48.6670  -53.7220 N   0  0  0  0  0
   14.0010   47.6040  -53.2930 C   0  0  0  0  0
   13.1350   47.8370  -52.2100 N   0  0  0  0  0
   13.0410   49.0460  -51.5290 C   0  0  0  0  0
   13.9550   50.0780  -52.0280 C   0  0  0  0  0
   14.8230   49.8340  -53.1130 C   0  0  0  0  0
   13.9930   46.4800  -53.7910 O   0  0  0  0  0
   12.2150   49.1940  -50.6280 O   0  0  0  0  0
   15.7010   48.5970  -54.9600 C   0  0  0  0  0
   15.2140   47.8970  -56.2300 C   0  0  0  0  0
   16.3680   48.1350  -57.1920 C   0  0  0  0  0
   16.7520   49.6130  -57.0540 C   0  0  0  0  0
   17.4610   47.3730  -56.7310 O   0  0  0  0  0
   16.4770   49.7800  -55.5790 O   0  0  0  0  0
   15.7890   50.4960  -57.8560 C   0  0  0  0  0
   15.9170   50.2850  -59.3180 O   0  0  0  0  0
   15.9820   51.5650  -60.2870 P   0  0  0  0  0
   16.2200   51.1250  -61.7030 O   0  0  0  0  0
   14.7690   52.3560  -60.0650 O   0  0  0  0  0
   17.0260   52.4010  -59.7760 O   0  0  0  0  0
   12.5369   47.0695  -51.9040 H   0  0  0  0  0
   13.9641   51.0572  -51.5492 H   0  0  0  0  0
   15.4937   50.6235  -53.4521 H   0  0  0  0  0
   16.3344   48.0186  -54.2874 H   0  0  0  0  0
   14.2630   48.2840  -56.5960 H   0  0  0  0  0
   14.9911   46.8407  -56.0796 H   0  0  0  0  0
   16.1070   47.8740  -58.2176 H   0  0  0  0  0
   17.7529   49.8747  -57.3973 H   0  0  0  0  0
   18.2094   47.5011  -57.3184 H   0  0  0  0  0
   16.0282   51.5378  -57.6425 H   0  0  0  0  0
   14.7710   50.2371  -57.5649 H   0  0  0  0  0
   15.4917   50.5699  -61.9911 H   0  0  0  0  0
   14.0066   51.8664  -60.3822 H   0  0  0  0  0
  1  2  1  0  0  0
  1  6  1  0  0  0
  1  9  1  0  0  0
  2  3  1  0  0  0
  2  7  2  0  0  0
  3  4  1  0  0  0
  4  5  1  0  0  0
  4  8  2  0  0  0
  5  6  2  0  0  0
  9 10  1  0  0  0
  9 14  1  0  0  0
 10 11  1  0  0  0
 11 12  1  0  0  0
 11 13  1  0  0  0
 12 14  1  0  0  0
 12 15  1  0  0  0
 15 16  1  0  0  0
 16 17  1  0  0  0
 17 18  1  0  0  0
 17 19  1  0  0  0
 17 20  2  0  0  0
  3 21  1  0  0  0
  5 22  1  0  0  0
  6 23  1  0  0  0
  9 24  1  0  0  0
 10 25  1  0  0  0
 10 26  1  0  0  0
 11 27  1  0  0  0
 12 28  1  0  0  0
 13 29  1  0  0  0
 15 30  1  0  0  0
 15 31  1  0  0  0
 18 32  1  0  0  0
 19 33  1  0  0  0
M  END
$$$$
