### 
### Created by X-TOOL on Mon Sep 10 21:12:45 2018
### 

@<TRIPOS>MOLECULE
1njb_ligand
   31    32     1     0     0
SMALL
GAST_HUCK


@<TRIPOS>ATOM
      1 N1         14.8350   48.6670  -53.7220 N.am      1 UMP        -0.1618
      2 C2         14.0010   47.6040  -53.2930 C.2       1 UMP         0.3327
      3 N3         13.1350   47.8370  -52.2100 N.am      1 UMP        -0.1865
      4 C4         13.0410   49.0460  -51.5290 C.2       1 UMP         0.1822
      5 C5         13.9550   50.0780  -52.0280 C.2       1 UMP         0.0062
      6 C6         14.8230   49.8340  -53.1130 C.2       1 UMP         0.0590
      7 O2         13.9930   46.4800  -53.7910 O.2       1 UMP        -0.3815
      8 O4         12.2150   49.1940  -50.6280 O.2       1 UMP        -0.4124
      9 C1         15.7010   48.5970  -54.9600 C.3       1 UMP         0.1800
     10 C2         15.2140   47.8970  -56.2300 C.3       1 UMP         0.0316
     11 C3         16.3680   48.1350  -57.1920 C.3       1 UMP         0.0890
     12 C4         16.7520   49.6130  -57.0540 C.3       1 UMP         0.1156
     13 O3         17.4610   47.3730  -56.7310 O.3       1 UMP        -0.3890
     14 O4         16.4770   49.7800  -55.5790 O.3       1 UMP        -0.3387
     15 C5         15.7890   50.4960  -57.8560 C.3       1 UMP         0.1071
     16 O5         15.9170   50.2850  -59.3180 O.3       1 UMP        -0.2734
     17 P          15.9820   51.5650  -60.2870 P.3       1 UMP         0.2008
     18 O1P        16.2200   51.1250  -61.7030 O.co2     1 UMP        -0.5537
     19 O2P        14.7690   52.3560  -60.0650 O.co2     1 UMP        -0.5537
     20 O3P        17.0260   52.4010  -59.7760 O.co2     1 UMP        -0.5537
     21 H1         12.5486   47.0846  -51.9100 H         1 UMP         0.2259
     22 H2         13.9641   51.0563  -51.5497 H         1 UMP         0.0258
     23 H3         15.4931   50.6228  -53.4518 H         1 UMP         0.1178
     24 H4         16.5003   47.9421  -54.5830 H         1 UMP         0.0970
     25 H5         14.2839   48.3502  -56.6034 H         1 UMP         0.0345
     26 H6         15.0546   46.8225  -56.0568 H         1 UMP         0.0345
     27 H7         16.0991   47.8763  -58.2268 H         1 UMP         0.0622
     28 H8         17.7972   49.8167  -57.3299 H         1 UMP         0.0649
     29 H9         17.2542   46.4487  -56.8036 H         1 UMP         0.2099
     30 H10        16.0053   51.5507  -57.6306 H         1 UMP         0.0639
     31 H11        14.7580   50.2604  -57.5536 H         1 UMP         0.0639
@<TRIPOS>BOND
     1    1    2 am 
     2    1    6 1  
     3    1    9 1  
     4    2    3 am 
     5    2    7 2  
     6    3    4 am 
     7    4    5 1  
     8    4    8 2  
     9    5    6 2  
    10    9   10 1  
    11    9   14 1  
    12   10   11 1  
    13   11   12 1  
    14   11   13 1  
    15   12   14 1  
    16   12   15 1  
    17   15   16 1  
    18   16   17 1  
    19   17   18 ar 
    20   17   19 ar 
    21   17   20 ar 
    22    3   21 1  
    23    5   22 1  
    24    6   23 1  
    25    9   24 1  
    26   10   25 1  
    27   10   26 1  
    28   11   27 1  
    29   12   28 1  
    30   13   29 1  
    31   15   30 1  
    32   15   31 1  
@<TRIPOS>SUBSTRUCTURE
     1 UMP         1

