4tpp_ligand
  -I-interpret- 

 61 66  0  0  0  0  0  0  0  0999 V2000
    7.3240   94.3140   42.6070 C   0  0  0  0  0
    7.8570   93.1660   43.3460 C   0  0  0  0  0
    7.2400   92.6870   44.2470 O   0  0  0  0  0
    9.1350   92.6160   42.9760 N   0  0  0  0  0
    9.7210   91.4850   43.6680 C   0  0  0  0  0
   10.1600   90.4270   42.7300 C   0  0  0  0  0
   11.0080   90.9840   41.6490 C   0  0  0  0  0
   10.3420   92.1120   40.9410 C   0  0  0  0  0
    9.9170   93.1620   41.8970 C   0  0  0  0  0
   11.5140   89.9310   40.6450 C   0  0  0  0  0
   10.9380   89.9010   39.3970 N   0  0  0  0  0
   11.3760   88.9480   38.4550 C   0  0  0  0  0
   10.8010   88.8820   37.1290 C   0  0  0  0  0
   11.2540   87.9290   36.2210 C   0  0  0  0  0
   12.2770   87.0220   36.5900 C   0  0  0  0  0
   12.8470   87.0840   37.9000 C   0  0  0  0  0
   12.3930   88.0450   38.8190 C   0  0  0  0  0
   12.9830   88.0820   40.1240 N   0  0  0  0  0
   12.5760   88.9830   41.0290 C   0  0  0  0  0
   13.1740   89.0250   42.3240 O   0  0  0  0  0
   13.8040   87.7870   42.7030 C   0  0  0  0  0
   15.1560   87.6620   42.1580 C   0  0  0  0  0
   15.7130   87.9780   43.4670 N   0  0  0  0  0
   14.3750   87.9310   44.0460 C   0  0  0  0  0
   16.7150   88.1760   44.4800 C   0  0  0  0  0
   16.3890   88.1980   45.8590 C   0  0  0  0  0
   17.4080   88.3960   46.7800 C   0  0  0  0  0
   18.7350   88.5700   46.3210 C   0  0  0  0  0
   19.8210   88.7780   47.2310 C   0  0  0  0  0
   21.1310   88.9480   46.7260 C   0  0  0  0  0
   21.3770   88.9140   45.3340 C   0  0  0  0  0
   20.3210   88.7100   44.4520 C   0  0  0  0  0
   18.9850   88.5380   44.9700 C   0  0  0  0  0
   17.9540   88.3410   44.0760 N   0  0  0  0  0
    6.3713   94.0416   42.1528 H   0  0  0  0  0
    7.1758   95.1486   43.2923 H   0  0  0  0  0
    8.0299   94.6026   41.8282 H   0  0  0  0  0
    8.9652   91.0616   44.3295 H   0  0  0  0  0
   10.5942   91.8369   44.2174 H   0  0  0  0  0
    9.2768   89.9740   42.2797 H   0  0  0  0  0
   10.7430   89.6916   43.2844 H   0  0  0  0  0
   11.8913   91.3698   42.1580 H   0  0  0  0  0
    9.4604   91.7301   40.4262 H   0  0  0  0  0
   11.0486   92.5475   40.2345 H   0  0  0  0  0
   10.8097   93.6232   42.3194 H   0  0  0  0  0
    9.3036   93.8862   41.3609 H   0  0  0  0  0
   10.0133   89.5783   36.8411 H   0  0  0  0  0
   10.8197   87.8808   35.2224 H   0  0  0  0  0
   12.6296   86.2774   35.8763 H   0  0  0  0  0
   13.6337   86.3857   38.1856 H   0  0  0  0  0
   13.0509   87.0367   42.4622 H   0  0  0  0  0
   15.4482   88.2468   41.2858 H   0  0  0  0  0
   15.4544   86.7477   41.6451 H   0  0  0  0  0
   14.1400   87.2016   44.8211 H   0  0  0  0  0
   14.0346   88.7323   44.7018 H   0  0  0  0  0
   15.3592   88.0622   46.1894 H   0  0  0  0  0
   17.1881   88.4173   47.8474 H   0  0  0  0  0
   19.6392   88.8051   48.3054 H   0  0  0  0  0
   21.9592   89.1068   47.4166 H   0  0  0  0  0
   22.3898   89.0471   44.9538 H   0  0  0  0  0
   20.5012   88.6803   43.3774 H   0  0  0  0  0
  1  2  1  0  0  0
  2  3  2  0  0  0
  2  4  1  0  0  0
  4  5  1  0  0  0
  4  9  1  0  0  0
  5  6  1  0  0  0
  6  7  1  0  0  0
  7  8  1  0  0  0
  7 10  1  0  0  0
  8  9  1  0  0  0
 10 11  4  0  0  0
 10 19  4  0  0  0
 11 12  4  0  0  0
 12 13  4  0  0  0
 12 17  4  0  0  0
 13 14  4  0  0  0
 14 15  4  0  0  0
 15 16  4  0  0  0
 16 17  4  0  0  0
 17 18  4  0  0  0
 18 19  4  0  0  0
 19 20  1  0  0  0
 20 21  1  0  0  0
 21 22  1  0  0  0
 21 24  1  0  0  0
 22 23  1  0  0  0
 23 24  1  0  0  0
 23 25  1  0  0  0
 25 26  4  0  0  0
 25 34  4  0  0  0
 26 27  4  0  0  0
 27 28  4  0  0  0
 28 29  4  0  0  0
 28 33  4  0  0  0
 29 30  4  0  0  0
 30 31  4  0  0  0
 31 32  4  0  0  0
 32 33  4  0  0  0
 33 34  4  0  0  0
  1 35  1  0  0  0
  1 36  1  0  0  0
  1 37  1  0  0  0
  5 38  1  0  0  0
  5 39  1  0  0  0
  6 40  1  0  0  0
  6 41  1  0  0  0
  7 42  1  0  0  0
  8 43  1  0  0  0
  8 44  1  0  0  0
  9 45  1  0  0  0
  9 46  1  0  0  0
 13 47  1  0  0  0
 14 48  1  0  0  0
 15 49  1  0  0  0
 16 50  1  0  0  0
 21 51  1  0  0  0
 22 52  1  0  0  0
 22 53  1  0  0  0
 24 54  1  0  0  0
 24 55  1  0  0  0
 26 56  1  0  0  0
 27 57  1  0  0  0
 29 58  1  0  0  0
 30 59  1  0  0  0
 31 60  1  0  0  0
 32 61  1  0  0  0
M  END
$$$$
