3nf8_ligand
  -I-interpret- 

 39 42  0  0  0  0  0  0  0  0999 V2000
    1.3240  -23.3490    7.6630 C   0  0  0  0  0
    1.4630  -24.0180    8.8680 C   0  0  0  0  0
    2.1820  -23.4660    9.9160 C   0  0  0  0  0
    2.7540  -22.2310    9.7040 C   0  0  0  0  0
    2.5890  -21.5690    8.5180 C   0  0  0  0  0
    1.8830  -22.1030    7.4670 C   0  0  0  0  0
    3.2590  -20.2510    8.5530 C   0  0  0  0  0
    3.7090  -20.1700    9.9950 C   0  0  0  0  0
    4.1520  -19.1520   10.5200 O   0  0  0  0  0
    3.5070  -21.4210   10.5670 N   0  0  0  0  0
    4.3140  -21.9150   11.6580 C   0  0  0  0  0
    5.6040  -22.5920   11.2480 C   0  0  0  0  0
    6.4330  -22.0860   10.2600 C   0  0  0  0  0
    7.6100  -22.7450    9.9060 C   0  0  0  0  0
    7.8980  -23.9290   10.6000 C   0  0  0  0  0
    7.0810  -24.4440   11.6070 C   0  0  0  0  0
    5.9220  -23.7570   11.9340 C   0  0  0  0  0
    4.9680  -24.2490   12.9880 C   0  0  0  0  0
    5.1800  -23.9590   14.1980 O   0  0  0  0  0
    3.9880  -24.9210   12.5430 O   0  0  0  0  0
    7.3820  -25.6120   12.3270 O   0  0  0  0  0
    8.2650  -26.4240   11.5350 C   0  0  0  0  0
    9.4540  -25.5970   11.2260 C   0  0  0  0  0
    9.0600  -24.5490   10.2490 O   0  0  0  0  0
    0.4330  -24.0500    6.3470 Cl  0  0  0  0  0
    0.9985  -24.9960    8.9940 H   0  0  0  0  0
    2.2903  -23.9867   10.8674 H   0  0  0  0  0
    1.7701  -21.5680    6.5240 H   0  0  0  0  0
    2.6105  -19.4273    8.2546 H   0  0  0  0  0
    4.0770  -20.1617    7.8382 H   0  0  0  0  0
    3.7165  -22.6658   12.1751 H   0  0  0  0  0
    4.5916  -21.0495   12.2596 H   0  0  0  0  0
    6.1616  -21.1603    9.7525 H   0  0  0  0  0
    8.2717  -22.3598    9.1302 H   0  0  0  0  0
    4.0616  -24.9987   11.5890 H   0  0  0  0  0
    7.7722  -26.7483   10.6184 H   0  0  0  0  0
    8.5522  -27.3242   12.0785 H   0  0  0  0  0
   10.2414  -26.2214   10.8039 H   0  0  0  0  0
    9.8307  -25.1327   12.1374 H   0  0  0  0  0
  1  2  4  0  0  0
  1  6  4  0  0  0
  1 25  1  0  0  0
  2  3  4  0  0  0
  3  4  4  0  0  0
  4  5  4  0  0  0
  4 10  1  0  0  0
  5  6  4  0  0  0
  5  7  1  0  0  0
  7  8  1  0  0  0
  8  9  2  0  0  0
  8 10  1  0  0  0
 10 11  1  0  0  0
 11 12  1  0  0  0
 12 13  4  0  0  0
 12 17  4  0  0  0
 13 14  4  0  0  0
 14 15  4  0  0  0
 15 16  4  0  0  0
 15 24  1  0  0  0
 16 17  4  0  0  0
 16 21  1  0  0  0
 17 18  1  0  0  0
 18 19  2  0  0  0
 18 20  1  0  0  0
 21 22  1  0  0  0
 22 23  1  0  0  0
 23 24  1  0  0  0
  2 26  1  0  0  0
  3 27  1  0  0  0
  6 28  1  0  0  0
  7 29  1  0  0  0
  7 30  1  0  0  0
 11 31  1  0  0  0
 11 32  1  0  0  0
 13 33  1  0  0  0
 14 34  1  0  0  0
 20 35  1  0  0  0
 22 36  1  0  0  0
 22 37  1  0  0  0
 23 38  1  0  0  0
 23 39  1  0  0  0
M  END
$$$$
