4ny3_ligand
  -I-interpret- 

 91 93  0  0  0  0  0  0  0  0999 V2000
   18.9270    2.6990   11.9150 N   0  3  0  0  0
   19.0080    2.3870   13.3470 C   0  0  0  0  0
   18.6720    3.5850   14.2320 C   0  0  0  0  0
   18.5460    3.4210   15.4470 O   0  0  0  0  0
   20.4780    1.9910   13.5350 C   0  0  0  0  0
   21.1980    2.6630   12.4150 C   0  0  0  0  0
   20.2440    2.6280   11.2590 C   0  0  0  0  0
   18.5120    4.7640   13.6340 N   0  0  0  0  0
   18.3060    5.9860   14.4110 C   0  0  0  0  0
   17.0240    6.7650   14.0980 C   0  0  0  0  0
   17.0100    7.9910   14.2030 O   0  0  0  0  0
   19.5110    6.9210   14.2590 C   0  0  0  0  0
   20.7730    6.3530   14.8810 C   0  0  0  0  0
   20.6620    5.4740   15.7620 O   0  0  0  0  0
   21.8760    6.7910   14.4900 O   0  0  0  0  0
   15.9480    6.0730   13.7330 N   0  0  0  0  0
   14.7000    6.7630   13.4060 C   0  0  0  0  0
   13.7520    6.9160   14.5920 C   0  0  0  0  0
   12.7230    7.5820   14.4840 O   0  0  0  0  0
   13.9730    6.0710   12.2490 C   0  0  0  0  0
   14.7170    6.1390   10.9400 C   0  0  0  0  0
   14.8840    7.3480   10.2750 C   0  0  0  0  0
   15.2490    4.9940   10.3630 C   0  0  0  0  0
   15.5680    7.4120    9.0720 C   0  0  0  0  0
   15.9320    5.0490    9.1630 C   0  0  0  0  0
   16.0890    6.2600    8.5230 C   0  0  0  0  0
   16.7680    6.3120    7.3270 O   0  0  0  0  0
   14.1000    6.3170   15.7240 N   0  0  0  0  0
   13.1820    6.2850   16.8580 C   0  0  0  0  0
   13.6930    7.0440   18.0770 C   0  0  0  0  0
   13.4480    6.6450   19.2150 O   0  0  0  0  0
   12.8520    4.8380   17.2200 C   0  0  0  0  0
   12.2190    4.0770   16.0990 C   0  0  0  0  0
   10.8450    4.0740   15.9380 C   0  0  0  0  0
   12.9980    3.3850   15.1890 C   0  0  0  0  0
   10.2590    3.3900   14.8980 C   0  0  0  0  0
   12.4160    2.6970   14.1540 C   0  0  0  0  0
   11.0450    2.7050   14.0030 C   0  0  0  0  0
   14.3900    8.1460   17.8280 N   0  0  0  0  0
   14.9120    8.9850   18.8980 C   0  0  0  0  0
   13.9220   10.0870   19.2620 C   0  0  0  0  0
   13.0030   10.3930   18.5010 O   0  0  0  0  0
   16.2520    9.5940   18.4840 C   0  0  0  0  0
   17.3350    8.5880   18.0890 C   0  0  0  0  0
   18.5800    9.3060   17.5940 C   0  0  0  0  0
   17.6670    7.6750   19.2590 C   0  0  0  0  0
   14.0180   10.6970   20.3290 O   0  0  0  0  0
   18.5721    3.6501   11.8155 H   0  0  0  0  0
   18.3136    2.0139   11.4736 H   0  0  0  0  0
   18.2940    1.6145   13.6328 H   0  0  0  0  0
   20.6134    0.9096   13.5145 H   0  0  0  0  0
   20.8609    2.2998   14.5077 H   0  0  0  0  0
   22.1352    2.1589   12.1790 H   0  0  0  0  0
   21.4806    3.6836   12.6730 H   0  0  0  0  0
   20.4079    3.4403   10.5510 H   0  0  0  0  0
   20.3610    1.7377   10.6412 H   0  0  0  0  0
   18.5335    4.8159   12.6155 H   0  0  0  0  0
   18.1947    5.6379   15.4379 H   0  0  0  0  0
   19.2769    7.8552   14.7694 H   0  0  0  0  0
   19.6954    7.0597   13.1937 H   0  0  0  0  0
   21.7330    7.4563   13.8128 H   0  0  0  0  0
   15.9934    5.0553   13.6808 H   0  0  0  0  0
   14.9966    7.7682   13.1064 H   0  0  0  0  0
   13.0205    6.5823   12.1098 H   0  0  0  0  0
   13.8701    5.0181   12.5115 H   0  0  0  0  0
   14.4705    8.2596   10.7065 H   0  0  0  0  0
   15.1258    4.0346   10.8654 H   0  0  0  0  0
   15.6934    8.3675    8.5627 H   0  0  0  0  0
   16.3443    4.1401    8.7249 H   0  0  0  0  0
   17.0622    5.4298    7.0887 H   0  0  0  0  0
   15.0162    5.8756   15.8020 H   0  0  0  0  0
   12.2757    6.8025   16.5435 H   0  0  0  0  0
   12.1414    4.8591   18.0462 H   0  0  0  0  0
   13.7886    4.3391   17.4691 H   0  0  0  0  0
   10.2191    4.6202   16.6437 H   0  0  0  0  0
   14.0828    3.3862   15.2949 H   0  0  0  0  0
    9.1749    3.3915   14.7844 H   0  0  0  0  0
   13.0379    2.1436   13.4504 H   0  0  0  0  0
   10.5850    2.1678   13.1736 H   0  0  0  0  0
   14.5651    8.4129   16.8592 H   0  0  0  0  0
   15.0624    8.3598   19.7781 H   0  0  0  0  0
   16.6302   10.1341   19.3519 H   0  0  0  0  0
   16.0576   10.2047   17.6023 H   0  0  0  0  0
   16.9525    7.9733   17.2742 H   0  0  0  0  0
   18.3267    9.9119   16.7240 H   0  0  0  0  0
   18.9664    9.9481   18.3855 H   0  0  0  0  0
   19.3365    8.5711   17.3188 H   0  0  0  0  0
   18.0278    8.2743   20.0949 H   0  0  0  0  0
   16.7712    7.1317   19.5598 H   0  0  0  0  0
   18.4391    6.9669   18.9580 H   0  0  0  0  0
   14.7706   10.3615   20.8215 H   0  0  0  0  0
  1  2  1  0  0  0
  1  7  1  0  0  0
  2  3  1  0  0  0
  2  5  1  0  0  0
  3  4  2  0  0  0
  3  8  1  0  0  0
  5  6  1  0  0  0
  6  7  1  0  0  0
  8  9  1  0  0  0
  9 10  1  0  0  0
  9 12  1  0  0  0
 10 11  2  0  0  0
 10 16  1  0  0  0
 12 13  1  0  0  0
 13 14  2  0  0  0
 13 15  1  0  0  0
 16 17  1  0  0  0
 17 18  1  0  0  0
 17 20  1  0  0  0
 18 19  2  0  0  0
 18 28  1  0  0  0
 20 21  1  0  0  0
 21 22  4  0  0  0
 21 23  4  0  0  0
 22 24  4  0  0  0
 23 25  4  0  0  0
 24 26  4  0  0  0
 25 26  4  0  0  0
 26 27  1  0  0  0
 28 29  1  0  0  0
 29 30  1  0  0  0
 29 32  1  0  0  0
 30 31  2  0  0  0
 30 39  1  0  0  0
 32 33  1  0  0  0
 33 34  4  0  0  0
 33 35  4  0  0  0
 34 36  4  0  0  0
 35 37  4  0  0  0
 36 38  4  0  0  0
 37 38  4  0  0  0
 39 40  1  0  0  0
 40 41  1  0  0  0
 40 43  1  0  0  0
 41 42  2  0  0  0
 41 47  1  0  0  0
 43 44  1  0  0  0
 44 45  1  0  0  0
 44 46  1  0  0  0
  1 48  1  0  0  0
  1 49  1  0  0  0
  2 50  1  0  0  0
  5 51  1  0  0  0
  5 52  1  0  0  0
  6 53  1  0  0  0
  6 54  1  0  0  0
  7 55  1  0  0  0
  7 56  1  0  0  0
  8 57  1  0  0  0
  9 58  1  0  0  0
 12 59  1  0  0  0
 12 60  1  0  0  0
 15 61  1  0  0  0
 16 62  1  0  0  0
 17 63  1  0  0  0
 20 64  1  0  0  0
 20 65  1  0  0  0
 22 66  1  0  0  0
 23 67  1  0  0  0
 24 68  1  0  0  0
 25 69  1  0  0  0
 27 70  1  0  0  0
 28 71  1  0  0  0
 29 72  1  0  0  0
 32 73  1  0  0  0
 32 74  1  0  0  0
 34 75  1  0  0  0
 35 76  1  0  0  0
 36 77  1  0  0  0
 37 78  1  0  0  0
 38 79  1  0  0  0
 39 80  1  0  0  0
 40 81  1  0  0  0
 43 82  1  0  0  0
 43 83  1  0  0  0
 44 84  1  0  0  0
 45 85  1  0  0  0
 45 86  1  0  0  0
 45 87  1  0  0  0
 46 88  1  0  0  0
 46 89  1  0  0  0
 46 90  1  0  0  0
 47 91  1  0  0  0
M  END
$$$$
