4wnp_ligand
  -I-interpret- 

 48 53  0  0  0  0  0  0  0  0999 V2000
  103.1500   43.9610   13.0650 C   0  0  0  0  0
  104.3390   45.6240   13.4470 C   0  0  0  0  0
  101.9670   42.8740   15.1950 C   0  0  0  0  0
  103.3130   44.3770   18.9570 C   0  0  0  0  0
  104.6680   44.1610   19.1100 C   0  0  0  0  0
  103.7120   45.9230   17.1620 C   0  0  0  0  0
   99.8940   41.1120   20.0380 C   0  0  0  0  0
   99.1110   40.4790   21.0410 C   0  0  0  0  0
   98.2360   39.4780   20.6690 C   0  0  0  0  0
   98.1060   39.1030   19.3190 C   0  0  0  0  0
   98.8710   39.7300   18.3300 C   0  0  0  0  0
   99.7840   40.7660   18.7150 C   0  0  0  0  0
  100.6020   41.4430   17.7730 C   0  0  0  0  0
  100.4910   41.0760   16.4070 N   0  0  0  0  0
  101.1710   41.7090   15.3070 C   0  0  0  0  0
  101.0470   41.1480   14.0830 N   0  0  0  0  0
  101.7750   41.8980   13.2140 N   0  0  0  0  0
  102.3310   42.9500   13.8300 C   0  0  0  0  0
  102.8680   45.4300   13.2740 C   0  0  0  0  0
  104.4820   44.1570   13.6980 C   0  0  0  0  0
  101.4530   42.4160   18.1370 N   0  0  0  0  0
  101.5320   42.7320   19.4490 C   0  0  0  0  0
  102.4420   43.7250   19.8670 N   0  0  0  0  0
  105.5700   44.8320   18.2540 C   0  0  0  0  0
  106.9270   44.7920   18.1580 N   0  0  0  0  0
  107.3160   45.6330   17.1700 C   0  0  0  0  0
  106.2100   46.1930   16.6330 N   0  0  0  0  0
  105.1000   45.6990   17.3020 C   0  0  0  0  0
  102.8190   45.2630   18.0080 C   0  0  0  0  0
  100.7870   42.1060   20.3950 N   0  0  0  0  0
  102.9950   43.5553   12.0653 H   0  0  0  0  0
  104.7199   46.3476   14.1677 H   0  0  0  0  0
  104.9272   46.1114   12.6695 H   0  0  0  0  0
  102.2413   43.5658   15.9914 H   0  0  0  0  0
  105.0365   43.4829   19.8797 H   0  0  0  0  0
  103.3409   46.6067   16.3984 H   0  0  0  0  0
   99.1997   40.7785   22.0853 H   0  0  0  0  0
   97.6397   38.9729   21.4289 H   0  0  0  0  0
   97.4033   38.3173   19.0416 H   0  0  0  0  0
   98.7746   39.4360   17.2848 H   0  0  0  0  0
   99.8747   40.2943   16.1844 H   0  0  0  0  0
  102.1581   45.7701   14.0280 H   0  0  0  0  0
  102.3011   46.0085   12.5446 H   0  0  0  0  0
  105.3563   43.6107   13.3439 H   0  0  0  0  0
  104.6879   43.7774   14.6988 H   0  0  0  0  0
  102.4748   43.9821   20.8535 H   0  0  0  0  0
  108.3437   45.8248   16.8615 H   0  0  0  0  0
  101.7468   45.4408   17.9249 H   0  0  0  0  0
 18  1  1  0  0  0
  1 19  1  0  0  0
  1 20  1  0  0  0
 19  2  1  0  0  0
 20  2  1  0  0  0
 15  3  4  0  0  0
  3 18  4  0  0  0
  4  5  4  0  0  0
 23  4  1  0  0  0
  4 29  4  0  0  0
  5 24  4  0  0  0
  6 28  4  0  0  0
 29  6  4  0  0  0
  7  8  4  0  0  0
 12  7  4  0  0  0
  7 30  4  0  0  0
  8  9  4  0  0  0
 10  9  4  0  0  0
 11 10  4  0  0  0
 12 11  4  0  0  0
 13 12  4  0  0  0
 13 14  1  0  0  0
 21 13  4  0  0  0
 14 15  1  0  0  0
 15 16  4  0  0  0
 16 17  4  0  0  0
 17 18  4  0  0  0
 22 21  4  0  0  0
 22 23  1  0  0  0
 22 30  4  0  0  0
 24 25  4  0  0  0
 24 28  4  0  0  0
 25 26  4  0  0  0
 26 27  4  0  0  0
 27 28  4  0  0  0
  1 31  1  0  0  0
  2 32  1  0  0  0
  2 33  1  0  0  0
  3 34  1  0  0  0
  5 35  1  0  0  0
  6 36  1  0  0  0
  8 37  1  0  0  0
  9 38  1  0  0  0
 10 39  1  0  0  0
 11 40  1  0  0  0
 14 41  1  0  0  0
 19 42  1  0  0  0
 19 43  1  0  0  0
 20 44  1  0  0  0
 20 45  1  0  0  0
 23 46  1  0  0  0
 26 47  1  0  0  0
 29 48  1  0  0  0
M  END
$$$$
