6no9_ligand
  -I-interpret- 

 55 58  0  0  0  0  0  0  0  0999 V2000
  -36.3920   -2.5070    6.7130 N   0  0  0  0  0
  -42.1430   -1.7490    5.5880 C   0  0  0  0  0
  -38.4930   -2.3090    6.1060 C   0  0  0  0  0
  -35.1770   -2.7260    7.5100 C   0  0  0  0  0
  -43.1370   -1.3920    4.7030 C   0  0  0  0  0
  -43.7550   -1.5060    7.1550 C   0  0  0  0  0
  -44.3490   -1.5130    8.5230 C   0  0  0  0  0
  -43.7610   -2.2280    9.5810 C   0  0  0  0  0
  -44.3330   -2.2260   10.8450 C   0  0  0  0  0
  -45.5060   -1.5210   11.0790 C   0  0  0  0  0
  -46.1050   -0.8290   10.0410 C   0  0  0  0  0
  -45.5390   -0.8190    8.7780 C   0  0  0  0  0
  -37.7350   -4.0250    8.9920 C   0  0  0  0  0
  -38.2170   -4.3370   10.4210 C   0  0  0  0  0
  -39.6260   -3.7680   10.6910 C   0  0  0  0  0
  -39.6010   -2.3420   11.1830 C   0  0  0  0  0
  -37.6750   -2.5100    7.1750 C   0  0  0  0  0
  -39.2980   -1.3500   10.0400 C   0  0  0  0  0
  -37.9980   -1.6250    9.4350 C   0  0  0  0  0
  -37.6930   -2.1190    4.9740 C   0  0  0  0  0
  -40.7500   -1.9920    5.2090 C   0  0  0  0  0
  -46.1290   -0.1380    7.7740 F   0  0  0  0  0
  -42.6170   -2.9130    9.3820 F   0  0  0  0  0
  -40.8660   -2.0710   11.7350 F   0  0  0  0  0
  -42.5130   -1.7600    6.8760 N   0  0  0  0  0
  -43.0350   -1.2790    3.3290 N   0  0  0  0  0
  -38.1450   -2.7380    8.4730 N   0  0  0  0  0
  -40.2630   -4.6300   11.7070 N   0  3  0  0  0
  -36.4410   -2.2630    5.3420 N   0  0  0  0  0
  -39.8900   -2.1760    6.2310 N   0  0  0  0  0
  -40.3830   -2.0010    4.0450 O   0  0  0  0  0
  -44.5990   -1.1410    5.6440 S   0  0  0  0  0
  -35.1105   -1.9632    8.2858 H   0  0  0  0  0
  -35.2196   -3.7126    7.9714 H   0  0  0  0  0
  -34.3028   -2.6641    6.8619 H   0  0  0  0  0
  -43.8603   -2.7793   11.6565 H   0  0  0  0  0
  -45.9521   -1.5126   12.0735 H   0  0  0  0  0
  -47.0329   -0.2858   10.2201 H   0  0  0  0  0
  -38.1745   -4.7804    8.3407 H   0  0  0  0  0
  -36.6455   -4.0182    9.0229 H   0  0  0  0  0
  -37.5224   -3.8768   11.1238 H   0  0  0  0  0
  -38.2576   -5.4198   10.5389 H   0  0  0  0  0
  -40.1824   -3.7600    9.7538 H   0  0  0  0  0
  -38.8104   -2.2214   11.9236 H   0  0  0  0  0
  -39.2851   -0.3399   10.4495 H   0  0  0  0  0
  -40.0674   -1.4542    9.2750 H   0  0  0  0  0
  -37.2811   -1.8986   10.2092 H   0  0  0  0  0
  -37.6359   -0.7361    8.9184 H   0  0  0  0  0
  -38.0457   -1.8923    3.9679 H   0  0  0  0  0
  -42.1464   -1.4701    2.8661 H   0  0  0  0  0
  -43.8484   -1.0046    2.7781 H   0  0  0  0  0
  -41.1996   -4.2801   11.9091 H   0  0  0  0  0
  -40.3245   -5.5840   11.3515 H   0  0  0  0  0
  -39.7033   -4.6191   12.5597 H   0  0  0  0  0
  -40.2828   -2.2227    7.1712 H   0  0  0  0  0
  1  4  1  0  0  0
 17  1  4  0  0  0
 29  1  4  0  0  0
  2  5  4  0  0  0
 21  2  1  0  0  0
  2 25  4  0  0  0
  3 17  4  0  0  0
  3 20  4  0  0  0
 30  3  1  0  0  0
  5 26  1  0  0  0
  5 32  4  0  0  0
  6  7  1  0  0  0
 25  6  4  0  0  0
  6 32  4  0  0  0
  7  8  4  0  0  0
  7 12  4  0  0  0
  8  9  4  0  0  0
  8 23  1  0  0  0
  9 10  4  0  0  0
 11 10  4  0  0  0
 12 11  4  0  0  0
 12 22  1  0  0  0
 13 14  1  0  0  0
 27 13  1  0  0  0
 14 15  1  0  0  0
 16 15  1  0  0  0
 15 28  1  0  0  0
 18 16  1  0  0  0
 16 24  1  0  0  0
 17 27  1  0  0  0
 19 18  1  0  0  0
 27 19  1  0  0  0
 20 29  4  0  0  0
 21 30  1  0  0  0
 21 31  2  0  0  0
  4 33  1  0  0  0
  4 34  1  0  0  0
  4 35  1  0  0  0
  9 36  1  0  0  0
 10 37  1  0  0  0
 11 38  1  0  0  0
 13 39  1  0  0  0
 13 40  1  0  0  0
 14 41  1  0  0  0
 14 42  1  0  0  0
 15 43  1  0  0  0
 16 44  1  0  0  0
 18 45  1  0  0  0
 18 46  1  0  0  0
 19 47  1  0  0  0
 19 48  1  0  0  0
 20 49  1  0  0  0
 26 50  1  0  0  0
 26 51  1  0  0  0
 28 52  1  0  0  0
 28 53  1  0  0  0
 28 54  1  0  0  0
 30 55  1  0  0  0
M  END
$$$$
