4l32_ligand
  -I-interpret- 

 47 50  0  0  0  0  0  0  0  0999 V2000
    4.7170  -38.0360   -5.9560 C   0  0  0  0  0
    4.4470  -39.3470   -5.1860 C   0  0  0  0  0
    4.2100  -39.0400   -3.7620 N   0  3  0  0  0
    3.8670  -40.2800   -2.9970 C   0  0  0  0  0
    5.6030  -38.7470   -3.3150 C   0  0  0  0  0
    6.1710  -37.5630   -4.0010 C   0  0  0  0  0
    6.0720  -37.7300   -5.5060 N   0  0  0  0  0
    7.1420  -37.6650   -6.3290 C   0  0  0  0  0
    8.2730  -37.4440   -5.8850 O   0  0  0  0  0
    7.0390  -37.6490   -7.7330 C   0  0  0  0  0
    7.9030  -38.3910   -8.5210 C   0  0  0  0  0
    7.8560  -38.3110   -9.9080 C   0  0  0  0  0
    6.1570  -36.7680   -8.3750 C   0  0  0  0  0
    6.1080  -36.6780   -9.7800 C   0  0  0  0  0
    6.9530  -37.4700  -10.5610 C   0  0  0  0  0
    6.9160  -37.3540  -11.9670 C   0  0  0  0  0
    6.1490  -36.3210  -12.4080 O   0  0  0  0  0
    6.0440  -36.0580  -13.7630 C   0  0  0  0  0
    5.1840  -35.0420  -14.1840 C   0  0  0  0  0
    5.0080  -34.7880  -15.5450 C   0  0  0  0  0
    5.6980  -35.5430  -16.4790 C   0  0  0  0  0
    6.5810  -36.5560  -16.0460 C   0  0  0  0  0
    6.7470  -36.8290  -14.6710 C   0  0  0  0  0
    7.6180  -37.8330  -14.2290 C   0  0  0  0  0
    8.3630  -38.4510  -15.0170 O   0  0  0  0  0
    7.7060  -38.0730  -12.8650 C   0  0  0  0  0
    3.9937  -37.2461   -5.7538 H   0  0  0  0  0
    4.6194  -38.1290   -7.0376 H   0  0  0  0  0
    5.3099  -40.0067   -5.2771 H   0  0  0  0  0
    3.5685  -39.8394   -5.6030 H   0  0  0  0  0
    3.4842  -38.3351   -3.6326 H   0  0  0  0  0
    4.5678  -41.0726   -3.2591 H   0  0  0  0  0
    3.9310  -40.0754   -1.9283 H   0  0  0  0  0
    2.8533  -40.5918   -3.2485 H   0  0  0  0  0
    6.2253  -39.6094   -3.5540 H   0  0  0  0  0
    5.5805  -38.5416   -2.2448 H   0  0  0  0  0
    7.2196  -37.4587   -3.7223 H   0  0  0  0  0
    5.6114  -36.6762   -3.7033 H   0  0  0  0  0
    8.6315  -39.0482   -8.0461 H   0  0  0  0  0
    8.5402  -38.9192  -10.4996 H   0  0  0  0  0
    5.4969  -36.1410   -7.7757 H   0  0  0  0  0
    5.4105  -35.9901  -10.2579 H   0  0  0  0  0
    4.6478  -34.4446  -13.4466 H   0  0  0  0  0
    4.3305  -33.9990  -15.8715 H   0  0  0  0  0
    5.5599  -35.3559  -17.5439 H   0  0  0  0  0
    7.1407  -37.1337  -16.7816 H   0  0  0  0  0
    8.3974  -38.8288  -12.4923 H   0  0  0  0  0
  1  2  1  0  0  0
  1  7  1  0  0  0
  2  3  1  0  0  0
  3  4  1  0  0  0
  3  5  1  0  0  0
  5  6  1  0  0  0
  6  7  1  0  0  0
  7  8  1  0  0  0
  8  9  2  0  0  0
  8 10  1  0  0  0
 10 11  4  0  0  0
 10 13  4  0  0  0
 11 12  4  0  0  0
 12 15  4  0  0  0
 13 14  4  0  0  0
 14 15  4  0  0  0
 15 16  1  0  0  0
 16 17  1  0  0  0
 16 26  2  0  0  0
 17 18  1  0  0  0
 18 19  4  0  0  0
 18 23  4  0  0  0
 19 20  4  0  0  0
 20 21  4  0  0  0
 21 22  4  0  0  0
 22 23  4  0  0  0
 23 24  1  0  0  0
 24 25  2  0  0  0
 24 26  1  0  0  0
  1 27  1  0  0  0
  1 28  1  0  0  0
  2 29  1  0  0  0
  2 30  1  0  0  0
  3 31  1  0  0  0
  4 32  1  0  0  0
  4 33  1  0  0  0
  4 34  1  0  0  0
  5 35  1  0  0  0
  5 36  1  0  0  0
  6 37  1  0  0  0
  6 38  1  0  0  0
 11 39  1  0  0  0
 12 40  1  0  0  0
 13 41  1  0  0  0
 14 42  1  0  0  0
 19 43  1  0  0  0
 20 44  1  0  0  0
 21 45  1  0  0  0
 22 46  1  0  0  0
 26 47  1  0  0  0
M  END
$$$$
