3o3j_ligand
  -I-interpret- 

 23 24  0  0  0  0  0  0  0  0999 V2000
    2.1850   21.7530  -28.9070 Br  0  0  0  0  0
   -1.2370   16.7720  -26.3670 N   0  0  0  0  0
   -3.4880   17.4590  -26.4460 O   0  0  0  0  0
   -3.5430   20.3570  -30.8070 N   0  0  0  0  0
   -3.6020   19.1170  -30.1800 C   0  0  0  0  0
   -2.5230   18.7330  -29.4810 C   0  0  0  0  0
   -1.7070   19.8610  -29.6930 C   0  0  0  0  0
   -0.3930   20.2040  -29.2340 C   0  0  0  0  0
    0.2750   21.4740  -29.5900 C   0  0  0  0  0
   -0.4890   22.3880  -30.4460 C   0  0  0  0  0
   -1.7900   22.0610  -30.9410 C   0  0  0  0  0
   -2.3730   20.8570  -30.5490 C   0  0  0  0  0
   -2.3520   17.3750  -28.7310 C   0  0  0  0  0
   -2.4190   17.2110  -27.0600 C   0  0  0  0  0
   -1.0400   16.5700  -24.9850 O   0  0  0  0  0
   -0.4281   16.5799  -26.9579 H   0  0  0  0  0
   -4.4866   18.4844  -30.2533 H   0  0  0  0  0
    0.1367   19.4978  -28.5947 H   0  0  0  0  0
   -0.0500   23.3491  -30.7138 H   0  0  0  0  0
   -2.3158   22.7402  -31.6120 H   0  0  0  0  0
   -1.3214   17.1026  -28.9584 H   0  0  0  0  0
   -3.2197   16.8054  -29.0637 H   0  0  0  0  0
   -0.1399   16.2737  -24.8312 H   0  0  0  0  0
  9  1  1  0  0  0
 14  2  1  0  0  0
  2 15  1  0  0  0
 14  3  2  0  0  0
  5  4  4  0  0  0
 12  4  4  0  0  0
  6  5  4  0  0  0
  6  7  4  0  0  0
 13  6  1  0  0  0
  7  8  4  0  0  0
  7 12  4  0  0  0
  8  9  4  0  0  0
  9 10  4  0  0  0
 11 10  4  0  0  0
 12 11  4  0  0  0
 13 14  1  0  0  0
  2 16  1  0  0  0
  5 17  1  0  0  0
  8 18  1  0  0  0
 10 19  1  0  0  0
 11 20  1  0  0  0
 13 21  1  0  0  0
 13 22  1  0  0  0
 15 23  1  0  0  0
M  END
$$$$
