4bgm_ligand
  -I-interpret- 

 29 28  0  0  0  0  0  0  0  0999 V2000
   23.1820   32.6440   88.5470 C   0  0  0  0  0
   22.3140   32.9770   89.7530 C   0  0  0  0  0
   21.4220   32.6370   86.8730 C   0  0  0  0  0
   23.5440   31.6020   86.4810 C   0  0  0  0  0
   22.0390   30.5750   88.0790 C   0  0  0  0  0
   21.5920   29.5590   87.0230 C   0  0  0  0  0
   20.7460   28.4390   87.6150 C   0  0  0  0  0
   21.5620   27.2810   88.1030 C   0  0  0  0  0
   22.5040   31.8550   87.4960 N   0  3  0  0  0
   22.8130   27.2700   88.1180 O   0  0  0  0  0
   22.3140   31.9350   90.6400 F   0  0  0  0  0
   20.8920   26.3210   88.5070 O   0  0  0  0  0
   24.0125   32.0393   88.9113 H   0  0  0  0  0
   23.4726   33.5919   88.0941 H   0  0  0  0  0
   21.2930   33.1588   89.4174 H   0  0  0  0  0
   22.7137   33.8636   90.2453 H   0  0  0  0  0
   20.9700   32.0543   86.0704 H   0  0  0  0  0
   20.6667   32.8717   87.6231 H   0  0  0  0  0
   21.8315   33.5616   86.4662 H   0  0  0  0  0
   24.3879   31.0929   86.9465 H   0  0  0  0  0
   23.1324   30.9763   85.6891 H   0  0  0  0  0
   23.8775   32.5505   86.0601 H   0  0  0  0  0
   22.8745   30.1378   88.6257 H   0  0  0  0  0
   21.1793   30.7932   88.7126 H   0  0  0  0  0
   22.4850   29.1119   86.5863 H   0  0  0  0  0
   20.9863   30.0846   86.2848 H   0  0  0  0  0
   20.0863   28.0714   86.8290 H   0  0  0  0  0
   20.2067   28.8476   88.4696 H   0  0  0  0  0
   23.1434   28.1000   87.7666 H   0  0  0  0  0
  1  2  1  0  0  0
  9  1  1  0  0  0
  2 11  1  0  0  0
  9  3  1  0  0  0
  9  4  1  0  0  0
  5  6  1  0  0  0
  5  9  1  0  0  0
  6  7  1  0  0  0
  7  8  1  0  0  0
  8 10  1  0  0  0
  8 12  2  0  0  0
  1 13  1  0  0  0
  1 14  1  0  0  0
  2 15  1  0  0  0
  2 16  1  0  0  0
  3 17  1  0  0  0
  3 18  1  0  0  0
  3 19  1  0  0  0
  4 20  1  0  0  0
  4 21  1  0  0  0
  4 22  1  0  0  0
  5 23  1  0  0  0
  5 24  1  0  0  0
  6 25  1  0  0  0
  6 26  1  0  0  0
  7 27  1  0  0  0
  7 28  1  0  0  0
 10 29  1  0  0  0
M  END
$$$$
