2v58_ligand
  -I-interpret- 

 29 31  0  0  0  0  0  0  0  0999 V2000
    7.1360  -21.7170   26.4580 Br  0  0  0  0  0
    6.1620  -20.3930   25.5290 C   0  0  0  0  0
    6.6160  -19.0780   25.6060 C   0  0  0  0  0
    5.9360  -18.0620   24.9470 C   0  0  0  0  0
    4.7990  -18.3670   24.2080 C   0  0  0  0  0
    4.3460  -19.6830   24.1290 C   0  0  0  0  0
    2.7930  -20.0270   23.1150 Br  0  0  0  0  0
    5.0180  -20.7080   24.7930 C   0  0  0  0  0
    4.5310  -22.1190   24.6870 C   0  0  0  0  0
    3.3650  -22.5480   25.3290 C   0  0  0  0  0
    2.9590  -23.8780   25.1790 C   0  0  0  0  0
    1.8060  -24.3650   25.7950 C   0  0  0  0  0
    1.4530  -25.6530   25.6290 N   0  0  0  0  0
    5.2520  -23.0320   23.9090 C   0  0  0  0  0
    6.3830  -22.6610   23.2620 N   0  0  0  0  0
    4.8380  -24.3160   23.7820 N   0  0  0  0  0
    3.7150  -24.7510   24.3980 C   0  0  0  0  0
    3.3240  -26.0390   24.2550 N   0  0  0  0  0
    2.2000  -26.4890   24.8620 C   0  0  0  0  0
    1.8360  -27.7850   24.7050 N   0  0  0  0  0
    7.5090  -18.8455   26.1861 H   0  0  0  0  0
    6.2912  -17.0334   25.0089 H   0  0  0  0  0
    4.2599  -17.5747   23.6886 H   0  0  0  0  0
    2.7816  -21.8565   25.9369 H   0  0  0  0  0
    1.1932  -23.7047   26.4086 H   0  0  0  0  0
    6.7225  -21.7021   23.3373 H   0  0  0  0  0
    6.8951  -23.3406   22.6995 H   0  0  0  0  0
    0.9965  -28.1382   25.1642 H   0  0  0  0  0
    2.4016  -28.4072   24.1276 H   0  0  0  0  0
  1  2  1  0  0  0
  2  3  4  0  0  0
  2  8  4  0  0  0
  3  4  4  0  0  0
  4  5  4  0  0  0
  5  6  4  0  0  0
  6  7  1  0  0  0
  6  8  4  0  0  0
  8  9  1  0  0  0
  9 10  4  0  0  0
  9 14  4  0  0  0
 10 11  4  0  0  0
 11 12  4  0  0  0
 11 17  4  0  0  0
 12 13  4  0  0  0
 13 19  4  0  0  0
 14 15  1  0  0  0
 14 16  4  0  0  0
 16 17  4  0  0  0
 17 18  4  0  0  0
 18 19  4  0  0  0
 19 20  1  0  0  0
  3 21  1  0  0  0
  4 22  1  0  0  0
  5 23  1  0  0  0
 10 24  1  0  0  0
 12 25  1  0  0  0
 15 26  1  0  0  0
 15 27  1  0  0  0
 20 28  1  0  0  0
 20 29  1  0  0  0
M  END
$$$$
