4gjc_ligand
  -I-interpret- 

 65 69  0  0  0  0  0  0  0  0999 V2000
   71.0440   10.9620   47.4870 C   0  0  0  0  0
   71.0740    9.9860   50.2050 O   0  0  0  0  0
   69.7930   10.3490   48.1470 C   0  0  0  0  0
   71.9260   11.6100   48.5760 C   0  0  0  0  0
   69.8870    9.8560   49.4720 C   0  0  0  0  0
   71.9090   11.0780   49.8940 C   0  0  0  0  0
   71.8440    9.8140   46.7820 C   0  0  0  0  0
   72.7590   12.7190   48.3100 C   0  0  0  0  0
   68.5810   10.2640   47.4280 C   0  0  0  0  0
   68.7720    9.2870   50.0940 C   0  0  0  0  0
   72.7020   11.6650   50.9170 C   0  0  0  0  0
   67.4730    9.6570   48.0220 C   0  0  0  0  0
   73.5540   13.2890   49.3460 C   0  0  0  0  0
   67.5790    9.1940   49.3570 C   0  0  0  0  0
   73.5390   12.7620   50.6540 C   0  0  0  0  0
   71.0070    8.9470   45.9190 N   0  0  0  0  0
   70.6180    7.6630   46.2050 C   0  0  0  0  0
   69.6990    6.9480   45.2180 C   0  0  0  0  0
   69.3530    5.4790   45.6260 C   0  0  0  0  0
   67.1440    5.6380   44.3160 C   0  0  0  0  0
   67.5050    7.0250   43.9390 N   0  3  0  0  0
   68.4520    4.8290   44.5390 C   0  0  0  0  0
   68.3800    7.7430   44.9100 C   0  0  0  0  0
   70.9690    7.0630   47.2170 O   0  0  0  0  0
   68.1680    3.4400   44.8630 N   0  0  0  0  0
   68.7470    2.1630   44.0140 S   0  0  0  0  0
   67.6210    1.3080   43.6360 O   0  0  0  0  0
   69.6140    2.6260   42.9410 O   0  0  0  0  0
   69.7360    1.3900   45.2780 C   0  0  0  0  0
   69.1400    0.9430   46.4760 C   0  0  0  0  0
   71.3040    0.1210   47.2610 C   0  0  0  0  0
   71.8940    0.5550   46.0570 C   0  0  0  0  0
   69.9210    0.3110   47.4670 C   0  0  0  0  0
   71.1190    1.1910   45.0730 C   0  0  0  0  0
   72.1550   -0.5640   48.3420 C   0  0  0  0  0
   70.7558   11.7196   46.7583 H   0  0  0  0  0
   72.2671    9.1838   47.5643 H   0  0  0  0  0
   72.5929   10.2831   46.1439 H   0  0  0  0  0
   72.7940   13.1415   47.3058 H   0  0  0  0  0
   68.5110   10.6686   46.4183 H   0  0  0  0  0
   68.8263    8.9259   51.1210 H   0  0  0  0  0
   72.6598   11.2556   51.9263 H   0  0  0  0  0
   66.5415    9.5411   47.4679 H   0  0  0  0  0
   74.1858   14.1488   49.1233 H   0  0  0  0  0
   66.7032    8.7494   49.8296 H   0  0  0  0  0
   74.1597   13.1939   51.4391 H   0  0  0  0  0
   70.6918    9.3407   45.0324 H   0  0  0  0  0
   70.2895    6.9030   44.3029 H   0  0  0  0  0
   68.8220    5.4849   46.5779 H   0  0  0  0  0
   70.2746    4.9047   45.7208 H   0  0  0  0  0
   66.5543    5.1791   43.5225 H   0  0  0  0  0
   66.5508    5.6442   45.2304 H   0  0  0  0  0
   66.6321    7.5503   43.8890 H   0  0  0  0  0
   68.0279    6.9632   43.0654 H   0  0  0  0  0
   69.0039    4.8487   43.5993 H   0  0  0  0  0
   68.6560    8.7028   44.4733 H   0  0  0  0  0
   67.8281    7.8598   45.8427 H   0  0  0  0  0
   67.5718    3.2487   45.6682 H   0  0  0  0  0
   68.0715    1.0864   46.6369 H   0  0  0  0  0
   72.9590    0.3961   45.8881 H   0  0  0  0  0
   69.4559   -0.0305   48.3917 H   0  0  0  0  0
   71.5862    1.5317   44.1490 H   0  0  0  0  0
   72.6027   -1.4688   47.9309 H   0  0  0  0  0
   72.9417    0.1162   48.6684 H   0  0  0  0  0
   71.5220   -0.8235   49.1906 H   0  0  0  0  0
  1  3  1  0  0  0
  1  4  1  0  0  0
  7  1  1  0  0  0
  5  2  1  0  0  0
  6  2  1  0  0  0
  3  5  4  0  0  0
  3  9  4  0  0  0
  4  6  4  0  0  0
  4  8  4  0  0  0
  5 10  4  0  0  0
  6 11  4  0  0  0
 16  7  1  0  0  0
  8 13  4  0  0  0
  9 12  4  0  0  0
 10 14  4  0  0  0
 11 15  4  0  0  0
 12 14  4  0  0  0
 13 15  4  0  0  0
 17 16  1  0  0  0
 18 17  1  0  0  0
 17 24  2  0  0  0
 19 18  1  0  0  0
 18 23  1  0  0  0
 22 19  1  0  0  0
 20 21  1  0  0  0
 22 20  1  0  0  0
 21 23  1  0  0  0
 25 22  1  0  0  0
 26 25  1  0  0  0
 26 27  2  0  0  0
 26 28  2  0  0  0
 29 26  1  0  0  0
 30 29  4  0  0  0
 29 34  4  0  0  0
 33 30  4  0  0  0
 31 32  4  0  0  0
 31 33  4  0  0  0
 31 35  1  0  0  0
 32 34  4  0  0  0
  1 36  1  0  0  0
  7 37  1  0  0  0
  7 38  1  0  0  0
  8 39  1  0  0  0
  9 40  1  0  0  0
 10 41  1  0  0  0
 11 42  1  0  0  0
 12 43  1  0  0  0
 13 44  1  0  0  0
 14 45  1  0  0  0
 15 46  1  0  0  0
 16 47  1  0  0  0
 18 48  1  0  0  0
 19 49  1  0  0  0
 19 50  1  0  0  0
 20 51  1  0  0  0
 20 52  1  0  0  0
 21 53  1  0  0  0
 21 54  1  0  0  0
 22 55  1  0  0  0
 23 56  1  0  0  0
 23 57  1  0  0  0
 25 58  1  0  0  0
 30 59  1  0  0  0
 32 60  1  0  0  0
 33 61  1  0  0  0
 34 62  1  0  0  0
 35 63  1  0  0  0
 35 64  1  0  0  0
 35 65  1  0  0  0
M  END
$$$$
