5ai5_ligand
  -I-interpret- 

 40 41  0  0  0  0  0  0  0  0999 V2000
  -17.0290  -11.2950   14.8250 N   0  0  0  0  0
  -16.6920  -11.0570   16.1150 C   0  0  0  0  0
  -15.7930  -11.8840   16.6980 N   0  0  0  0  0
  -17.1760  -10.1220   16.7300 O   0  0  0  0  0
  -17.9680  -10.4600   14.0620 C   0  0  0  0  0
  -17.1840   -9.5330   13.1110 C   0  0  0  0  0
  -18.0030   -9.0880   11.8780 C   0  0  0  0  0
  -19.5420   -9.1310   12.0870 C   0  0  0  0  0
  -20.0670  -10.4760   12.6530 C   0  0  0  0  0
  -18.9430  -11.3310   13.2600 C   0  0  0  0  0
  -15.3400  -11.7390   18.0890 C   0  0  0  0  0
  -14.8260  -13.0920   18.6210 C   0  0  0  0  0
  -14.4470  -12.9450   20.1070 C   0  0  0  0  0
  -13.3830  -11.8520   20.3030 C   0  0  0  0  0
  -13.7760  -10.5050   19.6510 C   0  0  0  0  0
  -14.2300  -10.6730   18.1860 C   0  0  0  0  0
  -16.6081  -12.0977   14.3572 H   0  0  0  0  0
  -15.4094  -12.6487   16.1426 H   0  0  0  0  0
  -18.5452   -9.8564   14.7624 H   0  0  0  0  0
  -16.3188  -10.0883   12.7488 H   0  0  0  0  0
  -16.9175   -8.6363   13.6705 H   0  0  0  0  0
  -17.7686   -9.7801   11.0692 H   0  0  0  0  0
  -17.7352   -8.0519   11.6707 H   0  0  0  0  0
  -20.0041   -8.9900   11.1099 H   0  0  0  0  0
  -19.7905   -8.3568   12.8129 H   0  0  0  0  0
  -20.5136  -11.0373   11.8323 H   0  0  0  0  0
  -20.7864  -10.2538   13.4411 H   0  0  0  0  0
  -19.3854  -12.0697   13.9283 H   0  0  0  0  0
  -18.3964  -11.8176   12.4521 H   0  0  0  0  0
  -16.1839  -11.4164   18.6988 H   0  0  0  0  0
  -13.9498  -13.3992   18.0500 H   0  0  0  0  0
  -15.6070  -13.8452   18.5167 H   0  0  0  0  0
  -14.0408  -13.8935   20.4583 H   0  0  0  0  0
  -15.3392  -12.6672   20.6681 H   0  0  0  0  0
  -12.4627  -12.1947   19.8300 H   0  0  0  0  0
  -13.2723  -11.6835   21.3742 H   0  0  0  0  0
  -12.9000   -9.8565   19.6610 H   0  0  0  0  0
  -14.6082  -10.0859   20.2167 H   0  0  0  0  0
  -14.6175   -9.7214   17.8220 H   0  0  0  0  0
  -13.3786  -10.9897   17.5836 H   0  0  0  0  0
  1  2  1  0  0  0
  1  5  1  0  0  0
  2  3  1  0  0  0
  2  4  2  0  0  0
  3 11  1  0  0  0
  5  6  1  0  0  0
  5 10  1  0  0  0
  6  7  1  0  0  0
  7  8  1  0  0  0
  8  9  1  0  0  0
  9 10  1  0  0  0
 11 12  1  0  0  0
 11 16  1  0  0  0
 12 13  1  0  0  0
 13 14  1  0  0  0
 14 15  1  0  0  0
 15 16  1  0  0  0
  1 17  1  0  0  0
  3 18  1  0  0  0
  5 19  1  0  0  0
  6 20  1  0  0  0
  6 21  1  0  0  0
  7 22  1  0  0  0
  7 23  1  0  0  0
  8 24  1  0  0  0
  8 25  1  0  0  0
  9 26  1  0  0  0
  9 27  1  0  0  0
 10 28  1  0  0  0
 10 29  1  0  0  0
 11 30  1  0  0  0
 12 31  1  0  0  0
 12 32  1  0  0  0
 13 33  1  0  0  0
 13 34  1  0  0  0
 14 35  1  0  0  0
 14 36  1  0  0  0
 15 37  1  0  0  0
 15 38  1  0  0  0
 16 39  1  0  0  0
 16 40  1  0  0  0
M  END
$$$$
