### 
### Created by X-TOOL on Mon Sep 10 21:13:06 2018
### 

@<TRIPOS>MOLECULE
3qiz_ligand
   61    62     1     0     0
SMALL
GAST_HUCK


@<TRIPOS>ATOM
      1 OAA       -11.6740   33.3320  -15.0120 O.2       1 QI2        -0.1733
      2 NAB       -10.4880   33.6850  -15.4160 N.2       1 QI2         0.0352
      3 CAC       -10.2110   35.0390  -15.7730 C.2       1 QI2         0.2906
      4 OAD       -11.0030   35.9550  -15.7270 O.2       1 QI2        -0.3279
      5 CAE        -8.8520   35.4810  -16.2400 C.3       1 QI2         0.0650
      6 CAF        -8.5370   36.8630  -15.6940 C.3       1 QI2         0.0034
      7 CAG        -8.6640   37.0080  -14.1110 C.3       1 QI2         0.0927
      8 CAH        -7.9880   38.3530  -13.6500 C.ar      1 QI2        -0.0182
      9 CAI        -8.7030   39.5010  -13.6470 C.ar      1 QI2        -0.0595
     10 CAJ        -8.0490   40.6790  -13.2930 C.ar      1 QI2        -0.0348
     11 CAK        -9.2730   35.6540  -17.6910 C.3       1 QI2        -0.0508
     12 OAL        -8.1770   35.8080  -13.3500 O.3       1 QI2        -0.3678
     13 CAM        -6.6320   38.3040  -13.3510 C.ar      1 QI2        -0.0595
     14 CAN        -5.9900   39.4800  -12.9870 C.ar      1 QI2        -0.0348
     15 CAO        -6.6920   40.6430  -12.9700 C.ar      1 QI2         0.1248
     16 FAP        -6.0660   41.7740  -12.6300 F         1 QI2        -0.1893
     17 CAQ        -8.2810   35.6040  -18.8230 C.3       1 QI2        -0.1110
     18 CAR        -8.6440   35.6210  -12.0360 C.3       1 QI2         0.0393
     19 CAS        -8.9950   34.4310  -20.7560 C.3       1 QI2        -0.1256
     20 NAT        -8.8520   35.7620  -20.1710 N.4       1 QI2         0.4010
     21 CAU       -10.1720   36.4230  -20.1210 C.3       1 QI2        -0.1117
     22 CAV       -10.2770   37.9470  -20.1560 C.3       1 QI2        -0.0626
     23 CAW        -9.0290   38.7560  -19.9300 C.3       1 QI2        -0.0244
     24 CAX        -9.0740   40.1600  -19.3070 C.ar      1 QI2        -0.0537
     25 CAY        -9.2950   41.2970  -20.1160 C.ar      1 QI2        -0.0608
     26 CAZ        -9.2890   42.5730  -19.5620 C.ar      1 QI2        -0.0190
     27 CBA        -9.5420   43.7880  -20.4330 C.3       1 QI2        -0.0319
     28 CBB        -8.8320   40.3270  -17.9390 C.ar      1 QI2        -0.0689
     29 CBC        -8.8240   41.6100  -17.3730 C.ar      1 QI2        -0.0415
     30 CBD        -9.0550   42.7410  -18.1770 C.ar      1 QI2         0.1253
     31 FBE        -9.0330   43.9610  -17.6250 F         1 QI2        -0.1949
     32 H          -8.0027   34.8444  -15.9921 H         1 QI2         0.0549
     33 H          -9.2638   37.5472  -16.1318 H         1 QI2         0.0339
     34 H          -7.4973   37.0714  -15.9464 H         1 QI2         0.0339
     35 H          -9.7249   37.0532  -13.8650 H         1 QI2         0.0754
     36 H          -9.7599   39.5044  -13.9137 H         1 QI2         0.0548
     37 H          -8.5938   41.6228  -13.2685 H         1 QI2         0.0587
     38 H          -9.6510   36.6757  -17.7274 H         1 QI2         0.0273
     39 H          -9.9148   34.7925  -17.8754 H         1 QI2         0.0273
     40 H          -6.0843   37.3629  -13.4011 H         1 QI2         0.0548
     41 H          -4.9338   39.4703  -12.7177 H         1 QI2         0.0587
     42 H          -7.8239   34.6149  -18.7927 H         1 QI2         0.0018
     43 H          -7.5974   36.4399  -18.6748 H         1 QI2         0.0018
     44 H          -8.3591   36.4776  -11.4252 H         1 QI2         0.0526
     45 H          -9.7298   35.5265  -12.0477 H         1 QI2         0.0526
     46 H          -8.2036   34.7145  -11.6208 H         1 QI2         0.0526
     47 H          -8.0168   33.9537  -20.8132 H         1 QI2        -0.0019
     48 H          -9.6577   33.8308  -20.1325 H         1 QI2        -0.0019
     49 H          -9.4169   34.5190  -21.7572 H         1 QI2        -0.0019
     50 H         -10.5733   36.1483  -19.1455 H         1 QI2         0.0018
     51 H         -10.6699   36.0983  -21.0347 H         1 QI2         0.0018
     52 H         -10.9392   38.2067  -19.3301 H         1 QI2         0.0267
     53 H         -10.5939   38.1882  -21.1706 H         1 QI2         0.0267
     54 H          -8.6515   38.9334  -20.9370 H         1 QI2         0.0417
     55 H          -8.4703   38.1689  -19.2011 H         1 QI2         0.0417
     56 H          -9.4719   41.1732  -21.1844 H         1 QI2         0.0485
     57 H         -10.4272   44.3129  -20.0739 H         1 QI2         0.0382
     58 H          -8.6796   44.4530  -20.3861 H         1 QI2         0.0382
     59 H          -9.7004   43.4684  -21.4630 H         1 QI2         0.0382
     60 H          -8.6488   39.4557  -17.3103 H         1 QI2         0.0490
     61 H          -8.6381   41.7314  -16.3059 H         1 QI2         0.0568
@<TRIPOS>BOND
     1    1    2 2  
     2    2    3 1  
     3    3    4 2  
     4    3    5 1  
     5    5    6 1  
     6    5   11 1  
     7    6    7 1  
     8    7    8 1  
     9    7   12 1  
    10    8    9 ar 
    11    8   13 ar 
    12    9   10 ar 
    13   10   15 ar 
    14   11   17 1  
    15   12   18 1  
    16   13   14 ar 
    17   14   15 ar 
    18   15   16 1  
    19   17   20 1  
    20   20   19 1  
    21   20   21 1  
    22   21   22 1  
    23   22   23 1  
    24   23   24 1  
    25   24   25 ar 
    26   24   28 ar 
    27   25   26 ar 
    28   26   27 1  
    29   26   30 ar 
    30   28   29 ar 
    31   29   30 ar 
    32   30   31 1  
    33    5   32 1  
    34    6   33 1  
    35    6   34 1  
    36    7   35 1  
    37    9   36 1  
    38   10   37 1  
    39   11   38 1  
    40   11   39 1  
    41   13   40 1  
    42   14   41 1  
    43   17   42 1  
    44   17   43 1  
    45   18   44 1  
    46   18   45 1  
    47   18   46 1  
    48   19   47 1  
    49   19   48 1  
    50   19   49 1  
    51   21   50 1  
    52   21   51 1  
    53   22   52 1  
    54   22   53 1  
    55   23   54 1  
    56   23   55 1  
    57   25   56 1  
    58   27   57 1  
    59   27   58 1  
    60   27   59 1  
    61   28   60 1  
    62   29   61 1  
@<TRIPOS>SUBSTRUCTURE
     1 QI2         1

