3qiz_ligand
  -I-interpret- 

 62 63  0  0  0  0  0  0  0  0999 V2000
  -11.6740   33.3320  -15.0120 O   0  0  0  0  0
  -10.4880   33.6850  -15.4160 N   0  0  0  0  0
  -10.2110   35.0390  -15.7730 C   0  0  0  0  0
  -11.0030   35.9550  -15.7270 O   0  0  0  0  0
   -8.8520   35.4810  -16.2400 C   0  0  0  0  0
   -8.5370   36.8630  -15.6940 C   0  0  0  0  0
   -8.6640   37.0080  -14.1110 C   0  0  0  0  0
   -7.9880   38.3530  -13.6500 C   0  0  0  0  0
   -8.7030   39.5010  -13.6470 C   0  0  0  0  0
   -8.0490   40.6790  -13.2930 C   0  0  0  0  0
   -9.2730   35.6540  -17.6910 C   0  0  0  0  0
   -8.1770   35.8080  -13.3500 O   0  0  0  0  0
   -6.6320   38.3040  -13.3510 C   0  0  0  0  0
   -5.9900   39.4800  -12.9870 C   0  0  0  0  0
   -6.6920   40.6430  -12.9700 C   0  0  0  0  0
   -6.0660   41.7740  -12.6300 F   0  0  0  0  0
   -8.2810   35.6040  -18.8230 C   0  0  0  0  0
   -8.6440   35.6210  -12.0360 C   0  0  0  0  0
   -8.9950   34.4310  -20.7560 C   0  0  0  0  0
   -8.8520   35.7620  -20.1710 N   0  3  0  0  0
  -10.1720   36.4230  -20.1210 C   0  0  0  0  0
  -10.2770   37.9470  -20.1560 C   0  0  0  0  0
   -9.0290   38.7560  -19.9300 C   0  0  0  0  0
   -9.0740   40.1600  -19.3070 C   0  0  0  0  0
   -9.2950   41.2970  -20.1160 C   0  0  0  0  0
   -9.2890   42.5730  -19.5620 C   0  0  0  0  0
   -9.5420   43.7880  -20.4330 C   0  0  0  0  0
   -8.8320   40.3270  -17.9390 C   0  0  0  0  0
   -8.8240   41.6100  -17.3730 C   0  0  0  0  0
   -9.0550   42.7410  -18.1770 C   0  0  0  0  0
   -9.0330   43.9610  -17.6250 F   0  0  0  0  0
   -8.0027   34.8444  -15.9921 H   0  0  0  0  0
   -9.2638   37.5472  -16.1318 H   0  0  0  0  0
   -7.4973   37.0714  -15.9464 H   0  0  0  0  0
   -9.7249   37.0532  -13.8650 H   0  0  0  0  0
   -9.7599   39.5044  -13.9137 H   0  0  0  0  0
   -8.5938   41.6228  -13.2685 H   0  0  0  0  0
   -9.6510   36.6757  -17.7274 H   0  0  0  0  0
   -9.9148   34.7925  -17.8754 H   0  0  0  0  0
   -6.0843   37.3629  -13.4011 H   0  0  0  0  0
   -4.9338   39.4703  -12.7177 H   0  0  0  0  0
   -7.8239   34.6149  -18.7927 H   0  0  0  0  0
   -7.5974   36.4399  -18.6748 H   0  0  0  0  0
   -8.3591   36.4776  -11.4252 H   0  0  0  0  0
   -9.7298   35.5265  -12.0477 H   0  0  0  0  0
   -8.2036   34.7145  -11.6208 H   0  0  0  0  0
   -8.0168   33.9537  -20.8132 H   0  0  0  0  0
   -9.6577   33.8308  -20.1325 H   0  0  0  0  0
   -9.4169   34.5190  -21.7572 H   0  0  0  0  0
   -8.2336   36.3467  -20.7332 H   0  0  0  0  0
  -10.5733   36.1483  -19.1455 H   0  0  0  0  0
  -10.6699   36.0983  -21.0347 H   0  0  0  0  0
  -10.9392   38.2067  -19.3301 H   0  0  0  0  0
  -10.5939   38.1882  -21.1706 H   0  0  0  0  0
   -8.6515   38.9334  -20.9370 H   0  0  0  0  0
   -8.4703   38.1689  -19.2011 H   0  0  0  0  0
   -9.4719   41.1732  -21.1844 H   0  0  0  0  0
   -8.7821   43.8390  -21.2128 H   0  0  0  0  0
  -10.5284   43.7070  -20.8898 H   0  0  0  0  0
   -9.4968   44.6884  -19.8204 H   0  0  0  0  0
   -8.6488   39.4557  -17.3103 H   0  0  0  0  0
   -8.6381   41.7314  -16.3059 H   0  0  0  0  0
  1  2  2  0  0  0
  2  3  1  0  0  0
  3  4  2  0  0  0
  3  5  1  0  0  0
  5  6  1  0  0  0
  5 11  1  0  0  0
  6  7  1  0  0  0
  7  8  1  0  0  0
  7 12  1  0  0  0
  8  9  4  0  0  0
  8 13  4  0  0  0
  9 10  4  0  0  0
 10 15  4  0  0  0
 11 17  1  0  0  0
 12 18  1  0  0  0
 13 14  4  0  0  0
 14 15  4  0  0  0
 15 16  1  0  0  0
 17 20  1  0  0  0
 20 19  1  0  0  0
 20 21  1  0  0  0
 21 22  1  0  0  0
 22 23  1  0  0  0
 23 24  1  0  0  0
 24 25  4  0  0  0
 24 28  4  0  0  0
 25 26  4  0  0  0
 26 27  1  0  0  0
 26 30  4  0  0  0
 28 29  4  0  0  0
 29 30  4  0  0  0
 30 31  1  0  0  0
  5 32  1  0  0  0
  6 33  1  0  0  0
  6 34  1  0  0  0
  7 35  1  0  0  0
  9 36  1  0  0  0
 10 37  1  0  0  0
 11 38  1  0  0  0
 11 39  1  0  0  0
 13 40  1  0  0  0
 14 41  1  0  0  0
 17 42  1  0  0  0
 17 43  1  0  0  0
 18 44  1  0  0  0
 18 45  1  0  0  0
 18 46  1  0  0  0
 19 47  1  0  0  0
 19 48  1  0  0  0
 19 49  1  0  0  0
 20 50  1  0  0  0
 21 51  1  0  0  0
 21 52  1  0  0  0
 22 53  1  0  0  0
 22 54  1  0  0  0
 23 55  1  0  0  0
 23 56  1  0  0  0
 25 57  1  0  0  0
 27 58  1  0  0  0
 27 59  1  0  0  0
 27 60  1  0  0  0
 28 61  1  0  0  0
 29 62  1  0  0  0
M  END
$$$$
