2wzf_ligand
  -I-interpret- 

 39 40  0  0  0  0  0  0  0  0999 V2000
   -0.3060   -0.0030   24.8420 N   0  0  0  0  0
   -1.4880   -0.1370   25.5730 C   0  0  0  0  0
   -1.6320   -1.1740   26.4740 N   0  0  0  0  0
   -0.5890   -2.0920   26.6630 C   0  0  0  0  0
    0.5940   -1.9690   25.9250 C   0  0  0  0  0
    0.7530   -0.9150   25.0050 C   0  0  0  0  0
   -2.4050    0.6750   25.4120 O   0  0  0  0  0
   -0.7690   -2.9950   27.4810 O   0  0  0  0  0
   -0.2730    1.1160   23.8910 C   0  0  0  0  0
    0.0800    2.4650   24.5330 C   0  0  0  0  0
   -0.5360    3.5520   23.8070 O   0  0  0  0  0
    1.5550    2.4560   24.3730 C   0  0  0  0  0
    1.6660    1.8120   22.9750 C   0  0  0  0  0
    0.7450    0.7390   22.9650 O   0  0  0  0  0
    2.0940    3.7720   24.2920 O   0  0  0  0  0
    3.1170    1.4220   22.6060 C   0  0  0  0  0
    3.7350    0.6090   23.6290 O   0  0  0  0  0
    5.3200    0.5050   23.7710 P   0  0  0  0  0
    5.9610    1.9730   23.9330 O   0  0  0  0  0
    5.7370   -0.4270   24.8600 O   0  0  0  0  0
    5.7590   -0.0450   22.3360 O   0  0  0  0  0
    7.1480    0.1830   21.6250 P   0  0  0  0  0
    7.2640    1.7470   21.3590 O   0  0  0  0  0
    8.2790   -0.2260   22.6810 O   0  0  0  0  0
    7.2150   -0.6240   20.3680 O   0  0  0  0  0
   -2.4986   -1.2722   27.0029 H   0  0  0  0  0
    1.3967   -2.6933   26.0633 H   0  0  0  0  0
    1.6745   -0.8081   24.4327 H   0  0  0  0  0
   -1.2557    1.2731   23.4464 H   0  0  0  0  0
   -0.2577    2.5975   25.5609 H   0  0  0  0  0
   -0.3038    4.3854   24.2231 H   0  0  0  0  0
    2.0770    1.9639   25.1936 H   0  0  0  0  0
    1.4099    2.5203   22.1870 H   0  0  0  0  0
    3.0471    3.7205   24.1894 H   0  0  0  0  0
    3.6996    2.3370   22.4992 H   0  0  0  0  0
    3.0907    0.8453   21.6815 H   0  0  0  0  0
    5.6637    2.5322   23.2115 H   0  0  0  0  0
    7.2156    2.2170   22.1947 H   0  0  0  0  0
    8.1934    0.3186   23.4669 H   0  0  0  0  0
  1  2  1  0  0  0
  1  6  1  0  0  0
  1  9  1  0  0  0
  2  3  1  0  0  0
  2  7  2  0  0  0
  3  4  1  0  0  0
  4  5  1  0  0  0
  4  8  2  0  0  0
  5  6  2  0  0  0
  9 10  1  0  0  0
  9 14  1  0  0  0
 10 11  1  0  0  0
 10 12  1  0  0  0
 12 13  1  0  0  0
 12 15  1  0  0  0
 13 14  1  0  0  0
 13 16  1  0  0  0
 16 17  1  0  0  0
 17 18  1  0  0  0
 18 19  1  0  0  0
 18 20  2  0  0  0
 18 21  1  0  0  0
 21 22  1  0  0  0
 22 23  1  0  0  0
 22 24  1  0  0  0
 22 25  2  0  0  0
  3 26  1  0  0  0
  5 27  1  0  0  0
  6 28  1  0  0  0
  9 29  1  0  0  0
 10 30  1  0  0  0
 11 31  1  0  0  0
 12 32  1  0  0  0
 13 33  1  0  0  0
 15 34  1  0  0  0
 16 35  1  0  0  0
 16 36  1  0  0  0
 19 37  1  0  0  0
 23 38  1  0  0  0
 24 39  1  0  0  0
M  END
$$$$
