6g2a_ligand
  -I-interpret- 

 59 62  0  0  0  0  0  0  0  0999 V2000
  -17.1330    4.2150   24.6520 C   0  0  0  0  0
  -18.4320    4.9990   24.7510 C   0  0  0  0  0
  -18.2190    6.4320   25.2250 O   0  0  0  0  0
  -18.8740    5.0600   23.3100 C   0  0  0  0  0
  -17.6010    5.3360   22.5740 N   0  3  0  0  0
  -16.4820    4.8830   23.4620 C   0  0  0  0  0
  -15.5330    3.9110   22.7570 C   0  0  0  0  0
  -14.4380    3.5820   23.6440 O   0  0  0  0  0
  -13.4150    2.5170   23.1710 P   0  0  0  0  0
  -12.4480    2.3970   24.2730 O   0  0  0  0  0
  -12.8630    2.8620   21.8080 O   0  0  0  0  0
  -14.3590    1.2710   23.1160 O   0  0  0  0  0
  -14.0740   -0.2220   22.5370 P   0  0  0  0  0
  -12.6100   -0.5770   22.6760 O   0  0  0  0  0
  -15.1080   -1.0380   23.0860 O   0  0  0  0  0
  -14.3290   -0.0170   20.9810 O   0  0  0  0  0
  -15.5460    0.4830   20.4430 C   0  0  0  0  0
  -15.7890   -0.1910   19.0720 C   0  0  0  0  0
  -14.5960   -0.0370   18.2830 O   0  0  0  0  0
  -15.9580   -1.6920   19.2510 C   0  0  0  0  0
  -17.3340   -2.0590   19.3380 O   0  0  0  0  0
  -15.4400   -2.2280   17.9780 C   0  0  0  0  0
  -16.5680   -2.6210   17.2070 O   0  0  0  0  0
  -14.6410   -1.0460   17.3200 C   0  0  0  0  0
  -13.2860   -1.5300   16.8890 N   0  0  0  0  0
  -12.3990   -2.3400   17.4870 C   0  0  0  0  0
  -11.3700   -2.5370   16.6830 N   0  0  0  0  0
  -11.5850   -1.8470   15.5630 C   0  0  0  0  0
  -12.7870   -1.2390   15.6880 C   0  0  0  0  0
  -13.3120   -0.4640   14.7230 N   0  0  0  0  0
  -12.5750   -0.3250   13.5440 C   0  0  0  0  0
  -11.3160   -0.9690   13.4120 N   0  0  0  0  0
  -10.8520   -1.7190   14.4250 C   0  0  0  0  0
   -9.6630   -2.3550   14.3460 N   0  0  0  0  0
  -17.2745    3.1409   24.5317 H   0  0  0  0  0
  -16.5296    4.2455   25.5592 H   0  0  0  0  0
  -19.1264    4.5385   25.4537 H   0  0  0  0  0
  -17.9361    6.4257   26.1424 H   0  0  0  0  0
  -19.6345    5.8210   23.1351 H   0  0  0  0  0
  -19.3603    4.1420   22.9799 H   0  0  0  0  0
  -17.5142    6.3292   22.3585 H   0  0  0  0  0
  -17.5815    4.8393   21.6833 H   0  0  0  0  0
  -15.8689    5.7353   23.7548 H   0  0  0  0  0
  -15.1419    4.3755   21.8518 H   0  0  0  0  0
  -16.0731    3.0021   22.4920 H   0  0  0  0  0
  -13.5835    2.9123   21.1756 H   0  0  0  0  0
  -12.0768    0.0929   22.2418 H   0  0  0  0  0
  -15.4826    1.5642   20.3204 H   0  0  0  0  0
  -16.3714    0.2601   21.1191 H   0  0  0  0  0
  -16.6707    0.2563   18.6131 H   0  0  0  0  0
  -15.4649   -2.0516   20.1541 H   0  0  0  0  0
  -17.4039   -3.0099   19.4502 H   0  0  0  0  0
  -14.7845   -3.0930   18.0792 H   0  0  0  0  0
  -16.2712   -2.9771   16.3663 H   0  0  0  0  0
  -15.1098   -0.6590   16.4152 H   0  0  0  0  0
  -12.5105   -2.7692   18.4827 H   0  0  0  0  0
  -12.9666    0.2782   12.7249 H   0  0  0  0  0
   -9.3321   -2.9170   15.1303 H   0  0  0  0  0
   -9.0960   -2.2733   13.5020 H   0  0  0  0  0
  1  2  1  0  0  0
  1  6  1  0  0  0
  2  3  1  0  0  0
  2  4  1  0  0  0
  4  5  1  0  0  0
  5  6  1  0  0  0
  6  7  1  0  0  0
  7  8  1  0  0  0
  8  9  1  0  0  0
  9 10  2  0  0  0
  9 11  1  0  0  0
  9 12  1  0  0  0
 12 13  1  0  0  0
 13 14  1  0  0  0
 13 15  2  0  0  0
 13 16  1  0  0  0
 16 17  1  0  0  0
 17 18  1  0  0  0
 18 19  1  0  0  0
 18 20  1  0  0  0
 19 24  1  0  0  0
 20 21  1  0  0  0
 20 22  1  0  0  0
 22 23  1  0  0  0
 22 24  1  0  0  0
 24 25  1  0  0  0
 25 26  4  0  0  0
 25 29  4  0  0  0
 26 27  4  0  0  0
 27 28  4  0  0  0
 28 29  4  0  0  0
 28 33  4  0  0  0
 29 30  4  0  0  0
 30 31  4  0  0  0
 31 32  4  0  0  0
 32 33  4  0  0  0
 33 34  1  0  0  0
  1 35  1  0  0  0
  1 36  1  0  0  0
  2 37  1  0  0  0
  3 38  1  0  0  0
  4 39  1  0  0  0
  4 40  1  0  0  0
  5 41  1  0  0  0
  5 42  1  0  0  0
  6 43  1  0  0  0
  7 44  1  0  0  0
  7 45  1  0  0  0
 11 46  1  0  0  0
 14 47  1  0  0  0
 17 48  1  0  0  0
 17 49  1  0  0  0
 18 50  1  0  0  0
 20 51  1  0  0  0
 21 52  1  0  0  0
 22 53  1  0  0  0
 23 54  1  0  0  0
 24 55  1  0  0  0
 26 56  1  0  0  0
 31 57  1  0  0  0
 34 58  1  0  0  0
 34 59  1  0  0  0
M  END
$$$$
