### 
### Created by X-TOOL on Wed Jan  1 15:39:36 2020
### 

@<TRIPOS>MOLECULE
6g2a_ligand
   57    60     1     0     0
SMALL
GAST_HUCK


@<TRIPOS>ATOM
      1 C3N       -17.1330    4.2150   24.6520 C.3       1 A3R         0.0238
      2 C2N       -18.4320    4.9990   24.7510 C.3       1 A3R         0.1000
      3 O2N       -18.2190    6.4320   25.2250 O.3       1 A3R        -0.3863
      4 C1N       -18.8740    5.0600   23.3100 C.3       1 A3R        -0.0065
      5 N4N       -17.6010    5.3360   22.5740 N.4       1 A3R         0.2330
      6 C4N       -16.4820    4.8830   23.4620 C.3       1 A3R         0.0091
      7 C5N       -15.5330    3.9110   22.7570 C.3       1 A3R         0.1265
      8 O5N       -14.4380    3.5820   23.6440 O.3       1 A3R        -0.2447
      9 PB        -13.4150    2.5170   23.1710 P.3       1 A3R         0.2973
     10 O2B       -12.4480    2.3970   24.2730 O.co2     1 A3R        -0.6127
     11 O1B       -12.8630    2.8620   21.8080 O.co2     1 A3R        -0.6127
     12 O3A       -14.3590    1.2710   23.1160 O.3       1 A3R        -0.1319
     13 PA        -14.0740   -0.2220   22.5370 P.3       1 A3R         0.2972
     14 O1A       -12.6100   -0.5770   22.6760 O.co2     1 A3R        -0.6127
     15 O2A       -15.1080   -1.0380   23.0860 O.co2     1 A3R        -0.6127
     16 O5'       -14.3290   -0.0170   20.9810 O.3       1 A3R        -0.2476
     17 C5'       -15.5460    0.4830   20.4430 C.3       1 A3R         0.1128
     18 C4'       -15.7890   -0.1910   19.0720 C.3       1 A3R         0.1189
     19 O4'       -14.5960   -0.0370   18.2830 O.3       1 A3R        -0.3364
     20 C3'       -15.9580   -1.6920   19.2510 C.3       1 A3R         0.1149
     21 O3'       -17.3340   -2.0590   19.3380 O.3       1 A3R        -0.3864
     22 C2'       -15.4400   -2.2280   17.9780 C.3       1 A3R         0.1385
     23 O2'       -16.5680   -2.6210   17.2070 O.3       1 A3R        -0.3836
     24 C1'       -14.6410   -1.0460   17.3200 C.3       1 A3R         0.2010
     25 N9        -13.2860   -1.5300   16.8890 N.pl3     1 A3R        -0.1919
     26 C8        -12.3990   -2.3400   17.4870 C.2       1 A3R         0.1123
     27 N7        -11.3700   -2.5370   16.6830 N.2       1 A3R        -0.2958
     28 C5        -11.5850   -1.8470   15.5630 C.ar      1 A3R         0.1045
     29 C4        -12.7870   -1.2390   15.6880 C.ar      1 A3R         0.1613
     30 N3        -13.3120   -0.4640   14.7230 N.ar      1 A3R        -0.2714
     31 C2        -12.5750   -0.3250   13.5440 C.ar      1 A3R         0.0533
     32 N1        -11.3160   -0.9690   13.4120 N.ar      1 A3R        -0.2698
     33 C6        -10.8520   -1.7190   14.4250 C.ar      1 A3R         0.1298
     34 N6         -9.6630   -2.3550   14.3460 N.pl3     1 A3R        -0.3152
     35 H1        -17.3190    3.1473   24.4639 H         1 A3R         0.0348
     36 H2        -16.5237    4.3265   25.5610 H         1 A3R         0.0348
     37 H3        -19.1624    4.4871   25.3947 H         1 A3R         0.0649
     38 H4        -17.8173    6.4232   26.0858 H         1 A3R         0.2100
     39 H5        -19.6028    5.8691   23.1548 H         1 A3R         0.0839
     40 H6        -19.3144    4.1037   22.9916 H         1 A3R         0.0839
     41 H7        -17.5163    6.3224   22.3845 H         1 A3R         0.2018
     42 H8        -17.5840    4.8244   21.7057 H         1 A3R         0.2018
     43 H9        -15.9035    5.7572   23.7954 H         1 A3R         0.0878
     44 H10       -15.1377    4.3807   21.8442 H         1 A3R         0.0678
     45 H11       -16.0782    2.9935   22.4907 H         1 A3R         0.0678
     46 H12       -15.4745    1.5730   20.3133 H         1 A3R         0.0648
     47 H13       -16.3771    0.2486   21.1244 H         1 A3R         0.0648
     48 H14       -16.6642    0.2506   18.5730 H         1 A3R         0.0651
     49 H15       -15.3999   -2.0626   20.1235 H         1 A3R         0.0648
     50 H16       -17.7809   -1.7993   18.5408 H         1 A3R         0.2100
     51 H17       -14.7778   -3.0906   18.1437 H         1 A3R         0.0676
     52 H18       -17.0567   -3.2852   17.6787 H         1 A3R         0.2101
     53 H19       -15.1768   -0.6764   16.4333 H         1 A3R         0.0996
     54 H20       -12.5104   -2.7688   18.4818 H         1 A3R         0.1349
     55 H21       -12.9645    0.2749   12.7294 H         1 A3R         0.0996
     56 H22        -9.0905   -2.2725   13.4938 H         1 A3R         0.1820
     57 H23        -9.3289   -2.9225   15.1380 H         1 A3R         0.1820
@<TRIPOS>BOND
     1    1    2 1  
     2    1    6 1  
     3    2    3 1  
     4    2    4 1  
     5    4    5 1  
     6    5    6 1  
     7    6    7 1  
     8    7    8 1  
     9    8    9 1  
    10    9   10 ar 
    11    9   11 ar 
    12    9   12 1  
    13   12   13 1  
    14   13   14 ar 
    15   13   15 ar 
    16   13   16 1  
    17   16   17 1  
    18   17   18 1  
    19   18   19 1  
    20   18   20 1  
    21   19   24 1  
    22   20   21 1  
    23   20   22 1  
    24   22   23 1  
    25   22   24 1  
    26   24   25 1  
    27   25   26 1  
    28   25   29 1  
    29   26   27 2  
    30   27   28 1  
    31   28   29 ar 
    32   28   33 ar 
    33   29   30 ar 
    34   30   31 ar 
    35   31   32 ar 
    36   32   33 ar 
    37   33   34 1  
    38    1   35 1  
    39    1   36 1  
    40    2   37 1  
    41    3   38 1  
    42    4   39 1  
    43    4   40 1  
    44    5   41 1  
    45    5   42 1  
    46    6   43 1  
    47    7   44 1  
    48    7   45 1  
    49   17   46 1  
    50   17   47 1  
    51   18   48 1  
    52   20   49 1  
    53   21   50 1  
    54   22   51 1  
    55   23   52 1  
    56   24   53 1  
    57   26   54 1  
    58   31   55 1  
    59   34   56 1  
    60   34   57 1  
@<TRIPOS>SUBSTRUCTURE
     1 A3R         1

