3cid_ligand
  -I-interpret- 

 85 88  0  0  0  0  0  0  0  0999 V2000
   26.7270   11.0100   18.9990 F   0  0  0  0  0
   22.8010   13.5990   18.3320 F   0  0  0  0  0
   23.5910   11.8970   23.3320 N   0  0  0  0  0
   22.4460   11.0200   23.0130 C   0  0  0  0  0
   21.9880   10.1610   24.2360 C   0  0  0  0  0
   20.9670    9.2440   23.8110 O   0  0  0  0  0
   21.4300   11.0400   25.3780 C   0  0  0  0  0
   21.1990   10.2000   26.5800 N   0  3  0  0  0
   19.8950   10.6620   27.1280 C   0  0  0  0  0
   19.2830   11.4570   26.0690 N   0  0  0  0  0
   20.1010   11.7020   25.0450 C   0  0  0  0  0
   22.7830   10.1150   21.8290 C   0  0  0  0  0
   23.3530   13.2240   23.4450 C   0  0  0  0  0
   19.8560   12.3420   24.0230 O   0  0  0  0  0
   17.8940   11.9020   26.2050 C   0  0  0  0  0
   16.9640   11.2900   25.1840 C   0  0  0  0  0
   16.2090   12.1360   24.3190 C   0  0  0  0  0
   15.3260   11.5660   23.3530 C   0  0  0  0  0
   15.1970   10.1500   23.2540 C   0  0  0  0  0
   15.9510    9.3020   24.1190 C   0  0  0  0  0
   16.8350    9.8730   25.0840 C   0  0  0  0  0
   23.4730   10.8860   20.7250 C   0  0  0  0  0
   22.7790   11.9180   20.0300 C   0  0  0  0  0
   23.4360   12.6330   18.9900 C   0  0  0  0  0
   24.7770   12.3220   18.6430 C   0  0  0  0  0
   25.4670   11.2940   19.3340 C   0  0  0  0  0
   24.8200   10.5730   20.3780 C   0  0  0  0  0
   22.2300   13.6970   23.2940 O   0  0  0  0  0
   24.5280   14.0470   23.7520 C   0  0  0  0  0
   25.8210   13.6180   23.3410 C   0  0  0  0  0
   26.9660   14.4260   23.6260 C   0  0  0  0  0
   26.8060   15.6630   24.3320 C   0  0  0  0  0
   25.5090   16.0940   24.7430 C   0  0  0  0  0
   24.3680   15.2890   24.4530 C   0  0  0  0  0
   25.3460   17.3680   25.4640 C   0  0  0  0  0
   28.3120   13.9810   23.2140 C   0  0  0  0  0
   29.1970   13.7760   24.0390 O   0  0  0  0  0
   28.5490   13.7950   21.8730 N   0  0  0  0  0
   29.8820   13.3510   21.5020 C   0  0  0  0  0
   29.8700   11.8790   21.0530 C   0  0  0  0  0
   29.1490   10.9200   22.0440 C   0  0  0  0  0
   27.5680   14.0200   20.8180 C   0  0  0  0  0
   28.1520   14.9720   19.7840 C   0  0  0  0  0
   28.7060   16.2580   20.4420 C   0  0  0  0  0
   24.5280   11.5156   23.4625 H   0  0  0  0  0
   21.6123   11.6703   22.7479 H   0  0  0  0  0
   22.8580    9.6247   24.6150 H   0  0  0  0  0
   21.3073    8.6945   23.1012 H   0  0  0  0  0
   22.1740   11.8193   25.5430 H   0  0  0  0  0
   21.9518   10.2995   27.2610 H   0  0  0  0  0
   21.1814    9.2066   26.3492 H   0  0  0  0  0
   20.0303   11.2472   28.0376 H   0  0  0  0  0
   19.2618    9.8212   27.4111 H   0  0  0  0  0
   21.8552    9.7005   21.4346 H   0  0  0  0  0
   23.4541    9.3284   22.1741 H   0  0  0  0  0
   17.8793   12.9818   26.0566 H   0  0  0  0  0
   17.5462   11.5950   27.1913 H   0  0  0  0  0
   16.3063   13.2189   24.3956 H   0  0  0  0  0
   14.7506   12.2134   22.6913 H   0  0  0  0  0
   14.5220    9.7147   22.5171 H   0  0  0  0  0
   15.8522    8.2191   24.0432 H   0  0  0  0  0
   17.4116    9.2256   25.7447 H   0  0  0  0  0
   21.7492   12.1588   20.2938 H   0  0  0  0  0
   25.2759   12.8732   17.8458 H   0  0  0  0  0
   25.3527    9.7847   20.9098 H   0  0  0  0  0
   25.9387   12.6739   22.8091 H   0  0  0  0  0
   27.6783   16.2770   24.5559 H   0  0  0  0  0
   23.3758   15.6166   24.7634 H   0  0  0  0  0
   25.9176   17.3348   26.3915 H   0  0  0  0  0
   25.7090   18.1855   24.8411 H   0  0  0  0  0
   24.2913   17.5231   25.6910 H   0  0  0  0  0
   30.5355   13.4461   22.3692 H   0  0  0  0  0
   30.2369   13.9654   20.6746 H   0  0  0  0  0
   30.9080   11.5533   20.9858 H   0  0  0  0  0
   29.3285   11.8339   20.1081 H   0  0  0  0  0
   29.6485   10.9573   23.0121 H   0  0  0  0  0
   28.1104   11.2306   22.1574 H   0  0  0  0  0
   29.1849    9.9027   21.6542 H   0  0  0  0  0
   26.6648   14.4550   21.2459 H   0  0  0  0  0
   27.3196   13.0714   20.3419 H   0  0  0  0  0
   27.3603   15.2541   19.0899 H   0  0  0  0  0
   28.9716   14.4657   19.2741 H   0  0  0  0  0
   27.9008   16.7717   20.9673 H   0  0  0  0  0
   29.4920   15.9931   21.1492 H   0  0  0  0  0
   29.1141   16.9120   19.6714 H   0  0  0  0  0
 26  1  1  0  0  0
 24  2  1  0  0  0
  4  3  1  0  0  0
  3 13  1  0  0  0
  4  5  1  0  0  0
 12  4  1  0  0  0
  5  6  1  0  0  0
  5  7  1  0  0  0
  7  8  1  0  0  0
  7 11  1  0  0  0
  8  9  1  0  0  0
 10  9  1  0  0  0
 11 10  1  0  0  0
 10 15  1  0  0  0
 11 14  2  0  0  0
 22 12  1  0  0  0
 13 28  2  0  0  0
 13 29  1  0  0  0
 15 16  1  0  0  0
 16 17  4  0  0  0
 16 21  4  0  0  0
 17 18  4  0  0  0
 18 19  4  0  0  0
 20 19  4  0  0  0
 21 20  4  0  0  0
 23 22  4  0  0  0
 22 27  4  0  0  0
 24 23  4  0  0  0
 25 24  4  0  0  0
 25 26  4  0  0  0
 26 27  4  0  0  0
 29 30  4  0  0  0
 29 34  4  0  0  0
 30 31  4  0  0  0
 31 32  4  0  0  0
 31 36  1  0  0  0
 32 33  4  0  0  0
 33 34  4  0  0  0
 33 35  1  0  0  0
 36 37  2  0  0  0
 36 38  1  0  0  0
 38 39  1  0  0  0
 38 42  1  0  0  0
 39 40  1  0  0  0
 40 41  1  0  0  0
 42 43  1  0  0  0
 43 44  1  0  0  0
  3 45  1  0  0  0
  4 46  1  0  0  0
  5 47  1  0  0  0
  6 48  1  0  0  0
  7 49  1  0  0  0
  8 50  1  0  0  0
  8 51  1  0  0  0
  9 52  1  0  0  0
  9 53  1  0  0  0
 12 54  1  0  0  0
 12 55  1  0  0  0
 15 56  1  0  0  0
 15 57  1  0  0  0
 17 58  1  0  0  0
 18 59  1  0  0  0
 19 60  1  0  0  0
 20 61  1  0  0  0
 21 62  1  0  0  0
 23 63  1  0  0  0
 25 64  1  0  0  0
 27 65  1  0  0  0
 30 66  1  0  0  0
 32 67  1  0  0  0
 34 68  1  0  0  0
 35 69  1  0  0  0
 35 70  1  0  0  0
 35 71  1  0  0  0
 39 72  1  0  0  0
 39 73  1  0  0  0
 40 74  1  0  0  0
 40 75  1  0  0  0
 41 76  1  0  0  0
 41 77  1  0  0  0
 41 78  1  0  0  0
 42 79  1  0  0  0
 42 80  1  0  0  0
 43 81  1  0  0  0
 43 82  1  0  0  0
 44 83  1  0  0  0
 44 84  1  0  0  0
 44 85  1  0  0  0
M  END
$$$$
