1irs_ligand
  -I-interpret- 

173174  0  0  0  0  0  0  0  0999 V2000
    4.2450  -18.1010   -1.0160 N   0  3  0  0  0
    4.1870  -16.6610   -1.3980 C   0  0  0  0  0
    2.7500  -16.1540   -1.2610 C   0  0  0  0  0
    2.0420  -15.9780   -2.2330 O   0  0  0  0  0
    4.6630  -16.4980   -2.8450 C   0  0  0  0  0
    5.5550  -15.2600   -2.9490 C   0  0  0  0  0
    6.9930  -15.6920   -3.2390 C   0  0  0  0  0
    5.0530  -14.3640   -4.0850 C   0  0  0  0  0
    2.3140  -15.9150   -0.0560 N   0  0  0  0  0
    0.9250  -15.4160    0.1490 C   0  0  0  0  0
    0.7400  -14.1230   -0.6480 C   0  0  0  0  0
    1.3780  -13.1240   -0.3800 O   0  0  0  0  0
    0.7020  -15.1410    1.6380 C   0  0  0  0  0
   -0.7810  -14.8750    1.8960 C   0  0  0  0  0
    1.1500  -16.3560    2.4560 C   0  0  0  0  0
   -0.1220  -14.1310   -1.6290 N   0  0  0  0  0
   -0.3330  -12.8970   -2.4390 C   0  0  0  0  0
   -1.8230  -12.5420   -2.4770 C   0  0  0  0  0
   -2.6790  -13.3760   -2.2570 O   0  0  0  0  0
    0.2040  -13.1310   -3.8580 C   0  0  0  0  0
    0.2930  -11.7900   -4.5990 C   0  0  0  0  0
   -0.7030  -14.1020   -4.6260 C   0  0  0  0  0
   -0.8970  -11.6280   -5.5430 C   0  0  0  0  0
   -2.1370  -11.3040   -2.7580 N   0  0  0  0  0
   -3.5650  -10.8810   -2.8150 C   0  0  0  0  0
   -3.7880  -10.0520   -4.0820 C   0  0  0  0  0
   -2.8960   -9.8850   -4.8860 O   0  0  0  0  0
   -3.9000  -10.0330   -1.5860 C   0  0  0  0  0
   -4.9670   -9.5290   -4.2720 N   0  0  0  0  0
   -5.2210   -8.7170   -5.4950 C   0  0  0  0  0
   -5.9180   -7.4100   -5.1180 C   0  0  0  0  0
   -6.4130   -7.2500   -4.0200 O   0  0  0  0  0
   -5.9590   -6.4750   -6.0250 N   0  0  0  0  0
   -6.6220   -5.1740   -5.7350 C   0  0  0  0  0
   -7.9300   -5.0900   -6.5470 C   0  0  0  0  0
   -7.8840   -5.0350   -7.7600 O   0  0  0  0  0
   -5.6870   -4.0410   -6.1570 C   0  0  0  0  0
   -5.7960   -2.8830   -5.1650 C   0  0  0  0  0
   -4.9990   -2.7720   -4.2550 O   0  0  0  0  0
   -6.7530   -2.0070   -5.3060 N   0  0  0  0  0
   -9.0600   -5.0910   -5.8700 N   0  0  0  0  0
  -10.3760   -5.0260   -6.5250 C   0  0  0  0  0
  -10.6530   -3.6210   -7.0770 C   0  0  0  0  0
  -11.2200   -3.4660   -8.1400 O   0  0  0  0  0
  -11.3910   -5.3730   -5.4420 C   0  0  0  0  0
  -10.6620   -4.9620   -4.1420 C   0  0  0  0  0
   -9.1480   -5.1590   -4.3930 C   0  0  0  0  0
  -10.2690   -2.5970   -6.3630 N   0  0  0  0  0
  -10.5240   -1.2060   -6.8480 C   0  0  0  0  0
   -9.5560   -0.8170   -7.9800 C   0  0  0  0  0
   -9.6280    0.2780   -8.5000 O   0  0  0  0  0
  -10.3480   -0.2300   -5.6830 C   0  0  0  0  0
   -8.6530   -1.6810   -8.3710 N   0  0  0  0  0
   -7.7030   -1.3180   -9.4680 C   0  0  0  0  0
   -8.4670   -1.1350  -10.7840 C   0  0  0  0  0
   -8.0630   -0.3750  -11.6380 O   0  0  0  0  0
   -6.6670   -2.4320   -9.6310 C   0  0  0  0  0
   -5.6560   -2.0480  -10.6850 C   0  0  0  0  0
   -4.8880   -0.8890  -10.5290 C   0  0  0  0  0
   -5.4850   -2.8530  -11.8170 C   0  0  0  0  0
   -3.9490   -0.5340  -11.5040 C   0  0  0  0  0
   -4.5460   -2.4980  -12.7930 C   0  0  0  0  0
   -3.7780   -1.3380  -12.6360 C   0  0  0  0  0
   -2.8370   -0.9830  -13.6110 O   0  0  0  0  0
   -3.3470   -0.7110  -15.0590 P   0  0  0  0  0
   -3.7830   -2.1020  -15.5870 O   0  0  0  0  0
   -2.0860   -0.2520  -15.8350 O   0  0  0  0  0
   -4.5060    0.3770  -14.8790 O   0  0  0  0  0
   -9.5660   -1.8280  -10.9440 N   0  0  0  0  0
  -10.3800   -1.7160  -12.1930 C   0  0  0  0  0
   -9.6670   -2.4170  -13.3640 C   0  0  0  0  0
   -9.9780   -3.5450  -13.6890 O   0  0  0  0  0
  -10.6490   -0.2420  -12.5260 C   0  0  0  0  0
  -11.0810    0.4980  -11.2610 C   0  0  0  0  0
  -11.6200    1.8800  -11.6360 C   0  0  0  0  0
  -12.6660    1.7370  -12.6880 N   0  0  0  0  0
  -12.6610    2.5310  -13.7250 C   0  0  0  0  0
  -11.8210    2.3220  -14.7020 N   0  0  0  0  0
  -13.4950    3.5320  -13.7860 N   0  0  0  0  0
   -8.7210   -1.7770  -14.0040 N   0  0  0  0  0
   -8.0190   -2.4370  -15.1410 C   0  0  0  0  0
   -9.0430   -2.8770  -16.1890 C   0  0  0  0  0
  -10.1940   -2.4970  -16.0590 O   0  0  0  0  0
   -7.2600   -3.6580  -14.6260 C   0  0  0  0  0
   -7.9430   -4.8390  -15.0250 O   0  0  0  0  0
   -8.6580   -3.5880  -17.1020 O   0  0  0  0  0
    3.9280  -18.2090   -0.0525 H   0  0  0  0  0
    3.6414  -18.6407   -1.6363 H   0  0  0  0  0
    5.2052  -18.4351   -1.0987 H   0  0  0  0  0
    4.8346  -16.0811   -0.7404 H   0  0  0  0  0
    3.8005  -16.3818   -3.5013 H   0  0  0  0  0
    5.2284  -17.3806   -3.1441 H   0  0  0  0  0
    5.5231  -14.7084   -2.0094 H   0  0  0  0  0
    7.0228  -16.2439   -4.1785 H   0  0  0  0  0
    7.6280  -14.8093   -3.3144 H   0  0  0  0  0
    7.3496  -16.3297   -2.4301 H   0  0  0  0  0
    5.6901  -13.4827   -4.1595 H   0  0  0  0  0
    5.0848  -14.9173   -5.0236 H   0  0  0  0  0
    4.0280  -14.0565   -3.8776 H   0  0  0  0  0
    2.9239  -16.0696    0.7468 H   0  0  0  0  0
    0.2059  -16.1613   -0.1907 H   0  0  0  0  0
    1.2836  -14.2676    1.9332 H   0  0  0  0  0
   -1.0997  -14.0088    1.3161 H   0  0  0  0  0
   -1.3625  -15.7474    1.5979 H   0  0  0  0  0
   -0.9345  -14.6798    2.9573 H   0  0  0  0  0
    0.5690  -17.2283    2.1566 H   0  0  0  0  0
    2.2085  -16.5436    2.2757 H   0  0  0  0  0
    0.9902  -16.1578    3.5159 H   0  0  0  0  0
   -0.6490  -14.9783   -1.8404 H   0  0  0  0  0
    0.2033  -12.0629   -1.9865 H   0  0  0  0  0
    1.1977  -13.5740   -3.7917 H   0  0  0  0  0
    1.2150  -11.7642   -5.1799 H   0  0  0  0  0
    0.2834  -10.9790   -3.8708 H   0  0  0  0  0
   -0.7396  -15.0560   -4.1000 H   0  0  0  0  0
   -1.7073  -13.6835   -4.6926 H   0  0  0  0  0
   -0.3040  -14.2537   -5.6289 H   0  0  0  0  0
   -0.8946  -12.4392   -6.2711 H   0  0  0  0  0
   -1.8222  -11.6573   -4.9675 H   0  0  0  0  0
   -0.8203  -10.6723   -6.0616 H   0  0  0  0  0
   -1.3995  -10.6231   -2.9394 H   0  0  0  0  0
   -4.2081  -11.7609   -2.8296 H   0  0  0  0  0
   -3.7320  -10.6210   -0.6837 H   0  0  0  0  0
   -3.2609   -9.1501   -1.5701 H   0  0  0  0  0
   -4.9449   -9.7260   -1.6318 H   0  0  0  0  0
   -5.7099   -9.6747   -3.5885 H   0  0  0  0  0
   -5.8597   -9.2814   -6.1744 H   0  0  0  0  0
   -4.2711   -8.4906   -5.9792 H   0  0  0  0  0
   -5.5345   -6.6355   -6.9385 H   0  0  0  0  0
   -6.8446   -5.0907   -4.6712 H   0  0  0  0  0
   -5.9689   -3.6922   -7.1505 H   0  0  0  0  0
   -4.6605   -4.4074   -6.1718 H   0  0  0  0  0
   -6.8322   -1.2284   -4.6518 H   0  0  0  0  0
   -7.4218   -2.1009   -6.0704 H   0  0  0  0  0
  -10.4271   -5.7106   -7.3716 H   0  0  0  0  0
  -11.6784   -6.4244   -5.4521 H   0  0  0  0  0
  -12.3434   -4.8595   -5.5740 H   0  0  0  0  0
  -10.9968   -5.5709   -3.3023 H   0  0  0  0  0
  -10.8798   -3.9245   -3.8884 H   0  0  0  0  0
   -8.5302   -4.4135   -3.8923 H   0  0  0  0  0
   -8.7639   -6.0933   -3.9836 H   0  0  0  0  0
   -9.7942   -2.7466   -5.4727 H   0  0  0  0  0
  -11.5409   -1.1617   -7.2378 H   0  0  0  0  0
  -11.0556   -0.4789   -4.8921 H   0  0  0  0  0
   -9.3307   -0.3045   -5.2988 H   0  0  0  0  0
  -10.5328    0.7863   -6.0310 H   0  0  0  0  0
   -8.5976   -2.5986   -7.9290 H   0  0  0  0  0
   -7.2022   -0.3839   -9.2136 H   0  0  0  0  0
   -7.1716   -3.3488   -9.9357 H   0  0  0  0  0
   -6.1540   -2.5860   -8.6817 H   0  0  0  0  0
   -5.0212   -0.2621   -9.6473 H   0  0  0  0  0
   -6.0828   -3.7563  -11.9388 H   0  0  0  0  0
   -3.3509    0.3689  -11.3814 H   0  0  0  0  0
   -4.4129   -3.1246  -13.6749 H   0  0  0  0  0
   -4.5641   -2.3933  -15.1109 H   0  0  0  0  0
   -5.2339   -0.0108  -14.3877 H   0  0  0  0  0
   -9.8730   -2.4568  -10.2019 H   0  0  0  0  0
  -11.3374   -2.2108  -12.0296 H   0  0  0  0  0
  -11.4412   -0.1777  -13.2719 H   0  0  0  0  0
   -9.7396    0.2125  -12.9191 H   0  0  0  0  0
  -10.2246    0.6106  -10.5961 H   0  0  0  0  0
  -11.8616   -0.0712  -10.7563 H   0  0  0  0  0
  -10.8054    2.4969  -12.0153 H   0  0  0  0  0
  -12.0536    2.3522  -10.7545 H   0  0  0  0  0
  -13.3854    1.0195  -12.5982 H   0  0  0  0  0
  -11.8171    2.9413  -15.5125 H   0  0  0  0  0
  -11.1685    1.5394  -14.6550 H   0  0  0  0  0
  -14.1522    3.6955  -13.0233 H   0  0  0  0  0
   -8.4653   -0.8297  -13.7253 H   0  0  0  0  0
   -7.3182   -1.7352  -15.5932 H   0  0  0  0  0
   -7.2027   -3.6197  -13.5382 H   0  0  0  0  0
   -6.2518   -3.6622  -15.0403 H   0  0  0  0  0
   -7.4668   -5.6074  -14.7018 H   0  0  0  0  0
   -7.7188   -3.7580  -16.9995 H   0  0  0  0  0
  1  2  1  0  0  0
  2  3  1  0  0  0
  2  5  1  0  0  0
  3  4  2  0  0  0
  3  9  1  0  0  0
  5  6  1  0  0  0
  6  7  1  0  0  0
  6  8  1  0  0  0
  9 10  1  0  0  0
 10 11  1  0  0  0
 10 13  1  0  0  0
 11 12  2  0  0  0
 11 16  1  0  0  0
 13 14  1  0  0  0
 13 15  1  0  0  0
 16 17  1  0  0  0
 17 18  1  0  0  0
 17 20  1  0  0  0
 18 19  2  0  0  0
 18 24  1  0  0  0
 20 21  1  0  0  0
 20 22  1  0  0  0
 21 23  1  0  0  0
 24 25  1  0  0  0
 25 26  1  0  0  0
 25 28  1  0  0  0
 26 27  2  0  0  0
 26 29  1  0  0  0
 29 30  1  0  0  0
 30 31  1  0  0  0
 31 32  2  0  0  0
 31 33  1  0  0  0
 33 34  1  0  0  0
 34 35  1  0  0  0
 34 37  1  0  0  0
 35 36  2  0  0  0
 35 41  1  0  0  0
 37 38  1  0  0  0
 38 39  2  0  0  0
 38 40  1  0  0  0
 41 42  1  0  0  0
 41 47  1  0  0  0
 42 43  1  0  0  0
 42 45  1  0  0  0
 43 44  2  0  0  0
 43 48  1  0  0  0
 45 46  1  0  0  0
 46 47  1  0  0  0
 48 49  1  0  0  0
 49 50  1  0  0  0
 49 52  1  0  0  0
 50 51  2  0  0  0
 50 53  1  0  0  0
 53 54  1  0  0  0
 54 55  1  0  0  0
 54 57  1  0  0  0
 55 56  2  0  0  0
 55 69  1  0  0  0
 57 58  1  0  0  0
 58 59  4  0  0  0
 58 60  4  0  0  0
 59 61  4  0  0  0
 60 62  4  0  0  0
 61 63  4  0  0  0
 62 63  4  0  0  0
 63 64  1  0  0  0
 64 65  1  0  0  0
 65 66  1  0  0  0
 65 67  2  0  0  0
 65 68  1  0  0  0
 69 70  1  0  0  0
 70 71  1  0  0  0
 70 73  1  0  0  0
 71 72  2  0  0  0
 71 80  1  0  0  0
 73 74  1  0  0  0
 74 75  1  0  0  0
 75 76  1  0  0  0
 76 77  1  0  0  0
 77 78  1  0  0  0
 77 79  2  0  0  0
 80 81  1  0  0  0
 81 82  1  0  0  0
 81 84  1  0  0  0
 82 83  2  0  0  0
 82 86  1  0  0  0
 84 85  1  0  0  0
  1 87  1  0  0  0
  1 88  1  0  0  0
  1 89  1  0  0  0
  2 90  1  0  0  0
  5 91  1  0  0  0
  5 92  1  0  0  0
  6 93  1  0  0  0
  7 94  1  0  0  0
  7 95  1  0  0  0
  7 96  1  0  0  0
  8 97  1  0  0  0
  8 98  1  0  0  0
  8 99  1  0  0  0
  9100  1  0  0  0
 10101  1  0  0  0
 13102  1  0  0  0
 14103  1  0  0  0
 14104  1  0  0  0
 14105  1  0  0  0
 15106  1  0  0  0
 15107  1  0  0  0
 15108  1  0  0  0
 16109  1  0  0  0
 17110  1  0  0  0
 20111  1  0  0  0
 21112  1  0  0  0
 21113  1  0  0  0
 22114  1  0  0  0
 22115  1  0  0  0
 22116  1  0  0  0
 23117  1  0  0  0
 23118  1  0  0  0
 23119  1  0  0  0
 24120  1  0  0  0
 25121  1  0  0  0
 28122  1  0  0  0
 28123  1  0  0  0
 28124  1  0  0  0
 29125  1  0  0  0
 30126  1  0  0  0
 30127  1  0  0  0
 33128  1  0  0  0
 34129  1  0  0  0
 37130  1  0  0  0
 37131  1  0  0  0
 40132  1  0  0  0
 40133  1  0  0  0
 42134  1  0  0  0
 45135  1  0  0  0
 45136  1  0  0  0
 46137  1  0  0  0
 46138  1  0  0  0
 47139  1  0  0  0
 47140  1  0  0  0
 48141  1  0  0  0
 49142  1  0  0  0
 52143  1  0  0  0
 52144  1  0  0  0
 52145  1  0  0  0
 53146  1  0  0  0
 54147  1  0  0  0
 57148  1  0  0  0
 57149  1  0  0  0
 59150  1  0  0  0
 60151  1  0  0  0
 61152  1  0  0  0
 62153  1  0  0  0
 66154  1  0  0  0
 68155  1  0  0  0
 69156  1  0  0  0
 70157  1  0  0  0
 73158  1  0  0  0
 73159  1  0  0  0
 74160  1  0  0  0
 74161  1  0  0  0
 75162  1  0  0  0
 75163  1  0  0  0
 76164  1  0  0  0
 78165  1  0  0  0
 78166  1  0  0  0
 79167  1  0  0  0
 80168  1  0  0  0
 81169  1  0  0  0
 84170  1  0  0  0
 84171  1  0  0  0
 85172  1  0  0  0
 86173  1  0  0  0
M  END
$$$$
