### 
### Created by X-TOOL on Mon Sep 10 21:12:46 2018
### 

@<TRIPOS>MOLECULE
1irs_ligand
  171   172     1     0     0
SMALL
GAST_HUCK


@<TRIPOS>ATOM
      1 N           4.2450  -18.1010   -1.0160 N.4       1 LEU         0.2379
      2 CA          4.1870  -16.6610   -1.3980 C.3       1 LEU         0.0652
      3 C           2.7500  -16.1540   -1.2610 C.2       1 LEU         0.2267
      4 O           2.0420  -15.9780   -2.2330 O.2       1 LEU        -0.3907
      5 CB          4.6630  -16.4980   -2.8450 C.3       1 LEU         0.0102
      6 CG          5.5550  -15.2600   -2.9490 C.3       1 LEU        -0.0394
      7 CD1         6.9930  -15.6920   -3.2390 C.3       1 LEU        -0.0623
      8 CD2         5.0530  -14.3640   -4.0850 C.3       1 LEU        -0.0623
      9 N           2.3140  -15.9150   -0.0560 N.am      1 VAL        -0.2608
     10 CA          0.9250  -15.4160    0.1490 C.3       1 VAL         0.1334
     11 C           0.7400  -14.1230   -0.6480 C.2       1 VAL         0.2042
     12 O           1.3780  -13.1240   -0.3800 O.2       1 VAL        -0.3944
     13 CB          0.7020  -15.1410    1.6380 C.3       1 VAL        -0.0063
     14 CG1        -0.7810  -14.8750    1.8960 C.3       1 VAL        -0.0584
     15 CG2         1.1500  -16.3560    2.4560 C.3       1 VAL        -0.0584
     16 N          -0.1220  -14.1310   -1.6290 N.am      1 ILE        -0.2635
     17 CA         -0.3330  -12.8970   -2.4390 C.3       1 ILE         0.1335
     18 C          -1.8230  -12.5420   -2.4770 C.2       1 ILE         0.2041
     19 O          -2.6790  -13.3760   -2.2570 O.2       1 ILE        -0.3944
     20 CB          0.2040  -13.1310   -3.8580 C.3       1 ILE        -0.0037
     21 CG1         0.2930  -11.7900   -4.5990 C.3       1 ILE        -0.0491
     22 CG2        -0.7030  -14.1020   -4.6260 C.3       1 ILE        -0.0582
     23 CD1        -0.8970  -11.6280   -5.5430 C.3       1 ILE        -0.0648
     24 N          -2.1370  -11.3040   -2.7580 N.am      1 ALA        -0.2640
     25 CA         -3.5650  -10.8810   -2.8150 C.3       1 ALA         0.1282
     26 C          -3.7880  -10.0520   -4.0820 C.2       1 ALA         0.2034
     27 O          -2.8960   -9.8850   -4.8860 O.2       1 ALA        -0.3944
     28 CB         -3.9000  -10.0330   -1.5860 C.3       1 ALA        -0.0244
     29 N          -4.9670   -9.5290   -4.2720 N.am      1 GLY        -0.2664
     30 CA         -5.2210   -8.7170   -5.4950 C.3       1 GLY         0.1201
     31 C          -5.9180   -7.4100   -5.1180 C.2       1 GLY         0.2009
     32 O          -6.4130   -7.2500   -4.0200 O.2       1 GLY        -0.3947
     33 N          -5.9590   -6.4750   -6.0250 N.am      1 ASN        -0.2618
     34 CA         -6.6220   -5.1740   -5.7350 C.3       1 ASN         0.1478
     35 C          -7.9300   -5.0900   -6.5470 C.2       1 ASN         0.2088
     36 O          -7.8840   -5.0350   -7.7600 O.2       1 ASN        -0.3940
     37 CB         -5.6870   -4.0410   -6.1570 C.3       1 ASN         0.0773
     38 CG         -5.7960   -2.8830   -5.1650 C.2       1 ASN         0.1780
     39 OD1        -4.9990   -2.7720   -4.2550 O.2       1 ASN        -0.3970
     40 ND2        -6.7530   -2.0070   -5.3060 N.am      1 ASN        -0.3007
     41 N          -9.0600   -5.0910   -5.8700 N.am      1 PRO        -0.2497
     42 CA        -10.3760   -5.0260   -6.5250 C.3       1 PRO         0.1338
     43 C         -10.6530   -3.6210   -7.0770 C.2       1 PRO         0.2041
     44 O         -11.2200   -3.4660   -8.1400 O.2       1 PRO        -0.3944
     45 CB        -11.3910   -5.3730   -5.4420 C.3       1 PRO        -0.0104
     46 CG        -10.6620   -4.9620   -4.1420 C.3       1 PRO        -0.0281
     47 CD         -9.1480   -5.1590   -4.3930 C.3       1 PRO         0.0369
     48 N         -10.2690   -2.5970   -6.3630 N.am      1 ALA        -0.2640
     49 CA        -10.5240   -1.2060   -6.8480 C.3       1 ALA         0.1282
     50 C          -9.5560   -0.8170   -7.9800 C.2       1 ALA         0.2038
     51 O          -9.6280    0.2780   -8.5000 O.2       1 ALA        -0.3944
     52 CB        -10.3480   -0.2300   -5.6830 C.3       1 ALA        -0.0244
     53 N          -8.6530   -1.6810   -8.3710 N.am      1 PTR        -0.2607
     54 CA         -7.7030   -1.3180   -9.4680 C.3       1 PTR         0.1468
     55 C          -8.4670   -1.1350  -10.7840 C.2       1 PTR         0.2074
     56 O          -8.0630   -0.3750  -11.6380 O.2       1 PTR        -0.3941
     57 CB         -6.6670   -2.4320   -9.6310 C.3       1 PTR         0.0400
     58 CG         -5.6560   -2.0480  -10.6850 C.ar      1 PTR        -0.0004
     59 CD1        -4.8880   -0.8890  -10.5290 C.ar      1 PTR        -0.0239
     60 CD2        -5.4850   -2.8530  -11.8170 C.ar      1 PTR        -0.0239
     61 CE1        -3.9490   -0.5340  -11.5040 C.ar      1 PTR         0.0115
     62 CE2        -4.5460   -2.4980  -12.7930 C.ar      1 PTR         0.0115
     63 CZ         -3.7780   -1.3380  -12.6360 C.ar      1 PTR         0.1728
     64 OH         -2.8370   -0.9830  -13.6110 O.3       1 PTR        -0.2040
     65 P          -3.3470   -0.7110  -15.0590 P.3       1 PTR         0.1348
     66 O1P        -3.7830   -2.1020  -15.5870 O.co2     1 PTR        -0.6653
     67 O2P        -2.0860   -0.2520  -15.8350 O.co2     1 PTR        -0.6653
     68 O3P        -4.5060    0.3770  -14.8790 O.co2     1 PTR        -0.6653
     69 N          -9.5660   -1.8280  -10.9440 N.am      1 ARG        -0.2635
     70 CA        -10.3800   -1.7160  -12.1930 C.3       1 ARG         0.1311
     71 C          -9.6670   -2.4170  -13.3640 C.2       1 ARG         0.2034
     72 O          -9.9780   -3.5450  -13.6890 O.2       1 ARG        -0.3944
     73 CB        -10.6490   -0.2420  -12.5260 C.3       1 ARG        -0.0092
     74 CG        -11.0810    0.4980  -11.2610 C.3       1 ARG        -0.0156
     75 CD        -11.6200    1.8800  -11.6360 C.3       1 ARG         0.0627
     76 NE        -12.6660    1.7370  -12.6880 N.pl3     1 ARG        -0.2723
     77 CZ        -12.6610    2.5310  -13.7250 C.cat     1 ARG         0.2882
     78 NH1       -11.8210    2.3220  -14.7020 N.pl3     1 ARG        -0.2849
     79 NH2       -13.4950    3.5320  -13.7860 N.pl3     1 ARG        -0.2849
     80 N          -8.7210   -1.7770  -14.0040 N.am      1 SER        -0.2672
     81 CA         -8.0190   -2.4370  -15.1410 C.3       1 SER         0.1173
     82 C          -9.0430   -2.8770  -16.1890 C.2       1 SER         0.0623
     83 O         -10.1940   -2.4970  -16.0590 O.co2     1 SER        -0.5665
     84 CB         -7.2600   -3.6580  -14.6260 C.3       1 SER         0.0789
     85 OG         -7.9430   -4.8390  -15.0250 O.3       1 SER        -0.3910
     86 OXT        -8.6580   -3.5880  -17.1020 O.co2     1 SER        -0.5665
     87 H1          5.1919  -18.4347   -1.1064 H         1 LEU         0.2015
     88 H2          3.6416  -18.6341   -1.6224 H         1 LEU         0.2015
     89 H3          3.9409  -18.2078   -0.0609 H         1 LEU         0.2015
     90 H4          4.8422  -16.0800   -0.7323 H         1 LEU         0.1098
     91 H5          3.7924  -16.3798   -3.5068 H         1 LEU         0.0348
     92 H6          5.2343  -17.3885   -3.1461 H         1 LEU         0.0348
     93 H7          5.5228  -14.7034   -2.0008 H         1 LEU         0.0299
     94 H8          7.6351  -14.8020   -3.3139 H         1 LEU         0.0232
     95 H9          7.0247  -16.2479   -4.1877 H         1 LEU         0.0232
     96 H10         7.3536  -16.3367   -2.4240 H         1 LEU         0.0232
     97 H11         4.0186  -14.0530   -3.8769 H         1 LEU         0.0232
     98 H12         5.0846  -14.9213   -5.0328 H         1 LEU         0.0232
     99 H13         5.6951  -13.4741   -4.1612 H         1 LEU         0.0232
    100 H14         2.9119  -16.0666    0.7311 H         1 VAL         0.1885
    101 H15         0.2041  -16.1708   -0.1983 H         1 VAL         0.0802
    102 H16         1.2891  -14.2607    1.9386 H         1 VAL         0.0343
    103 H17        -0.9372  -14.6779    2.9668 H         1 VAL         0.0234
    104 H18        -1.3690  -15.7547    1.5956 H         1 VAL         0.0234
    105 H19        -1.1039  -14.0010    1.3114 H         1 VAL         0.0234
    106 H20         2.2171  -16.5489    2.2715 H         1 VAL         0.0234
    107 H21         0.5614  -17.2361    2.1577 H         1 VAL         0.0234
    108 H22         0.9933  -16.1556    3.5262 H         1 VAL         0.0234
    109 H23        -0.6387  -14.9617   -1.8362 H         1 ILE         0.1883
    110 H24         0.2192  -12.0642   -1.9791 H         1 ILE         0.0803
    111 H25         1.2109  -13.5684   -3.7894 H         1 ILE         0.0345
    112 H26         1.2256  -11.7581   -5.1815 H         1 ILE         0.0267
    113 H27         0.2898  -10.9694   -3.8665 H         1 ILE         0.0267
    114 H28        -0.7581  -15.0581   -4.0848 H         1 ILE         0.0235
    115 H29        -0.2896  -14.2729   -5.6309 H         1 ILE         0.0235
    116 H30        -1.7114  -13.6711   -4.7127 H         1 ILE         0.0235
    117 H31        -0.8207  -10.6638   -6.0670 H         1 ILE         0.0230
    118 H32        -1.8315  -11.6573   -4.9634 H         1 ILE         0.0230
    119 H33        -0.8957  -12.4460   -6.2784 H         1 ILE         0.0230
    120 H34        -1.4139  -10.6365   -2.9359 H         1 ALA         0.1883
    121 H35        -4.2127  -11.7698   -2.8357 H         1 ALA         0.0797
    122 H36        -4.9543   -9.7225   -1.6311 H         1 ALA         0.0277
    123 H37        -3.2557   -9.1416   -1.5688 H         1 ALA         0.0277
    124 H38        -3.7309  -10.6253   -0.6746 H         1 ALA         0.0277
    125 H39        -5.6954   -9.6718   -3.6019 H         1 GLY         0.1881
    126 H40        -5.8622   -9.2864   -6.1839 H         1 GLY         0.0763
    127 H41        -4.2638   -8.4907   -5.9875 H         1 GLY         0.0763
    128 H42        -5.5429   -6.6323   -6.9206 H         1 ASN         0.1885
    129 H43        -6.8434   -5.0956   -4.6604 H         1 ASN         0.0826
    130 H44        -5.9686   -3.6898   -7.1606 H         1 ASN         0.0551
    131 H45        -4.6509   -4.4101   -6.1750 H         1 ASN         0.0551
    132 H46        -6.8329   -1.2458   -4.6624 H         1 ASN         0.1814
    133 H47        -7.4064   -2.0969   -6.0577 H         1 ASN         0.1814
    134 H48       -10.4273   -5.7557   -7.3465 H         1 PRO         0.0802
    135 H49       -11.6200   -6.4489   -5.4442 H         1 PRO         0.0313
    136 H50       -12.3208   -4.7999   -5.5726 H         1 PRO         0.0313
    137 H51       -10.9924   -5.5965   -3.3064 H         1 PRO         0.0287
    138 H52       -10.8723   -3.9081   -3.9076 H         1 PRO         0.0287
    139 H53        -8.5589   -4.3584   -3.9218 H         1 PRO         0.0524
    140 H54        -8.8061   -6.1350   -4.0183 H         1 PRO         0.0524
    141 H55        -9.8035   -2.7437   -5.4902 H         1 ALA         0.1883
    142 H56       -11.5558   -1.1433   -7.2241 H         1 ALA         0.0797
    143 H57       -10.5343    0.7961   -6.0330 H         1 ALA         0.0277
    144 H58        -9.3216   -0.3042   -5.2944 H         1 ALA         0.0277
    145 H59       -11.0616   -0.4801   -4.8841 H         1 ALA         0.0277
    146 H60        -8.5987   -2.5806   -7.9376 H         1 PTR         0.1886
    147 H61        -7.1922   -0.3784   -9.2107 H         1 PTR         0.0840
    148 H62        -7.1744   -3.3597   -9.9341 H         1 PTR         0.0584
    149 H63        -6.1510   -2.5925   -8.6729 H         1 PTR         0.0584
    150 H64        -5.0204   -0.2655   -9.6522 H         1 PTR         0.0703
    151 H65        -6.0795   -3.7513  -11.9381 H         1 PTR         0.0703
    152 H66        -3.3541    0.3640  -11.3821 H         1 PTR         0.0736
    153 H67        -4.4137   -3.1212  -13.6700 H         1 PTR         0.0736
    154 H68        -9.8670   -2.4445  -10.2164 H         1 ARG         0.1883
    155 H69       -11.3455   -2.2158  -12.0253 H         1 ARG         0.0800
    156 H70       -11.4479   -0.1766  -13.2793 H         1 ARG         0.0313
    157 H71        -9.7317    0.2170  -12.9235 H         1 ARG         0.0313
    158 H72       -10.2170    0.6115  -10.5897 H         1 ARG         0.0301
    159 H73       -11.8685   -0.0765  -10.7513 H         1 ARG         0.0301
    160 H74       -10.7979    2.5027  -12.0187 H         1 ARG         0.0689
    161 H75       -12.0576    2.3566  -10.7464 H         1 ARG         0.0689
    162 H76       -13.3924    1.0124  -12.5973 H         1 ARG         0.2642
    163 H77       -11.8165    2.9478  -15.5201 H         1 ARG         0.2615
    164 H78       -11.1626    1.5313  -14.6549 H         1 ARG         0.2615
    165 H79       -14.1581    3.6975  -13.0154 H         1 ARG         0.2615
    166 H80       -13.4905    4.1569  -14.6047 H         1 ARG         0.2615
    167 H81        -8.4703   -0.8483  -13.7308 H         1 SER         0.1876
    168 H82        -7.3104   -1.7290  -15.5956 H         1 SER         0.0749
    169 H83        -7.2037   -3.6194  -13.5281 H         1 SER         0.0599
    170 H84        -6.2431   -3.6623  -15.0454 H         1 SER         0.0599
    171 H85        -7.9911   -4.8706  -15.9733 H         1 SER         0.2096
@<TRIPOS>BOND
     1    1    2 1  
     2    2    3 1  
     3    2    5 1  
     4    3    4 2  
     5    3    9 am 
     6    5    6 1  
     7    6    7 1  
     8    6    8 1  
     9    9   10 1  
    10   10   11 1  
    11   10   13 1  
    12   11   12 2  
    13   11   16 am 
    14   13   14 1  
    15   13   15 1  
    16   16   17 1  
    17   17   18 1  
    18   17   20 1  
    19   18   19 2  
    20   18   24 am 
    21   20   21 1  
    22   20   22 1  
    23   21   23 1  
    24   24   25 1  
    25   25   26 1  
    26   25   28 1  
    27   26   27 2  
    28   26   29 am 
    29   29   30 1  
    30   30   31 1  
    31   31   32 2  
    32   31   33 am 
    33   33   34 1  
    34   34   35 1  
    35   34   37 1  
    36   35   36 2  
    37   35   41 am 
    38   37   38 1  
    39   38   39 2  
    40   38   40 am 
    41   41   42 1  
    42   41   47 1  
    43   42   43 1  
    44   42   45 1  
    45   43   44 2  
    46   43   48 am 
    47   45   46 1  
    48   46   47 1  
    49   48   49 1  
    50   49   50 1  
    51   49   52 1  
    52   50   51 2  
    53   50   53 am 
    54   53   54 1  
    55   54   55 1  
    56   54   57 1  
    57   55   56 2  
    58   55   69 am 
    59   57   58 1  
    60   58   59 ar 
    61   58   60 ar 
    62   59   61 ar 
    63   60   62 ar 
    64   61   63 ar 
    65   62   63 ar 
    66   63   64 1  
    67   64   65 1  
    68   65   66 ar 
    69   65   67 ar 
    70   65   68 ar 
    71   69   70 1  
    72   70   71 1  
    73   70   73 1  
    74   71   72 2  
    75   71   80 am 
    76   73   74 1  
    77   74   75 1  
    78   75   76 1  
    79   76   77 ar 
    80   77   78 ar 
    81   77   79 ar 
    82   80   81 1  
    83   81   82 1  
    84   81   84 1  
    85   82   83 ar 
    86   82   86 ar 
    87   84   85 1  
    88    1   87 1  
    89    1   88 1  
    90    1   89 1  
    91    2   90 1  
    92    5   91 1  
    93    5   92 1  
    94    6   93 1  
    95    7   94 1  
    96    7   95 1  
    97    7   96 1  
    98    8   97 1  
    99    8   98 1  
   100    8   99 1  
   101    9  100 1  
   102   10  101 1  
   103   13  102 1  
   104   14  103 1  
   105   14  104 1  
   106   14  105 1  
   107   15  106 1  
   108   15  107 1  
   109   15  108 1  
   110   16  109 1  
   111   17  110 1  
   112   20  111 1  
   113   21  112 1  
   114   21  113 1  
   115   22  114 1  
   116   22  115 1  
   117   22  116 1  
   118   23  117 1  
   119   23  118 1  
   120   23  119 1  
   121   24  120 1  
   122   25  121 1  
   123   28  122 1  
   124   28  123 1  
   125   28  124 1  
   126   29  125 1  
   127   30  126 1  
   128   30  127 1  
   129   33  128 1  
   130   34  129 1  
   131   37  130 1  
   132   37  131 1  
   133   40  132 1  
   134   40  133 1  
   135   42  134 1  
   136   45  135 1  
   137   45  136 1  
   138   46  137 1  
   139   46  138 1  
   140   47  139 1  
   141   47  140 1  
   142   48  141 1  
   143   49  142 1  
   144   52  143 1  
   145   52  144 1  
   146   52  145 1  
   147   53  146 1  
   148   54  147 1  
   149   57  148 1  
   150   57  149 1  
   151   59  150 1  
   152   60  151 1  
   153   61  152 1  
   154   62  153 1  
   155   69  154 1  
   156   70  155 1  
   157   73  156 1  
   158   73  157 1  
   159   74  158 1  
   160   74  159 1  
   161   75  160 1  
   162   75  161 1  
   163   76  162 1  
   164   78  163 1  
   165   78  164 1  
   166   79  165 1  
   167   79  166 1  
   168   80  167 1  
   169   81  168 1  
   170   84  169 1  
   171   84  170 1  
   172   85  171 1  
@<TRIPOS>SUBSTRUCTURE
     1 LEU         1

