3tll_ligand
  -I-interpret- 

 32 34  0  0  0  0  0  0  0  0999 V2000
   17.5470   17.5420   17.3130 N   0  0  0  0  0
   19.5340   18.1670   17.9430 N   0  0  0  0  0
   18.8410   18.0110   16.8850 C   0  0  0  0  0
   18.2510   17.9700   14.5420 C   0  0  0  0  0
   18.8250   17.8400   19.1360 C   0  0  0  0  0
   19.1840   17.8660   20.4440 C   0  0  0  0  0
   18.1170   17.4510   21.4030 C   0  0  0  0  0
   16.0980   16.6700   23.1160 C   0  0  0  0  0
   16.8010   17.0430   20.8620 C   0  0  0  0  0
   16.4930   17.0070   19.5400 C   0  0  0  0  0
   17.5260   17.4310   18.6210 C   0  0  0  0  0
   19.1530   18.2310   15.6410 N   0  0  0  0  0
   18.2580   17.4530   22.7500 C   0  0  0  0  0
   19.3710   17.8760   23.3190 O   0  0  0  0  0
   17.2680   17.1280   23.5770 N   0  0  0  0  0
   15.1750   16.3130   23.9690 N   0  0  0  0  0
   13.8360   15.8110   23.6820 C   0  0  0  0  0
   15.8430   16.6250   21.8390 N   0  0  0  0  0
   13.8340   14.2760   23.8680 C   0  0  0  0  0
   17.9887   16.9121   14.5323 H   0  0  0  0  0
   17.3482   18.5684   14.6646 H   0  0  0  0  0
   18.7383   18.2334   13.6033 H   0  0  0  0  0
   20.1789   18.1679   20.7712 H   0  0  0  0  0
   15.5159   16.6751   19.1890 H   0  0  0  0  0
   20.0783   18.6055   15.4313 H   0  0  0  0  0
   15.4207   16.3954   24.9555 H   0  0  0  0  0
   13.5575   16.0611   22.6583 H   0  0  0  0  0
   13.1152   16.2679   24.3601 H   0  0  0  0  0
   14.9345   16.2820   21.5270 H   0  0  0  0  0
   14.5537   13.8274   23.1833 H   0  0  0  0  0
   14.1089   14.0354   24.8950 H   0  0  0  0  0
   12.8380   13.8870   23.6564 H   0  0  0  0  0
  1  3  4  0  0  0
 11  1  4  0  0  0
  2  3  4  0  0  0
  5  2  4  0  0  0
  3 12  1  0  0  0
 12  4  1  0  0  0
  6  5  4  0  0  0
  5 11  4  0  0  0
  7  6  4  0  0  0
  9  7  4  0  0  0
  7 13  1  0  0  0
  8 15  4  0  0  0
  8 16  1  0  0  0
 18  8  1  0  0  0
  9 10  4  0  0  0
  9 18  1  0  0  0
 10 11  4  0  0  0
 13 14  2  0  0  0
 13 15  1  0  0  0
 16 17  1  0  0  0
 17 19  1  0  0  0
  4 20  1  0  0  0
  4 21  1  0  0  0
  4 22  1  0  0  0
  6 23  1  0  0  0
 10 24  1  0  0  0
 12 25  1  0  0  0
 16 26  1  0  0  0
 17 27  1  0  0  0
 17 28  1  0  0  0
 18 29  1  0  0  0
 19 30  1  0  0  0
 19 31  1  0  0  0
 19 32  1  0  0  0
M  END
$$$$
