### 
### Created by X-TOOL on Mon Sep 10 21:13:03 2018
### 

@<TRIPOS>MOLECULE
3m56_ligand
  114   113     1     0     0
SMALL
GAST_HUCK


@<TRIPOS>ATOM
      1 C          49.5300   -4.3250  -19.9140 C.2       1 ACE         0.1752
      2 O          49.9320   -3.5320  -19.0590 O.2       1 ACE        -0.3972
      3 CH3        49.9660   -4.2170  -21.3560 C.3       1 ACE         0.0258
      4 N          48.3660   -4.9230  -19.7660 N.am      1 SER        -0.2637
      5 CA         47.7660   -4.9920  -18.4450 C.3       1 SER         0.1538
      6 C          48.5860   -5.9350  -17.5690 C.2       1 SER         0.2062
      7 O          49.0860   -6.9430  -18.0500 O.2       1 SER        -0.3943
      8 CB         46.3170   -5.4590  -18.5560 C.3       1 SER         0.0843
      9 OG         45.4240   -4.3650  -18.3970 O.3       1 SER        -0.3903
     10 N          48.7280   -5.6120  -16.2820 N.am      1 LYS        -0.2637
     11 CA         49.5420   -6.4370  -15.3970 C.3       1 LYS         0.1310
     12 C          48.6730   -7.4380  -14.6490 C.2       1 LYS         0.2040
     13 O          48.6150   -7.4520  -13.4130 O.2       1 LYS        -0.3944
     14 CB         50.3550   -5.5820  -14.4270 C.3       1 LYS        -0.0122
     15 CG         51.2240   -4.5320  -15.1360 C.3       1 LYS        -0.0440
     16 CD         52.1220   -3.8030  -14.1430 C.3       1 LYS        -0.0124
     17 CE         52.8390   -2.6260  -14.8160 C.3       1 LYS        -0.0354
     18 NZ         53.8030   -2.0010  -13.8650 N.4       1 LYS         0.2185
     19 N          48.0160   -8.2920  -15.4260 N.am      1 SER        -0.2616
     20 CA         47.2150   -9.3810  -14.8640 C.3       1 SER         0.1539
     21 C          47.1220  -10.5400  -15.8480 C.2       1 SER         0.2062
     22 O          47.3480  -10.3640  -17.0470 O.2       1 SER        -0.3943
     23 CB         45.8350   -8.8810  -14.5370 C.3       1 SER         0.0843
     24 OG         45.2590   -8.2830  -15.6640 O.3       1 SER        -0.3903
     25 N          46.8130  -11.7230  -15.3310 N.am      1 MLY        -0.2637
     26 CA         46.6850  -12.9280  -16.1540 C.3       1 MLY         0.1310
     27 CB         46.5320  -14.1540  -15.2650 C.3       1 MLY        -0.0125
     28 CG         47.7420  -14.5520  -14.4330 C.3       1 MLY        -0.0507
     29 CD         47.2860  -15.4430  -13.2770 C.3       1 MLY        -0.0716
     30 CE         48.4100  -15.6940  -12.2890 C.3       1 MLY        -0.1138
     31 NZ         47.9340  -16.5560  -11.1990 N.4       1 MLY         0.3986
     32 CH1        47.6490  -17.9400  -11.6570 C.3       1 MLY        -0.1260
     33 CH2        48.8910  -16.6750  -10.1130 C.3       1 MLY        -0.1260
     34 C          45.4900  -12.8690  -17.0730 C.2       1 MLY         0.2040
     35 O          44.4770  -12.2380  -16.7840 O.2       1 MLY        -0.3944
     36 N          45.6140  -13.5030  -18.2320 N.am      1 ASP        -0.2622
     37 CA         44.4490  -13.8870  -19.0190 C.3       1 ASP         0.1423
     38 C          43.5600  -12.7220  -19.4980 C.2       1 ASP         0.2050
     39 O          42.3490  -12.8850  -19.6550 O.2       1 ASP        -0.3943
     40 CB         43.6220  -14.9440  -18.2300 C.3       1 ASP         0.0406
     41 CG         42.6450  -15.7350  -19.1140 C.2       1 ASP         0.0393
     42 OD1        43.0880  -16.2890  -20.1390 O.co2     1 ASP        -0.5688
     43 OD2        41.4290  -15.7810  -18.7990 O.co2     1 ASP        -0.5688
     44 N          44.1200  -11.5430  -19.7550 N.am      1 ARG        -0.2694
     45 CA         43.2410  -10.4960  -20.2870 C.3       1 ARG         0.0945
     46 C          42.8720  -10.7890  -21.7410 C.2       1 ARG         0.0601
     47 O          43.7186  -11.3221  -22.5069 O.co2     1 ARG        -0.5666
     48 CB         43.8450   -9.0880  -20.1790 C.3       1 ARG        -0.0148
     49 CG         42.8610   -8.0560  -20.7220 C.3       1 ARG        -0.0162
     50 CD         43.2360   -6.6180  -20.4430 C.3       1 ARG         0.0627
     51 NE         42.0520   -5.7640  -20.5680 N.pl3     1 ARG        -0.2723
     52 CZ         41.9840   -4.4970  -20.1500 C.cat     1 ARG         0.2882
     53 NH1        43.0400   -3.9120  -19.5830 N.pl3     1 ARG        -0.2849
     54 NH2        40.8570   -3.8040  -20.2960 N.pl3     1 ARG        -0.2849
     55 H          49.6653   -3.2476  -21.7535 H         1 ACE         0.0467
     56 H          51.0500   -4.3148  -21.4148 H         1 ACE         0.0467
     57 H          49.4962   -5.0109  -21.9367 H         1 ACE         0.0467
     58 H          47.8911   -5.3332  -20.5701 H         1 SER         0.1883
     59 H          47.7647   -4.0039  -17.9848 H         1 SER         0.0823
     60 H          46.1213   -6.1908  -17.7723 H         1 SER         0.0606
     61 H          46.1630   -5.8998  -19.5409 H         1 SER         0.0606
     62 H          45.5574   -3.9674  -17.5335 H         1 SER         0.2097
     63 H          48.2635   -4.7816  -15.9145 H         1 LYS         0.1883
     64 H          50.2497   -6.9917  -16.0131 H         1 LYS         0.0800
     65 H          51.0204   -6.2466  -13.8759 H         1 LYS         0.0312
     66 H          49.6532   -5.0522  -13.7828 H         1 LYS         0.0312
     67 H          50.5700   -3.8035  -15.6153 H         1 LYS         0.0269
     68 H          51.8525   -5.0367  -15.8697 H         1 LYS         0.0269
     69 H          52.8702   -4.5016  -13.7684 H         1 LYS         0.0317
     70 H          51.5063   -3.4197  -13.3293 H         1 LYS         0.0317
     71 H          52.1009   -1.8826  -15.1171 H         1 LYS         0.0813
     72 H          53.3821   -2.9897  -15.6883 H         1 LYS         0.0813
     73 H          54.2732   -1.2204  -14.3233 H         1 LYS         0.1994
     74 H          53.2990   -1.6621  -13.0455 H         1 LYS         0.1994
     75 H          54.4938   -2.6945  -13.5781 H         1 LYS         0.1994
     76 H          48.0709   -8.1864  -16.4390 H         1 SER         0.1884
     77 H          47.6988   -9.7345  -13.9535 H         1 SER         0.0823
     78 H          45.9024   -8.1440  -13.7367 H         1 SER         0.0606
     79 H          45.2158   -9.7212  -14.2227 H         1 SER         0.0606
     80 H          45.8032   -7.5443  -15.9462 H         1 SER         0.2097
     81 H          46.6593  -11.7955  -14.3253 H         1 MLY         0.1883
     82 H          47.5904  -12.9913  -16.7575 H         1 MLY         0.0800
     83 H          46.3428  -14.9904  -15.9379 H         1 MLY         0.0312
     84 H          45.7447  -13.9104  -14.5515 H         1 MLY         0.0312
     85 H          48.2243  -13.6580  -14.0377 H         1 MLY         0.0267
     86 H          48.4517  -15.0960  -15.0563 H         1 MLY         0.0267
     87 H          46.9663  -16.4014  -13.6860 H         1 MLY         0.0246
     88 H          46.4732  -14.9394  -12.7536 H         1 MLY         0.0246
     89 H          48.7442  -14.7426  -11.8752 H         1 MLY         0.0017
     90 H          49.2364  -16.1861  -12.8019 H         1 MLY         0.0017
     91 H          46.8794  -17.9148  -12.4284 H         1 MLY        -0.0019
     92 H          48.5588  -18.3813  -12.0639 H         1 MLY        -0.0019
     93 H          47.3004  -18.5359  -10.8135 H         1 MLY        -0.0019
     94 H          49.8190  -17.1018  -10.4934 H         1 MLY        -0.0019
     95 H          49.0882  -15.6881   -9.6945 H         1 MLY        -0.0019
     96 H          48.4814  -17.3241   -9.3390 H         1 MLY        -0.0019
     97 H          46.5462  -13.7268  -18.5802 H         1 ASP         0.1884
     98 H          44.8365  -14.3144  -19.9438 H         1 ASP         0.0819
     99 H          43.0331  -14.4111  -17.4834 H         1 ASP         0.0478
    100 H          44.3248  -15.6559  -17.7972 H         1 ASP         0.0478
    101 H          45.1125  -11.3751  -19.5901 H         1 ARG         0.1875
    102 H          42.3440  -10.5095  -19.6679 H         1 ARG         0.0726
    103 O          41.7245  -10.4983  -22.1725 O.co2     1 ARG        -0.5666
    104 H          44.7658   -9.0468  -20.7608 H         1 ARG         0.0307
    105 H          44.0558   -8.8671  -19.1326 H         1 ARG         0.0307
    106 H          41.9065   -8.2367  -20.2277 H         1 ARG         0.0301
    107 H          42.8422   -8.1747  -21.8054 H         1 ARG         0.0301
    108 H          43.9903   -6.2961  -21.1610 H         1 ARG         0.0689
    109 H          43.6328   -6.5386  -19.4309 H         1 ARG         0.0689
    110 H          41.2218   -6.1648  -21.0046 H         1 ARG         0.2642
    111 H          43.9093   -4.4325  -19.4653 H         1 ARG         0.2615
    112 H          42.9783   -2.9441  -19.2670 H         1 ARG         0.2615
    113 H          40.0424   -4.2402  -20.7280 H         1 ARG         0.2615
    114 H          40.8080   -2.8368  -19.9759 H         1 ARG         0.2615
@<TRIPOS>BOND
     1    1    2 2  
     2    1    3 1  
     3    1    4 am 
     4    4    5 1  
     5    5    6 1  
     6    5    8 1  
     7    6    7 2  
     8    6   10 am 
     9    8    9 1  
    10   10   11 1  
    11   11   12 1  
    12   11   14 1  
    13   12   13 2  
    14   12   19 am 
    15   14   15 1  
    16   15   16 1  
    17   16   17 1  
    18   17   18 1  
    19   19   20 1  
    20   20   21 1  
    21   20   23 1  
    22   21   22 2  
    23   21   25 am 
    24   23   24 1  
    25   25   26 1  
    26   26   27 1  
    27   26   34 1  
    28   27   28 1  
    29   28   29 1  
    30   29   30 1  
    31   30   31 1  
    32   31   32 1  
    33   31   33 1  
    34   34   35 2  
    35   34   36 am 
    36   36   37 1  
    37   37   38 1  
    38   37   40 1  
    39   38   39 2  
    40   38   44 am 
    41   40   41 1  
    42   41   42 ar 
    43   41   43 ar 
    44   44   45 1  
    45   45   46 1  
    46   45   48 1  
    47   46   47 ar 
    48   48   49 1  
    49   49   50 1  
    50   50   51 1  
    51   51   52 ar 
    52   52   53 ar 
    53   52   54 ar 
    54    3   55 1  
    55    3   56 1  
    56    3   57 1  
    57    4   58 1  
    58    5   59 1  
    59    8   60 1  
    60    8   61 1  
    61    9   62 1  
    62   10   63 1  
    63   11   64 1  
    64   14   65 1  
    65   14   66 1  
    66   15   67 1  
    67   15   68 1  
    68   16   69 1  
    69   16   70 1  
    70   17   71 1  
    71   17   72 1  
    72   18   73 1  
    73   18   74 1  
    74   18   75 1  
    75   19   76 1  
    76   20   77 1  
    77   23   78 1  
    78   23   79 1  
    79   24   80 1  
    80   25   81 1  
    81   26   82 1  
    82   27   83 1  
    83   27   84 1  
    84   28   85 1  
    85   28   86 1  
    86   29   87 1  
    87   29   88 1  
    88   30   89 1  
    89   30   90 1  
    90   32   91 1  
    91   32   92 1  
    92   32   93 1  
    93   33   94 1  
    94   33   95 1  
    95   33   96 1  
    96   36   97 1  
    97   37   98 1  
    98   40   99 1  
    99   40  100 1  
   100   44  101 1  
   101   45  102 1  
   102   46  103 ar 
   103   48  104 1  
   104   48  105 1  
   105   49  106 1  
   106   49  107 1  
   107   50  108 1  
   108   50  109 1  
   109   51  110 1  
   110   53  111 1  
   111   53  112 1  
   112   54  113 1  
   113   54  114 1  
@<TRIPOS>SUBSTRUCTURE
     1 ACE         1

