3m56_ligand
  -I-interpret- 

116115  0  0  0  0  0  0  0  0999 V2000
   49.5300   -4.3250  -19.9140 C   0  0  0  0  0
   49.9320   -3.5320  -19.0590 O   0  0  0  0  0
   49.9660   -4.2170  -21.3560 C   0  0  0  0  0
   48.3660   -4.9230  -19.7660 N   0  0  0  0  0
   47.7660   -4.9920  -18.4450 C   0  0  0  0  0
   48.5860   -5.9350  -17.5690 C   0  0  0  0  0
   49.0860   -6.9430  -18.0500 O   0  0  0  0  0
   46.3170   -5.4590  -18.5560 C   0  0  0  0  0
   45.4240   -4.3650  -18.3970 O   0  0  0  0  0
   48.7280   -5.6120  -16.2820 N   0  0  0  0  0
   49.5420   -6.4370  -15.3970 C   0  0  0  0  0
   48.6730   -7.4380  -14.6490 C   0  0  0  0  0
   48.6150   -7.4520  -13.4130 O   0  0  0  0  0
   50.3550   -5.5820  -14.4270 C   0  0  0  0  0
   51.2240   -4.5320  -15.1360 C   0  0  0  0  0
   52.1220   -3.8030  -14.1430 C   0  0  0  0  0
   52.8390   -2.6260  -14.8160 C   0  0  0  0  0
   53.8030   -2.0010  -13.8650 N   0  3  0  0  0
   48.0160   -8.2920  -15.4260 N   0  0  0  0  0
   47.2150   -9.3810  -14.8640 C   0  0  0  0  0
   47.1220  -10.5400  -15.8480 C   0  0  0  0  0
   47.3480  -10.3640  -17.0470 O   0  0  0  0  0
   45.8350   -8.8810  -14.5370 C   0  0  0  0  0
   45.2590   -8.2830  -15.6640 O   0  0  0  0  0
   46.8130  -11.7230  -15.3310 N   0  0  0  0  0
   46.6850  -12.9280  -16.1540 C   0  0  0  0  0
   46.5320  -14.1540  -15.2650 C   0  0  0  0  0
   47.7420  -14.5520  -14.4330 C   0  0  0  0  0
   47.2860  -15.4430  -13.2770 C   0  0  0  0  0
   48.4100  -15.6940  -12.2890 C   0  0  0  0  0
   47.9340  -16.5560  -11.1990 N   0  3  0  0  0
   47.6490  -17.9400  -11.6570 C   0  0  0  0  0
   48.8910  -16.6750  -10.1130 C   0  0  0  0  0
   45.4900  -12.8690  -17.0730 C   0  0  0  0  0
   44.4770  -12.2380  -16.7840 O   0  0  0  0  0
   45.6140  -13.5030  -18.2320 N   0  0  0  0  0
   44.4490  -13.8870  -19.0190 C   0  0  0  0  0
   43.5600  -12.7220  -19.4980 C   0  0  0  0  0
   42.3490  -12.8850  -19.6550 O   0  0  0  0  0
   43.6220  -14.9440  -18.2300 C   0  0  0  0  0
   42.6450  -15.7350  -19.1140 C   0  0  0  0  0
   43.0880  -16.2890  -20.1390 O   0  0  0  0  0
   41.4290  -15.7810  -18.7990 O   0  0  0  0  0
   44.1200  -11.5430  -19.7550 N   0  0  0  0  0
   43.2410  -10.4960  -20.2870 C   0  0  0  0  0
   42.8720  -10.7890  -21.7410 C   0  0  0  0  0
   43.7186  -11.3221  -22.5069 O   0  0  0  0  0
   43.8450   -9.0880  -20.1790 C   0  0  0  0  0
   42.8610   -8.0560  -20.7220 C   0  0  0  0  0
   43.2360   -6.6180  -20.4430 C   0  0  0  0  0
   42.0520   -5.7640  -20.5680 N   0  0  0  0  0
   41.9840   -4.4970  -20.1500 C   0  0  0  0  0
   43.0400   -3.9120  -19.5830 N   0  0  0  0  0
   40.8570   -3.8040  -20.2960 N   0  0  0  0  0
   41.7245  -10.4983  -22.1725 O   0  0  0  0  0
   49.6653   -3.2476  -21.7535 H   0  0  0  0  0
   51.0500   -4.3148  -21.4148 H   0  0  0  0  0
   49.4962   -5.0109  -21.9367 H   0  0  0  0  0
   47.8911   -5.3332  -20.5701 H   0  0  0  0  0
   47.7647   -4.0039  -17.9848 H   0  0  0  0  0
   46.1213   -6.1908  -17.7723 H   0  0  0  0  0
   46.1630   -5.8998  -19.5409 H   0  0  0  0  0
   44.5196   -4.6785  -18.4699 H   0  0  0  0  0
   48.2635   -4.7816  -15.9145 H   0  0  0  0  0
   50.2497   -6.9917  -16.0131 H   0  0  0  0  0
   51.0204   -6.2466  -13.8759 H   0  0  0  0  0
   49.6532   -5.0522  -13.7828 H   0  0  0  0  0
   50.5700   -3.8035  -15.6153 H   0  0  0  0  0
   51.8525   -5.0367  -15.8697 H   0  0  0  0  0
   52.8702   -4.5016  -13.7684 H   0  0  0  0  0
   51.5063   -3.4197  -13.3293 H   0  0  0  0  0
   52.1009   -1.8826  -15.1171 H   0  0  0  0  0
   53.3821   -2.9897  -15.6883 H   0  0  0  0  0
   54.2732   -1.2204  -14.3233 H   0  0  0  0  0
   53.2990   -1.6621  -13.0455 H   0  0  0  0  0
   54.4938   -2.6945  -13.5781 H   0  0  0  0  0
   48.0709   -8.1864  -16.4390 H   0  0  0  0  0
   47.6988   -9.7345  -13.9535 H   0  0  0  0  0
   45.9024   -8.1440  -13.7367 H   0  0  0  0  0
   45.2158   -9.7212  -14.2227 H   0  0  0  0  0
   44.3794   -7.9681  -15.4434 H   0  0  0  0  0
   46.6593  -11.7955  -14.3253 H   0  0  0  0  0
   47.5904  -12.9913  -16.7575 H   0  0  0  0  0
   46.3428  -14.9904  -15.9379 H   0  0  0  0  0
   45.7447  -13.9104  -14.5515 H   0  0  0  0  0
   48.2243  -13.6580  -14.0377 H   0  0  0  0  0
   48.4517  -15.0960  -15.0563 H   0  0  0  0  0
   46.9663  -16.4014  -13.6860 H   0  0  0  0  0
   46.4732  -14.9394  -12.7536 H   0  0  0  0  0
   48.7442  -14.7426  -11.8752 H   0  0  0  0  0
   49.2364  -16.1861  -12.8019 H   0  0  0  0  0
   47.0832  -16.0970  -10.8735 H   0  0  0  0  0
   46.8794  -17.9148  -12.4284 H   0  0  0  0  0
   48.5588  -18.3813  -12.0639 H   0  0  0  0  0
   47.3004  -18.5359  -10.8135 H   0  0  0  0  0
   49.8190  -17.1018  -10.4934 H   0  0  0  0  0
   49.0882  -15.6881   -9.6945 H   0  0  0  0  0
   48.4814  -17.3241   -9.3390 H   0  0  0  0  0
   46.5462  -13.7268  -18.5802 H   0  0  0  0  0
   44.8365  -14.3144  -19.9438 H   0  0  0  0  0
   43.0331  -14.4111  -17.4834 H   0  0  0  0  0
   44.3248  -15.6559  -17.7972 H   0  0  0  0  0
   41.2927  -15.2959  -17.9819 H   0  0  0  0  0
   45.1125  -11.3751  -19.5901 H   0  0  0  0  0
   42.3440  -10.5095  -19.6679 H   0  0  0  0  0
   44.5334  -11.4765  -22.0233 H   0  0  0  0  0
   44.7658   -9.0468  -20.7608 H   0  0  0  0  0
   44.0558   -8.8671  -19.1326 H   0  0  0  0  0
   41.9065   -8.2367  -20.2277 H   0  0  0  0  0
   42.8422   -8.1747  -21.8054 H   0  0  0  0  0
   43.9903   -6.2961  -21.1610 H   0  0  0  0  0
   43.6328   -6.5386  -19.4309 H   0  0  0  0  0
   41.2218   -6.1648  -21.0046 H   0  0  0  0  0
   42.9783   -2.9442  -19.2669 H   0  0  0  0  0
   43.9093   -4.4324  -19.4655 H   0  0  0  0  0
   40.0424   -4.2402  -20.7280 H   0  0  0  0  0
  1  2  2  0  0  0
  1  3  1  0  0  0
  1  4  1  0  0  0
  4  5  1  0  0  0
  5  6  1  0  0  0
  5  8  1  0  0  0
  6  7  2  0  0  0
  6 10  1  0  0  0
  8  9  1  0  0  0
 10 11  1  0  0  0
 11 12  1  0  0  0
 11 14  1  0  0  0
 12 13  2  0  0  0
 12 19  1  0  0  0
 14 15  1  0  0  0
 15 16  1  0  0  0
 16 17  1  0  0  0
 17 18  1  0  0  0
 19 20  1  0  0  0
 20 21  1  0  0  0
 20 23  1  0  0  0
 21 22  2  0  0  0
 21 25  1  0  0  0
 23 24  1  0  0  0
 25 26  1  0  0  0
 26 27  1  0  0  0
 26 34  1  0  0  0
 27 28  1  0  0  0
 28 29  1  0  0  0
 29 30  1  0  0  0
 30 31  1  0  0  0
 31 32  1  0  0  0
 31 33  1  0  0  0
 34 35  2  0  0  0
 34 36  1  0  0  0
 36 37  1  0  0  0
 37 38  1  0  0  0
 37 40  1  0  0  0
 38 39  2  0  0  0
 38 44  1  0  0  0
 40 41  1  0  0  0
 41 42  2  0  0  0
 41 43  1  0  0  0
 44 45  1  0  0  0
 45 46  1  0  0  0
 45 48  1  0  0  0
 46 47  1  0  0  0
 48 49  1  0  0  0
 49 50  1  0  0  0
 50 51  1  0  0  0
 51 52  1  0  0  0
 52 53  1  0  0  0
 52 54  2  0  0  0
 46 55  2  0  0  0
  3 56  1  0  0  0
  3 57  1  0  0  0
  3 58  1  0  0  0
  4 59  1  0  0  0
  5 60  1  0  0  0
  8 61  1  0  0  0
  8 62  1  0  0  0
  9 63  1  0  0  0
 10 64  1  0  0  0
 11 65  1  0  0  0
 14 66  1  0  0  0
 14 67  1  0  0  0
 15 68  1  0  0  0
 15 69  1  0  0  0
 16 70  1  0  0  0
 16 71  1  0  0  0
 17 72  1  0  0  0
 17 73  1  0  0  0
 18 74  1  0  0  0
 18 75  1  0  0  0
 18 76  1  0  0  0
 19 77  1  0  0  0
 20 78  1  0  0  0
 23 79  1  0  0  0
 23 80  1  0  0  0
 24 81  1  0  0  0
 25 82  1  0  0  0
 26 83  1  0  0  0
 27 84  1  0  0  0
 27 85  1  0  0  0
 28 86  1  0  0  0
 28 87  1  0  0  0
 29 88  1  0  0  0
 29 89  1  0  0  0
 30 90  1  0  0  0
 30 91  1  0  0  0
 31 92  1  0  0  0
 32 93  1  0  0  0
 32 94  1  0  0  0
 32 95  1  0  0  0
 33 96  1  0  0  0
 33 97  1  0  0  0
 33 98  1  0  0  0
 36 99  1  0  0  0
 37100  1  0  0  0
 40101  1  0  0  0
 40102  1  0  0  0
 43103  1  0  0  0
 44104  1  0  0  0
 45105  1  0  0  0
 47106  1  0  0  0
 48107  1  0  0  0
 48108  1  0  0  0
 49109  1  0  0  0
 49110  1  0  0  0
 50111  1  0  0  0
 50112  1  0  0  0
 51113  1  0  0  0
 53114  1  0  0  0
 53115  1  0  0  0
 54116  1  0  0  0
M  END
$$$$
