6i5p_ligand
  -I-interpret- 

 96 96  0  0  0  0  0  0  0  0999 V2000
    6.2760    4.3170   24.8050 N   0  3  0  0  0
    7.5740    4.9420   24.5740 C   0  0  0  0  0
    8.3370    4.2200   23.4490 C   0  0  0  0  0
    8.6180    3.0190   23.5560 O   0  0  0  0  0
    8.3890    4.9270   25.8620 C   0  0  0  0  0
    9.6130    5.7840   25.8500 C   0  0  0  0  0
    8.6440    4.9530   22.3760 N   0  0  0  0  0
    9.4240    4.4110   21.2710 C   0  0  0  0  0
   10.8500    4.1790   21.7230 C   0  0  0  0  0
   11.3310    4.8270   22.6560 O   0  0  0  0  0
    9.4370    5.3710   20.0770 C   0  0  0  0  0
   11.5270    3.2430   21.0560 N   0  0  0  0  0
   12.9380    2.9890   21.3000 C   0  0  0  0  0
   13.7140    2.9530   19.9900 C   0  0  0  0  0
   13.1480    2.8530   18.9000 O   0  0  0  0  0
   13.1580    1.6700   22.0490 C   0  0  0  0  0
   12.7880    0.4520   21.2110 C   0  0  0  0  0
   11.5770    0.1390   21.1720 O   0  0  0  0  0
   13.6990   -0.1800   20.6080 O   0  0  0  0  0
   15.0370    3.0380   20.1160 N   0  0  0  0  0
   15.9520    2.9870   18.9870 C   0  0  0  0  0
   16.9990    1.9140   19.2360 C   0  0  0  0  0
   17.2830    1.5600   20.3850 O   0  0  0  0  0
   16.6430    4.3270   18.7390 C   0  0  0  0  0
   17.5980    4.1740   17.6840 O   0  0  0  0  0
   17.3410    4.8140   20.0060 C   0  0  0  0  0
   17.5350    1.3730   18.1450 N   0  0  0  0  0
   18.5940    0.3730   18.1820 C   0  0  0  0  0
   19.9290    0.9950   17.7790 C   0  0  0  0  0
   20.6850    0.4090   17.0020 O   0  0  0  0  0
   18.2830   -0.8120   17.2610 C   0  0  0  0  0
   18.6130   -0.4650   15.9110 O   0  0  0  0  0
   16.8090   -1.2190   17.3190 C   0  0  0  0  0
   20.2350    2.1990   18.3040 N   0  0  0  0  0
   21.3190    3.0350   17.7790 C   0  0  0  0  0
   21.6990    4.1500   18.7510 C   0  0  0  0  0
   20.8490    4.6310   19.5070 O   0  0  0  0  0
   20.8840    3.6480   16.4410 C   0  0  0  0  0
   20.7400    2.6190   15.4520 O   0  0  0  0  0
   21.8430    4.7120   15.9230 C   0  0  0  0  0
   22.9710    4.5870   18.7780 N   0  0  0  0  0
   23.2900    5.8730   19.4090 C   0  0  0  0  0
   22.8340    7.0610   18.5500 C   0  0  0  0  0
   22.3670    8.0770   19.0730 O   0  0  0  0  0
   24.8150    5.8370   19.5230 C   0  0  0  0  0
   25.2470    4.8990   18.4420 C   0  0  0  0  0
   24.1830    3.8460   18.3890 C   0  0  0  0  0
   22.9250    7.0230   17.3200 O   0  0  0  0  0
    5.7351    4.3298   23.9403 H   0  0  0  0  0
    6.4134    3.3526   25.1073 H   0  0  0  0  0
    5.7753    4.8333   25.5283 H   0  0  0  0  0
    7.4138    5.9746   24.2640 H   0  0  0  0  0
    8.7267    3.9008   26.0069 H   0  0  0  0  0
    7.7412    5.3173   26.6469 H   0  0  0  0  0
   10.2806    5.4506   25.0555 H   0  0  0  0  0
    9.3271    6.8211   25.6748 H   0  0  0  0  0
   10.1210    5.7032   26.8110 H   0  0  0  0  0
    8.3233    5.9201   22.3285 H   0  0  0  0  0
    8.9631    3.4726   20.9628 H   0  0  0  0  0
    8.4156    5.5359   19.7339 H   0  0  0  0  0
    9.8774    6.3207   20.3808 H   0  0  0  0  0
   10.0272    4.9370   19.2699 H   0  0  0  0  0
   11.0397    2.6879   20.3526 H   0  0  0  0  0
   13.3035    3.8066   21.9213 H   0  0  0  0  0
   12.5202    1.6756   22.9329 H   0  0  0  0  0
   14.2169    1.5975   22.2971 H   0  0  0  0  0
   14.5455    0.2385   20.7808 H   0  0  0  0  0
   15.4284    3.1443   21.0519 H   0  0  0  0  0
   15.3670    2.7516   18.0980 H   0  0  0  0  0
   15.8947    5.0669   18.4549 H   0  0  0  0  0
   18.0347    5.0140   17.5249 H   0  0  0  0  0
   16.6048    4.9372   20.8003 H   0  0  0  0  0
   18.0883    4.0818   20.3119 H   0  0  0  0  0
   17.8265    5.7695   19.8074 H   0  0  0  0  0
   17.1863    1.6741   17.2350 H   0  0  0  0  0
   18.6578    0.0044   19.2058 H   0  0  0  0  0
   18.8805   -1.6569   17.6034 H   0  0  0  0  0
   18.4182   -1.2073   15.3342 H   0  0  0  0  0
   16.5525   -1.5059   18.3388 H   0  0  0  0  0
   16.1887   -0.3777   17.0100 H   0  0  0  0  0
   16.6396   -2.0622   16.6494 H   0  0  0  0  0
   19.6916    2.5410   19.0965 H   0  0  0  0  0
   22.1953    2.4018   17.6401 H   0  0  0  0  0
   19.9289    4.1395   16.6263 H   0  0  0  0  0
   20.4679    3.0125   14.6197 H   0  0  0  0  0
   21.9107    5.5226   16.6486 H   0  0  0  0  0
   22.8288    4.2705   15.7765 H   0  0  0  0  0
   21.4734    5.1017   14.9745 H   0  0  0  0  0
   22.7852    6.0048   20.3660 H   0  0  0  0  0
   22.3556    7.9683   20.0268 H   0  0  0  0  0
   25.1441    5.5059   20.5079 H   0  0  0  0  0
   25.2576    6.8264   19.4074 H   0  0  0  0  0
   26.2276    4.4704   18.6491 H   0  0  0  0  0
   25.3557    5.4100   17.4853 H   0  0  0  0  0
   24.0977    3.3780   17.4083 H   0  0  0  0  0
   24.3910    2.9994   19.0433 H   0  0  0  0  0
  1  2  1  0  0  0
  2  3  1  0  0  0
  2  5  1  0  0  0
  3  4  2  0  0  0
  3  7  1  0  0  0
  5  6  1  0  0  0
  7  8  1  0  0  0
  8  9  1  0  0  0
  8 11  1  0  0  0
  9 10  2  0  0  0
  9 12  1  0  0  0
 12 13  1  0  0  0
 13 14  1  0  0  0
 13 16  1  0  0  0
 14 15  2  0  0  0
 14 20  1  0  0  0
 16 17  1  0  0  0
 17 18  2  0  0  0
 17 19  1  0  0  0
 20 21  1  0  0  0
 21 22  1  0  0  0
 21 24  1  0  0  0
 22 23  2  0  0  0
 22 27  1  0  0  0
 24 25  1  0  0  0
 24 26  1  0  0  0
 27 28  1  0  0  0
 28 29  1  0  0  0
 28 31  1  0  0  0
 29 30  2  0  0  0
 29 34  1  0  0  0
 31 32  1  0  0  0
 31 33  1  0  0  0
 34 35  1  0  0  0
 35 36  1  0  0  0
 35 38  1  0  0  0
 36 37  2  0  0  0
 36 41  1  0  0  0
 38 39  1  0  0  0
 38 40  1  0  0  0
 41 42  1  0  0  0
 41 47  1  0  0  0
 42 43  1  0  0  0
 42 45  1  0  0  0
 43 44  1  0  0  0
 43 48  2  0  0  0
 45 46  1  0  0  0
 46 47  1  0  0  0
  1 49  1  0  0  0
  1 50  1  0  0  0
  1 51  1  0  0  0
  2 52  1  0  0  0
  5 53  1  0  0  0
  5 54  1  0  0  0
  6 55  1  0  0  0
  6 56  1  0  0  0
  6 57  1  0  0  0
  7 58  1  0  0  0
  8 59  1  0  0  0
 11 60  1  0  0  0
 11 61  1  0  0  0
 11 62  1  0  0  0
 12 63  1  0  0  0
 13 64  1  0  0  0
 16 65  1  0  0  0
 16 66  1  0  0  0
 19 67  1  0  0  0
 20 68  1  0  0  0
 21 69  1  0  0  0
 24 70  1  0  0  0
 25 71  1  0  0  0
 26 72  1  0  0  0
 26 73  1  0  0  0
 26 74  1  0  0  0
 27 75  1  0  0  0
 28 76  1  0  0  0
 31 77  1  0  0  0
 32 78  1  0  0  0
 33 79  1  0  0  0
 33 80  1  0  0  0
 33 81  1  0  0  0
 34 82  1  0  0  0
 35 83  1  0  0  0
 38 84  1  0  0  0
 39 85  1  0  0  0
 40 86  1  0  0  0
 40 87  1  0  0  0
 40 88  1  0  0  0
 42 89  1  0  0  0
 44 90  1  0  0  0
 45 91  1  0  0  0
 45 92  1  0  0  0
 46 93  1  0  0  0
 46 94  1  0  0  0
 47 95  1  0  0  0
 47 96  1  0  0  0
M  END
$$$$
