6if0_ligand
  -I-interpret- 

 60 62  0  0  0  0  0  0  0  0999 V2000
  -30.0360    6.3650   -7.7660 C   0  0  0  0  0
  -36.1690    2.5810   -5.8620 C   0  0  0  0  0
  -35.6750    1.6460   -5.0040 C   0  0  0  0  0
  -31.6710    0.3270   -4.6520 C   0  0  0  0  0
  -33.6690    1.2130   -3.5940 C   0  0  0  0  0
  -34.3000    1.2090   -4.8410 C   0  0  0  0  0
  -32.3730    0.3750   -5.8650 C   0  0  0  0  0
  -26.5440    5.5280   -6.4770 C   0  0  0  0  0
  -33.6440    0.7890   -5.9670 N   0  0  0  0  0
  -34.1130    3.8250   -6.6300 C   0  0  0  0  0
  -33.3950    4.5090   -7.6550 C   0  0  0  0  0
  -29.5480    5.9980   -6.5150 C   0  0  0  0  0
  -31.5330    4.7210   -6.0870 C   0  0  0  0  0
  -27.8960    7.8890   -6.4630 O   0  0  0  0  0
  -27.9660    6.5730   -5.9100 S   0  0  0  0  0
  -27.9520    6.2600   -4.4600 O   0  0  0  0  0
  -26.4670    5.5840   -8.0120 C   0  0  0  0  0
  -27.2650    4.5120   -8.5160 O   0  0  0  0  0
  -31.3200    5.8700   -8.2110 C   0  0  0  0  0
  -32.0510    5.0400   -7.3400 C   0  0  0  0  0
  -30.2600    5.1680   -5.6610 C   0  0  0  0  0
  -33.9660    4.7550   -8.9010 C   0  0  0  0  0
  -35.2780    4.2720   -9.1480 C   0  0  0  0  0
  -35.9810    3.5830   -8.1460 C   0  0  0  0  0
  -37.3960    3.1110   -8.4430 C   0  0  0  0  0
  -37.4640    1.6690   -8.9440 C   0  0  0  0  0
  -38.9380    1.3890   -9.3260 C   0  0  0  0  0
  -39.1050   -0.1370   -9.2660 C   0  0  0  0  0
  -40.4890   -0.5650   -9.7910 C   0  0  0  0  0
  -35.4170    3.3460   -6.8860 C   0  0  0  0  0
  -32.3580    0.7810   -3.5100 C   0  0  0  0  0
  -29.4519    7.0238   -8.4086 H   0  0  0  0  0
  -37.2361    2.7905   -5.7879 H   0  0  0  0  0
  -36.4064    1.1633   -4.3558 H   0  0  0  0  0
  -30.6470   -0.0425   -4.5962 H   0  0  0  0  0
  -34.2004    1.5504   -2.7041 H   0  0  0  0  0
  -31.8583    0.0592   -6.7724 H   0  0  0  0  0
  -26.6908    4.4979   -6.1524 H   0  0  0  0  0
  -25.6156    5.9039   -6.0471 H   0  0  0  0  0
  -33.6568    3.6723   -5.6519 H   0  0  0  0  0
  -32.1284    4.1063   -5.4119 H   0  0  0  0  0
  -25.4348    5.4841   -8.3478 H   0  0  0  0  0
  -26.8356    6.5417   -8.3795 H   0  0  0  0  0
  -27.2384    4.5185   -9.4756 H   0  0  0  0  0
  -31.7111    6.1324   -9.1940 H   0  0  0  0  0
  -29.8525    4.8705   -4.6948 H   0  0  0  0  0
  -33.4194    5.3045   -9.6674 H   0  0  0  0  0
  -35.7422    4.4367  -10.1204 H   0  0  0  0  0
  -37.7968    3.7506   -9.2294 H   0  0  0  0  0
  -37.9608    3.1617   -7.5121 H   0  0  0  0  0
  -37.1286    0.9770   -8.1715 H   0  0  0  0  0
  -36.8102    1.5295   -9.8049 H   0  0  0  0  0
  -39.1696    1.7739  -10.3191 H   0  0  0  0  0
  -39.6256    1.8897   -8.6444 H   0  0  0  0  0
  -39.0113   -0.4575   -8.2284 H   0  0  0  0  0
  -38.3382   -0.5965   -9.8896 H   0  0  0  0  0
  -41.2660   -0.1045   -9.1808 H   0  0  0  0  0
  -40.5992   -0.2422  -10.8262 H   0  0  0  0  0
  -40.5774   -1.6500   -9.7360 H   0  0  0  0  0
  -31.8493    0.7921   -2.5460 H   0  0  0  0  0
 12  1  4  0  0  0
  1 19  4  0  0  0
  2  3  2  0  0  0
 30  2  1  0  0  0
  3  6  1  0  0  0
  7  4  4  0  0  0
 31  4  4  0  0  0
  6  5  4  0  0  0
  5 31  4  0  0  0
  6  9  4  0  0  0
  9  7  4  0  0  0
 15  8  1  0  0  0
  8 17  1  0  0  0
 11 10  4  0  0  0
 10 30  4  0  0  0
 20 11  1  0  0  0
 11 22  4  0  0  0
 12 15  1  0  0  0
 21 12  4  0  0  0
 13 20  4  0  0  0
 13 21  4  0  0  0
 15 14  2  0  0  0
 15 16  2  0  0  0
 17 18  1  0  0  0
 19 20  4  0  0  0
 22 23  4  0  0  0
 23 24  4  0  0  0
 24 25  1  0  0  0
 24 30  4  0  0  0
 25 26  1  0  0  0
 26 27  1  0  0  0
 27 28  1  0  0  0
 28 29  1  0  0  0
  1 32  1  0  0  0
  2 33  1  0  0  0
  3 34  1  0  0  0
  4 35  1  0  0  0
  5 36  1  0  0  0
  7 37  1  0  0  0
  8 38  1  0  0  0
  8 39  1  0  0  0
 10 40  1  0  0  0
 13 41  1  0  0  0
 17 42  1  0  0  0
 17 43  1  0  0  0
 18 44  1  0  0  0
 19 45  1  0  0  0
 21 46  1  0  0  0
 22 47  1  0  0  0
 23 48  1  0  0  0
 25 49  1  0  0  0
 25 50  1  0  0  0
 26 51  1  0  0  0
 26 52  1  0  0  0
 27 53  1  0  0  0
 27 54  1  0  0  0
 28 55  1  0  0  0
 28 56  1  0  0  0
 29 57  1  0  0  0
 29 58  1  0  0  0
 29 59  1  0  0  0
 31 60  1  0  0  0
M  END
$$$$
