3hl5_ligand
  -I-interpret- 

 76 79  0  0  0  0  0  0  0  0999 V2000
    9.7840   12.4600  -19.7000 O   0  0  0  0  0
    8.7630   12.3680  -20.3720 C   0  0  0  0  0
    8.2410   13.5790  -21.1010 C   0  0  0  0  0
    8.7570   13.5560  -22.5550 C   0  0  0  0  0
   10.2850   13.6620  -22.6990 C   0  0  0  0  0
   10.7280   13.5190  -24.1600 C   0  0  0  0  0
    9.9800   14.4840  -25.0840 C   0  0  0  0  0
    8.4630   14.3590  -24.9150 C   0  0  0  0  0
    8.0540   14.5740  -23.4590 C   0  0  0  0  0
    8.6620   14.8220  -20.4610 N   0  0  0  0  0
    7.8500   15.8680  -20.3170 C   0  0  0  0  0
    6.6960   15.9000  -20.7290 O   0  0  0  0  0
    8.4430   17.0640  -19.6330 C   0  0  0  0  0
    8.4050   16.8550  -18.1220 C   0  0  0  0  0
    7.7540   18.2890  -20.0140 N   0  3  0  0  0
    7.9220   18.8070  -21.3610 C   0  0  0  0  0
    8.0770   11.2240  -20.5180 N   0  0  0  0  0
    6.8450   11.0300  -21.2960 C   0  0  0  0  0
    6.2930    9.7010  -20.8050 C   0  0  0  0  0
    7.5310    8.9340  -20.4120 C   0  0  0  0  0
    7.2650    7.7770  -19.4560 C   0  0  0  0  0
    8.4990    9.9800  -19.8640 C   0  0  0  0  0
    9.8670    9.4940  -20.2350 C   0  0  0  0  0
   10.5250    8.9130  -19.3870 O   0  0  0  0  0
   10.2880    9.7190  -21.4890 N   0  0  0  0  0
   11.5270    9.2650  -21.9680 C   0  0  0  0  0
   12.6520    9.2010  -21.1370 C   0  0  0  0  0
   13.8620    8.7140  -21.6220 C   0  0  0  0  0
   13.9600    8.2810  -22.9420 C   0  0  0  0  0
   12.8420    8.3280  -23.7700 C   0  0  0  0  0
   11.6220    8.8150  -23.2890 C   0  0  0  0  0
   10.4640    8.8560  -24.2310 C   0  0  0  0  0
   10.3960    7.9550  -25.2470 N   0  0  0  0  0
    9.3760    7.9750  -26.1190 C   0  0  0  0  0
    8.3790    8.9380  -25.9920 C   0  0  0  0  0
    8.4630    9.8620  -24.9520 C   0  0  0  0  0
    9.5010    9.8070  -24.1000 N   0  0  0  0  0
    7.1519   13.5422  -21.0783 H   0  0  0  0  0
    8.4900   12.5572  -22.9004 H   0  0  0  0  0
   10.7411   12.8579  -22.1215 H   0  0  0  0  0
   10.5966   14.6429  -22.3400 H   0  0  0  0  0
   10.5114   12.5009  -24.4835 H   0  0  0  0  0
   11.7920   13.7485  -24.2173 H   0  0  0  0  0
   10.2340   14.2412  -26.1158 H   0  0  0  0  0
   10.2732   15.5027  -24.8302 H   0  0  0  0  0
    8.1589   13.3574  -25.2191 H   0  0  0  0  0
    7.9792   15.1182  -25.5296 H   0  0  0  0  0
    8.3407   15.5801  -23.1531 H   0  0  0  0  0
    6.9753   14.4455  -23.3691 H   0  0  0  0  0
    9.6170   14.8922  -20.1098 H   0  0  0  0  0
    9.4804   17.1721  -19.9496 H   0  0  0  0  0
    7.3716   16.7263  -17.8002 H   0  0  0  0  0
    8.9804   15.9656  -17.8649 H   0  0  0  0  0
    8.8360   17.7243  -17.6253 H   0  0  0  0  0
    8.1457   19.0088  -19.4066 H   0  0  0  0  0
    6.7618   18.0637  -19.9426 H   0  0  0  0  0
    8.9760   19.0214  -21.5376 H   0  0  0  0  0
    7.5754   18.0649  -22.0802 H   0  0  0  0  0
    7.3402   19.7220  -21.4722 H   0  0  0  0  0
    7.0353   11.0229  -22.3692 H   0  0  0  0  0
    6.1368   11.8459  -21.1516 H   0  0  0  0  0
    5.7037    9.1858  -21.5635 H   0  0  0  0  0
    5.5920    9.8177  -19.9785 H   0  0  0  0  0
    7.9592    8.4190  -21.2720 H   0  0  0  0  0
    6.8183    8.1606  -18.5387 H   0  0  0  0  0
    6.5822    7.0689  -19.9256 H   0  0  0  0  0
    8.2049    7.2770  -19.2224 H   0  0  0  0  0
    8.5078   10.1455  -18.7867 H   0  0  0  0  0
    9.6820   10.2421  -22.1211 H   0  0  0  0  0
   12.5795    9.5353  -20.1021 H   0  0  0  0  0
   14.7334    8.6714  -20.9685 H   0  0  0  0  0
   14.9091    7.9065  -23.3255 H   0  0  0  0  0
   12.9178    7.9827  -24.8011 H   0  0  0  0  0
    9.3285    7.2405  -26.9230 H   0  0  0  0  0
    7.5461    8.9690  -26.6945 H   0  0  0  0  0
    7.6927   10.6235  -24.8305 H   0  0  0  0  0
  1  2  2  0  0  0
  2  3  1  0  0  0
  2 17  1  0  0  0
  3  4  1  0  0  0
  3 10  1  0  0  0
  4  5  1  0  0  0
  4  9  1  0  0  0
  5  6  1  0  0  0
  6  7  1  0  0  0
  7  8  1  0  0  0
  8  9  1  0  0  0
 10 11  1  0  0  0
 11 12  2  0  0  0
 11 13  1  0  0  0
 13 14  1  0  0  0
 13 15  1  0  0  0
 15 16  1  0  0  0
 17 18  1  0  0  0
 17 22  1  0  0  0
 18 19  1  0  0  0
 19 20  1  0  0  0
 20 21  1  0  0  0
 20 22  1  0  0  0
 22 23  1  0  0  0
 23 24  2  0  0  0
 23 25  1  0  0  0
 25 26  1  0  0  0
 26 27  4  0  0  0
 26 31  4  0  0  0
 27 28  4  0  0  0
 28 29  4  0  0  0
 29 30  4  0  0  0
 30 31  4  0  0  0
 31 32  1  0  0  0
 32 33  4  0  0  0
 32 37  4  0  0  0
 33 34  4  0  0  0
 34 35  4  0  0  0
 35 36  4  0  0  0
 36 37  4  0  0  0
  3 38  1  0  0  0
  4 39  1  0  0  0
  5 40  1  0  0  0
  5 41  1  0  0  0
  6 42  1  0  0  0
  6 43  1  0  0  0
  7 44  1  0  0  0
  7 45  1  0  0  0
  8 46  1  0  0  0
  8 47  1  0  0  0
  9 48  1  0  0  0
  9 49  1  0  0  0
 10 50  1  0  0  0
 13 51  1  0  0  0
 14 52  1  0  0  0
 14 53  1  0  0  0
 14 54  1  0  0  0
 15 55  1  0  0  0
 15 56  1  0  0  0
 16 57  1  0  0  0
 16 58  1  0  0  0
 16 59  1  0  0  0
 18 60  1  0  0  0
 18 61  1  0  0  0
 19 62  1  0  0  0
 19 63  1  0  0  0
 20 64  1  0  0  0
 21 65  1  0  0  0
 21 66  1  0  0  0
 21 67  1  0  0  0
 22 68  1  0  0  0
 25 69  1  0  0  0
 27 70  1  0  0  0
 28 71  1  0  0  0
 29 72  1  0  0  0
 30 73  1  0  0  0
 34 74  1  0  0  0
 35 75  1  0  0  0
 36 76  1  0  0  0
M  END
$$$$
