3vd9_ligand
  -I-interpret- 

 33 33  0  0  0  0  0  0  0  0999 V2000
  -14.7000  -27.5380  -26.2770 C   0  0  0  0  0
  -13.3870  -27.3710  -25.4970 C   0  0  0  0  0
  -13.4640  -26.1970  -24.6960 O   0  0  0  0  0
  -12.1560  -27.2630  -26.4070 C   0  0  0  0  0
  -10.9520  -27.3730  -25.6270 O   0  0  0  0  0
  -12.1740  -28.3170  -27.5130 C   0  0  0  0  0
  -11.8920  -29.5990  -26.9410 O   0  0  0  0  0
  -13.5460  -28.3100  -28.1970 C   0  0  0  0  0
  -14.5440  -28.5940  -27.2190 O   0  0  0  0  0
  -13.7240  -29.3100  -29.3320 C   0  0  0  0  0
  -12.6340  -29.2570  -30.2580 O   0  0  0  0  0
  -16.0160  -27.9530  -25.1720 S   0  0  0  0  0
  -17.5960  -28.2970  -25.9160 C   0  0  0  0  0
  -18.6380  -27.3410  -25.3540 C   0  0  0  0  0
  -17.5950  -28.2580  -27.4440 C   0  0  0  0  0
  -14.9368  -26.6029  -26.7846 H   0  0  0  0  0
  -13.2658  -28.2651  -24.8855 H   0  0  0  0  0
  -14.2311  -26.2527  -24.1216 H   0  0  0  0  0
  -12.1828  -26.2851  -26.8877 H   0  0  0  0  0
  -10.9565  -26.7049  -24.9377 H   0  0  0  0  0
  -11.4145  -28.0946  -28.2625 H   0  0  0  0  0
  -11.0296  -29.5775  -26.5198 H   0  0  0  0  0
  -13.6360  -27.3193  -28.6425 H   0  0  0  0  0
  -14.6416  -29.0641  -29.8664 H   0  0  0  0  0
  -13.7639  -30.3119  -28.9046 H   0  0  0  0  0
  -12.7786  -29.8981  -30.9578 H   0  0  0  0  0
  -17.8434  -29.3267  -25.6578 H   0  0  0  0  0
  -18.7066  -27.4742  -24.2743 H   0  0  0  0  0
  -18.3456  -26.3149  -25.5770 H   0  0  0  0  0
  -19.6056  -27.5516  -25.8095 H   0  0  0  0  0
  -17.2930  -27.2663  -27.7807 H   0  0  0  0  0
  -16.8945  -29.0013  -27.8247 H   0  0  0  0  0
  -18.5968  -28.4787  -27.8125 H   0  0  0  0  0
  1  2  1  0  0  0
  1  9  1  0  0  0
  1 12  1  0  0  0
  2  3  1  0  0  0
  2  4  1  0  0  0
  4  5  1  0  0  0
  4  6  1  0  0  0
  6  7  1  0  0  0
  6  8  1  0  0  0
  8  9  1  0  0  0
  8 10  1  0  0  0
 10 11  1  0  0  0
 12 13  1  0  0  0
 13 14  1  0  0  0
 13 15  1  0  0  0
  1 16  1  0  0  0
  2 17  1  0  0  0
  3 18  1  0  0  0
  4 19  1  0  0  0
  5 20  1  0  0  0
  6 21  1  0  0  0
  7 22  1  0  0  0
  8 23  1  0  0  0
 10 24  1  0  0  0
 10 25  1  0  0  0
 11 26  1  0  0  0
 13 27  1  0  0  0
 14 28  1  0  0  0
 14 29  1  0  0  0
 14 30  1  0  0  0
 15 31  1  0  0  0
 15 32  1  0  0  0
 15 33  1  0  0  0
M  END
$$$$
