4ybk_ligand
  -I-interpret- 

 68 72  0  0  0  0  0  0  0  0999 V2000
   62.2500   60.7770  109.9410 O   0  0  0  0  0
   62.9140   61.2920  109.0620 C   0  0  0  0  0
   62.4100   61.8150  107.8830 N   0  0  0  0  0
   61.0520   62.0270  107.5460 C   0  0  0  0  0
   60.7790   62.2670  106.1770 C   0  0  0  0  0
   59.4990   62.5580  105.7580 C   0  0  0  0  0
   58.4650   62.5770  106.7150 C   0  0  0  0  0
   57.2360   62.9710  106.3090 O   0  0  0  0  0
   56.7290   64.2240  106.6540 C   0  0  0  0  0
   57.5880   65.3000  107.0710 C   0  0  0  0  0
   57.0040   66.5330  107.3750 C   0  0  0  0  0
   55.6210   66.7180  107.2620 C   0  0  0  0  0
   54.8020   65.6600  106.8400 C   0  0  0  0  0
   55.3520   64.4130  106.5390 C   0  0  0  0  0
   58.7040   62.2770  108.0230 C   0  0  0  0  0
   59.9790   62.0020  108.4610 C   0  0  0  0  0
   64.3470   61.2480  109.2070 C   0  0  0  0  0
   65.2610   62.2100  108.8760 C   0  0  0  0  0
   66.5510   61.9230  109.2830 N   0  0  0  0  0
   66.5350   60.7270  109.9160 C   0  0  0  0  0
   65.0220   59.9740  110.0010 S   0  0  0  0  0
   67.7310   60.1810  110.4080 N   0  0  0  0  0
   67.8660   58.9810  111.1280 C   0  0  0  0  0
   69.1800   58.5750  111.5310 C   0  0  0  0  0
   69.2720   57.4260  112.3770 C   0  0  0  0  0
   68.1310   56.7330  112.8130 N   0  0  0  0  0
   66.9110   57.2180  112.3590 C   0  0  0  0  0
   65.6600   56.5640  112.8770 C   0  0  0  0  0
   66.7270   58.2840  111.5330 N   0  0  0  0  0
   70.5350   56.8800  112.8200 N   0  0  0  0  0
   70.7280   55.5100  113.3600 C   0  0  0  0  0
   71.1430   55.6740  114.8160 C   0  0  0  0  0
   72.4420   56.4170  114.8720 N   0  3  0  0  0
   72.2870   57.7680  114.2500 C   0  0  0  0  0
   71.8280   57.5970  112.8060 C   0  0  0  0  0
   73.0830   56.4390  116.2380 C   0  0  0  0  0
   72.2990   57.2140  117.2790 C   0  0  0  0  0
   72.6330   58.5910  117.2320 O   0  0  0  0  0
   63.0967   62.0777  107.1760 H   0  0  0  0  0
   61.5886   62.2211  105.4486 H   0  0  0  0  0
   59.2909   62.7689  104.7090 H   0  0  0  0  0
   58.6659   65.1575  107.1479 H   0  0  0  0  0
   57.6329   67.3603  107.7039 H   0  0  0  0  0
   55.1799   67.6854  107.5022 H   0  0  0  0  0
   53.7269   65.8132  106.7464 H   0  0  0  0  0
   54.7102   63.5931  106.2165 H   0  0  0  0  0
   57.8751   62.2547  108.7305 H   0  0  0  0  0
   60.1589   61.7660  109.5098 H   0  0  0  0  0
   64.9964   63.1212  108.3395 H   0  0  0  0  0
   68.5859   60.7064  110.2252 H   0  0  0  0  0
   70.0685   59.1172  111.2074 H   0  0  0  0  0
   65.6657   55.5077  112.6082 H   0  0  0  0  0
   65.6217   56.6640  113.9617 H   0  0  0  0  0
   64.7889   57.0479  112.4353 H   0  0  0  0  0
   71.4891   54.9715  112.7954 H   0  0  0  0  0
   69.8115   54.9257  113.2788 H   0  0  0  0  0
   71.2602   54.6935  115.2775 H   0  0  0  0  0
   70.3773   56.2311  115.3559 H   0  0  0  0  0
   73.1175   55.8954  114.3134 H   0  0  0  0  0
   73.2402   58.2962  114.2736 H   0  0  0  0  0
   71.5489   58.3469  114.8052 H   0  0  0  0  0
   71.7139   58.5705  112.3291 H   0  0  0  0  0
   72.5672   57.0299  112.2403 H   0  0  0  0  0
   74.0502   56.9302  116.1319 H   0  0  0  0  0
   73.1424   55.4066  116.5824 H   0  0  0  0  0
   72.5435   56.8248  118.2674 H   0  0  0  0  0
   71.2341   57.1017  117.0751 H   0  0  0  0  0
   72.1277   59.0646  117.8969 H   0  0  0  0  0
  1  2  2  0  0  0
  2  3  1  0  0  0
  2 17  1  0  0  0
  3  4  1  0  0  0
  4  5  4  0  0  0
  4 16  4  0  0  0
  5  6  4  0  0  0
  6  7  4  0  0  0
  7  8  1  0  0  0
  7 15  4  0  0  0
  8  9  1  0  0  0
  9 10  4  0  0  0
  9 14  4  0  0  0
 10 11  4  0  0  0
 11 12  4  0  0  0
 12 13  4  0  0  0
 13 14  4  0  0  0
 15 16  4  0  0  0
 17 18  4  0  0  0
 17 21  4  0  0  0
 18 19  4  0  0  0
 19 20  4  0  0  0
 20 21  4  0  0  0
 20 22  1  0  0  0
 22 23  1  0  0  0
 23 24  4  0  0  0
 23 29  4  0  0  0
 24 25  4  0  0  0
 25 26  4  0  0  0
 25 30  1  0  0  0
 26 27  4  0  0  0
 27 28  1  0  0  0
 27 29  4  0  0  0
 30 31  1  0  0  0
 30 35  1  0  0  0
 31 32  1  0  0  0
 32 33  1  0  0  0
 33 34  1  0  0  0
 33 36  1  0  0  0
 34 35  1  0  0  0
 36 37  1  0  0  0
 37 38  1  0  0  0
  3 39  1  0  0  0
  5 40  1  0  0  0
  6 41  1  0  0  0
 10 42  1  0  0  0
 11 43  1  0  0  0
 12 44  1  0  0  0
 13 45  1  0  0  0
 14 46  1  0  0  0
 15 47  1  0  0  0
 16 48  1  0  0  0
 18 49  1  0  0  0
 22 50  1  0  0  0
 24 51  1  0  0  0
 28 52  1  0  0  0
 28 53  1  0  0  0
 28 54  1  0  0  0
 31 55  1  0  0  0
 31 56  1  0  0  0
 32 57  1  0  0  0
 32 58  1  0  0  0
 33 59  1  0  0  0
 34 60  1  0  0  0
 34 61  1  0  0  0
 35 62  1  0  0  0
 35 63  1  0  0  0
 36 64  1  0  0  0
 36 65  1  0  0  0
 37 66  1  0  0  0
 37 67  1  0  0  0
 38 68  1  0  0  0
M  END
$$$$
