6fjm_ligand
  -I-interpret- 

100102  0  0  0  0  0  0  0  0999 V2000
   23.0610  -28.2550  -46.2890 C   0  0  0  0  0
   22.3380  -28.7940  -45.2700 C   0  0  0  0  0
   24.0840  -28.0050  -44.4190 C   0  0  0  0  0
   25.1110  -27.5890  -43.4860 C   0  0  0  0  0
   25.9690  -26.5800  -43.7460 C   0  0  0  0  0
   26.9830  -26.1650  -42.8020 C   0  0  0  0  0
   27.8390  -25.1580  -43.0790 C   0  0  0  0  0
   28.8630  -24.7270  -42.1370 C   0  0  0  0  0
   29.7590  -23.7350  -42.3100 C   0  0  0  0  0
   29.9400  -22.8310  -43.5110 C   0  0  0  0  0
   28.7640  -21.9280  -44.0070 C   0  0  0  0  0
   29.0890  -20.8910  -45.1360 C   0  0  0  0  0
   30.4010  -20.1040  -44.8230 C   0  0  0  0  0
   29.3230  -21.7410  -46.4140 C   0  0  0  0  0
   27.9950  -19.8230  -45.2380 C   0  0  0  0  0
   30.4280  -19.5730  -43.4070 C   0  0  0  0  0
   31.5230  -19.5250  -42.6480 C   0  0  0  0  0
   31.4960  -18.9940  -41.2440 C   0  0  0  0  0
   26.3630  -22.4960  -43.3480 C   0  0  0  0  0
   25.1760  -23.1260  -43.9030 C   0  0  0  0  0
   23.2660  -24.0000  -44.0280 C   0  0  0  0  0
   24.9840  -23.4720  -45.2020 C   0  0  0  0  0
   21.9400  -24.5270  -43.7590 C   0  0  0  0  0
   21.3090  -25.3900  -44.5910 C   0  0  0  0  0
   19.9820  -25.9210  -44.3370 C   0  0  0  0  0
   19.3910  -26.7840  -45.1920 C   0  0  0  0  0
   18.0580  -27.3440  -44.9770 C   0  0  0  0  0
   17.4160  -28.2070  -45.7920 C   0  0  0  0  0
   17.9220  -28.7920  -47.0990 C   0  0  0  0  0
   19.1370  -29.7780  -47.0030 C   0  0  0  0  0
   19.4140  -30.8640  -48.1060 C   0  0  0  0  0
   20.4370  -31.9110  -47.5190 C   0  0  0  0  0
   18.0800  -31.6260  -48.3540 C   0  0  0  0  0
   20.0770  -30.1960  -49.3310 C   0  0  0  0  0
   21.6760  -32.2080  -48.3440 C   0  0  0  0  0
   22.9170  -32.1140  -47.8500 C   0  0  0  0  0
   24.1400  -32.4190  -48.6650 C   0  0  0  0  0
   21.0490  -29.4550  -45.3640 C   0  0  0  0  0
   27.3160  -19.0830  -47.4330 C   0  0  0  0  0
   18.2940  -29.5430  -50.8780 C   0  0  0  0  0
   22.9890  -28.6240  -44.0950 N   0  0  0  0  0
   24.0870  -23.4660  -43.1660 N   0  0  0  0  0
   24.2100  -27.7290  -45.7700 O   0  0  0  0  0
   27.4530  -22.5080  -44.1620 O   0  0  0  0  0
   30.5820  -19.0270  -45.7500 O   0  0  0  0  0
   26.4050  -21.9900  -42.2260 O   0  0  0  0  0
   23.7490  -24.0380  -45.3210 O   0  0  0  0  0
   20.3480  -29.1910  -46.4960 O   0  0  0  0  0
   19.7660  -33.1460  -47.2490 O   0  0  0  0  0
   20.6020  -30.2080  -44.4990 O   0  0  0  0  0
   27.0860  -19.8040  -44.4170 O   0  0  0  0  0
   27.8800  -18.8230  -46.1530 O   0  0  0  0  0
   21.1860  -29.6790  -49.2300 O   0  0  0  0  0
   19.5950  -30.0640  -50.6030 O   0  0  0  0  0
   22.7726  -28.2447  -47.3401 H   0  0  0  0  0
   25.1944  -28.1129  -42.5338 H   0  0  0  0  0
   25.8950  -26.0597  -44.7009 H   0  0  0  0  0
   27.0582  -26.6778  -41.8431 H   0  0  0  0  0
   27.7610  -24.6503  -44.0404 H   0  0  0  0  0
   28.9097  -25.2647  -41.1900 H   0  0  0  0  0
   30.4413  -23.5612  -41.4779 H   0  0  0  0  0
   30.1202  -23.5167  -44.3389 H   0  0  0  0  0
   30.7099  -22.1241  -43.2019 H   0  0  0  0  0
   28.6731  -21.3538  -43.0850 H   0  0  0  0  0
   31.2233  -20.8117  -44.9277 H   0  0  0  0  0
   30.1546  -22.4254  -46.2464 H   0  0  0  0  0
   28.4217  -22.3108  -46.6399 H   0  0  0  0  0
   29.5564  -21.0814  -47.2498 H   0  0  0  0  0
   29.4941  -19.2068  -42.9806 H   0  0  0  0  0
   32.4670  -19.8823  -43.0595 H   0  0  0  0  0
   31.1618  -17.9566  -41.2556 H   0  0  0  0  0
   30.8096  -19.5915  -40.6441 H   0  0  0  0  0
   32.4971  -19.0498  -40.8165 H   0  0  0  0  0
   25.6969  -23.3225  -46.0129 H   0  0  0  0  0
   21.4300  -24.2145  -42.8478 H   0  0  0  0  0
   21.8249  -25.7021  -45.4990 H   0  0  0  0  0
   19.4502  -25.6164  -43.4356 H   0  0  0  0  0
   19.9365  -27.0780  -46.0887 H   0  0  0  0  0
   17.5330  -27.0354  -44.0730 H   0  0  0  0  0
   16.4208  -28.5199  -45.4762 H   0  0  0  0  0
   18.2671  -27.9462  -47.6937 H   0  0  0  0  0
   17.0953  -29.3721  -47.5091 H   0  0  0  0  0
   18.6872  -30.4188  -46.2446 H   0  0  0  0  0
   20.8099  -31.4223  -46.6189 H   0  0  0  0  0
   17.7545  -32.0973  -47.4266 H   0  0  0  0  0
   17.3189  -30.9229  -48.6924 H   0  0  0  0  0
   18.2355  -32.3896  -49.1161 H   0  0  0  0  0
   21.5501  -32.5109  -49.3835 H   0  0  0  0  0
   23.0444  -31.8031  -46.8131 H   0  0  0  0  0
   24.0988  -33.4533  -49.0065 H   0  0  0  0  0
   24.1768  -31.7519  -49.5262 H   0  0  0  0  0
   25.0293  -32.2725  -48.0520 H   0  0  0  0  0
   27.9125  -19.8382  -47.9449 H   0  0  0  0  0
   26.2951  -19.4451  -47.3120 H   0  0  0  0  0
   27.3099  -18.1642  -48.0194 H   0  0  0  0  0
   17.5434  -30.1732  -50.4010 H   0  0  0  0  0
   18.2202  -28.5283  -50.4868 H   0  0  0  0  0
   18.1290  -29.5313  -51.9554 H   0  0  0  0  0
   31.3927  -18.5579  -45.5394 H   0  0  0  0  0
   20.3938  -33.7786  -46.8922 H   0  0  0  0  0
  1  2  4  0  0  0
 43  1  4  0  0  0
  2 38  1  0  0  0
 41  2  4  0  0  0
  4  3  1  0  0  0
  3 41  4  0  0  0
  3 43  4  0  0  0
  5  4  2  0  0  0
  6  5  1  0  0  0
  7  6  2  0  0  0
  8  7  1  0  0  0
  9  8  2  0  0  0
 10  9  1  0  0  0
 11 10  1  0  0  0
 11 12  1  0  0  0
 44 11  1  0  0  0
 12 13  1  0  0  0
 12 14  1  0  0  0
 12 15  1  0  0  0
 13 16  1  0  0  0
 13 45  1  0  0  0
 15 51  2  0  0  0
 15 52  1  0  0  0
 16 17  2  0  0  0
 17 18  1  0  0  0
 20 19  1  0  0  0
 19 44  1  0  0  0
 19 46  2  0  0  0
 20 22  4  0  0  0
 42 20  4  0  0  0
 21 23  1  0  0  0
 21 42  4  0  0  0
 21 47  4  0  0  0
 22 47  4  0  0  0
 23 24  2  0  0  0
 24 25  1  0  0  0
 25 26  2  0  0  0
 26 27  1  0  0  0
 27 28  2  0  0  0
 28 29  1  0  0  0
 29 30  1  0  0  0
 30 31  1  0  0  0
 30 48  1  0  0  0
 31 32  1  0  0  0
 31 33  1  0  0  0
 31 34  1  0  0  0
 32 35  1  0  0  0
 32 49  1  0  0  0
 34 53  2  0  0  0
 34 54  1  0  0  0
 35 36  2  0  0  0
 36 37  1  0  0  0
 38 48  1  0  0  0
 38 50  2  0  0  0
 52 39  1  0  0  0
 54 40  1  0  0  0
  1 55  1  0  0  0
  4 56  1  0  0  0
  5 57  1  0  0  0
  6 58  1  0  0  0
  7 59  1  0  0  0
  8 60  1  0  0  0
  9 61  1  0  0  0
 10 62  1  0  0  0
 10 63  1  0  0  0
 11 64  1  0  0  0
 13 65  1  0  0  0
 14 66  1  0  0  0
 14 67  1  0  0  0
 14 68  1  0  0  0
 16 69  1  0  0  0
 17 70  1  0  0  0
 18 71  1  0  0  0
 18 72  1  0  0  0
 18 73  1  0  0  0
 22 74  1  0  0  0
 23 75  1  0  0  0
 24 76  1  0  0  0
 25 77  1  0  0  0
 26 78  1  0  0  0
 27 79  1  0  0  0
 28 80  1  0  0  0
 29 81  1  0  0  0
 29 82  1  0  0  0
 30 83  1  0  0  0
 32 84  1  0  0  0
 33 85  1  0  0  0
 33 86  1  0  0  0
 33 87  1  0  0  0
 35 88  1  0  0  0
 36 89  1  0  0  0
 37 90  1  0  0  0
 37 91  1  0  0  0
 37 92  1  0  0  0
 39 93  1  0  0  0
 39 94  1  0  0  0
 39 95  1  0  0  0
 40 96  1  0  0  0
 40 97  1  0  0  0
 40 98  1  0  0  0
 45 99  1  0  0  0
 49100  1  0  0  0
M  END
$$$$
