3poa_ligand
  -I-interpret- 

118118  0  0  0  0  0  0  0  0999 V2000
   -0.3760   17.3990   41.8580 N   0  3  0  0  0
    0.7010   18.0590   42.6720 C   0  0  0  0  0
    0.8150   17.4100   44.0680 C   0  0  0  0  0
    0.9390   18.0590   45.1160 O   0  0  0  0  0
    0.5310   19.5850   42.7120 C   0  0  0  0  0
    0.2350   20.0610   41.3880 O   0  0  0  0  0
    1.8070   20.2440   43.1930 C   0  0  0  0  0
    0.7630   16.0870   44.0160 N   0  0  0  0  0
    1.0180   15.2020   45.1110 C   0  0  0  0  0
    2.5210   15.1740   45.3800 C   0  0  0  0  0
    3.3090   15.6880   44.5650 O   0  0  0  0  0
    0.5400   13.8160   44.7160 C   0  0  0  0  0
    2.9280   14.5740   46.5200 N   0  0  0  0  0
    4.3270   14.2050   46.7150 C   0  0  0  0  0
    4.8550   13.4010   45.5340 C   0  0  0  0  0
    4.1490   12.5600   44.9860 O   0  0  0  0  0
    4.2830   13.3350   47.9670 C   0  0  0  0  0
    3.1590   13.9470   48.7710 C   0  0  0  0  0
    2.1590   14.4720   47.7750 C   0  0  0  0  0
    6.0800   13.7050   45.1320 N   0  0  0  0  0
    6.7310   13.0070   44.0380 C   0  0  0  0  0
    8.0720   13.7010   43.8820 C   0  0  0  0  0
    8.8300   13.1920   42.6580 C   0  0  0  0  0
    7.8250   15.1130   43.7920 O   0  0  0  0  0
    8.4420   16.1690   44.8360 P   0  0  0  0  0
    9.9250   15.8840   44.7720 O   0  0  0  0  0
    7.7730   15.7930   46.1400 O   0  0  0  0  0
    8.0700   17.5200   44.2950 O   0  0  0  0  0
    6.9040   11.5550   44.3580 C   0  0  0  0  0
    7.2160   11.2090   45.4880 O   0  0  0  0  0
    6.6680   10.6840   43.3790 N   0  0  0  0  0
    6.8820    9.2580   43.5840 C   0  0  0  0  0
    8.3480    8.9430   43.3460 C   0  0  0  0  0
    8.9360    9.3830   42.3550 O   0  0  0  0  0
    5.9810    8.3980   42.6860 C   0  0  0  0  0
    4.5050    8.7600   42.7780 C   0  0  0  0  0
    3.5760    7.6620   42.2910 C   0  0  0  0  0
    3.9290    6.9260   41.3440 O   0  0  0  0  0
    2.4730    7.5470   42.8610 O   0  0  0  0  0
    8.9370    8.1990   44.2760 N   0  0  0  0  0
   10.3430    7.8430   44.2030 C   0  0  0  0  0
   10.5610    6.7260   43.1760 C   0  0  0  0  0
    9.9060    5.6900   43.2280 O   0  0  0  0  0
   10.8430    7.4330   45.5960 C   0  0  0  0  0
   12.3560    7.2780   45.7330 C   0  0  0  0  0
   13.0540    8.6130   45.9610 C   0  0  0  0  0
   14.4960    8.4250   46.4420 C   0  0  0  0  0
   15.2160    9.7310   46.5580 N   0  3  0  0  0
   11.4630    6.9630   42.2280 N   0  0  0  0  0
   11.8520    5.9560   41.2360 C   0  0  0  0  0
   13.0960    5.2330   41.7350 C   0  0  0  0  0
   13.2850    4.0580   41.4470 O   0  0  0  0  0
   12.1400    6.5790   39.8370 C   0  0  0  0  0
   10.9170    7.3400   39.3190 C   0  0  0  0  0
   12.5630    5.5000   38.8210 C   0  0  0  0  0
   11.2130    8.1940   38.1180 C   0  0  0  0  0
   13.9346    5.8467   42.4475 O   0  0  0  0  0
   -0.2286   16.3897   41.8558 H   0  0  0  0  0
   -1.2866   17.6099   42.2663 H   0  0  0  0  0
   -0.3413   17.7510   40.9013 H   0  0  0  0  0
    1.6579   17.8890   42.1784 H   0  0  0  0  0
   -0.2811   19.8320   43.3959 H   0  0  0  0  0
   -0.5730   19.6485   41.0741 H   0  0  0  0  0
    2.6232   19.9892   42.5169 H   0  0  0  0  0
    1.6718   21.3254   43.2100 H   0  0  0  0  0
    2.0411   19.8900   44.1970 H   0  0  0  0  0
    0.5208   15.6639   43.1200 H   0  0  0  0  0
    0.4981   15.5329   46.0100 H   0  0  0  0  0
   -0.5277   13.8494   44.4992 H   0  0  0  0  0
    1.0818   13.4850   43.8300 H   0  0  0  0  0
    0.7240   13.1221   45.5362 H   0  0  0  0  0
    4.9829   15.0709   46.8052 H   0  0  0  0  0
    5.2300   13.3252   48.5066 H   0  0  0  0  0
    4.1152   12.2817   47.7423 H   0  0  0  0  0
    3.5283   14.7470   49.4126 H   0  0  0  0  0
    2.7030   13.2083   49.4301 H   0  0  0  0  0
    1.2912   13.8198   47.6768 H   0  0  0  0  0
    1.7349   15.4288   48.0794 H   0  0  0  0  0
    6.5828   14.4546   45.6070 H   0  0  0  0  0
    6.1458   13.0411   43.1191 H   0  0  0  0  0
    8.7040   13.4832   44.7429 H   0  0  0  0  0
    9.0062   12.1212   42.7607 H   0  0  0  0  0
    8.2386   13.3799   41.7619 H   0  0  0  0  0
    9.7844   13.7128   42.5808 H   0  0  0  0  0
   10.0976   15.0103   45.1305 H   0  0  0  0  0
    8.0673   14.9198   46.4092 H   0  0  0  0  0
    6.3337   11.0191   42.4755 H   0  0  0  0  0
    6.6121    9.0118   44.6110 H   0  0  0  0  0
    6.0848    7.3636   43.0136 H   0  0  0  0  0
    6.2943    8.5628   41.6551 H   0  0  0  0  0
    4.3425    9.6303   42.1422 H   0  0  0  0  0
    4.2776    8.9370   43.8292 H   0  0  0  0  0
    4.8072    7.1812   41.0520 H   0  0  0  0  0
    8.3840    7.8673   45.0663 H   0  0  0  0  0
   10.9192    8.7071   43.8721 H   0  0  0  0  0
   10.4109    6.4544   45.8049 H   0  0  0  0  0
   10.5501    8.2313   46.2780 H   0  0  0  0  0
   12.7380    6.8499   44.8062 H   0  0  0  0  0
   12.5546    6.6404   46.5945 H   0  0  0  0  0
   12.5054    9.1603   46.7275 H   0  0  0  0  0
   13.0758    9.1545   45.0153 H   0  0  0  0  0
   15.0223    7.8064   45.7151 H   0  0  0  0  0
   14.4712    7.9582   47.4267 H   0  0  0  0  0
   16.1695    9.5648   46.8798 H   0  0  0  0  0
   15.2383   10.1877   45.6462 H   0  0  0  0  0
   14.7294   10.3279   47.2268 H   0  0  0  0  0
   11.9021    7.8828   42.1895 H   0  0  0  0  0
   11.0188    5.2636   41.1155 H   0  0  0  0  0
   12.9659    7.2808   39.9532 H   0  0  0  0  0
   10.5774    8.0002   40.1171 H   0  0  0  0  0
   10.1711    6.6024   39.0230 H   0  0  0  0  0
   13.4676    5.0050   39.1741 H   0  0  0  0  0
   11.7630    4.7669   38.7172 H   0  0  0  0  0
   12.7565    5.9677   37.8556 H   0  0  0  0  0
   11.9738    8.9307   38.3762 H   0  0  0  0  0
   11.5764    7.5638   37.3063 H   0  0  0  0  0
   10.3028    8.7047   37.8037 H   0  0  0  0  0
   13.6399    6.7508   42.5796 H   0  0  0  0  0
  1  2  1  0  0  0
  2  3  1  0  0  0
  2  5  1  0  0  0
  3  4  2  0  0  0
  3  8  1  0  0  0
  5  6  1  0  0  0
  5  7  1  0  0  0
  8  9  1  0  0  0
  9 10  1  0  0  0
  9 12  1  0  0  0
 10 11  2  0  0  0
 10 13  1  0  0  0
 13 14  1  0  0  0
 13 19  1  0  0  0
 14 15  1  0  0  0
 14 17  1  0  0  0
 15 16  2  0  0  0
 15 20  1  0  0  0
 17 18  1  0  0  0
 18 19  1  0  0  0
 20 21  1  0  0  0
 21 22  1  0  0  0
 21 29  1  0  0  0
 22 23  1  0  0  0
 22 24  1  0  0  0
 24 25  1  0  0  0
 25 26  1  0  0  0
 25 27  1  0  0  0
 25 28  2  0  0  0
 29 30  2  0  0  0
 29 31  1  0  0  0
 31 32  1  0  0  0
 32 33  1  0  0  0
 32 35  1  0  0  0
 33 34  2  0  0  0
 33 40  1  0  0  0
 35 36  1  0  0  0
 36 37  1  0  0  0
 37 38  1  0  0  0
 37 39  2  0  0  0
 40 41  1  0  0  0
 41 42  1  0  0  0
 41 44  1  0  0  0
 42 43  2  0  0  0
 42 49  1  0  0  0
 44 45  1  0  0  0
 45 46  1  0  0  0
 46 47  1  0  0  0
 47 48  1  0  0  0
 49 50  1  0  0  0
 50 51  1  0  0  0
 50 53  1  0  0  0
 51 52  2  0  0  0
 53 54  1  0  0  0
 53 55  1  0  0  0
 54 56  1  0  0  0
 51 57  1  0  0  0
  1 58  1  0  0  0
  1 59  1  0  0  0
  1 60  1  0  0  0
  2 61  1  0  0  0
  5 62  1  0  0  0
  6 63  1  0  0  0
  7 64  1  0  0  0
  7 65  1  0  0  0
  7 66  1  0  0  0
  8 67  1  0  0  0
  9 68  1  0  0  0
 12 69  1  0  0  0
 12 70  1  0  0  0
 12 71  1  0  0  0
 14 72  1  0  0  0
 17 73  1  0  0  0
 17 74  1  0  0  0
 18 75  1  0  0  0
 18 76  1  0  0  0
 19 77  1  0  0  0
 19 78  1  0  0  0
 20 79  1  0  0  0
 21 80  1  0  0  0
 22 81  1  0  0  0
 23 82  1  0  0  0
 23 83  1  0  0  0
 23 84  1  0  0  0
 26 85  1  0  0  0
 27 86  1  0  0  0
 31 87  1  0  0  0
 32 88  1  0  0  0
 35 89  1  0  0  0
 35 90  1  0  0  0
 36 91  1  0  0  0
 36 92  1  0  0  0
 38 93  1  0  0  0
 40 94  1  0  0  0
 41 95  1  0  0  0
 44 96  1  0  0  0
 44 97  1  0  0  0
 45 98  1  0  0  0
 45 99  1  0  0  0
 46100  1  0  0  0
 46101  1  0  0  0
 47102  1  0  0  0
 47103  1  0  0  0
 48104  1  0  0  0
 48105  1  0  0  0
 48106  1  0  0  0
 49107  1  0  0  0
 50108  1  0  0  0
 53109  1  0  0  0
 54110  1  0  0  0
 54111  1  0  0  0
 55112  1  0  0  0
 55113  1  0  0  0
 55114  1  0  0  0
 56115  1  0  0  0
 56116  1  0  0  0
 56117  1  0  0  0
 57118  1  0  0  0
M  END
$$$$
