### 
### Created by X-TOOL on Mon Sep 10 21:13:06 2018
### 

@<TRIPOS>MOLECULE
3poa_ligand
  114   114     1     0     0
SMALL
GAST_HUCK


@<TRIPOS>ATOM
      1 N          -0.3760   17.3990   41.8580 N.4       1 THR         0.2398
      2 CA          0.7010   18.0590   42.6720 C.3       1 THR         0.0910
      3 C           0.8150   17.4100   44.0680 C.2       1 THR         0.2293
      4 O           0.9390   18.0590   45.1160 O.2       1 THR        -0.3906
      5 CB          0.5310   19.5850   42.7120 C.3       1 THR         0.1120
      6 OG1         0.2350   20.0610   41.3880 O.3       1 THR        -0.3840
      7 CG2         1.8070   20.2440   43.1930 C.3       1 THR        -0.0314
      8 N           0.7630   16.0870   44.0160 N.am      1 ALA        -0.2612
      9 CA          1.0180   15.2020   45.1110 C.3       1 ALA         0.1285
     10 C           2.5210   15.1740   45.3800 C.2       1 ALA         0.2061
     11 O           3.3090   15.6880   44.5650 O.2       1 ALA        -0.3942
     12 CB          0.5400   13.8160   44.7160 C.3       1 ALA        -0.0244
     13 N           2.9280   14.5740   46.5200 N.am      1 PRO        -0.2498
     14 CA          4.3270   14.2050   46.7150 C.3       1 PRO         0.1338
     15 C           4.8550   13.4010   45.5340 C.2       1 PRO         0.2042
     16 O           4.1490   12.5600   44.9860 O.2       1 PRO        -0.3944
     17 CB          4.2830   13.3350   47.9670 C.3       1 PRO        -0.0104
     18 CG          3.1590   13.9470   48.7710 C.3       1 PRO        -0.0281
     19 CD          2.1590   14.4720   47.7750 C.3       1 PRO         0.0369
     20 N           6.0800   13.7050   45.1320 N.am      1 TPO        -0.2611
     21 CA          6.7310   13.0070   44.0380 C.3       1 TPO         0.1612
     22 CB          8.0720   13.7010   43.8820 C.3       1 TPO         0.1262
     23 CG2         8.8300   13.1920   42.6580 C.3       1 TPO        -0.0298
     24 OG1         7.8250   15.1130   43.7920 O.3       1 TPO        -0.2685
     25 P           8.4420   16.1690   44.8360 P.3       1 TPO         0.2014
     26 O1P         9.9250   15.8840   44.7720 O.co2     1 TPO        -0.5537
     27 O2P         7.7730   15.7930   46.1400 O.co2     1 TPO        -0.5537
     28 O3P         8.0700   17.5200   44.2950 O.co2     1 TPO        -0.5537
     29 C           6.9040   11.5550   44.3580 C.2       1 TPO         0.2068
     30 O           7.2160   11.2090   45.4880 O.2       1 TPO        -0.3943
     31 N           6.6680   10.6840   43.3790 N.am      1 GLU        -0.2635
     32 CA          6.8820    9.2580   43.5840 C.3       1 GLU         0.1325
     33 C           8.3480    8.9430   43.3460 C.2       1 GLU         0.2040
     34 O           8.9360    9.3830   42.3550 O.2       1 GLU        -0.3944
     35 CB          5.9810    8.3980   42.6860 C.3       1 GLU        -0.0008
     36 CG          4.5050    8.7600   42.7780 C.3       1 GLU         0.0044
     37 CD          3.5760    7.6620   42.2910 C.2       1 GLU         0.0350
     38 OE1         3.9290    6.9260   41.3440 O.co2     1 GLU        -0.5690
     39 OE2         2.4730    7.5470   42.8610 O.co2     1 GLU        -0.5690
     40 N           8.9370    8.1990   44.2760 N.am      1 LYS        -0.2637
     41 CA         10.3430    7.8430   44.2030 C.3       1 LYS         0.1309
     42 C          10.5610    6.7260   43.1760 C.2       1 LYS         0.2033
     43 O           9.9060    5.6900   43.2280 O.2       1 LYS        -0.3944
     44 CB         10.8430    7.4330   45.5960 C.3       1 LYS        -0.0122
     45 CG         12.3560    7.2780   45.7330 C.3       1 LYS        -0.0440
     46 CD         13.0540    8.6130   45.9610 C.3       1 LYS        -0.0124
     47 CE         14.4960    8.4250   46.4420 C.3       1 LYS        -0.0354
     48 NZ         15.2160    9.7310   46.5580 N.4       1 LYS         0.2185
     49 N          11.4630    6.9630   42.2280 N.am      1 ILE        -0.2692
     50 CA         11.8520    5.9560   41.2360 C.3       1 ILE         0.0969
     51 C          13.0960    5.2330   41.7350 C.2       1 ILE         0.0604
     52 O          13.2850    4.0580   41.4470 O.co2     1 ILE        -0.5666
     53 CB         12.1400    6.5790   39.8370 C.3       1 ILE        -0.0092
     54 CG1        10.9170    7.3400   39.3190 C.3       1 ILE        -0.0497
     55 CG2        12.5630    5.5000   38.8210 C.3       1 ILE        -0.0588
     56 CD1        11.2130    8.1940   38.1180 C.3       1 ILE        -0.0649
     57 H          -0.2286   16.3897   41.8558 H         1 THR         0.2016
     58 H          -1.2866   17.6099   42.2663 H         1 THR         0.2016
     59 H          -0.3413   17.7510   40.9013 H         1 THR         0.2016
     60 H           1.6579   17.8890   42.1784 H         1 THR         0.1125
     61 H          -0.2811   19.8320   43.3959 H         1 THR         0.0674
     62 H           0.1279   21.0148   41.4086 H         1 THR         0.2102
     63 H           2.6232   19.9892   42.5169 H         1 THR         0.0258
     64 H           1.6718   21.3254   43.2100 H         1 THR         0.0258
     65 H           2.0411   19.8900   44.1970 H         1 THR         0.0258
     66 H           0.5208   15.6639   43.1200 H         1 ALA         0.1884
     67 H           0.4981   15.5329   46.0100 H         1 ALA         0.0797
     68 H          -0.5277   13.8494   44.4992 H         1 ALA         0.0277
     69 H           1.0818   13.4850   43.8300 H         1 ALA         0.0277
     70 H           0.7240   13.1221   45.5362 H         1 ALA         0.0277
     71 H           4.9829   15.0709   46.8052 H         1 PRO         0.0802
     72 H           5.2300   13.3252   48.5066 H         1 PRO         0.0313
     73 H           4.1152   12.2817   47.7423 H         1 PRO         0.0313
     74 H           3.5283   14.7470   49.4126 H         1 PRO         0.0287
     75 H           2.7030   13.2083   49.4301 H         1 PRO         0.0287
     76 H           1.2912   13.8198   47.6768 H         1 PRO         0.0524
     77 H           1.7349   15.4288   48.0794 H         1 PRO         0.0524
     78 H           6.5828   14.4546   45.6070 H         1 TPO         0.1884
     79 H           6.1458   13.0411   43.1191 H         1 TPO         0.0830
     80 H           8.7040   13.4832   44.7429 H         1 TPO         0.0695
     81 H           9.0062   12.1212   42.7607 H         1 TPO         0.0260
     82 H           8.2386   13.3799   41.7619 H         1 TPO         0.0260
     83 H           9.7844   13.7128   42.5808 H         1 TPO         0.0260
     84 H           6.3337   11.0191   42.4755 H         1 GLU         0.1883
     85 H           6.6121    9.0118   44.6110 H         1 GLU         0.0801
     86 H           6.0848    7.3636   43.0136 H         1 GLU         0.0330
     87 H           6.2943    8.5628   41.6551 H         1 GLU         0.0330
     88 H           4.3425    9.6303   42.1422 H         1 GLU         0.0433
     89 H           4.2776    8.9370   43.8292 H         1 GLU         0.0433
     90 H           8.3840    7.8673   45.0663 H         1 LYS         0.1883
     91 H          10.9192    8.7071   43.8721 H         1 LYS         0.0800
     92 H          10.4109    6.4544   45.8049 H         1 LYS         0.0312
     93 H          10.5501    8.2313   46.2780 H         1 LYS         0.0312
     94 H          12.7380    6.8499   44.8062 H         1 LYS         0.0269
     95 H          12.5546    6.6404   46.5945 H         1 LYS         0.0269
     96 H          12.5054    9.1603   46.7275 H         1 LYS         0.0317
     97 H          13.0758    9.1545   45.0153 H         1 LYS         0.0317
     98 H          15.0223    7.8064   45.7151 H         1 LYS         0.0813
     99 H          14.4712    7.9582   47.4267 H         1 LYS         0.0813
    100 H          16.1695    9.5648   46.8798 H         1 LYS         0.1994
    101 H          15.2383   10.1877   45.6462 H         1 LYS         0.1994
    102 H          14.7294   10.3279   47.2268 H         1 LYS         0.1994
    103 H          11.9021    7.8828   42.1895 H         1 ILE         0.1875
    104 H          11.0188    5.2636   41.1155 H         1 ILE         0.0729
    105 O          13.9346    5.8467   42.4475 O.co2     1 ILE        -0.5666
    106 H          12.9659    7.2808   39.9532 H         1 ILE         0.0338
    107 H          10.5774    8.0002   40.1171 H         1 ILE         0.0267
    108 H          10.1711    6.6024   39.0230 H         1 ILE         0.0267
    109 H          13.4676    5.0050   39.1741 H         1 ILE         0.0234
    110 H          11.7630    4.7669   38.7172 H         1 ILE         0.0234
    111 H          12.7565    5.9677   37.8556 H         1 ILE         0.0234
    112 H          11.9738    8.9307   38.3762 H         1 ILE         0.0230
    113 H          11.5764    7.5638   37.3063 H         1 ILE         0.0230
    114 H          10.3028    8.7047   37.8037 H         1 ILE         0.0230
@<TRIPOS>BOND
     1    1    2 1  
     2    2    3 1  
     3    2    5 1  
     4    3    4 2  
     5    3    8 am 
     6    5    6 1  
     7    5    7 1  
     8    8    9 1  
     9    9   10 1  
    10    9   12 1  
    11   10   11 2  
    12   10   13 am 
    13   13   14 1  
    14   13   19 1  
    15   14   15 1  
    16   14   17 1  
    17   15   16 2  
    18   15   20 am 
    19   17   18 1  
    20   18   19 1  
    21   20   21 1  
    22   21   22 1  
    23   21   29 1  
    24   22   23 1  
    25   22   24 1  
    26   24   25 1  
    27   25   26 ar 
    28   25   27 ar 
    29   25   28 ar 
    30   29   30 2  
    31   29   31 am 
    32   31   32 1  
    33   32   33 1  
    34   32   35 1  
    35   33   34 2  
    36   33   40 am 
    37   35   36 1  
    38   36   37 1  
    39   37   38 ar 
    40   37   39 ar 
    41   40   41 1  
    42   41   42 1  
    43   41   44 1  
    44   42   43 2  
    45   42   49 am 
    46   44   45 1  
    47   45   46 1  
    48   46   47 1  
    49   47   48 1  
    50   49   50 1  
    51   50   51 1  
    52   50   53 1  
    53   51   52 ar 
    54   53   54 1  
    55   53   55 1  
    56   54   56 1  
    57    1   57 1  
    58    1   58 1  
    59    1   59 1  
    60    2   60 1  
    61    5   61 1  
    62    6   62 1  
    63    7   63 1  
    64    7   64 1  
    65    7   65 1  
    66    8   66 1  
    67    9   67 1  
    68   12   68 1  
    69   12   69 1  
    70   12   70 1  
    71   14   71 1  
    72   17   72 1  
    73   17   73 1  
    74   18   74 1  
    75   18   75 1  
    76   19   76 1  
    77   19   77 1  
    78   20   78 1  
    79   21   79 1  
    80   22   80 1  
    81   23   81 1  
    82   23   82 1  
    83   23   83 1  
    84   31   84 1  
    85   32   85 1  
    86   35   86 1  
    87   35   87 1  
    88   36   88 1  
    89   36   89 1  
    90   40   90 1  
    91   41   91 1  
    92   44   92 1  
    93   44   93 1  
    94   45   94 1  
    95   45   95 1  
    96   46   96 1  
    97   46   97 1  
    98   47   98 1  
    99   47   99 1  
   100   48  100 1  
   101   48  101 1  
   102   48  102 1  
   103   49  103 1  
   104   50  104 1  
   105   51  105 ar 
   106   53  106 1  
   107   54  107 1  
   108   54  108 1  
   109   55  109 1  
   110   55  110 1  
   111   55  111 1  
   112   56  112 1  
   113   56  113 1  
   114   56  114 1  
@<TRIPOS>SUBSTRUCTURE
     1 THR         1

