6qrg_ligand
  -I-interpret- 

 34 35  0  0  0  0  0  0  0  0999 V2000
  -19.7880   17.6330  -12.8060 C   0  0  0  0  0
  -18.3970   17.7750  -12.7050 C   0  0  0  0  0
  -20.3830   19.9030  -12.9800 O   0  0  0  0  0
  -20.7960   18.7750  -12.8050 C   0  0  0  0  0
  -22.1780   18.5160  -12.5680 O   0  0  0  0  0
  -23.0620   19.6500  -12.5350 C   0  0  0  0  0
  -23.4580   20.0870  -11.1090 C   0  0  0  0  0
  -22.7370   21.1210  -10.5060 C   0  0  0  0  0
  -23.0580   21.5410   -9.2140 C   0  0  0  0  0
  -24.1120   20.9240   -8.5280 C   0  0  0  0  0
  -24.8430   19.8920   -9.1090 C   0  0  0  0  0
  -25.9450   19.2920   -8.3510 O   0  0  0  0  0
  -25.7580   17.9480   -7.8360 C   0  0  0  0  0
  -26.3950   17.7060   -6.4680 C   0  0  0  0  0
  -26.8820   16.4290   -6.1200 O   0  0  0  0  0
  -27.2950   16.2660   -4.7680 C   0  0  0  0  0
  -26.4790   18.5960   -5.6460 O   0  0  0  0  0
  -24.5150   19.4770  -10.4170 C   0  0  0  0  0
  -20.0700   16.2850  -12.8910 C   0  0  0  0  0
  -18.9110   15.6430  -12.8360 N   0  0  0  0  0
  -17.8680   16.5190  -12.7310 N   0  0  0  0  0
  -17.8442   18.7107  -12.6216 H   0  0  0  0  0
  -23.9770   19.3650  -13.0543 H   0  0  0  0  0
  -22.5373   20.4857  -12.9979 H   0  0  0  0  0
  -21.9212   21.6012  -11.0463 H   0  0  0  0  0
  -22.4920   22.3441   -8.7419 H   0  0  0  0  0
  -24.3641   21.2580   -7.5215 H   0  0  0  0  0
  -24.6849   17.7939   -7.7225 H   0  0  0  0  0
  -26.2363   17.2654   -8.5384 H   0  0  0  0  0
  -26.4511   16.4596   -4.1058 H   0  0  0  0  0
  -28.0995   16.9677   -4.5481 H   0  0  0  0  0
  -27.6495   15.2462   -4.6182 H   0  0  0  0  0
  -25.0854   18.6788  -10.8920 H   0  0  0  0  0
  -21.0577   15.8336  -12.9854 H   0  0  0  0  0
  1  2  4  0  0  0
  1  4  1  0  0  0
  1 19  4  0  0  0
  2 21  4  0  0  0
  4  3  2  0  0  0
  4  5  1  0  0  0
  5  6  1  0  0  0
  6  7  1  0  0  0
  7  8  4  0  0  0
  7 18  4  0  0  0
  8  9  4  0  0  0
  9 10  4  0  0  0
 10 11  4  0  0  0
 11 12  1  0  0  0
 11 18  4  0  0  0
 12 13  1  0  0  0
 13 14  1  0  0  0
 14 15  1  0  0  0
 14 17  2  0  0  0
 15 16  1  0  0  0
 19 20  4  0  0  0
 20 21  4  0  0  0
  2 22  1  0  0  0
  6 23  1  0  0  0
  6 24  1  0  0  0
  8 25  1  0  0  0
  9 26  1  0  0  0
 10 27  1  0  0  0
 13 28  1  0  0  0
 13 29  1  0  0  0
 16 30  1  0  0  0
 16 31  1  0  0  0
 16 32  1  0  0  0
 18 33  1  0  0  0
 19 34  1  0  0  0
M  END
$$$$
