5kh3_ligand
  -I-interpret- 

 23 24  0  0  0  0  0  0  0  0999 V2000
   -1.4030    2.2400    8.0780 C   0  0  0  0  0
    3.4300    2.3720    7.6570 C   0  0  0  0  0
    0.9930    1.9860    7.8180 C   0  0  0  0  0
    2.3630    1.5490    8.1240 C   0  0  0  0  0
   -1.6140    4.0720    6.5290 C   0  0  0  0  0
   -2.7430    2.3280    8.4060 C   0  0  0  0  0
    3.0940    4.3250    9.2170 O   0  0  0  0  0
   -3.5240    3.2740    7.7970 C   0  0  0  0  0
   -2.9660    4.1110    6.8610 C   0  0  0  0  0
   -0.8050    3.1180    7.1750 C   0  0  0  0  0
   -4.0150    5.2110    6.0250 Cl  0  0  0  0  0
    0.5830    2.9450    7.0450 N   0  0  0  0  0
   -0.2390    1.1730    8.7290 S   0  0  0  0  0
    3.5500    3.7530    8.1900 C   0  0  0  0  0
    4.2250    4.2470    7.2720 O   0  0  0  0  0
    3.2471    2.4949    6.5895 H   0  0  0  0  0
    4.3403    1.8646    7.9764 H   0  0  0  0  0
    2.4393    1.5547    9.2113 H   0  0  0  0  0
    2.4869    0.5902    7.6205 H   0  0  0  0  0
   -1.1956    4.7581    5.7926 H   0  0  0  0  0
   -3.1743    1.6504    9.1429 H   0  0  0  0  0
    2.6101    3.6884    9.7482 H   0  0  0  0  0
   -4.5799    3.3622    8.0528 H   0  0  0  0  0
  1  6  4  0  0  0
 10  1  4  0  0  0
  1 13  4  0  0  0
  4  2  1  0  0  0
  2 14  1  0  0  0
  3  4  1  0  0  0
  3 12  4  0  0  0
 13  3  4  0  0  0
  5  9  4  0  0  0
  5 10  4  0  0  0
  6  8  4  0  0  0
 14  7  1  0  0  0
  8  9  4  0  0  0
  9 11  1  0  0  0
 10 12  4  0  0  0
 14 15  2  0  0  0
  2 16  1  0  0  0
  2 17  1  0  0  0
  4 18  1  0  0  0
  4 19  1  0  0  0
  5 20  1  0  0  0
  6 21  1  0  0  0
  7 22  1  0  0  0
  8 23  1  0  0  0
M  END
$$$$
