4yxu_ligand
  -I-interpret- 

 26 26  0  0  0  0  0  0  0  0999 V2000
   17.7280    1.0490   78.4780 C   0  0  0  0  0
   15.8020    2.6030   82.0840 C   0  0  0  0  0
   18.0600    0.5140   79.8570 C   0  0  0  0  0
   16.5270   -0.0450   81.7770 C   0  0  0  0  0
   17.0740    0.9090   80.9310 C   0  0  0  0  0
   13.5060    3.3200   83.7680 O   0  0  0  0  0
   14.1370    2.1050   84.1920 S   0  0  0  0  0
   13.3220    0.9650   84.4830 O   0  0  0  0  0
   14.9700    2.4460   85.5160 N   0  0  0  0  0
   15.2690    1.6350   82.9180 C   0  0  0  0  0
   16.6980    2.2330   81.0990 C   0  0  0  0  0
   15.6270    0.3060   82.7660 C   0  0  0  0  0
   18.7540    0.6660   77.4290 C   0  0  0  0  0
   17.7083    2.1370   78.5406 H   0  0  0  0  0
   16.7715    0.6209   78.1779 H   0  0  0  0  0
   15.5173    3.6484   82.2033 H   0  0  0  0  0
   19.0262    0.9322   80.1392 H   0  0  0  0  0
   18.0440   -0.5739   79.7914 H   0  0  0  0  0
   16.8121   -1.0905   81.6597 H   0  0  0  0  0
   14.9695    3.3956   85.8884 H   0  0  0  0  0
   15.5012    1.7137   85.9871 H   0  0  0  0  0
   17.1166    2.9957   80.4424 H   0  0  0  0  0
   15.2032   -0.4562   83.4199 H   0  0  0  0  0
   19.7281    1.0643   77.7129 H   0  0  0  0  0
   18.8109   -0.4202   77.3578 H   0  0  0  0  0
   18.4579    1.0796   76.4650 H   0  0  0  0  0
  3  1  1  0  0  0
  1 13  1  0  0  0
 10  2  4  0  0  0
  2 11  4  0  0  0
  5  3  1  0  0  0
  5  4  4  0  0  0
  4 12  4  0  0  0
 11  5  4  0  0  0
  7  6  2  0  0  0
  7  8  2  0  0  0
  7  9  1  0  0  0
  7 10  1  0  0  0
 10 12  4  0  0  0
  1 14  1  0  0  0
  1 15  1  0  0  0
  2 16  1  0  0  0
  3 17  1  0  0  0
  3 18  1  0  0  0
  4 19  1  0  0  0
  9 20  1  0  0  0
  9 21  1  0  0  0
 11 22  1  0  0  0
 12 23  1  0  0  0
 13 24  1  0  0  0
 13 25  1  0  0  0
 13 26  1  0  0  0
M  END
$$$$
