4kc2_ligand
  -I-interpret- 

 45 47  0  0  0  0  0  0  0  0999 V2000
   17.9810   23.6120   11.2450 O   0  0  0  0  0
   17.4920   23.5780   10.0860 C   0  0  0  0  0
   18.1390   24.1820    9.0760 N   0  0  0  0  0
   17.6510   24.1570    7.8260 C   0  0  0  0  0
   18.2810   24.7260    6.9120 O   0  0  0  0  0
   16.2900   22.9060    9.8430 C   0  0  0  0  0
   15.7750   22.8790    8.5430 C   0  0  0  0  0
   16.4350   23.4880    7.5410 N   0  0  0  0  0
   15.9160   23.4750    6.1610 C   0  0  0  0  0
   14.6010   22.9100    6.1140 O   0  0  0  0  0
   16.7950   22.5830    5.2920 C   0  0  0  0  0
   16.8410   23.0820    3.9440 O   0  0  0  0  0
   16.0510   21.2690    5.3080 C   0  0  0  0  0
   16.3730   20.4590    4.1750 O   0  0  0  0  0
   14.5990   21.7310    5.3050 C   0  0  0  0  0
   13.5610   20.7300    5.8190 C   0  0  0  0  0
   13.9870   20.0050    7.0040 N   0  0  0  0  0
   14.5410   18.7950    6.9210 C   0  0  0  0  0
   14.9740   18.3660    5.8580 O   0  0  0  0  0
   14.6620   17.9240    8.1420 C   0  0  0  0  0
   14.1020   18.3020    9.3660 C   0  0  0  0  0
   14.2420   17.4560   10.4700 C   0  0  0  0  0
   14.9390   16.2550   10.3330 C   0  0  0  0  0
   15.4790   15.9100    9.0930 C   0  0  0  0  0
   15.3350   16.7500    8.0370 N   0  0  0  0  0
   16.2470   14.6130    8.9180 C   0  0  0  0  0
   16.3620   14.3010    7.5280 O   0  0  0  0  0
   19.0162   24.6680    9.2621 H   0  0  0  0  0
   15.7611   22.4095   10.6565 H   0  0  0  0  0
   14.8363   22.3631    8.3409 H   0  0  0  0  0
   15.9050   24.5060    5.8074 H   0  0  0  0  0
   17.8241   22.5215    5.6458 H   0  0  0  0  0
   17.3978   22.5097    3.4110 H   0  0  0  0  0
   16.2984   20.6302    6.1558 H   0  0  0  0  0
   15.8817   19.6356    4.2217 H   0  0  0  0  0
   14.2833   21.8824    4.2728 H   0  0  0  0  0
   13.3960   19.9967    5.0296 H   0  0  0  0  0
   12.6674   21.2944    6.0855 H   0  0  0  0  0
   13.8592   20.4320    7.9215 H   0  0  0  0  0
   13.5628   19.2448    9.4583 H   0  0  0  0  0
   13.8095   17.7327   11.4315 H   0  0  0  0  0
   15.0610   15.5907   11.1885 H   0  0  0  0  0
   15.7145   13.8082    9.4247 H   0  0  0  0  0
   17.2434   14.7241    9.3456 H   0  0  0  0  0
   16.8486   13.4799    7.4247 H   0  0  0  0  0
  1  2  2  0  0  0
  2  3  1  0  0  0
  2  6  1  0  0  0
  3  4  1  0  0  0
  4  5  2  0  0  0
  4  8  1  0  0  0
  6  7  2  0  0  0
  7  8  1  0  0  0
  8  9  1  0  0  0
  9 10  1  0  0  0
  9 11  1  0  0  0
 10 15  1  0  0  0
 11 12  1  0  0  0
 11 13  1  0  0  0
 13 14  1  0  0  0
 13 15  1  0  0  0
 15 16  1  0  0  0
 16 17  1  0  0  0
 17 18  1  0  0  0
 18 19  2  0  0  0
 18 20  1  0  0  0
 20 21  4  0  0  0
 20 25  4  0  0  0
 21 22  4  0  0  0
 22 23  4  0  0  0
 23 24  4  0  0  0
 24 25  4  0  0  0
 24 26  1  0  0  0
 26 27  1  0  0  0
  3 28  1  0  0  0
  6 29  1  0  0  0
  7 30  1  0  0  0
  9 31  1  0  0  0
 11 32  1  0  0  0
 12 33  1  0  0  0
 13 34  1  0  0  0
 14 35  1  0  0  0
 15 36  1  0  0  0
 16 37  1  0  0  0
 16 38  1  0  0  0
 17 39  1  0  0  0
 21 40  1  0  0  0
 22 41  1  0  0  0
 23 42  1  0  0  0
 26 43  1  0  0  0
 26 44  1  0  0  0
 27 45  1  0  0  0
M  END
$$$$
