2aux_ligand
  -I-interpret- 

 51 51  0  0  0  0  0  0  0  0999 V2000
   13.3290   60.2210   73.6160 C   0  0  0  0  0
   12.9760   61.7130   73.6700 C   0  0  0  0  0
   13.1170   62.2380   75.1410 C   0  0  0  0  0
   14.5180   62.8720   75.3340 C   0  0  0  0  0
   16.8320   63.6100   76.4650 O   0  0  0  0  0
   13.5090   65.0180   75.9410 N   0  0  0  0  0
   12.6350   65.5680   76.7950 C   0  0  0  0  0
   12.5200   65.1160   77.9140 O   0  0  0  0  0
   11.8930   66.6090   76.4110 O   0  0  0  0  0
   11.0120   67.0890   77.4360 C   0  0  0  0  0
    9.5350   67.0000   76.9360 C   0  0  0  0  0
    9.1450   65.5580   76.5790 C   0  0  0  0  0
    8.5670   64.7380   77.5400 C   0  0  0  0  0
    8.2130   63.4300   77.2120 C   0  0  0  0  0
    8.4410   62.9470   75.9280 C   0  0  0  0  0
    9.0160   63.7610   74.9670 C   0  0  0  0  0
    9.3690   65.0660   75.2890 C   0  0  0  0  0
   11.3380   68.5900   77.7110 C   0  0  0  0  0
   11.4350   69.3290   76.3860 C   0  0  0  0  0
   12.6550   68.7240   78.4560 C   0  0  0  0  0
   15.8720   64.6270   76.5270 C   0  0  0  0  0
   14.4540   63.9950   76.4030 C   0  0  0  0  0
   14.3557   60.0794   73.9535 H   0  0  0  0  0
   12.6520   59.6651   74.2647 H   0  0  0  0  0
   13.2292   59.8622   72.5916 H   0  0  0  0  0
   11.9487   61.8531   73.3338 H   0  0  0  0  0
   13.6545   62.2680   73.0222 H   0  0  0  0  0
   12.9966   61.4067   75.8356 H   0  0  0  0  0
   12.3501   62.9884   75.3331 H   0  0  0  0  0
   14.8506   63.2983   74.3876 H   0  0  0  0  0
   15.2156   62.1028   75.6653 H   0  0  0  0  0
   17.7086   63.9939   76.5410 H   0  0  0  0  0
   13.5174   65.3121   74.9644 H   0  0  0  0  0
   11.1406   66.4901   78.3376 H   0  0  0  0  0
    9.4366   67.6149   76.0414 H   0  0  0  0  0
    8.8794   67.3463   77.7350 H   0  0  0  0  0
    8.3909   65.1160   78.5471 H   0  0  0  0  0
    7.7569   62.7850   77.9630 H   0  0  0  0  0
    8.1657   61.9226   75.6770 H   0  0  0  0  0
    9.1913   63.3795   73.9611 H   0  0  0  0  0
    9.8219   65.7083   74.5337 H   0  0  0  0  0
   10.5440   69.0163   78.3241 H   0  0  0  0  0
   12.2265   68.8861   75.7815 H   0  0  0  0  0
   10.4851   69.2504   75.8572 H   0  0  0  0  0
   11.6627   70.3785   76.5726 H   0  0  0  0  0
   12.5879   68.1967   79.4076 H   0  0  0  0  0
   13.4560   68.2925   77.8558 H   0  0  0  0  0
   12.8627   69.7785   78.6373 H   0  0  0  0  0
   16.0319   65.3332   75.7123 H   0  0  0  0  0
   15.9570   65.1550   77.4768 H   0  0  0  0  0
   14.1331   63.5995   77.3667 H   0  0  0  0  0
  2  1  1  0  0  0
  3  2  1  0  0  0
  4  3  1  0  0  0
 22  4  1  0  0  0
 21  5  1  0  0  0
  6  7  1  0  0  0
 22  6  1  0  0  0
  7  8  2  0  0  0
  7  9  1  0  0  0
  9 10  1  0  0  0
 10 11  1  0  0  0
 10 18  1  0  0  0
 11 12  1  0  0  0
 12 13  4  0  0  0
 12 17  4  0  0  0
 13 14  4  0  0  0
 14 15  4  0  0  0
 16 15  4  0  0  0
 17 16  4  0  0  0
 18 19  1  0  0  0
 18 20  1  0  0  0
 21 22  1  0  0  0
  1 23  1  0  0  0
  1 24  1  0  0  0
  1 25  1  0  0  0
  2 26  1  0  0  0
  2 27  1  0  0  0
  3 28  1  0  0  0
  3 29  1  0  0  0
  4 30  1  0  0  0
  4 31  1  0  0  0
  5 32  1  0  0  0
  6 33  1  0  0  0
 10 34  1  0  0  0
 11 35  1  0  0  0
 11 36  1  0  0  0
 13 37  1  0  0  0
 14 38  1  0  0  0
 15 39  1  0  0  0
 16 40  1  0  0  0
 17 41  1  0  0  0
 18 42  1  0  0  0
 19 43  1  0  0  0
 19 44  1  0  0  0
 19 45  1  0  0  0
 20 46  1  0  0  0
 20 47  1  0  0  0
 20 48  1  0  0  0
 21 49  1  0  0  0
 21 50  1  0  0  0
 22 51  1  0  0  0
M  END
$$$$
