2hqu_ligand
  -I-interpret- 

 44 45  0  0  0  0  0  0  0  0999 V2000
   25.0820    8.4480   -1.8590 O   0  0  0  0  0
   24.6340    8.1740   -2.9650 C   0  0  0  0  0
   23.9940    6.9690   -3.2000 C   0  0  0  0  0
   23.5280    6.7140   -4.4890 C   0  0  0  0  0
   24.8140    9.0780   -3.9920 N   0  0  0  0  0
   24.3450    8.8360   -5.2660 C   0  0  0  0  0
   24.5200    9.6870   -6.1580 O   0  0  0  0  0
   23.6810    7.6400   -5.4960 N   0  0  0  0  0
   23.1970    7.3480   -6.8620 C   0  0  0  0  0
   24.3520    6.6280   -7.5530 C   0  0  0  0  0
   23.8920    5.1830   -7.5510 C   0  0  0  0  0
   24.4460    4.4200   -8.5980 O   0  0  0  0  0
   22.0870    6.4560   -6.8460 O   0  0  0  0  0
   22.3780    5.3050   -7.6270 C   0  0  0  0  0
   21.6630    4.0960   -7.0570 C   0  0  0  0  0
   21.9810    3.9890   -5.6840 O   0  0  0  0  0
   21.3150    2.8950   -4.7010 P   0  0  0  0  0
   20.9760    1.6620   -5.4980 O   0  0  0  0  0
   22.2350    2.6820   -3.5220 O   0  0  0  0  0
   19.8720    3.5650   -4.2050 N   0  0  0  0  0
   18.3510    3.1740   -4.8050 P   0  0  0  0  0
   18.2120    1.6820   -4.8730 O   0  0  0  0  0
   17.3570    3.9120   -3.9550 O   0  0  0  0  0
   18.2950    3.7200   -6.3160 O   0  0  0  0  0
   18.0220    2.7590   -7.5690 P   0  0  0  0  0
   19.0570    1.6580   -7.7230 O   0  0  0  0  0
   16.6910    2.1380   -7.2990 O   0  0  0  0  0
   18.1020    3.5420   -8.8460 O   0  0  0  0  0
   23.8584    6.2408   -2.4004 H   0  0  0  0  0
   23.0345    5.7660   -4.7029 H   0  0  0  0  0
   25.3081    9.9502   -3.8033 H   0  0  0  0  0
   22.8856    8.2687   -7.3554 H   0  0  0  0  0
   25.3065    6.7713   -7.0466 H   0  0  0  0  0
   24.5529    7.0092   -8.5542 H   0  0  0  0  0
   24.2243    4.6367   -6.6682 H   0  0  0  0  0
   24.1189    3.5191   -8.5437 H   0  0  0  0  0
   22.0399    5.3769   -8.6607 H   0  0  0  0  0
   21.9806    3.1954   -7.5825 H   0  0  0  0  0
   20.5860    4.2097   -7.1805 H   0  0  0  0  0
   22.3894    3.5213   -3.0823 H   0  0  0  0  0
   19.9154    4.2744   -3.4734 H   0  0  0  0  0
   17.5447    4.8529   -3.9890 H   0  0  0  0  0
   19.9159    2.0499   -7.8969 H   0  0  0  0  0
   18.9854    3.9052   -8.9425 H   0  0  0  0  0
  1  2  2  0  0  0
  2  3  1  0  0  0
  2  5  1  0  0  0
  3  4  2  0  0  0
  4  8  1  0  0  0
  5  6  1  0  0  0
  6  7  2  0  0  0
  6  8  1  0  0  0
  8  9  1  0  0  0
  9 10  1  0  0  0
  9 13  1  0  0  0
 10 11  1  0  0  0
 11 12  1  0  0  0
 11 14  1  0  0  0
 13 14  1  0  0  0
 14 15  1  0  0  0
 15 16  1  0  0  0
 16 17  1  0  0  0
 17 18  2  0  0  0
 17 19  1  0  0  0
 17 20  1  0  0  0
 20 21  1  0  0  0
 21 22  2  0  0  0
 21 23  1  0  0  0
 21 24  1  0  0  0
 24 25  1  0  0  0
 25 26  1  0  0  0
 25 27  2  0  0  0
 25 28  1  0  0  0
  3 29  1  0  0  0
  4 30  1  0  0  0
  5 31  1  0  0  0
  9 32  1  0  0  0
 10 33  1  0  0  0
 10 34  1  0  0  0
 11 35  1  0  0  0
 12 36  1  0  0  0
 14 37  1  0  0  0
 15 38  1  0  0  0
 15 39  1  0  0  0
 19 40  1  0  0  0
 20 41  1  0  0  0
 23 42  1  0  0  0
 26 43  1  0  0  0
 28 44  1  0  0  0
M  END
$$$$
