### 
### Created by X-TOOL on Mon Sep 10 21:12:56 2018
### 

@<TRIPOS>MOLECULE
2hqu_ligand
   40    41     1     0     0
SMALL
GAST_HUCK


@<TRIPOS>ATOM
      1 O4         25.0820    8.4480   -1.8590 O.2       1 DUP        -0.4124
      2 C4         24.6340    8.1740   -2.9650 C.2       1 DUP         0.1822
      3 C5         23.9940    6.9690   -3.2000 C.2       1 DUP         0.0062
      4 C6         23.5280    6.7140   -4.4890 C.2       1 DUP         0.0590
      5 N3         24.8140    9.0780   -3.9920 N.am      1 DUP        -0.1865
      6 C2         24.3450    8.8360   -5.2660 C.2       1 DUP         0.3327
      7 O2         24.5200    9.6870   -6.1580 O.2       1 DUP        -0.3815
      8 N1         23.6810    7.6400   -5.4960 N.am      1 DUP        -0.1618
      9 C1'        23.1970    7.3480   -6.8620 C.3       1 DUP         0.1800
     10 C2'        24.3520    6.6280   -7.5530 C.3       1 DUP         0.0316
     11 C3'        23.8920    5.1830   -7.5510 C.3       1 DUP         0.0890
     12 O3'        24.4460    4.4200   -8.5980 O.3       1 DUP        -0.3889
     13 O4'        22.0870    6.4560   -6.8460 O.3       1 DUP        -0.3386
     14 C4'        22.3780    5.3050   -7.6270 C.3       1 DUP         0.1166
     15 C5'        21.6630    4.0960   -7.0570 C.3       1 DUP         0.1132
     16 O5'        21.9810    3.9890   -5.6840 O.3       1 DUP        -0.2529
     17 PA         21.3150    2.8950   -4.7010 P.3       1 DUP         0.2362
     18 O1A        20.9760    1.6620   -5.4980 O.co2     1 DUP        -0.6036
     19 O2A        22.2350    2.6820   -3.5220 O.co2     1 DUP        -0.6036
     20 N3A        19.8720    3.5650   -4.2050 N.am      1 DUP        -0.1581
     21 PB         18.3510    3.1740   -4.8050 P.3       1 DUP         0.2871
     22 O1B        18.2120    1.6820   -4.8730 O.co2     1 DUP        -0.5685
     23 O2B        17.3570    3.9120   -3.9550 O.co2     1 DUP        -0.5685
     24 O3B        18.2950    3.7200   -6.3160 O.3       1 DUP        -0.1659
     25 PG         18.0220    2.7590   -7.5690 P.3       1 DUP         0.2047
     26 O2G        19.0570    1.6580   -7.7230 O.co2     1 DUP        -0.5893
     27 O1G        16.6910    2.1380   -7.2990 O.co2     1 DUP        -0.5893
     28 O3G        18.1020    3.5420   -8.8460 O.co2     1 DUP        -0.5893
     29 H1         23.8585    6.2414   -2.4011 H         1 DUP         0.0258
     30 H2         23.0349    5.7668   -4.7027 H         1 DUP         0.1178
     31 H3         25.2984    9.9331   -3.8070 H         1 DUP         0.2259
     32 H4         22.9301    8.2777   -7.3859 H         1 DUP         0.0970
     33 H5         25.2884    6.7470   -6.9883 H         1 DUP         0.0345
     34 H6         24.4931    6.9980   -8.5792 H         1 DUP         0.0345
     35 H7         24.1774    4.7047   -6.6024 H         1 DUP         0.0622
     36 H8         24.1223    3.5285   -8.5443 H         1 DUP         0.2099
     37 H9         22.0603    5.4507   -8.6700 H         1 DUP         0.0650
     38 H10        21.9911    3.1885   -7.5850 H         1 DUP         0.0651
     39 H11        20.5764    4.2175   -7.1771 H         1 DUP         0.0651
     40 H12        19.9146    4.2605   -3.4877 H         1 DUP         0.2175
@<TRIPOS>BOND
     1    1    2 2  
     2    2    3 1  
     3    2    5 am 
     4    3    4 2  
     5    4    8 1  
     6    5    6 am 
     7    6    7 2  
     8    6    8 am 
     9    8    9 1  
    10    9   10 1  
    11    9   13 1  
    12   10   11 1  
    13   11   12 1  
    14   11   14 1  
    15   13   14 1  
    16   14   15 1  
    17   15   16 1  
    18   16   17 1  
    19   17   18 ar 
    20   17   19 ar 
    21   17   20 am 
    22   20   21 1  
    23   21   22 ar 
    24   21   23 ar 
    25   21   24 1  
    26   24   25 1  
    27   25   26 ar 
    28   25   27 ar 
    29   25   28 ar 
    30    3   29 1  
    31    4   30 1  
    32    5   31 1  
    33    9   32 1  
    34   10   33 1  
    35   10   34 1  
    36   11   35 1  
    37   12   36 1  
    38   14   37 1  
    39   15   38 1  
    40   15   39 1  
    41   20   40 1  
@<TRIPOS>SUBSTRUCTURE
     1 DUP         1

