5ajo_ligand
  -I-interpret- 

201203  0  0  0  0  0  0  0  0999 V2000
   27.7790   36.7400   15.9510 C   0  0  0  0  0
   27.8770   37.3470   14.5740 C   0  0  0  0  0
   26.9130   37.3840   13.8960 O   0  0  0  0  0
   29.0420   37.8020   14.1820 N   0  0  0  0  0
   29.1950   38.3960   12.8790 C   0  0  0  0  0
   29.4930   37.4430   11.7230 C   0  0  0  0  0
   30.0430   36.4010   11.8640 O   0  0  0  0  0
   29.0980   37.8930   10.5530 N   0  0  0  0  0
   29.4970   37.2860    9.3190 C   0  0  0  0  0
   30.9200   37.6800    8.9610 C   0  0  0  0  0
   31.4460   38.6680    9.4290 O   0  0  0  0  0
   28.5850   37.7630    8.1720 C   0  0  0  0  0
   28.5740   39.1920    8.1350 O   0  0  0  0  0
   27.1940   37.2660    8.3510 C   0  0  0  0  0
   31.5400   36.8790    8.1370 N   0  0  0  0  0
   32.8170   37.3030    7.5840 C   0  0  0  0  0
   32.5690   38.3940    6.5490 C   0  0  0  0  0
   31.5140   38.4110    5.9070 O   0  0  0  0  0
   33.5540   36.1670    6.8940 C   0  0  0  0  0
   32.6050   35.4050    6.1250 O   0  0  0  0  0
   34.1970   35.2710    7.9350 C   0  0  0  0  0
   33.5250   39.3070    6.3740 N   0  0  0  0  0
   33.4760   40.3260    5.3170 C   0  0  0  0  0
   33.1910   39.6820    3.9680 C   0  0  0  0  0
   33.8230   38.6750    3.6150 O   0  0  0  0  0
   34.8660   40.9530    5.3880 C   0  0  0  0  0
   35.2390   40.8160    6.8260 C   0  0  0  0  0
   34.6050   39.5670    7.3410 C   0  0  0  0  0
   32.1820   40.2480    3.2770 N   0  0  0  0  0
   31.5420   39.6240    2.1090 C   0  0  0  0  0
   32.0900   40.3660    0.8960 C   0  0  0  0  0
   32.3980   41.5780    0.9460 O   0  0  0  0  0
   29.9960   39.7350    2.2180 C   0  0  0  0  0
   29.2730   38.8070    1.3780 O   0  0  0  0  0
   32.2540   39.6260   -0.1990 N   0  0  0  0  0
   32.8450   40.2630   -1.3600 C   0  0  0  0  0
   31.8100   41.0550   -2.1910 C   0  0  0  0  0
   30.7560   40.5200   -2.3930 O   0  0  0  0  0
   33.4060   39.0800   -2.1440 C   0  0  0  0  0
   32.5320   37.9160   -1.7880 C   0  0  0  0  0
   32.0820   38.1640   -0.3780 C   0  0  0  0  0
   32.1210   42.2810   -2.6150 N   0  0  0  0  0
   31.1710   43.0910   -3.4840 C   0  0  0  0  0
   30.8300   42.2410   -4.7300 C   0  0  0  0  0
   31.6950   41.5920   -5.2920 O   0  0  0  0  0
   31.8040   44.4150   -3.9540 C   0  0  0  0  0
   30.9370   45.1010   -4.9790 C   0  0  0  0  0
   32.0610   45.3240   -2.8020 C   0  0  0  0  0
   29.5500   42.1660   -5.1730 N   0  0  0  0  0
   29.2350   41.3300   -6.3510 C   0  0  0  0  0
   29.8370   41.8930   -7.6270 C   0  0  0  0  0
   29.3440   42.8870   -8.1510 O   0  0  0  0  0
   27.6910   41.3040   -6.3780 C   0  0  0  0  0
   27.2540   41.8280   -5.1070 C   0  0  0  0  0
   28.3370   42.6820   -4.5110 C   0  0  0  0  0
   30.9320   41.2970   -8.0770 N   0  0  0  0  0
   31.5890   41.7000   -9.3240 C   0  0  0  0  0
   32.2530   40.4890   -9.9340 C   0  0  0  0  0
   32.3620   39.4450   -9.2960 O   0  0  0  0  0
   32.6250   42.8170   -9.1290 C   0  0  0  0  0
   33.5010   42.4990   -8.0410 O   0  0  0  0  0
   31.9570   44.1390   -8.8260 C   0  0  0  0  0
   32.6470   40.6250  -11.1770 N   0  0  0  0  0
   33.3080   39.5530  -11.9110 C   0  0  0  0  0
   34.2660   40.1750  -12.9220 C   0  0  0  0  0
   34.4760   41.4050  -12.9590 O   0  0  0  0  0
   32.2780   38.5940  -12.5370 C   0  0  0  0  0
   32.9200   37.3920  -13.0190 O   0  0  0  0  0
   31.5330   39.2760  -13.6990 C   0  0  0  0  0
   34.8580   39.3530  -13.7540 N   0  0  0  0  0
   35.7260   39.8580  -14.8060 C   0  0  0  0  0
   35.0150   40.8830  -15.6760 C   0  0  0  0  0
   33.8090   40.7070  -15.9960 O   0  0  0  0  0
   36.2140   38.7040  -15.6810 C   0  0  0  0  0
   37.0210   39.1590  -16.7590 O   0  0  0  0  0
   35.7480   41.8920  -16.1310 N   0  0  0  0  0
   35.1670   42.8470  -17.0740 C   0  0  0  0  0
   35.3640   42.4750  -18.5190 C   0  0  0  0  0
   35.0260   43.2490  -19.4210 O   0  0  0  0  0
   35.7080   44.2340  -16.8430 C   0  0  0  0  0
   37.1300   44.1660  -16.9860 O   0  0  0  0  0
   35.2540   44.7090  -15.4750 C   0  0  0  0  0
   35.8540   41.2760  -18.7940 N   0  0  0  0  0
   35.8730   40.7530  -20.1450 C   0  0  0  0  0
   35.2250   39.3860  -20.2460 C   0  0  0  0  0
   34.9570   38.7330  -19.2390 O   0  0  0  0  0
   37.3180   40.6610  -20.7140 C   0  0  0  0  0
   38.0650   39.6770  -19.9600 O   0  0  0  0  0
   38.0100   41.9520  -20.5760 C   0  0  0  0  0
   34.9680   38.9670  -21.4860 N   0  0  0  0  0
   34.3760   37.6510  -21.7700 C   0  0  0  0  0
   35.4070   36.6180  -22.1350 C   0  0  0  0  0
   36.3110   36.9130  -22.8920 O   0  0  0  0  0
   33.4220   37.7670  -22.9590 C   0  0  0  0  0
   32.3560   38.5840  -22.5930 O   0  0  0  0  0
   35.2570   35.4050  -21.6740 N   0  0  0  0  0
   36.1040   34.3210  -22.1240 C   0  0  0  0  0
   35.9210   33.9360  -23.6140 C   0  0  0  0  0
   34.9110   34.2190  -24.1790 O   0  0  0  0  0
   35.8800   33.1130  -21.2670 C   0  0  0  0  0
   36.9580   33.3220  -24.1870 N   0  0  0  0  0
   27.0501   37.2960   16.5407 H   0  0  0  0  0
   27.4629   35.7002   15.8667 H   0  0  0  0  0
   28.7533   36.7866   16.4374 H   0  0  0  0  0
   29.8469   37.7348   14.8049 H   0  0  0  0  0
   30.0560   39.0605   12.9506 H   0  0  0  0  0
   28.2371   38.8611   12.6461 H   0  0  0  0  0
   28.4832   38.7064   10.5228 H   0  0  0  0  0
   29.4250   36.2060    9.4475 H   0  0  0  0  0
   28.9766   37.3655    7.2357 H   0  0  0  0  0
   28.0057   39.4881    7.4202 H   0  0  0  0  0
   27.1978   36.1761    8.3637 H   0  0  0  0  0
   26.7943   37.6403    9.2935 H   0  0  0  0  0
   26.5745   37.6189    7.5265 H   0  0  0  0  0
   31.1377   35.9758    7.8865 H   0  0  0  0  0
   33.4287   37.6588    8.4130 H   0  0  0  0  0
   34.3293   36.5682    6.2413 H   0  0  0  0  0
   33.0586   34.6832    5.6835 H   0  0  0  0  0
   34.9020   35.8534    8.5282 H   0  0  0  0  0
   33.4250   34.8602    8.5857 H   0  0  0  0  0
   34.7245   34.4577    7.4366 H   0  0  0  0  0
   32.6844   41.0647    5.4430 H   0  0  0  0  0
   34.8734   41.9900    5.0522 H   0  0  0  0  0
   35.5786   40.4638    4.7239 H   0  0  0  0  0
   34.8912   41.6798    7.3925 H   0  0  0  0  0
   36.3224   40.7643    6.9340 H   0  0  0  0  0
   35.3102   38.7390    7.4129 H   0  0  0  0  0
   34.2360   39.6752    8.3609 H   0  0  0  0  0
   31.8430   41.1607    3.5811 H   0  0  0  0  0
   31.7591   38.5584    2.0349 H   0  0  0  0  0
   29.7228   40.7397    1.8955 H   0  0  0  0  0
   29.7299   39.5079    3.2503 H   0  0  0  0  0
   28.3294   38.9353    1.4996 H   0  0  0  0  0
   33.5965   41.0065   -1.0944 H   0  0  0  0  0
   34.4488   38.8899   -1.8900 H   0  0  0  0  0
   33.3996   39.2718   -3.2170 H   0  0  0  0  0
   33.0712   36.9726   -1.8736 H   0  0  0  0  0
   31.6839   37.8326   -2.4676 H   0  0  0  0  0
   31.0532   37.8452   -0.2103 H   0  0  0  0  0
   32.6575   37.5883    0.3469 H   0  0  0  0  0
   33.0189   42.6857   -2.3497 H   0  0  0  0  0
   30.2849   43.3335   -2.8974 H   0  0  0  0  0
   32.7585   44.1733   -4.4215 H   0  0  0  0  0
   30.8128   44.4485   -5.8432 H   0  0  0  0  0
   29.9620   45.3171   -4.5422 H   0  0  0  0  0
   31.4115   46.0317   -5.2900 H   0  0  0  0  0
   31.1199   45.5456   -2.2987 H   0  0  0  0  0
   32.7428   44.8391   -2.1033 H   0  0  0  0  0
   32.5077   46.2500   -3.1641 H   0  0  0  0  0
   29.6603   40.3286   -6.2849 H   0  0  0  0  0
   27.3190   40.2912   -6.5329 H   0  0  0  0  0
   27.3035   41.9025   -7.2025 H   0  0  0  0  0
   27.0339   41.0010   -4.4320 H   0  0  0  0  0
   26.3583   42.4314   -5.2540 H   0  0  0  0  0
   28.1804   43.7479   -4.6765 H   0  0  0  0  0
   28.3829   42.6169   -3.4239 H   0  0  0  0  0
   31.3320   40.5303   -7.5361 H   0  0  0  0  0
   30.8215   42.1029   -9.9848 H   0  0  0  0  0
   33.1883   42.9005  -10.0584 H   0  0  0  0  0
   34.1422   43.2050   -7.9310 H   0  0  0  0  0
   31.3031   44.4124   -9.6541 H   0  0  0  0  0
   31.3695   44.0468   -7.9125 H   0  0  0  0  0
   32.7185   44.9075   -8.6937 H   0  0  0  0  0
   32.4848   41.5149  -11.6484 H   0  0  0  0  0
   33.8974   38.9321  -11.2363 H   0  0  0  0  0
   31.5614   38.3274  -11.7602 H   0  0  0  0  0
   32.2602   36.8106  -13.4041 H   0  0  0  0  0
   31.0122   40.1583  -13.3270 H   0  0  0  0  0
   32.2500   39.5717  -14.4649 H   0  0  0  0  0
   30.8112   38.5791  -14.1249 H   0  0  0  0  0
   34.7082   38.3482  -13.6626 H   0  0  0  0  0
   36.5745   40.3459  -14.3262 H   0  0  0  0  0
   35.3423   38.1987  -16.0968 H   0  0  0  0  0
   36.8149   38.0373  -15.0626 H   0  0  0  0  0
   37.3066   38.4071  -17.2830 H   0  0  0  0  0
   36.7144   42.0010  -15.8235 H   0  0  0  0  0
   34.0950   42.8223  -16.8783 H   0  0  0  0  0
   35.3350   44.9621  -17.5633 H   0  0  0  0  0
   37.5068   45.0375  -16.8442 H   0  0  0  0  0
   34.1647   44.7243  -15.4402 H   0  0  0  0  0
   35.6337   44.0300  -14.7116 H   0  0  0  0  0
   35.6387   45.7127  -15.2942 H   0  0  0  0  0
   36.2277   40.7059  -18.0352 H   0  0  0  0  0
   35.2951   41.4628  -20.7369 H   0  0  0  0  0
   37.2561   40.3853  -21.7667 H   0  0  0  0  0
   38.9574   39.6180  -20.3090 H   0  0  0  0  0
   37.4611   42.7175  -21.1246 H   0  0  0  0  0
   38.0608   42.2247  -19.5219 H   0  0  0  0  0
   39.0189   41.8670  -20.9797 H   0  0  0  0  0
   35.1907   39.5833  -22.2677 H   0  0  0  0  0
   33.8653   37.3383  -20.8592 H   0  0  0  0  0
   33.0547   36.7796  -23.2386 H   0  0  0  0  0
   33.9439   38.1974  -23.8137 H   0  0  0  0  0
   31.7484   38.6654  -23.3317 H   0  0  0  0  0
   34.5294   35.2183  -20.9840 H   0  0  0  0  0
   37.1262   34.6877  -22.0300 H   0  0  0  0  0
   36.1212   33.3538  -20.2317 H   0  0  0  0  0
   34.8358   32.8082  -21.3367 H   0  0  0  0  0
   36.5206   32.3011  -21.6112 H   0  0  0  0  0
   36.9165   33.0636  -25.1729 H   0  0  0  0  0
   37.7921   33.1111  -23.6391 H   0  0  0  0  0
  1  2  1  0  0  0
  2  3  2  0  0  0
  2  4  1  0  0  0
  4  5  1  0  0  0
  5  6  1  0  0  0
  6  7  2  0  0  0
  6  8  1  0  0  0
  8  9  1  0  0  0
  9 10  1  0  0  0
  9 12  1  0  0  0
 10 11  2  0  0  0
 10 15  1  0  0  0
 12 13  1  0  0  0
 12 14  1  0  0  0
 15 16  1  0  0  0
 16 17  1  0  0  0
 16 19  1  0  0  0
 17 18  2  0  0  0
 17 22  1  0  0  0
 19 20  1  0  0  0
 19 21  1  0  0  0
 22 23  1  0  0  0
 22 28  1  0  0  0
 23 24  1  0  0  0
 23 26  1  0  0  0
 24 25  2  0  0  0
 24 29  1  0  0  0
 26 27  1  0  0  0
 27 28  1  0  0  0
 29 30  1  0  0  0
 30 31  1  0  0  0
 30 33  1  0  0  0
 31 32  2  0  0  0
 31 35  1  0  0  0
 33 34  1  0  0  0
 35 36  1  0  0  0
 35 41  1  0  0  0
 36 37  1  0  0  0
 36 39  1  0  0  0
 37 38  2  0  0  0
 37 42  1  0  0  0
 39 40  1  0  0  0
 40 41  1  0  0  0
 42 43  1  0  0  0
 43 44  1  0  0  0
 43 46  1  0  0  0
 44 45  2  0  0  0
 44 49  1  0  0  0
 46 47  1  0  0  0
 46 48  1  0  0  0
 49 50  1  0  0  0
 49 55  1  0  0  0
 50 51  1  0  0  0
 50 53  1  0  0  0
 51 52  2  0  0  0
 51 56  1  0  0  0
 53 54  1  0  0  0
 54 55  1  0  0  0
 56 57  1  0  0  0
 57 58  1  0  0  0
 57 60  1  0  0  0
 58 59  2  0  0  0
 58 63  1  0  0  0
 60 61  1  0  0  0
 60 62  1  0  0  0
 63 64  1  0  0  0
 64 65  1  0  0  0
 64 67  1  0  0  0
 65 66  2  0  0  0
 65 70  1  0  0  0
 67 68  1  0  0  0
 67 69  1  0  0  0
 70 71  1  0  0  0
 71 72  1  0  0  0
 71 74  1  0  0  0
 72 73  2  0  0  0
 72 76  1  0  0  0
 74 75  1  0  0  0
 76 77  1  0  0  0
 77 78  1  0  0  0
 77 80  1  0  0  0
 78 79  2  0  0  0
 78 83  1  0  0  0
 80 81  1  0  0  0
 80 82  1  0  0  0
 83 84  1  0  0  0
 84 85  1  0  0  0
 84 87  1  0  0  0
 85 86  2  0  0  0
 85 90  1  0  0  0
 87 88  1  0  0  0
 87 89  1  0  0  0
 90 91  1  0  0  0
 91 92  1  0  0  0
 91 94  1  0  0  0
 92 93  2  0  0  0
 92 96  1  0  0  0
 94 95  1  0  0  0
 96 97  1  0  0  0
 97 98  1  0  0  0
 97100  1  0  0  0
 98 99  2  0  0  0
 98101  1  0  0  0
  1102  1  0  0  0
  1103  1  0  0  0
  1104  1  0  0  0
  4105  1  0  0  0
  5106  1  0  0  0
  5107  1  0  0  0
  8108  1  0  0  0
  9109  1  0  0  0
 12110  1  0  0  0
 13111  1  0  0  0
 14112  1  0  0  0
 14113  1  0  0  0
 14114  1  0  0  0
 15115  1  0  0  0
 16116  1  0  0  0
 19117  1  0  0  0
 20118  1  0  0  0
 21119  1  0  0  0
 21120  1  0  0  0
 21121  1  0  0  0
 23122  1  0  0  0
 26123  1  0  0  0
 26124  1  0  0  0
 27125  1  0  0  0
 27126  1  0  0  0
 28127  1  0  0  0
 28128  1  0  0  0
 29129  1  0  0  0
 30130  1  0  0  0
 33131  1  0  0  0
 33132  1  0  0  0
 34133  1  0  0  0
 36134  1  0  0  0
 39135  1  0  0  0
 39136  1  0  0  0
 40137  1  0  0  0
 40138  1  0  0  0
 41139  1  0  0  0
 41140  1  0  0  0
 42141  1  0  0  0
 43142  1  0  0  0
 46143  1  0  0  0
 47144  1  0  0  0
 47145  1  0  0  0
 47146  1  0  0  0
 48147  1  0  0  0
 48148  1  0  0  0
 48149  1  0  0  0
 50150  1  0  0  0
 53151  1  0  0  0
 53152  1  0  0  0
 54153  1  0  0  0
 54154  1  0  0  0
 55155  1  0  0  0
 55156  1  0  0  0
 56157  1  0  0  0
 57158  1  0  0  0
 60159  1  0  0  0
 61160  1  0  0  0
 62161  1  0  0  0
 62162  1  0  0  0
 62163  1  0  0  0
 63164  1  0  0  0
 64165  1  0  0  0
 67166  1  0  0  0
 68167  1  0  0  0
 69168  1  0  0  0
 69169  1  0  0  0
 69170  1  0  0  0
 70171  1  0  0  0
 71172  1  0  0  0
 74173  1  0  0  0
 74174  1  0  0  0
 75175  1  0  0  0
 76176  1  0  0  0
 77177  1  0  0  0
 80178  1  0  0  0
 81179  1  0  0  0
 82180  1  0  0  0
 82181  1  0  0  0
 82182  1  0  0  0
 83183  1  0  0  0
 84184  1  0  0  0
 87185  1  0  0  0
 88186  1  0  0  0
 89187  1  0  0  0
 89188  1  0  0  0
 89189  1  0  0  0
 90190  1  0  0  0
 91191  1  0  0  0
 94192  1  0  0  0
 94193  1  0  0  0
 95194  1  0  0  0
 96195  1  0  0  0
 97196  1  0  0  0
100197  1  0  0  0
100198  1  0  0  0
100199  1  0  0  0
101200  1  0  0  0
101201  1  0  0  0
M  END
$$$$
