### 
### Created by X-TOOL on Mon Sep 10 21:13:21 2018
### 

@<TRIPOS>MOLECULE
5ajo_ligand
  201   203     1     0     0
SMALL
GAST_HUCK


@<TRIPOS>ATOM
      1 CA         27.7790   36.7400   15.9510 C.3       1 ALA         0.0258
      2 C          27.8770   37.3470   14.5740 C.2       1 ALA         0.1749
      3 O          26.9130   37.3840   13.8960 O.2       1 ALA        -0.3972
      4 N          29.0420   37.8020   14.1820 N.am      1 GLY        -0.2685
      5 CA         29.1950   38.3960   12.8790 C.3       1 GLY         0.1200
      6 C          29.4930   37.4430   11.7230 C.2       1 GLY         0.2008
      7 O          30.0430   36.4010   11.8640 O.2       1 GLY        -0.3947
      8 N          29.0980   37.8930   10.5530 N.am      1 THR        -0.2616
      9 CA         29.4970   37.2860    9.3190 C.3       1 THR         0.1565
     10 C          30.9200   37.6800    8.9610 C.2       1 THR         0.2065
     11 O          31.4460   38.6680    9.4290 O.2       1 THR        -0.3943
     12 CB         28.5850   37.7630    8.1720 C.3       1 THR         0.0924
     13 OG1        28.5740   39.1920    8.1350 O.3       1 THR        -0.3874
     14 CG2        27.1940   37.2660    8.3510 C.3       1 THR        -0.0346
     15 N          31.5400   36.8790    8.1370 N.am      1 THR        -0.2613
     16 CA         32.8170   37.3030    7.5840 C.3       1 THR         0.1567
     17 C          32.5690   38.3940    6.5490 C.2       1 THR         0.2090
     18 O          31.5140   38.4110    5.9070 O.2       1 THR        -0.3941
     19 CB         33.5540   36.1670    6.8940 C.3       1 THR         0.0924
     20 OG1        32.6050   35.4050    6.1250 O.3       1 THR        -0.3874
     21 CG2        34.1970   35.2710    7.9350 C.3       1 THR        -0.0346
     22 N          33.5250   39.3070    6.3740 N.am      1 PRO        -0.2498
     23 CA         33.4760   40.3260    5.3170 C.3       1 PRO         0.1338
     24 C          33.1910   39.6820    3.9680 C.2       1 PRO         0.2042
     25 O          33.8230   38.6750    3.6150 O.2       1 PRO        -0.3944
     26 CB         34.8660   40.9530    5.3880 C.3       1 PRO        -0.0104
     27 CG         35.2390   40.8160    6.8260 C.3       1 PRO        -0.0281
     28 CD         34.6050   39.5670    7.3410 C.3       1 PRO         0.0369
     29 N          32.1820   40.2480    3.2770 N.am      1 SER        -0.2616
     30 CA         31.5420   39.6240    2.1090 C.3       1 SER         0.1541
     31 C          32.0900   40.3660    0.8960 C.2       1 SER         0.2087
     32 O          32.3980   41.5780    0.9460 O.2       1 SER        -0.3941
     33 CB         29.9960   39.7350    2.2180 C.3       1 SER         0.0843
     34 OG         29.2730   38.8070    1.3780 O.3       1 SER        -0.3903
     35 N          32.2540   39.6260   -0.1990 N.am      1 PRO        -0.2498
     36 CA         32.8450   40.2630   -1.3600 C.3       1 PRO         0.1338
     37 C          31.8100   41.0550   -2.1910 C.2       1 PRO         0.2041
     38 O          30.7560   40.5200   -2.3930 O.2       1 PRO        -0.3944
     39 CB         33.4060   39.0800   -2.1440 C.3       1 PRO        -0.0104
     40 CG         32.5320   37.9160   -1.7880 C.3       1 PRO        -0.0281
     41 CD         32.0820   38.1640   -0.3780 C.3       1 PRO         0.0369
     42 N          32.1210   42.2810   -2.6150 N.am      1 VAL        -0.2635
     43 CA         31.1710   43.0910   -3.4840 C.3       1 VAL         0.1334
     44 C          30.8300   42.2410   -4.7300 C.2       1 VAL         0.2066
     45 O          31.6950   41.5920   -5.2920 O.2       1 VAL        -0.3942
     46 CB         31.8040   44.4150   -3.9540 C.3       1 VAL        -0.0062
     47 CG1        30.9370   45.1010   -4.9790 C.3       1 VAL        -0.0584
     48 CG2        32.0610   45.3240   -2.8020 C.3       1 VAL        -0.0584
     49 N          29.5500   42.1660   -5.1730 N.am      1 PRO        -0.2498
     50 CA         29.2350   41.3300   -6.3510 C.3       1 PRO         0.1338
     51 C          29.8370   41.8930   -7.6270 C.2       1 PRO         0.2042
     52 O          29.3440   42.8870   -8.1510 O.2       1 PRO        -0.3944
     53 CB         27.6910   41.3040   -6.3780 C.3       1 PRO        -0.0104
     54 CG         27.2540   41.8280   -5.1070 C.3       1 PRO        -0.0281
     55 CD         28.3370   42.6820   -4.5110 C.3       1 PRO         0.0369
     56 N          30.9320   41.2970   -8.0770 N.am      1 THR        -0.2613
     57 CA         31.5890   41.7000   -9.3240 C.3       1 THR         0.1565
     58 C          32.2530   40.4890   -9.9340 C.2       1 THR         0.2065
     59 O          32.3620   39.4450   -9.2960 O.2       1 THR        -0.3943
     60 CB         32.6250   42.8170   -9.1290 C.3       1 THR         0.0924
     61 OG1        33.5010   42.4990   -8.0410 O.3       1 THR        -0.3874
     62 CG2        31.9570   44.1390   -8.8260 C.3       1 THR        -0.0346
     63 N          32.6470   40.6250  -11.1770 N.am      1 THR        -0.2613
     64 CA         33.3080   39.5530  -11.9110 C.3       1 THR         0.1565
     65 C          34.2660   40.1750  -12.9220 C.2       1 THR         0.2065
     66 O          34.4760   41.4050  -12.9590 O.2       1 THR        -0.3943
     67 CB         32.2780   38.5940  -12.5370 C.3       1 THR         0.0924
     68 OG1        32.9200   37.3920  -13.0190 O.3       1 THR        -0.3874
     69 CG2        31.5330   39.2760  -13.6990 C.3       1 THR        -0.0346
     70 N          34.8580   39.3530  -13.7540 N.am      1 SER        -0.2615
     71 CA         35.7260   39.8580  -14.8060 C.3       1 SER         0.1539
     72 C          35.0150   40.8830  -15.6760 C.2       1 SER         0.2063
     73 O          33.8090   40.7070  -15.9960 O.2       1 SER        -0.3943
     74 CB         36.2140   38.7040  -15.6810 C.3       1 SER         0.0843
     75 OG         37.0210   39.1590  -16.7590 O.3       1 SER        -0.3903
     76 N          35.7480   41.8920  -16.1310 N.am      1 THR        -0.2613
     77 CA         35.1670   42.8470  -17.0740 C.3       1 THR         0.1565
     78 C          35.3640   42.4750  -18.5190 C.2       1 THR         0.2065
     79 O          35.0260   43.2490  -19.4210 O.2       1 THR        -0.3943
     80 CB         35.7080   44.2340  -16.8430 C.3       1 THR         0.0924
     81 OG1        37.1300   44.1660  -16.9860 O.3       1 THR        -0.3874
     82 CG2        35.2540   44.7090  -15.4750 C.3       1 THR        -0.0346
     83 N          35.8540   41.2760  -18.7940 N.am      1 THR        -0.2613
     84 CA         35.8730   40.7530  -20.1450 C.3       1 THR         0.1565
     85 C          35.2250   39.3860  -20.2460 C.2       1 THR         0.2065
     86 O          34.9570   38.7330  -19.2390 O.2       1 THR        -0.3943
     87 CB         37.3180   40.6610  -20.7140 C.3       1 THR         0.0924
     88 OG1        38.0650   39.6770  -19.9600 O.3       1 THR        -0.3874
     89 CG2        38.0100   41.9520  -20.5760 C.3       1 THR        -0.0346
     90 N          34.9680   38.9670  -21.4860 N.am      1 SER        -0.2615
     91 CA         34.3760   37.6510  -21.7700 C.3       1 SER         0.1539
     92 C          35.4070   36.6180  -22.1350 C.2       1 SER         0.2062
     93 O          36.3110   36.9130  -22.8920 O.2       1 SER        -0.3943
     94 CB         33.4220   37.7670  -22.9590 C.3       1 SER         0.0843
     95 OG         32.3560   38.5840  -22.5930 O.3       1 SER        -0.3903
     96 N          35.2570   35.4050  -21.6740 N.am      1 ALA        -0.2639
     97 CA         36.1040   34.3210  -22.1240 C.3       1 ALA         0.1279
     98 C          35.9210   33.9360  -23.6140 C.2       1 ALA         0.1989
     99 O          34.9110   34.2190  -24.1790 O.2       1 ALA        -0.3947
    100 CB         35.8800   33.1130  -21.2670 C.3       1 ALA        -0.0244
    101 N          36.9580   33.3220  -24.1870 N.am      1 ALA        -0.2990
    102 H1         28.7618   36.7864   16.4429 H         1 ALA         0.0467
    103 H2         27.4601   35.6906   15.8673 H         1 ALA         0.0467
    104 H3         27.0437   37.3002   16.5472 H         1 ALA         0.0467
    105 H4         29.8311   37.7361   14.7927 H         1 GLY         0.1880
    106 H5         30.0220   39.1190   12.9369 H         1 GLY         0.0763
    107 H6         28.2606   38.9259   12.6421 H         1 GLY         0.0763
    108 H7         28.4953   38.6904   10.5234 H         1 THR         0.1884
    109 H8         29.4295   36.1925    9.4175 H         1 THR         0.0826
    110 H9         28.9806   37.3791    7.2201 H         1 THR         0.0639
    111 H10        28.2458   39.5266    8.9614 H         1 THR         0.2101
    112 H11        26.5678   37.6215    7.5194 H         1 THR         0.0257
    113 H12        26.7894   37.6431    9.3018 H         1 THR         0.0257
    114 H13        27.1964   36.1661    8.3640 H         1 THR         0.0257
    115 H14        31.1456   35.9935    7.8914 H         1 THR         0.1884
    116 H15        33.4439   37.6969    8.3975 H         1 THR         0.0826
    117 H16        34.3295   36.5758    6.2296 H         1 THR         0.0639
    118 H17        31.9384   35.0545    6.7041 H         1 THR         0.2101
    119 H18        34.7297   34.4497    7.4332 H         1 THR         0.0257
    120 H19        33.4189   34.8557    8.5924 H         1 THR         0.0257
    121 H20        34.9088   35.8575    8.5344 H         1 THR         0.0257
    122 H21        32.7010   41.0776    5.5280 H         1 PRO         0.0802
    123 H22        34.8354   42.0112    5.0893 H         1 PRO         0.0313
    124 H23        35.5749   40.4108    4.7450 H         1 PRO         0.0313
    125 H24        34.8716   41.6841    7.3929 H         1 PRO         0.0287
    126 H25        36.3325   40.7495    6.9249 H         1 PRO         0.0287
    127 H26        35.3269   38.7372    7.3570 H         1 PRO         0.0524
    128 H27        34.1994   39.7198    8.3520 H         1 PRO         0.0524
    129 H28        31.8496   41.1428    3.5752 H         1 SER         0.1884
    130 H29        31.8177   38.5608    2.0494 H         1 SER         0.0823
    131 H30        29.7030   40.7566    1.9345 H         1 SER         0.0606
    132 H31        29.7099   39.5482    3.2636 H         1 SER         0.0606
    133 H32        28.3392   38.9340    1.4984 H         1 SER         0.2097
    134 H33        33.6521   40.9457   -1.0558 H         1 PRO         0.0802
    135 H34        34.4476   38.8830   -1.8505 H         1 PRO         0.0313
    136 H35        33.3609   39.2786   -3.2250 H         1 PRO         0.0313
    137 H36        33.1004   36.9763   -1.8497 H         1 PRO         0.0287
    138 H37        31.6657   37.8656   -2.4640 H         1 PRO         0.0287
    139 H38        31.0287   37.8752   -0.2472 H         1 PRO         0.0524
    140 H39        32.7065   37.6065    0.3356 H         1 PRO         0.0524
    141 H40        33.0013   42.6777   -2.3549 H         1 VAL         0.1883
    142 H41        30.2553   43.3103   -2.9154 H         1 VAL         0.0803
    143 H42        32.7694   44.1800   -4.4260 H         1 VAL         0.0343
    144 H43        31.4149   46.0405   -5.2937 H         1 VAL         0.0234
    145 H44        29.9527   45.3197   -4.5394 H         1 VAL         0.0234
    146 H45        30.8109   44.4435   -5.8518 H         1 VAL         0.0234
    147 H46        32.6940   44.8101   -2.0636 H         1 VAL         0.0234
    148 H47        31.1051   45.6029   -2.3346 H         1 VAL         0.0234
    149 H48        32.5737   46.2301   -3.1571 H         1 VAL         0.0234
    150 H49        29.6243   40.3115   -6.2060 H         1 PRO         0.0802
    151 H50        27.3298   40.2733   -6.5093 H         1 PRO         0.0313
    152 H51        27.3139   41.9320   -7.1986 H         1 PRO         0.0313
    153 H52        27.0295   40.9942   -4.4256 H         1 PRO         0.0287
    154 H53        26.3488   42.4355   -5.2538 H         1 PRO         0.0287
    155 H54        28.1785   43.7452   -4.7441 H         1 PRO         0.0524
    156 H55        28.3925   42.5500   -3.4204 H         1 PRO         0.0524
    157 H56        31.3241   40.5453   -7.5467 H         1 THR         0.1884
    158 H57        30.8172   42.0693  -10.0153 H         1 THR         0.0826
    159 H58        33.2142   42.9154  -10.0526 H         1 THR         0.0639
    160 H59        32.9927   42.4043   -7.2439 H         1 THR         0.2101
    161 H60        32.7246   44.9155   -8.6923 H         1 THR         0.0257
    162 H61        31.3637   44.0473   -7.9043 H         1 THR         0.0257
    163 H62        31.2968   44.4161   -9.6610 H         1 THR         0.0257
    164 H63        32.4880   41.4974  -11.6392 H         1 THR         0.1884
    165 H64        33.9077   38.9668  -11.1991 H         1 THR         0.0826
    166 H65        31.5466   38.3169  -11.7635 H         1 THR         0.0639
    167 H66        33.3484   36.9510  -12.2948 H         1 THR         0.2101
    168 H67        30.8042   38.5737  -14.1297 H         1 THR         0.0257
    169 H68        32.2555   39.5749  -14.4727 H         1 THR         0.0257
    170 H69        31.0069   40.1666  -13.3248 H         1 THR         0.0257
    171 H70        34.7112   38.3679  -13.6644 H         1 SER         0.1884
    172 H71        36.5958   40.3408  -14.3366 H         1 SER         0.0823
    173 H72        35.3410   38.1741  -16.0897 H         1 SER         0.0606
    174 H73        36.8051   38.0136  -15.0614 H         1 SER         0.0606
    175 H74        37.7809   39.6132  -16.4145 H         1 SER         0.2097
    176 H75        36.6955   41.9988  -15.8296 H         1 THR         0.1884
    177 H76        34.0837   42.8690  -16.8843 H         1 THR         0.0826
    178 H77        35.3080   44.9218  -17.6025 H         1 THR         0.0639
    179 H78        37.5029   45.0284  -16.8457 H         1 THR         0.2101
    180 H79        35.6417   45.7219  -15.2913 H         1 THR         0.0257
    181 H80        35.6366   44.0245  -14.7036 H         1 THR         0.0257
    182 H81        34.1547   44.7249  -15.4386 H         1 THR         0.0257
    183 H82        36.2204   40.7171  -18.0501 H         1 THR         0.1884
    184 H83        35.3003   41.4492  -20.7753 H         1 THR         0.0826
    185 H84        37.2772   40.3720  -21.7746 H         1 THR         0.0639
    186 H85        38.9481   39.6186  -20.3053 H         1 THR         0.2101
    187 H86        39.0284   41.8675  -20.9831 H         1 THR         0.0257
    188 H87        38.0620   42.2283  -19.5126 H         1 THR         0.0257
    189 H88        37.4571   42.7254  -21.1292 H         1 THR         0.0257
    190 H89        35.1864   39.5712  -22.2523 H         1 SER         0.1884
    191 H90        33.8245   37.3130  -20.8803 H         1 SER         0.0823
    192 H91        33.0478   36.7696  -23.2329 H         1 SER         0.0606
    193 H92        33.9503   38.2088  -23.8167 H         1 SER         0.0606
    194 H93        31.7547   38.6646  -23.3240 H         1 SER         0.2097
    195 H94        34.5436   35.2219  -20.9975 H         1 ALA         0.1883
    196 H95        37.1468   34.6468  -21.9954 H         1 ALA         0.0797
    197 H96        36.5260   32.2928  -21.6134 H         1 ALA         0.0277
    198 H97        34.8265   32.8043  -21.3365 H         1 ALA         0.0277
    199 H98        36.1231   33.3547  -20.2218 H         1 ALA         0.0277
    200 H99        36.9075   33.0457  -25.1467 H         1 ALA         0.1815
    201 H100       37.7856   33.1382  -23.6567 H         1 ALA         0.1815
@<TRIPOS>BOND
     1    1    2 1  
     2    2    3 2  
     3    2    4 am 
     4    4    5 1  
     5    5    6 1  
     6    6    7 2  
     7    6    8 am 
     8    8    9 1  
     9    9   10 1  
    10    9   12 1  
    11   10   11 2  
    12   10   15 am 
    13   12   13 1  
    14   12   14 1  
    15   15   16 1  
    16   16   17 1  
    17   16   19 1  
    18   17   18 2  
    19   17   22 am 
    20   19   20 1  
    21   19   21 1  
    22   22   23 1  
    23   22   28 1  
    24   23   24 1  
    25   23   26 1  
    26   24   25 2  
    27   24   29 am 
    28   26   27 1  
    29   27   28 1  
    30   29   30 1  
    31   30   31 1  
    32   30   33 1  
    33   31   32 2  
    34   31   35 am 
    35   33   34 1  
    36   35   36 1  
    37   35   41 1  
    38   36   37 1  
    39   36   39 1  
    40   37   38 2  
    41   37   42 am 
    42   39   40 1  
    43   40   41 1  
    44   42   43 1  
    45   43   44 1  
    46   43   46 1  
    47   44   45 2  
    48   44   49 am 
    49   46   47 1  
    50   46   48 1  
    51   49   50 1  
    52   49   55 1  
    53   50   51 1  
    54   50   53 1  
    55   51   52 2  
    56   51   56 am 
    57   53   54 1  
    58   54   55 1  
    59   56   57 1  
    60   57   58 1  
    61   57   60 1  
    62   58   59 2  
    63   58   63 am 
    64   60   61 1  
    65   60   62 1  
    66   63   64 1  
    67   64   65 1  
    68   64   67 1  
    69   65   66 2  
    70   65   70 am 
    71   67   68 1  
    72   67   69 1  
    73   70   71 1  
    74   71   72 1  
    75   71   74 1  
    76   72   73 2  
    77   72   76 am 
    78   74   75 1  
    79   76   77 1  
    80   77   78 1  
    81   77   80 1  
    82   78   79 2  
    83   78   83 am 
    84   80   81 1  
    85   80   82 1  
    86   83   84 1  
    87   84   85 1  
    88   84   87 1  
    89   85   86 2  
    90   85   90 am 
    91   87   88 1  
    92   87   89 1  
    93   90   91 1  
    94   91   92 1  
    95   91   94 1  
    96   92   93 2  
    97   92   96 am 
    98   94   95 1  
    99   96   97 1  
   100   97   98 1  
   101   97  100 1  
   102   98   99 2  
   103   98  101 am 
   104    1  102 1  
   105    1  103 1  
   106    1  104 1  
   107    4  105 1  
   108    5  106 1  
   109    5  107 1  
   110    8  108 1  
   111    9  109 1  
   112   12  110 1  
   113   13  111 1  
   114   14  112 1  
   115   14  113 1  
   116   14  114 1  
   117   15  115 1  
   118   16  116 1  
   119   19  117 1  
   120   20  118 1  
   121   21  119 1  
   122   21  120 1  
   123   21  121 1  
   124   23  122 1  
   125   26  123 1  
   126   26  124 1  
   127   27  125 1  
   128   27  126 1  
   129   28  127 1  
   130   28  128 1  
   131   29  129 1  
   132   30  130 1  
   133   33  131 1  
   134   33  132 1  
   135   34  133 1  
   136   36  134 1  
   137   39  135 1  
   138   39  136 1  
   139   40  137 1  
   140   40  138 1  
   141   41  139 1  
   142   41  140 1  
   143   42  141 1  
   144   43  142 1  
   145   46  143 1  
   146   47  144 1  
   147   47  145 1  
   148   47  146 1  
   149   48  147 1  
   150   48  148 1  
   151   48  149 1  
   152   50  150 1  
   153   53  151 1  
   154   53  152 1  
   155   54  153 1  
   156   54  154 1  
   157   55  155 1  
   158   55  156 1  
   159   56  157 1  
   160   57  158 1  
   161   60  159 1  
   162   61  160 1  
   163   62  161 1  
   164   62  162 1  
   165   62  163 1  
   166   63  164 1  
   167   64  165 1  
   168   67  166 1  
   169   68  167 1  
   170   69  168 1  
   171   69  169 1  
   172   69  170 1  
   173   70  171 1  
   174   71  172 1  
   175   74  173 1  
   176   74  174 1  
   177   75  175 1  
   178   76  176 1  
   179   77  177 1  
   180   80  178 1  
   181   81  179 1  
   182   82  180 1  
   183   82  181 1  
   184   82  182 1  
   185   83  183 1  
   186   84  184 1  
   187   87  185 1  
   188   88  186 1  
   189   89  187 1  
   190   89  188 1  
   191   89  189 1  
   192   90  190 1  
   193   91  191 1  
   194   94  192 1  
   195   94  193 1  
   196   95  194 1  
   197   96  195 1  
   198   97  196 1  
   199  100  197 1  
   200  100  198 1  
   201  100  199 1  
   202  101  200 1  
   203  101  201 1  
@<TRIPOS>SUBSTRUCTURE
     1 ALA         1

