6ibs_ligand

Created by X-TOOL on Mon Aug  2 16:17:18 2021
 42 43  0  0  0  0  0  0  0  0999 V2000
   -8.7360    0.7890  -18.5940  C 0  0  0  2  0  3
   -7.5550    0.1460  -17.9030  C 0  0  0  2  0  3
   -7.1580    0.6040  -16.5110  C 0  0  0  1  0  3
   -6.0250   -0.0080  -15.8420  N 0  0  0  2  0  3
   -4.8340    0.7770  -15.5730  C 0  0  0  1  0  3
   -4.9090    1.9560  -15.4870  O 0  0  0  1  0  1
   -3.5980    0.1410  -15.4170  O 0  0  0  1  0  2
   -2.7700    0.7370  -14.4600  C 0  0  0  1  0  4
   -2.2140    2.0470  -15.0130  C 0  0  0  4  0  4
   -1.6160   -0.2060  -14.1290  C 0  0  0  4  0  4
   -3.5770    1.0200  -13.1930  C 0  0  0  4  0  4
   -7.9590    1.7230  -15.8040  C 0  0  0  1  0  3
   -7.7970    2.3940  -14.4020  S 0  0  0  1  0  2
   -8.9160    3.4680  -14.2570  C 0  0  0  2  0  4
   -9.1620    4.4530  -12.9360  B 0  0  0  1  0  4
  -10.7970    4.6990  -12.7240  O 0  0  0  3  0  3
   -8.5290    3.7270  -11.5770  O 0  0  0  3  0  3
   -8.4070    5.9170  -13.1870  O 0  0  0  3  0  3
   -9.7110    3.4590  -15.4830  C 0  0  0  2  0  3
   -9.0980    2.3440  -16.4690  C 0  0  0  1  0  3
   -9.5140    1.8870  -17.8880  C 0  0  0  2  0  3
   -9.0263    0.4684  -19.5880  H 0  0  0  1  0  1
   -6.9945   -0.6381  -18.3990  H 0  0  0  1  0  1
   -6.0646   -0.9686  -15.5669  H 0  0  0  1  0  1
   -1.5629    2.5157  -14.2604  H 0  0  0  1  0  1
   -3.0455    2.7262  -15.2524  H 0  0  0  1  0  1
   -1.6330    1.8430  -15.9245  H 0  0  0  1  0  1
   -0.9644    0.2620  -13.3764  H 0  0  0  1  0  1
   -1.0356   -0.4094  -15.0410  H 0  0  0  1  0  1
   -2.0165   -1.1500  -13.7310  H 0  0  0  1  0  1
   -2.9257    1.4887  -12.4405  H 0  0  0  1  0  1
   -3.9772    0.0760  -12.7946  H 0  0  0  1  0  1
   -4.4087    1.6990  -13.4320  H 0  0  0  1  0  1
   -9.0774    4.1121  -13.3939  H 0  0  0  1  0  1
  -11.2260    3.8634  -12.5817  H 0  0  0  1  0  1
  -11.2260    3.8634  -12.5817  H 0  0  0  1  0  1
   -8.9603    2.8925  -11.4351  H 0  0  0  1  0  1
   -8.9603    2.8925  -11.4351  H 0  0  0  1  0  1
   -8.5476    6.4779  -12.4333  H 0  0  0  1  0  1
   -8.5476    6.4779  -12.4333  H 0  0  0  1  0  1
  -10.5690    4.0959  -15.6931  H 0  0  0  1  0  1
  -10.3618    2.3509  -18.3791  H 0  0  0  1  0  1
  1  2  4  0  0  1
  1 21  4  0  0  1
  2  3  4  0  0  1
  3  4  1  0  0  2
  3 12  4  0  0  1
  4  5  1  0  0  2
  5  6  2  0  0  2
  5  7  1  0  0  2
  7  8  1  0  0  2
  8  9  1  0  0  2
  8 10  1  0  0  2
  8 11  1  0  0  2
 12 13  1  0  0  1
 12 20  4  0  0  1
 13 14  1  0  0  1
 14 15  1  0  0  2
 14 19  2  0  0  1
 15 17  1  0  0  2
 15 18  1  0  0  2
 19 20  1  0  0  1
 20 21  4  0  0  1
 15 16  1  0  0  2
  1 22  1  0  0  2
  2 23  1  0  0  2
  4 24  1  0  0  2
  9 25  1  0  0  2
  9 26  1  0  0  2
  9 27  1  0  0  2
 10 28  1  0  0  2
 10 29  1  0  0  2
 10 30  1  0  0  2
 11 31  1  0  0  2
 11 32  1  0  0  2
 11 33  1  0  0  2
 14 34  1  0  0  2
 16 35  1  0  0  2
 16 36  1  0  0  2
 17 37  1  0  0  2
 17 38  1  0  0  2
 18 39  1  0  0  2
 18 40  1  0  0  2
 19 41  1  0  0  2
 21 42  1  0  0  2
M  END
> <MOLECULAR_FORMULA>
C13H21NO5SB

> <MOLECULAR_WEIGHT>
314.0

> <NUM_HB_ATOMS>
6  

> <NUM_ROTOR>
2  

> <XLOGP2>
1.72 

$$$$
