#	Name:			6ibs_ligand
#	Creating user name:	wangrx
#	Creation time:		Thu Aug  5 17:17:27 2021

#	Modifying user name:	wangrx
#	Modification time:	Thu Aug  5 17:18:04 2021

@<TRIPOS>MOLECULE
6ibs_ligand
   41    42     1     0     0
SMALL
GAST_HUCK


@<TRIPOS>ATOM
      1 C01        -8.7360    0.7890  -18.5940 C.ar      1 HB8        -0.1360 
      2 C02        -7.5550    0.1460  -17.9030 C.ar      1 HB8        -0.1052 
      3 C03        -7.1580    0.6040  -16.5110 C.ar      1 HB8         0.0231 
      4 N04        -6.0250   -0.0080  -15.8420 N.am      1 HB8        -0.2308 
      5 C05        -4.8340    0.7770  -15.5730 C.2       1 HB8         0.3432 
      6 O06        -4.9090    1.9560  -15.4870 O.2       1 HB8        -0.3702 
      7 O07        -3.5980    0.1410  -15.4170 O.3       1 HB8        -0.2545 
      8 C08        -2.7700    0.7370  -14.4600 C.3       1 HB8         0.0907 
      9 C09        -2.2140    2.0470  -15.0130 C.3       1 HB8        -0.0320 
     10 C10        -1.6160   -0.2060  -14.1290 C.3       1 HB8        -0.0320 
     11 C11        -3.5770    1.0200  -13.1930 C.3       1 HB8        -0.0320 
     12 C12        -7.9590    1.7230  -15.8040 C.ar      1 HB8        -0.0202 
     13 S13        -7.7970    2.3940  -14.4020 S.3       1 HB8        -0.1614 
     14 C14        -8.9160    3.4680  -14.2570 C.2       1 HB8        -0.1329 
     15 B15        -9.1620    4.4530  -12.9360 B         1 HB8         4.0000 
     16 O16       -10.7970    4.6990  -12.7240 O.3       1 HB8        -0.4105 
     17 O17        -8.5290    3.7270  -11.5770 O.3       1 HB8        -0.4105 
     18 O18        -8.4070    5.9170  -13.1870 O.3       1 HB8        -0.4105 
     19 C19        -9.7110    3.4590  -15.4830 C.2       1 HB8        -0.1788 
     20 C20        -9.0980    2.3440  -16.4690 C.ar      1 HB8        -0.1304 
     21 C21        -9.5140    1.8870  -17.8880 C.ar      1 HB8        -0.1415 
     22 H1         -9.0263    0.4684  -19.5880 H         1 HB8         0.0397 
     23 H2         -6.9945   -0.6381  -18.3990 H         1 HB8         0.0046 
     24 H3         -6.0646   -0.9686  -15.5669 H         1 HB8         0.2192 
     25 H4         -1.5629    2.5157  -14.2604 H         1 HB8         0.0260 
     26 H5         -3.0455    2.7262  -15.2524 H         1 HB8         0.0260 
     27 H6         -1.6330    1.8430  -15.9245 H         1 HB8         0.0260 
     28 H7         -0.9644    0.2620  -13.3764 H         1 HB8         0.0260 
     29 H8         -1.0356   -0.4094  -15.0410 H         1 HB8         0.0260 
     30 H9         -2.0165   -1.1500  -13.7310 H         1 HB8         0.0260 
     31 H10        -2.9257    1.4887  -12.4405 H         1 HB8         0.0260 
     32 H11        -3.9772    0.0760  -12.7946 H         1 HB8         0.0260 
     33 H12        -4.4087    1.6990  -13.4320 H         1 HB8         0.0260 
     34 H14       -11.2260    3.8634  -12.5817 H         1 HB8         0.2052 
     35 H15       -11.2260    3.8634  -12.5817 H         1 HB8         0.2052 
     36 H16        -8.9603    2.8925  -11.4351 H         1 HB8         0.2052 
     37 H17        -8.9603    2.8925  -11.4351 H         1 HB8         0.2052 
     38 H18        -8.5476    6.4779  -12.4333 H         1 HB8         0.2052 
     39 H19        -8.5476    6.4779  -12.4333 H         1 HB8         0.2052 
     40 H20       -10.5690    4.0959  -15.6931 H         1 HB8        -0.0058 
     41 H21       -10.3618    2.3509  -18.3791 H         1 HB8         0.0088 
@<TRIPOS>BOND
     1    1    2 ar   
     2    1   21 ar   
     3    2    3 ar   
     4    3    4 1    
     5    3   12 ar   
     6    4    5 am   
     7    5    6 2    
     8    5    7 1    
     9    7    8 1    
    10    8    9 1    
    11    8   10 1    
    12    8   11 1    
    13   12   13 1    
    14   12   20 ar   
    15   13   14 1    
    16   14   15 1    
    17   14   19 2    
    18   15   17 1    
    19   15   18 1    
    20   19   20 1    
    21   20   21 ar   
    22   15   16 1    
    23    1   22 1    
    24    2   23 1    
    25    4   24 1    
    26    9   25 1    
    27    9   26 1    
    28    9   27 1    
    29   10   28 1    
    30   10   29 1    
    31   10   30 1    
    32   11   31 1    
    33   11   32 1    
    34   11   33 1    
    35   16   34 1    
    36   16   35 1    
    37   17   36 1    
    38   17   37 1    
    39   18   38 1    
    40   18   39 1    
    41   19   40 1    
    42   21   41 1    
@<TRIPOS>SUBSTRUCTURE
     1 HB8         1 PERM              0 ****  ****    0 ROOT 
