6gvi_ligand
  -I-interpret- 

 40 43  0  0  0  0  0  0  0  0999 V2000
  -20.5410  147.6860   29.7560 C   0  0  0  0  0
  -19.0780  147.7440   29.4940 N   0  0  0  0  0
  -16.4980  146.0110   27.8800 C   0  0  0  0  0
  -16.8460  148.1280   29.3590 C   0  0  0  0  0
  -18.0800  148.6470   29.9120 C   0  0  0  0  0
  -18.5410  146.7720   28.7110 N   0  0  0  0  0
  -21.2710  148.3420   28.5950 C   0  0  0  0  0
  -20.9440  148.2230   31.1610 C   0  0  0  0  0
  -15.7060  148.8420   29.6540 C   0  0  0  0  0
  -18.2270  149.7860   30.6850 N   0  0  0  0  0
  -17.2120  146.9740   28.6390 C   0  0  0  0  0
  -17.0220  150.3890   30.9060 C   0  0  0  0  0
  -15.7510  149.9950   30.4170 N   0  0  0  0  0
  -14.5190  148.4210   29.1970 N   0  0  0  0  0
  -17.0760  151.5110   31.7020 N   0  0  0  0  0
  -15.5990  146.3430   26.8950 C   0  0  0  0  0
  -15.1140  145.2360   26.1990 C   0  0  0  0  0
  -15.5030  143.9000   26.5530 C   0  0  0  0  0
  -16.3310  143.5870   27.5690 C   0  0  0  0  0
  -16.8130  144.6830   28.2460 C   0  0  0  0  0
  -14.9270  142.9930   25.7320 O   0  0  0  0  0
  -14.1680  143.7990   24.8750 C   0  0  0  0  0
  -14.2370  145.1490   25.1130 N   0  0  0  0  0
  -13.4550  143.1270   23.9100 N   0  0  0  0  0
  -20.8539  146.6430   29.8041 H   0  0  0  0  0
  -22.3431  148.1769   28.7018 H   0  0  0  0  0
  -21.0650  149.4124   28.5962 H   0  0  0  0  0
  -20.9264  147.9054   27.6576 H   0  0  0  0  0
  -20.7309  149.2906   31.2153 H   0  0  0  0  0
  -22.0091  148.0552   31.3209 H   0  0  0  0  0
  -20.3731  147.6978   31.9267 H   0  0  0  0  0
  -14.4614  147.5736   28.6321 H   0  0  0  0  0
  -13.6730  148.9478   29.4139 H   0  0  0  0  0
  -17.9705  151.8291   32.0750 H   0  0  0  0  0
  -16.2215  152.0242   31.9187 H   0  0  0  0  0
  -15.2958  147.3676   26.6796 H   0  0  0  0  0
  -16.5940  142.5619   27.8298 H   0  0  0  0  0
  -17.4669  144.5200   29.1027 H   0  0  0  0  0
  -13.5031  142.1096   23.8562 H   0  0  0  0  0
  -12.8780  143.6460   23.2481 H   0  0  0  0  0
  2  1  1  0  0  0
  1  7  1  0  0  0
  1  8  1  0  0  0
  5  2  4  0  0  0
  2  6  4  0  0  0
 11  3  1  0  0  0
  3 16  4  0  0  0
  3 20  4  0  0  0
  4  5  4  0  0  0
  4  9  4  0  0  0
  4 11  4  0  0  0
  5 10  4  0  0  0
  6 11  4  0  0  0
  9 13  4  0  0  0
  9 14  1  0  0  0
 10 12  4  0  0  0
 12 13  4  0  0  0
 12 15  1  0  0  0
 16 17  4  0  0  0
 17 18  4  0  0  0
 17 23  4  0  0  0
 18 19  4  0  0  0
 18 21  4  0  0  0
 19 20  4  0  0  0
 21 22  4  0  0  0
 22 23  4  0  0  0
 22 24  1  0  0  0
  1 25  1  0  0  0
  7 26  1  0  0  0
  7 27  1  0  0  0
  7 28  1  0  0  0
  8 29  1  0  0  0
  8 30  1  0  0  0
  8 31  1  0  0  0
 14 32  1  0  0  0
 14 33  1  0  0  0
 15 34  1  0  0  0
 15 35  1  0  0  0
 16 36  1  0  0  0
 19 37  1  0  0  0
 20 38  1  0  0  0
 24 39  1  0  0  0
 24 40  1  0  0  0
M  END
$$$$
