5ap6_ligand
  -I-interpret- 

 62 66  0  0  0  0  0  0  0  0999 V2000
  -37.8880  -15.4070  -14.7730 O   0  0  0  0  0
  -37.1970  -15.6690  -13.8230 C   0  0  0  0  0
  -36.5730  -14.7580  -13.0670 O   0  0  0  0  0
  -36.6910  -13.3560  -13.4840 C   0  0  0  0  0
  -35.3090  -12.8280  -13.6650 C   0  0  0  0  0
  -37.4590  -12.6400  -12.4310 C   0  0  0  0  0
  -36.9610  -16.9810  -13.3920 N   0  0  0  0  0
  -37.4620  -18.1350  -13.9860 C   0  0  0  0  0
  -38.3000  -18.2310  -15.1390 C   0  0  0  0  0
  -39.4160  -17.4930  -15.5640 C   0  0  0  0  0
  -39.8810  -17.9570  -16.7100 N   0  0  0  0  0
  -39.0580  -19.0090  -17.0350 N   0  0  0  0  0
  -39.2720  -19.7760  -18.2550 C   0  0  0  0  0
  -38.1060  -19.1910  -16.1130 C   0  0  0  0  0
  -37.0110  -19.2220  -13.3030 C   0  0  0  0  0
  -36.1870  -18.7650  -12.2270 C   0  0  0  0  0
  -36.1630  -17.3600  -12.2860 C   0  0  0  0  0
  -35.4360  -16.6160  -11.3650 C   0  0  0  0  0
  -34.7280  -17.3210  -10.3920 C   0  0  0  0  0
  -34.7310  -18.6520  -10.3130 N   0  0  0  0  0
  -35.4460  -19.3290  -11.2140 C   0  0  0  0  0
  -33.9460  -16.6950   -9.4430 N   0  0  0  0  0
  -33.6880  -15.3260   -9.2550 C   0  0  0  0  0
  -33.7010  -14.4530  -10.3320 C   0  0  0  0  0
  -33.4420  -13.1100  -10.1440 C   0  0  0  0  0
  -33.1630  -12.6100   -8.8780 C   0  0  0  0  0
  -33.1520  -13.4900   -7.8030 C   0  0  0  0  0
  -33.4110  -14.8340   -7.9870 C   0  0  0  0  0
  -32.8770  -11.1750   -8.6860 C   0  0  0  0  0
  -33.5470  -10.0890   -9.2570 C   0  0  0  0  0
  -32.9530   -8.9230   -8.8560 N   0  0  0  0  0
  -31.9580   -9.2750   -8.0680 C   0  0  0  0  0
  -31.0260   -8.3240   -7.4130 C   0  0  0  0  0
  -31.8460  -10.6380   -7.9060 N   0  0  0  0  0
  -30.8650  -11.3450   -7.0800 C   0  0  0  0  0
  -37.2227  -13.2265  -14.4267 H   0  0  0  0  0
  -35.3574  -11.7769  -13.9495 H   0  0  0  0  0
  -34.7580  -12.9277  -12.7298 H   0  0  0  0  0
  -34.8045  -13.3947  -14.4476 H   0  0  0  0  0
  -36.9415  -12.7367  -11.4765 H   0  0  0  0  0
  -37.5409  -11.5859  -12.6962 H   0  0  0  0  0
  -38.4555  -13.0744  -12.3511 H   0  0  0  0  0
  -39.8420  -16.6495  -15.0207 H   0  0  0  0  0
  -40.2644  -20.2261  -18.2303 H   0  0  0  0  0
  -39.1932  -19.1140  -19.1174 H   0  0  0  0  0
  -38.5179  -20.5597  -18.3269 H   0  0  0  0  0
  -37.3257  -19.9520  -16.1276 H   0  0  0  0  0
  -37.2386  -20.2622  -13.5359 H   0  0  0  0  0
  -35.4197  -15.5267  -11.4014 H   0  0  0  0  0
  -35.4427  -20.4166  -11.1415 H   0  0  0  0  0
  -33.4868  -17.3184   -8.7790 H   0  0  0  0  0
  -33.9168  -14.8288  -11.3321 H   0  0  0  0  0
  -33.4566  -12.4339  -10.9989 H   0  0  0  0  0
  -32.9364  -13.1152   -6.8024 H   0  0  0  0  0
  -33.3978  -15.5112   -7.1330 H   0  0  0  0  0
  -34.4096  -10.1599   -9.9195 H   0  0  0  0  0
  -30.5057   -7.7440   -8.1752 H   0  0  0  0  0
  -31.5898   -7.6525   -6.7655 H   0  0  0  0  0
  -30.3003   -8.8794   -6.8189 H   0  0  0  0  0
  -31.3845  -11.9212   -6.3143 H   0  0  0  0  0
  -30.2801  -12.0171   -7.7080 H   0  0  0  0  0
  -30.2028  -10.6211   -6.6051 H   0  0  0  0  0
  1  2  2  0  0  0
  2  3  1  0  0  0
  2  7  1  0  0  0
  3  4  1  0  0  0
  4  5  1  0  0  0
  4  6  1  0  0  0
  7  8  4  0  0  0
  7 17  4  0  0  0
  8  9  1  0  0  0
  8 15  4  0  0  0
  9 10  4  0  0  0
  9 14  4  0  0  0
 10 11  4  0  0  0
 11 12  4  0  0  0
 12 13  1  0  0  0
 12 14  4  0  0  0
 15 16  4  0  0  0
 16 17  4  0  0  0
 16 21  4  0  0  0
 17 18  4  0  0  0
 18 19  4  0  0  0
 19 20  4  0  0  0
 19 22  1  0  0  0
 20 21  4  0  0  0
 22 23  1  0  0  0
 23 24  4  0  0  0
 23 28  4  0  0  0
 24 25  4  0  0  0
 25 26  4  0  0  0
 26 27  4  0  0  0
 26 29  1  0  0  0
 27 28  4  0  0  0
 29 30  4  0  0  0
 29 34  4  0  0  0
 30 31  4  0  0  0
 31 32  4  0  0  0
 32 33  1  0  0  0
 32 34  4  0  0  0
 34 35  1  0  0  0
  4 36  1  0  0  0
  5 37  1  0  0  0
  5 38  1  0  0  0
  5 39  1  0  0  0
  6 40  1  0  0  0
  6 41  1  0  0  0
  6 42  1  0  0  0
 10 43  1  0  0  0
 13 44  1  0  0  0
 13 45  1  0  0  0
 13 46  1  0  0  0
 14 47  1  0  0  0
 15 48  1  0  0  0
 18 49  1  0  0  0
 21 50  1  0  0  0
 22 51  1  0  0  0
 24 52  1  0  0  0
 25 53  1  0  0  0
 27 54  1  0  0  0
 28 55  1  0  0  0
 30 56  1  0  0  0
 33 57  1  0  0  0
 33 58  1  0  0  0
 33 59  1  0  0  0
 35 60  1  0  0  0
 35 61  1  0  0  0
 35 62  1  0  0  0
M  END
$$$$
