5y48_ligand
  -I-interpret- 

 12 12  0  0  0  0  0  0  0  0999 V2000
   -8.0940  -21.0780   -1.5590 N   0  0  0  0  0
   -6.8580  -21.4800   -2.0490 C   0  0  0  0  0
   -5.8510  -21.6000   -1.2470 O   0  0  0  0  0
   -6.7030  -21.7720   -3.3800 N   0  0  0  0  0
   -7.7780  -21.6670   -4.2290 C   0  0  0  0  0
   -7.5770  -21.9610   -5.4550 O   0  0  0  0  0
   -9.0330  -21.2640   -3.7260 C   0  0  0  0  0
   -9.1910  -20.9620   -2.3350 C   0  0  0  0  0
   -5.7941  -22.0657   -3.7378 H   0  0  0  0  0
   -9.6792  -22.1263   -3.8901 H   0  0  0  0  0
   -9.2362  -20.3202   -4.2319 H   0  0  0  0  0
  -10.1518  -20.6532   -1.9232 H   0  0  0  0  0
  1  2  1  0  0  0
  1  8  2  0  0  0
  2  3  2  0  0  0
  2  4  1  0  0  0
  4  5  1  0  0  0
  5  6  2  0  0  0
  5  7  1  0  0  0
  7  8  1  0  0  0
  4  9  1  0  0  0
  7 10  1  0  0  0
  7 11  1  0  0  0
  8 12  1  0  0  0
M  END
$$$$
