3ppr_ligand
  -I-interpret- 

 24 24  0  0  0  0  0  0  0  0999 V2000
   31.7120   12.8040    9.9750 O   0  0  0  0  0
   32.5830   13.2390    9.3870 C   0  0  0  0  0
   33.7780   12.6640    9.4210 O   0  0  0  0  0
   32.5220   14.6700    8.8700 C   0  0  0  0  0
   33.7870   15.3830    9.2650 C   0  0  0  0  0
   33.7550   16.8290    8.8800 C   0  0  0  0  0
   32.4780   17.4300    9.1480 N   0  3  0  0  0
   31.3980   16.6850    9.6700 C   0  0  0  0  0
   30.1910   17.3770   10.2750 C   0  0  0  0  0
   31.3440   15.2880    9.3970 N   0  3  0  0  0
   34.3872   13.1618    8.8709 H   0  0  0  0  0
   32.4577   14.7081    7.7826 H   0  0  0  0  0
   34.6220   14.9098    8.7484 H   0  0  0  0  0
   33.8915   15.3196   10.3481 H   0  0  0  0  0
   33.9471   16.9007    7.8095 H   0  0  0  0  0
   34.5085   17.3544    9.4668 H   0  0  0  0  0
   32.1490   17.7172    8.2262 H   0  0  0  0  0
   32.6804   18.1076    9.8830 H   0  0  0  0  0
   31.8220   16.6665   10.6740 H   0  0  0  0  0
   29.3375   17.2671    9.6059 H   0  0  0  0  0
   29.9593   16.9239   11.2389 H   0  0  0  0  0
   30.4120   18.4354   10.4133 H   0  0  0  0  0
   31.1788   14.8391   10.2979 H   0  0  0  0  0
   30.6308   15.1771    8.6763 H   0  0  0  0  0
  1  2  2  0  0  0
  2  3  1  0  0  0
  2  4  1  0  0  0
  4  5  1  0  0  0
  4 10  1  0  0  0
  5  6  1  0  0  0
  6  7  1  0  0  0
  7  8  1  0  0  0
  8  9  1  0  0  0
  8 10  1  0  0  0
  3 11  1  0  0  0
  4 12  1  0  0  0
  5 13  1  0  0  0
  5 14  1  0  0  0
  6 15  1  0  0  0
  6 16  1  0  0  0
  7 17  1  0  0  0
  7 18  1  0  0  0
  8 19  1  0  0  0
  9 20  1  0  0  0
  9 21  1  0  0  0
  9 22  1  0  0  0
 10 23  1  0  0  0
 10 24  1  0  0  0
M  END
$$$$
