4k72_ligand
  -I-interpret- 

 66 65  0  0  0  0  0  0  0  0999 V2000
   -5.3110   24.4770   45.1570 N   0  3  0  0  0
   -3.9830   24.7430   44.6700 C   0  0  0  0  0
   -3.0830   23.7650   45.3400 C   0  0  0  0  0
   -3.3840   23.4000   46.4610 O   0  0  0  0  0
   -3.6080   26.1440   45.0870 C   0  0  0  0  0
   -4.5380   27.1340   44.5380 C   0  0  0  0  0
   -5.5060   26.6990   43.9510 O   0  0  0  0  0
   -4.3270   28.3020   44.6560 O   0  0  0  0  0
   -1.9910   23.3390   44.7180 N   0  0  0  0  0
   -1.0280   22.6040   45.5290 C   0  0  0  0  0
    0.0240   23.5140   46.1520 C   0  0  0  0  0
    0.5390   24.4190   45.4970 O   0  0  0  0  0
   -0.3380   21.5520   44.6710 C   0  0  0  0  0
   -1.2920   20.7570   43.9990 O   0  0  0  0  0
    0.3470   23.2570   47.4180 N   0  0  0  0  0
    1.3990   23.9970   48.1090 C   0  0  0  0  0
    2.7280   23.2900   47.9070 C   0  0  0  0  0
    2.8260   22.0790   48.1040 O   0  0  0  0  0
    1.1440   24.0680   49.6240 C   0  0  0  0  0
   -0.3210   24.3990   49.9290 C   0  0  0  0  0
    2.1260   25.0450   50.2920 C   0  0  0  0  0
   -0.8630   25.6050   49.2020 C   0  0  0  0  0
    3.7510   24.0440   47.5180 N   0  0  0  0  0
    5.0790   23.4830   47.3090 C   0  0  0  0  0
    6.1330   24.3660   47.9590 C   0  0  0  0  0
    5.9160   25.5600   48.1550 O   0  0  0  0  0
    5.4300   23.3440   45.8050 C   0  0  0  0  0
    4.2550   22.7560   45.0200 C   0  0  0  0  0
    6.6850   22.4920   45.6270 C   0  0  0  0  0
    4.4720   22.7700   43.5070 C   0  0  0  0  0
    7.2250   23.8980   48.2790 O   0  0  0  0  0
   -5.5881   23.5332   44.8871 H   0  0  0  0  0
   -5.3216   24.5581   46.1737 H   0  0  0  0  0
   -5.9611   25.1518   44.7541 H   0  0  0  0  0
   -3.9122   24.6549   43.5859 H   0  0  0  0  0
   -2.6091   26.3613   44.7088 H   0  0  0  0  0
   -3.6441   26.2020   46.1749 H   0  0  0  0  0
   -5.4868   25.7394   43.9716 H   0  0  0  0  0
   -1.8338   23.5163   43.7259 H   0  0  0  0  0
   -1.5806   22.1343   46.3427 H   0  0  0  0  0
    0.2661   20.9118   45.3139 H   0  0  0  0  0
    0.2882   22.0529   43.9327 H   0  0  0  0  0
   -0.8400   20.1005   43.4639 H   0  0  0  0  0
   -0.1542   22.5232   47.9187 H   0  0  0  0  0
    1.4113   25.0058   47.6964 H   0  0  0  0  0
    1.3293   23.0837   50.0540 H   0  0  0  0  0
   -0.3799   24.6196   50.9948 H   0  0  0  0  0
   -0.9125   23.5426   49.6053 H   0  0  0  0  0
    3.1475   24.7055   50.1204 H   0  0  0  0  0
    1.9953   26.0389   49.8640 H   0  0  0  0  0
    1.9288   25.0806   51.3634 H   0  0  0  0  0
   -0.2789   26.4843   49.4737 H   0  0  0  0  0
   -0.7952   25.4402   48.1267 H   0  0  0  0  0
   -1.9051   25.7587   49.4823 H   0  0  0  0  0
    3.6024   25.0410   47.3618 H   0  0  0  0  0
    5.0703   22.4911   47.7608 H   0  0  0  0  0
    5.6311   24.3389   45.4076 H   0  0  0  0  0
    3.3777   23.3669   45.2329 H   0  0  0  0  0
    4.1408   21.7164   45.3270 H   0  0  0  0  0
    7.5198   22.9646   46.1445 H   0  0  0  0  0
    6.5115   21.5002   46.0445 H   0  0  0  0  0
    6.9162   22.4053   44.5653 H   0  0  0  0  0
    4.6113   23.7974   43.1707 H   0  0  0  0  0
    5.3575   22.1832   43.2628 H   0  0  0  0  0
    3.6014   22.3393   43.0124 H   0  0  0  0  0
    7.2455   22.9621   48.0664 H   0  0  0  0  0
  1  2  1  0  0  0
  2  3  1  0  0  0
  2  5  1  0  0  0
  3  4  2  0  0  0
  3  9  1  0  0  0
  5  6  1  0  0  0
  6  7  1  0  0  0
  6  8  2  0  0  0
  9 10  1  0  0  0
 10 11  1  0  0  0
 10 13  1  0  0  0
 11 12  2  0  0  0
 11 15  1  0  0  0
 13 14  1  0  0  0
 15 16  1  0  0  0
 16 17  1  0  0  0
 16 19  1  0  0  0
 17 18  2  0  0  0
 17 23  1  0  0  0
 19 20  1  0  0  0
 19 21  1  0  0  0
 20 22  1  0  0  0
 23 24  1  0  0  0
 24 25  1  0  0  0
 24 27  1  0  0  0
 25 26  2  0  0  0
 25 31  1  0  0  0
 27 28  1  0  0  0
 27 29  1  0  0  0
 28 30  1  0  0  0
  1 32  1  0  0  0
  1 33  1  0  0  0
  1 34  1  0  0  0
  2 35  1  0  0  0
  5 36  1  0  0  0
  5 37  1  0  0  0
  7 38  1  0  0  0
  9 39  1  0  0  0
 10 40  1  0  0  0
 13 41  1  0  0  0
 13 42  1  0  0  0
 14 43  1  0  0  0
 15 44  1  0  0  0
 16 45  1  0  0  0
 19 46  1  0  0  0
 20 47  1  0  0  0
 20 48  1  0  0  0
 21 49  1  0  0  0
 21 50  1  0  0  0
 21 51  1  0  0  0
 22 52  1  0  0  0
 22 53  1  0  0  0
 22 54  1  0  0  0
 23 55  1  0  0  0
 24 56  1  0  0  0
 27 57  1  0  0  0
 28 58  1  0  0  0
 28 59  1  0  0  0
 29 60  1  0  0  0
 29 61  1  0  0  0
 29 62  1  0  0  0
 30 63  1  0  0  0
 30 64  1  0  0  0
 30 65  1  0  0  0
 31 66  1  0  0  0
M  END
$$$$
