4c5d_ligand
  -I-interpret- 

 64 66  0  0  0  0  0  0  0  0999 V2000
  -11.9640  -32.1310  -14.4820 Br  0  0  0  0  0
  -13.4420  -31.0430  -14.9130 C   0  0  0  0  0
  -14.3580  -31.5090  -15.8660 C   0  0  0  0  0
  -15.4420  -30.7040  -16.2030 C   0  0  0  0  0
  -13.6200  -29.8090  -14.2700 C   0  0  0  0  0
  -14.7210  -29.0120  -14.5960 C   0  0  0  0  0
  -15.6220  -29.4690  -15.5780 C   0  0  0  0  0
  -16.8020  -28.6120  -15.9740 C   0  0  0  0  0
  -18.2710  -29.5400  -15.8180 S   0  0  0  0  0
  -18.3240  -29.5170  -14.0670 C   0  0  0  0  0
  -19.1420  -28.3110  -13.6420 C   0  0  0  0  0
  -20.1020  -28.8710  -12.6400 C   0  0  0  0  0
  -21.3300  -28.7960  -12.8790 O   0  0  0  0  0
  -19.6160  -29.4240  -11.6250 O   0  0  0  0  0
  -18.2880  -27.2250  -13.1570 N   0  0  0  0  0
  -18.5400  -25.9540  -13.4800 C   0  0  0  0  0
  -19.5180  -25.7360  -14.1750 O   0  0  0  0  0
  -17.7600  -24.9460  -13.0310 N   0  0  0  0  0
  -18.3330  -23.6560  -12.7140 C   0  0  0  0  0
  -18.3430  -22.9290  -14.0400 C   0  0  0  0  0
  -19.2670  -21.7320  -13.9630 C   0  0  0  0  0
  -16.5200  -25.2390  -12.6410 C   0  0  0  0  0
  -16.0110  -26.3170  -12.8920 O   0  0  0  0  0
  -15.7110  -24.2420  -11.8570 C   0  0  0  0  0
  -14.7870  -23.4050  -12.4950 C   0  0  0  0  0
  -15.8650  -24.1490  -10.4720 C   0  0  0  0  0
  -15.0980  -23.2200   -9.7510 C   0  0  0  0  0
  -14.1770  -22.3920  -10.3870 C   0  0  0  0  0
  -14.0040  -22.4890  -11.7710 C   0  0  0  0  0
  -13.1650  -21.7190  -12.4000 C   0  0  0  0  0
  -12.3910  -21.0110  -12.9780 C   0  0  0  0  0
  -11.5680  -20.2550  -13.6480 C   0  0  0  0  0
  -11.6570  -18.8660  -13.5970 C   0  0  0  0  0
  -10.7170  -18.0960  -14.2940 C   0  0  0  0  0
   -9.6880  -18.6770  -15.0520 C   0  0  0  0  0
   -8.7640  -17.9500  -15.7550 F   0  0  0  0  0
   -9.6030  -20.0490  -15.0730 C   0  0  0  0  0
  -10.5170  -20.8230  -14.3680 C   0  0  0  0  0
  -10.3570  -22.1620  -14.4060 F   0  0  0  0  0
  -14.2238  -32.4840  -16.3346 H   0  0  0  0  0
  -16.1532  -31.0392  -16.9579 H   0  0  0  0  0
  -12.9036  -29.4735  -13.5202 H   0  0  0  0  0
  -14.8796  -28.0546  -14.0997 H   0  0  0  0  0
  -16.6850  -28.2870  -17.0078 H   0  0  0  0  0
  -16.8523  -27.7390  -15.3233 H   0  0  0  0  0
  -17.3152  -29.4522  -13.6592 H   0  0  0  0  0
  -18.7783  -30.4335  -13.6906 H   0  0  0  0  0
  -19.6843  -27.8291  -14.4555 H   0  0  0  0  0
  -18.6586  -29.3598  -11.6545 H   0  0  0  0  0
  -17.4879  -27.4427  -12.5630 H   0  0  0  0  0
  -17.7613  -23.1239  -11.9537 H   0  0  0  0  0
  -19.3292  -23.7402  -12.2797 H   0  0  0  0  0
  -18.6946  -23.6056  -14.8189 H   0  0  0  0  0
  -17.3334  -22.5901  -14.2723 H   0  0  0  0  0
  -20.2769  -22.0687  -13.7287 H   0  0  0  0  0
  -18.9182  -21.0550  -13.1832 H   0  0  0  0  0
  -19.2687  -21.2137  -14.9219 H   0  0  0  0  0
  -14.6724  -23.4651  -13.5773 H   0  0  0  0  0
  -16.5758  -24.7932   -9.9544 H   0  0  0  0  0
  -15.2262  -23.1455   -8.6711 H   0  0  0  0  0
  -13.5950  -21.6733   -9.8101 H   0  0  0  0  0
  -12.4479  -18.3843  -13.0221 H   0  0  0  0  0
  -10.7868  -17.0093  -14.2462 H   0  0  0  0  0
   -8.8129  -20.5333  -15.6468 H   0  0  0  0  0
  1  2  1  0  0  0
  2  3  4  0  0  0
  2  5  4  0  0  0
  3  4  4  0  0  0
  4  7  4  0  0  0
  5  6  4  0  0  0
  6  7  4  0  0  0
  7  8  1  0  0  0
  8  9  1  0  0  0
  9 10  1  0  0  0
 10 11  1  0  0  0
 11 12  1  0  0  0
 11 15  1  0  0  0
 12 13  2  0  0  0
 12 14  1  0  0  0
 15 16  1  0  0  0
 16 17  2  0  0  0
 16 18  1  0  0  0
 18 19  1  0  0  0
 18 22  1  0  0  0
 19 20  1  0  0  0
 20 21  1  0  0  0
 22 23  2  0  0  0
 22 24  1  0  0  0
 24 25  4  0  0  0
 24 26  4  0  0  0
 25 29  4  0  0  0
 26 27  4  0  0  0
 27 28  4  0  0  0
 28 29  4  0  0  0
 29 30  1  0  0  0
 30 31  3  0  0  0
 31 32  1  0  0  0
 32 33  4  0  0  0
 32 38  4  0  0  0
 33 34  4  0  0  0
 34 35  4  0  0  0
 35 36  1  0  0  0
 35 37  4  0  0  0
 37 38  4  0  0  0
 38 39  1  0  0  0
  3 40  1  0  0  0
  4 41  1  0  0  0
  5 42  1  0  0  0
  6 43  1  0  0  0
  8 44  1  0  0  0
  8 45  1  0  0  0
 10 46  1  0  0  0
 10 47  1  0  0  0
 11 48  1  0  0  0
 14 49  1  0  0  0
 15 50  1  0  0  0
 19 51  1  0  0  0
 19 52  1  0  0  0
 20 53  1  0  0  0
 20 54  1  0  0  0
 21 55  1  0  0  0
 21 56  1  0  0  0
 21 57  1  0  0  0
 25 58  1  0  0  0
 26 59  1  0  0  0
 27 60  1  0  0  0
 28 61  1  0  0  0
 33 62  1  0  0  0
 34 63  1  0  0  0
 37 64  1  0  0  0
M  END
$$$$
