5ovv_ligand
  -I-interpret- 

103102  0  0  0  0  0  0  0  0999 V2000
  -26.3520  -24.6910    0.6450 C   0  0  0  0  0
  -25.6810  -24.5170    1.6640 O   0  0  0  0  0
  -27.7020  -25.3740    0.6830 C   0  0  0  0  0
  -25.9270  -24.2680   -0.5430 N   0  0  0  0  0
  -24.6450  -23.5990   -0.7380 C   0  0  0  0  0
  -24.8530  -22.1150   -0.5870 C   0  0  0  0  0
  -25.6690  -21.5370   -1.3040 O   0  0  0  0  0
  -24.0850  -23.9160   -2.1390 C   0  0  0  0  0
  -23.9830  -25.4310   -2.3660 C   0  0  0  0  0
  -22.7310  -23.2520   -2.3440 C   0  0  0  0  0
  -23.0520  -26.1640   -1.4530 C   0  0  0  0  0
  -24.0990  -21.4880    0.3230 N   0  0  0  0  0
  -24.2060  -20.0660    0.6210 C   0  0  0  0  0
  -22.9450  -19.3570    0.1610 C   0  0  0  0  0
  -21.9080  -19.9820   -0.0500 O   0  0  0  0  0
  -24.3670  -19.8300    2.1280 C   0  0  0  0  0
  -25.7000  -20.3220    2.6790 C   0  0  0  0  0
  -25.8990  -20.0530    4.1700 C   0  0  0  0  0
  -25.0280  -19.4780    4.8390 O   0  0  0  0  0
  -26.9500  -20.4390    4.6880 O   0  0  0  0  0
  -23.0320  -18.0370    0.0180 N   0  0  0  0  0
  -21.8560  -17.2520   -0.3290 C   0  0  0  0  0
  -21.8760  -15.9410    0.4420 C   0  0  0  0  0
  -22.9400  -15.3610    0.6660 O   0  0  0  0  0
  -21.7210  -17.0280   -1.8390 C   0  0  0  0  0
  -22.5440  -16.0000   -2.2900 O   0  0  0  0  0
  -20.6950  -15.5110    0.8880 N   0  0  0  0  0
  -20.5870  -14.3450    1.7440 C   0  0  0  0  0
  -19.3570  -13.5300    1.3610 C   0  0  0  0  0
  -18.2740  -14.0910    1.2190 O   0  0  0  0  0
  -20.4360  -14.7880    3.2050 C   0  0  0  0  0
  -21.5330  -15.6240    3.6040 O   0  0  0  0  0
  -20.3860  -13.5730    4.1130 C   0  0  0  0  0
  -19.5100  -12.2130    1.2100 N   0  0  0  0  0
  -18.3700  -11.3410    0.9550 C   0  0  0  0  0
  -17.6220  -11.0680    2.2520 C   0  0  0  0  0
  -18.2270  -10.7090    3.2660 O   0  0  0  0  0
  -18.8340  -10.0210    0.3450 C   0  0  0  0  0
  -17.6750   -9.1310   -0.1410 C   0  0  0  0  0
  -18.1380   -7.8020   -0.7090 C   0  0  0  0  0
  -19.2940   -7.7290   -1.2090 O   0  0  0  0  0
  -17.3530   -6.8220   -0.6490 O   0  0  0  0  0
  -16.3140  -11.2430    2.2000 N   0  0  0  0  0
  -15.4090  -11.1450    3.3380 C   0  0  0  0  0
  -14.3730  -10.0470    3.0910 C   0  0  0  0  0
  -13.8630   -9.4200    4.0400 O   0  0  0  0  0
  -14.6570  -12.4950    3.5160 C   0  0  0  0  0
  -15.6290  -13.6770    3.6420 C   0  0  0  0  0
  -13.6790  -12.4130    4.6740 C   0  0  0  0  0
  -16.3680  -13.7560    4.9150 C   0  0  0  0  0
  -13.9820   -9.8140    1.9190 O   0  0  0  0  0
  -27.5857  -26.3843    1.0752 H   0  0  0  0  0
  -28.3759  -24.8084    1.3265 H   0  0  0  0  0
  -28.1133  -25.4195   -0.3254 H   0  0  0  0  0
  -26.5254  -24.4185   -1.3552 H   0  0  0  0  0
  -23.9275  -23.9517    0.0029 H   0  0  0  0  0
  -24.7808  -23.5112   -2.8739 H   0  0  0  0  0
  -23.5944  -25.5658   -3.3754 H   0  0  0  0  0
  -24.9776  -25.8376   -2.1830 H   0  0  0  0  0
  -22.0129  -23.6683   -1.6374 H   0  0  0  0  0
  -22.3885  -23.4351   -3.3625 H   0  0  0  0  0
  -22.8253  -22.1788   -2.1784 H   0  0  0  0  0
  -22.0431  -25.7687   -1.5712 H   0  0  0  0  0
  -23.3772  -26.0308   -0.4212 H   0  0  0  0  0
  -23.0596  -27.2248   -1.7037 H   0  0  0  0  0
  -23.4101  -22.0368    0.8374 H   0  0  0  0  0
  -25.0813  -19.6770    0.1008 H   0  0  0  0  0
  -24.3177  -18.7547    2.2992 H   0  0  0  0  0
  -23.5774  -20.3857    2.6337 H   0  0  0  0  0
  -25.7258  -21.4029    2.5409 H   0  0  0  0  0
  -26.4856  -19.7849    2.1476 H   0  0  0  0  0
  -24.2870  -19.2528    4.2717 H   0  0  0  0  0
  -23.9295  -17.5715    0.1525 H   0  0  0  0  0
  -20.9709  -17.8183   -0.0390 H   0  0  0  0  0
  -22.0141  -17.9467   -2.3471 H   0  0  0  0  0
  -20.6874  -16.7550   -2.0517 H   0  0  0  0  0
  -22.4298  -15.8923   -3.2371 H   0  0  0  0  0
  -19.8484  -16.0135    0.6211 H   0  0  0  0  0
  -21.4864  -13.7410    1.6239 H   0  0  0  0  0
  -19.5088  -15.3548    3.2901 H   0  0  0  0  0
  -21.4163  -15.8878    4.5196 H   0  0  0  0  0
  -19.5357  -12.9494    3.8369 H   0  0  0  0  0
  -21.3078  -13.0015    4.0042 H   0  0  0  0  0
  -20.2787  -13.8985    5.1477 H   0  0  0  0  0
  -20.4440  -11.8081    1.2743 H   0  0  0  0  0
  -17.7038  -11.8408    0.2518 H   0  0  0  0  0
  -19.3682   -9.4709    1.1197 H   0  0  0  0  0
  -19.4515  -10.2584   -0.5213 H   0  0  0  0  0
  -17.1581   -9.6677   -0.9365 H   0  0  0  0  0
  -17.0391   -8.9189    0.7185 H   0  0  0  0  0
  -19.7204   -8.5873   -1.1531 H   0  0  0  0  0
  -15.9051  -11.4641    1.2921 H   0  0  0  0  0
  -15.9903  -10.9109    4.2298 H   0  0  0  0  0
  -14.0742  -12.6828    2.6143 H   0  0  0  0  0
  -15.0269  -14.5832    3.5752 H   0  0  0  0  0
  -16.3746  -13.5515    2.8569 H   0  0  0  0  0
  -12.9511  -11.6257    4.4781 H   0  0  0  0  0
  -14.2224  -12.1871    5.5915 H   0  0  0  0  0
  -13.1638  -13.3676    4.7810 H   0  0  0  0  0
  -15.6607  -13.8487    5.7391 H   0  0  0  0  0
  -16.9628  -12.8519    5.0450 H   0  0  0  0  0
  -17.0251  -14.6256    4.8989 H   0  0  0  0  0
  -14.4656  -10.3713    1.3048 H   0  0  0  0  0
  1  2  2  0  0  0
  1  3  1  0  0  0
  1  4  1  0  0  0
  4  5  1  0  0  0
  5  6  1  0  0  0
  5  8  1  0  0  0
  6  7  2  0  0  0
  6 12  1  0  0  0
  8  9  1  0  0  0
  8 10  1  0  0  0
  9 11  1  0  0  0
 12 13  1  0  0  0
 13 14  1  0  0  0
 13 16  1  0  0  0
 14 15  2  0  0  0
 14 21  1  0  0  0
 16 17  1  0  0  0
 17 18  1  0  0  0
 18 19  1  0  0  0
 18 20  2  0  0  0
 21 22  1  0  0  0
 22 23  1  0  0  0
 22 25  1  0  0  0
 23 24  2  0  0  0
 23 27  1  0  0  0
 25 26  1  0  0  0
 27 28  1  0  0  0
 28 29  1  0  0  0
 28 31  1  0  0  0
 29 30  2  0  0  0
 29 34  1  0  0  0
 31 32  1  0  0  0
 31 33  1  0  0  0
 34 35  1  0  0  0
 35 36  1  0  0  0
 35 38  1  0  0  0
 36 37  2  0  0  0
 36 43  1  0  0  0
 38 39  1  0  0  0
 39 40  1  0  0  0
 40 41  1  0  0  0
 40 42  2  0  0  0
 43 44  1  0  0  0
 44 45  1  0  0  0
 44 47  1  0  0  0
 45 46  2  0  0  0
 45 51  1  0  0  0
 47 48  1  0  0  0
 47 49  1  0  0  0
 48 50  1  0  0  0
  3 52  1  0  0  0
  3 53  1  0  0  0
  3 54  1  0  0  0
  4 55  1  0  0  0
  5 56  1  0  0  0
  8 57  1  0  0  0
  9 58  1  0  0  0
  9 59  1  0  0  0
 10 60  1  0  0  0
 10 61  1  0  0  0
 10 62  1  0  0  0
 11 63  1  0  0  0
 11 64  1  0  0  0
 11 65  1  0  0  0
 12 66  1  0  0  0
 13 67  1  0  0  0
 16 68  1  0  0  0
 16 69  1  0  0  0
 17 70  1  0  0  0
 17 71  1  0  0  0
 19 72  1  0  0  0
 21 73  1  0  0  0
 22 74  1  0  0  0
 25 75  1  0  0  0
 25 76  1  0  0  0
 26 77  1  0  0  0
 27 78  1  0  0  0
 28 79  1  0  0  0
 31 80  1  0  0  0
 32 81  1  0  0  0
 33 82  1  0  0  0
 33 83  1  0  0  0
 33 84  1  0  0  0
 34 85  1  0  0  0
 35 86  1  0  0  0
 38 87  1  0  0  0
 38 88  1  0  0  0
 39 89  1  0  0  0
 39 90  1  0  0  0
 41 91  1  0  0  0
 43 92  1  0  0  0
 44 93  1  0  0  0
 47 94  1  0  0  0
 48 95  1  0  0  0
 48 96  1  0  0  0
 49 97  1  0  0  0
 49 98  1  0  0  0
 49 99  1  0  0  0
 50100  1  0  0  0
 50101  1  0  0  0
 50102  1  0  0  0
 51103  1  0  0  0
M  END
$$$$
