5jiq_ligand
  -I-interpret- 

 28 29  0  0  0  0  0  0  0  0999 V2000
    2.0850   -3.0500    5.9430 O   0  0  0  0  0
    1.2750   -2.0640    5.4790 C   0  0  0  0  0
    1.2060   -1.8290    4.1250 C   0  0  0  0  0
    0.3800   -0.8380    3.6260 C   0  0  0  0  0
    0.3160   -0.6040    2.2520 O   0  0  0  0  0
   -0.3830   -0.0710    4.4750 C   0  0  0  0  0
   -0.3270   -0.3050    5.8310 C   0  0  0  0  0
    0.5020   -1.3000    6.3410 C   0  0  0  0  0
    0.5600   -1.5370    7.8270 C   0  0  0  0  0
    0.5790   -2.6610    8.2870 O   0  0  0  0  0
    0.5760   -0.3450    8.7450 C   0  0  0  0  0
    0.9540    0.9070    8.2890 C   0  0  0  0  0
    0.9370    1.9750    9.1530 C   0  0  0  0  0
    0.5610    1.7840   10.4640 C   0  0  0  0  0
    0.5730    2.8920   11.3090 O   0  0  0  0  0
    0.1820    0.5360   10.9330 C   0  0  0  0  0
    0.1930   -0.5280   10.0610 C   0  0  0  0  0
   -0.1780   -1.7720   10.4770 O   0  0  0  0  0
    2.0235   -3.0892    6.9002 H   0  0  0  0  0
    1.8066   -2.4281    3.4406 H   0  0  0  0  0
   -0.3000    0.1116    2.0788 H   0  0  0  0  0
   -1.0260    0.7147    4.0784 H   0  0  0  0  0
   -0.9358    0.2929    6.5092 H   0  0  0  0  0
    1.2626    1.0439    7.2526 H   0  0  0  0  0
    1.2195    2.9678    8.8029 H   0  0  0  0  0
    0.2925    2.6259   12.1877 H   0  0  0  0  0
   -0.1187    0.4003   11.9719 H   0  0  0  0  0
   -0.4146   -1.7399   11.4068 H   0  0  0  0  0
  1  2  1  0  0  0
  2  3  4  0  0  0
  2  8  4  0  0  0
  3  4  4  0  0  0
  4  5  1  0  0  0
  4  6  4  0  0  0
  6  7  4  0  0  0
  7  8  4  0  0  0
  8  9  1  0  0  0
  9 10  2  0  0  0
  9 11  1  0  0  0
 11 12  4  0  0  0
 11 17  4  0  0  0
 12 13  4  0  0  0
 13 14  4  0  0  0
 14 15  1  0  0  0
 14 16  4  0  0  0
 16 17  4  0  0  0
 17 18  1  0  0  0
  1 19  1  0  0  0
  3 20  1  0  0  0
  5 21  1  0  0  0
  6 22  1  0  0  0
  7 23  1  0  0  0
 12 24  1  0  0  0
 13 25  1  0  0  0
 15 26  1  0  0  0
 16 27  1  0  0  0
 18 28  1  0  0  0
M  END
$$$$
