### 
### Created by X-TOOL on Mon Sep 10 21:13:28 2018
### 

@<TRIPOS>MOLECULE
5l44_ligand
   69    70     1     0     0
SMALL
GAST_HUCK


@<TRIPOS>ATOM
      1 CAR         0.0460   25.7080   25.5830 C.ar      1 K26        -0.0686
      2 CAN        -0.9400   26.1810   26.4660 C.ar      1 K26        -0.0398
      3 CBD        -2.2060   25.5990   26.4140 C.ar      1 K26         0.0805
      4 OAI        -3.2010   26.0180   27.2670 O.3       1 K26        -0.3376
      5 CAO        -2.4380   24.5740   25.4930 C.ar      1 K26        -0.0398
      6 CAS        -1.4320   24.1200   24.6240 C.ar      1 K26        -0.0686
      7 CBF        -0.1530   24.6960   24.6380 C.ar      1 K26        -0.0501
      8 CAV         0.9630   24.3440   23.8120 C.3       1 K26         0.0145
      9 CBI         0.7180   23.3450   22.6740 C.3       1 K26         0.1207
     10 PBK         2.1010   23.3280   21.3990 P.3       1 K26         0.0863
     11 OAJ         1.6280   22.4900   20.2860 O.co2     1 K26        -0.5606
     12 OAK         2.2900   24.7570   21.1320 O.co2     1 K26        -0.5606
     13 OAG         3.3680   22.8210   21.9690 O.co2     1 K26        -0.5606
     14 NAY         0.5490   22.0080   23.2450 N.am      1 K26        -0.2653
     15 C          -0.3660   21.0990   22.8060 C.2       1 K26         0.2049
     16 O          -1.0630   21.2120   21.7990 O.2       1 K26        -0.3943
     17 CA         -0.4670   19.8220   23.6160 C.3       1 K26         0.1389
     18 N          -1.9090   19.5300   23.8070 N.am      1 K26        -0.2621
     19 CBB        -2.4580   19.3360   25.0260 C.2       1 K26         0.2043
     20 OAF        -1.8350   19.3780   26.0880 O.2       1 K26        -0.3944
     21 CBJ        -3.9500   18.9690   25.0270 C.3       1 K26         0.1334
     22 CBG        -4.8000   20.1010   25.5870 C.3       1 K26        -0.0037
     23 CAC        -4.5530   21.3580   24.7310 C.3       1 K26        -0.0582
     24 CAT        -6.2460   19.6690   25.4620 C.3       1 K26        -0.0491
     25 CAA        -7.0660   20.5650   26.4100 C.3       1 K26        -0.0648
     26 NAX        -4.0680   17.7310   25.8320 N.am      1 K26        -0.2656
     27 CAZ        -4.4470   16.5830   25.2410 C.2       1 K26         0.1751
     28 CAB        -4.4580   15.3490   26.1210 C.3       1 K26         0.0258
     29 OAD        -4.7280   16.4940   24.0430 O.2       1 K26        -0.3972
     30 CB          0.2320   18.6580   22.9230 C.3       1 K26         0.0163
     31 CG          0.0040   17.5620   23.8110 C.ar      1 K26        -0.0493
     32 CD1         0.7640   17.4490   24.9670 C.ar      1 K26        -0.0685
     33 CE1         0.5310   16.4040   25.8710 C.ar      1 K26        -0.0398
     34 CZ         -0.4560   15.4450   25.6130 C.ar      1 K26         0.0805
     35 OH         -0.6960   14.4230   26.4870 O.3       1 K26        -0.3376
     36 CE2        -1.2240   15.5640   24.4660 C.ar      1 K26        -0.0398
     37 CD2        -1.0010   16.6090   23.5660 C.ar      1 K26        -0.0685
     38 H1          1.0301   26.1593   25.6382 H         1 K26         0.0530
     39 H2         -0.7220   26.9771   27.1687 H         1 K26         0.0525
     40 H3         -3.9922   25.5201   27.0977 H         1 K26         0.2458
     41 H4         -3.4200   24.1172   25.4479 H         1 K26         0.0525
     42 H5         -1.6471   23.3131   23.9328 H         1 K26         0.0530
     43 H6          1.7344   23.9134   24.4673 H         1 K26         0.0442
     44 H7          1.3427   25.2718   23.3592 H         1 K26         0.0442
     45 H8         -0.2122   23.6310   22.1613 H         1 K26         0.0771
     46 H9          1.1427   21.7450   24.0055 H         1 K26         0.1870
     47 H10         0.0059   19.9787   24.5967 H         1 K26         0.0821
     48 H11        -2.4983   19.4746   23.0010 H         1 K26         0.1885
     49 H12        -4.2791   18.7667   23.9971 H         1 K26         0.0803
     50 H13        -4.5457   20.2995   26.6386 H         1 K26         0.0345
     51 H14        -5.1586   22.1904   25.1187 H         1 K26         0.0235
     52 H15        -4.8365   21.1530   23.6881 H         1 K26         0.0235
     53 H16        -3.4876   21.6281   24.7751 H         1 K26         0.0235
     54 H17        -6.3518   18.6137   25.7537 H         1 K26         0.0267
     55 H18        -6.5913   19.7995   24.4258 H         1 K26         0.0267
     56 H19        -8.1282   20.2851   26.3516 H         1 K26         0.0230
     57 H20        -6.9474   21.6177   26.1136 H         1 K26         0.0230
     58 H21        -6.7079   20.4319   27.4415 H         1 K26         0.0230
     59 H22        -3.8667   17.7484   26.8114 H         1 K26         0.1883
     60 H23        -4.7825   14.4800   25.5298 H         1 K26         0.0467
     61 H24        -5.1535   15.5026   26.9592 H         1 K26         0.0467
     62 H25        -3.4460   15.1688   26.5125 H         1 K26         0.0467
     63 H26         1.3081   18.8558   22.8094 H         1 K26         0.0453
     64 H27        -0.2114   18.4637   21.9353 H         1 K26         0.0453
     65 H28         1.5432   18.1742   25.1719 H         1 K26         0.0530
     66 H29         1.1203   16.3375   26.7784 H         1 K26         0.0525
     67 H30        -1.3947   13.8756   26.1483 H         1 K26         0.2458
     68 H31        -2.0050   14.8397   24.2651 H         1 K26         0.0525
     69 H32        -1.6078   16.6860   22.6711 H         1 K26         0.0530
@<TRIPOS>BOND
     1    1    2 ar 
     2    1    7 ar 
     3    2    3 ar 
     4    3    4 1  
     5    3    5 ar 
     6    5    6 ar 
     7    6    7 ar 
     8    7    8 1  
     9    8    9 1  
    10    9   10 1  
    11    9   14 1  
    12   10   11 ar 
    13   10   12 ar 
    14   10   13 ar 
    15   14   15 am 
    16   15   16 2  
    17   15   17 1  
    18   17   18 1  
    19   17   30 1  
    20   18   19 am 
    21   19   20 2  
    22   19   21 1  
    23   21   22 1  
    24   21   26 1  
    25   22   23 1  
    26   22   24 1  
    27   24   25 1  
    28   26   27 am 
    29   27   28 1  
    30   27   29 2  
    31   30   31 1  
    32   31   32 ar 
    33   31   37 ar 
    34   32   33 ar 
    35   33   34 ar 
    36   34   35 1  
    37   34   36 ar 
    38   36   37 ar 
    39    1   38 1  
    40    2   39 1  
    41    4   40 1  
    42    5   41 1  
    43    6   42 1  
    44    8   43 1  
    45    8   44 1  
    46    9   45 1  
    47   14   46 1  
    48   17   47 1  
    49   18   48 1  
    50   21   49 1  
    51   22   50 1  
    52   23   51 1  
    53   23   52 1  
    54   23   53 1  
    55   24   54 1  
    56   24   55 1  
    57   25   56 1  
    58   25   57 1  
    59   25   58 1  
    60   26   59 1  
    61   28   60 1  
    62   28   61 1  
    63   28   62 1  
    64   30   63 1  
    65   30   64 1  
    66   32   65 1  
    67   33   66 1  
    68   35   67 1  
    69   36   68 1  
    70   37   69 1  
@<TRIPOS>SUBSTRUCTURE
     1 K26         1

