5l44_ligand
  -I-interpret- 

 71 72  0  0  0  0  0  0  0  0999 V2000
    0.0460   25.7080   25.5830 C   0  0  0  0  0
   -0.9400   26.1810   26.4660 C   0  0  0  0  0
   -2.2060   25.5990   26.4140 C   0  0  0  0  0
   -3.2010   26.0180   27.2670 O   0  0  0  0  0
   -2.4380   24.5740   25.4930 C   0  0  0  0  0
   -1.4320   24.1200   24.6240 C   0  0  0  0  0
   -0.1530   24.6960   24.6380 C   0  0  0  0  0
    0.9630   24.3440   23.8120 C   0  0  0  0  0
    0.7180   23.3450   22.6740 C   0  0  0  0  0
    2.1010   23.3280   21.3990 P   0  0  0  0  0
    1.6280   22.4900   20.2860 O   0  0  0  0  0
    2.2900   24.7570   21.1320 O   0  0  0  0  0
    3.3680   22.8210   21.9690 O   0  0  0  0  0
    0.5490   22.0080   23.2450 N   0  0  0  0  0
   -0.3660   21.0990   22.8060 C   0  0  0  0  0
   -1.0630   21.2120   21.7990 O   0  0  0  0  0
   -0.4670   19.8220   23.6160 C   0  0  0  0  0
   -1.9090   19.5300   23.8070 N   0  0  0  0  0
   -2.4580   19.3360   25.0260 C   0  0  0  0  0
   -1.8350   19.3780   26.0880 O   0  0  0  0  0
   -3.9500   18.9690   25.0270 C   0  0  0  0  0
   -4.8000   20.1010   25.5870 C   0  0  0  0  0
   -4.5530   21.3580   24.7310 C   0  0  0  0  0
   -6.2460   19.6690   25.4620 C   0  0  0  0  0
   -7.0660   20.5650   26.4100 C   0  0  0  0  0
   -4.0680   17.7310   25.8320 N   0  0  0  0  0
   -4.4470   16.5830   25.2410 C   0  0  0  0  0
   -4.4580   15.3490   26.1210 C   0  0  0  0  0
   -4.7280   16.4940   24.0430 O   0  0  0  0  0
    0.2320   18.6580   22.9230 C   0  0  0  0  0
    0.0040   17.5620   23.8110 C   0  0  0  0  0
    0.7640   17.4490   24.9670 C   0  0  0  0  0
    0.5310   16.4040   25.8710 C   0  0  0  0  0
   -0.4560   15.4450   25.6130 C   0  0  0  0  0
   -0.6960   14.4230   26.4870 O   0  0  0  0  0
   -1.2240   15.5640   24.4660 C   0  0  0  0  0
   -1.0010   16.6090   23.5660 C   0  0  0  0  0
    1.0355   26.1618   25.6385 H   0  0  0  0  0
   -0.7208   26.9815   27.1726 H   0  0  0  0  0
   -4.0005   25.5149   27.0959 H   0  0  0  0  0
   -3.4255   24.1147   25.4477 H   0  0  0  0  0
   -1.6483   23.3087   23.9290 H   0  0  0  0  0
    1.6780   23.8599   24.4772 H   0  0  0  0  0
    1.2713   25.2701   23.3268 H   0  0  0  0  0
   -0.1839   23.6589   22.1485 H   0  0  0  0  0
    1.5444   21.5813   20.5842 H   0  0  0  0  0
    3.2805   21.8837   22.1571 H   0  0  0  0  0
    1.1546   21.7398   24.0207 H   0  0  0  0  0
    0.0317   19.9535   24.5763 H   0  0  0  0  0
   -2.5101   19.4734   22.9848 H   0  0  0  0  0
   -4.3202   18.8059   24.0149 H   0  0  0  0  0
   -4.5560   20.3211   26.6263 H   0  0  0  0  0
   -3.4970   21.6246   24.7755 H   0  0  0  0  0
   -4.8342   21.1535   23.6979 H   0  0  0  0  0
   -5.1536   22.1821   25.1161 H   0  0  0  0  0
   -6.3596   18.6184   25.7292 H   0  0  0  0  0
   -6.5931   19.7748   24.4342 H   0  0  0  0  0
   -6.7102   20.4322   27.4317 H   0  0  0  0  0
   -6.9476   21.6077   26.1153 H   0  0  0  0  0
   -8.1182   20.2867   26.3513 H   0  0  0  0  0
   -3.8626   17.7487   26.8310 H   0  0  0  0  0
   -5.4561   14.9110   26.1179 H   0  0  0  0  0
   -3.7405   14.6239   25.7368 H   0  0  0  0  0
   -4.1853   15.6277   27.1389 H   0  0  0  0  0
    1.2920   18.8465   22.7525 H   0  0  0  0  0
   -0.1542   18.4733   21.9206 H   0  0  0  0  0
    1.5475   18.1782   25.1730 H   0  0  0  0  0
    1.1236   16.3371   26.7834 H   0  0  0  0  0
   -1.4020   13.8699   26.1447 H   0  0  0  0  0
   -2.0094   14.8356   24.2640 H   0  0  0  0  0
   -1.6112   16.6865   22.6661 H   0  0  0  0  0
  1  2  4  0  0  0
  1  7  4  0  0  0
  2  3  4  0  0  0
  3  4  1  0  0  0
  3  5  4  0  0  0
  5  6  4  0  0  0
  6  7  4  0  0  0
  7  8  1  0  0  0
  8  9  1  0  0  0
  9 10  1  0  0  0
  9 14  1  0  0  0
 10 11  1  0  0  0
 10 12  2  0  0  0
 10 13  1  0  0  0
 14 15  1  0  0  0
 15 16  2  0  0  0
 15 17  1  0  0  0
 17 18  1  0  0  0
 17 30  1  0  0  0
 18 19  1  0  0  0
 19 20  2  0  0  0
 19 21  1  0  0  0
 21 22  1  0  0  0
 21 26  1  0  0  0
 22 23  1  0  0  0
 22 24  1  0  0  0
 24 25  1  0  0  0
 26 27  1  0  0  0
 27 28  1  0  0  0
 27 29  2  0  0  0
 30 31  1  0  0  0
 31 32  4  0  0  0
 31 37  4  0  0  0
 32 33  4  0  0  0
 33 34  4  0  0  0
 34 35  1  0  0  0
 34 36  4  0  0  0
 36 37  4  0  0  0
  1 38  1  0  0  0
  2 39  1  0  0  0
  4 40  1  0  0  0
  5 41  1  0  0  0
  6 42  1  0  0  0
  8 43  1  0  0  0
  8 44  1  0  0  0
  9 45  1  0  0  0
 11 46  1  0  0  0
 13 47  1  0  0  0
 14 48  1  0  0  0
 17 49  1  0  0  0
 18 50  1  0  0  0
 21 51  1  0  0  0
 22 52  1  0  0  0
 23 53  1  0  0  0
 23 54  1  0  0  0
 23 55  1  0  0  0
 24 56  1  0  0  0
 24 57  1  0  0  0
 25 58  1  0  0  0
 25 59  1  0  0  0
 25 60  1  0  0  0
 26 61  1  0  0  0
 28 62  1  0  0  0
 28 63  1  0  0  0
 28 64  1  0  0  0
 30 65  1  0  0  0
 30 66  1  0  0  0
 32 67  1  0  0  0
 33 68  1  0  0  0
 35 69  1  0  0  0
 36 70  1  0  0  0
 37 71  1  0  0  0
M  END
$$$$
