4ymg_ligand
  -I-interpret- 

 51 53  0  0  0  0  0  0  0  0999 V2000
   -4.0180    7.5480  -17.4640 N   0  3  0  0  0
   -5.3000    7.8020  -18.1180 C   0  0  0  0  0
   -6.1900    8.7130  -17.2910 C   0  0  0  0  0
   -7.1650    9.2710  -17.7980 O   0  0  0  0  0
   -5.9610    8.9050  -16.1000 O   0  0  0  0  0
   -6.0770    6.5230  -18.4530 C   0  0  0  0  0
   -5.2550    5.2980  -18.8470 C   0  0  0  0  0
   -6.3410    3.9720  -19.4690 S   0  0  0  0  0
   -6.7670    3.1870  -17.8780 C   0  0  0  0  0
   -5.1600    2.7360  -20.0860 C   0  0  0  0  0
   -4.4550    3.1360  -21.3820 C   0  0  0  0  0
   -3.3260    2.3090  -21.5760 O   0  0  0  0  0
   -5.3370    2.9620  -22.6150 C   0  0  0  0  0
   -5.3060    4.1420  -23.3840 O   0  0  0  0  0
   -4.6890    1.8380  -23.4180 C   0  0  0  0  0
   -4.7600    2.0130  -24.8190 O   0  0  0  0  0
   -3.2570    1.9150  -22.9360 C   0  0  0  0  0
   -2.5680    0.6280  -22.9970 N   0  0  0  0  0
   -3.0530   -0.6120  -22.6600 C   0  0  0  0  0
   -2.0570   -1.5100  -22.8410 N   0  0  0  0  0
   -0.9560   -0.8530  -23.2780 C   0  0  0  0  0
    0.3210   -1.2680  -23.6130 C   0  0  0  0  0
    0.6670   -2.5550  -23.5420 N   0  0  0  0  0
    1.2360   -0.3240  -24.0280 N   0  0  0  0  0
    0.9060    1.0150  -24.1110 C   0  0  0  0  0
   -0.3650    1.4230  -23.7780 N   0  0  0  0  0
   -1.2690    0.4980  -23.3670 C   0  0  0  0  0
   -3.5550    8.4358  -17.2697 H   0  0  0  0  0
   -4.1770    7.0476  -16.5895 H   0  0  0  0  0
   -3.4304    6.9839  -18.0779 H   0  0  0  0  0
   -5.0392    8.2956  -19.0542 H   0  0  0  0  0
   -7.2218    9.0327  -18.7262 H   0  0  0  0  0
   -6.6881    6.7644  -19.3227 H   0  0  0  0  0
   -6.6049    6.2470  -17.5402 H   0  0  0  0  0
   -4.7193    4.9344  -17.9701 H   0  0  0  0  0
   -4.5547    5.5798  -19.6333 H   0  0  0  0  0
   -5.8566    2.8352  -17.3926 H   0  0  0  0  0
   -7.2642    3.9149  -17.2368 H   0  0  0  0  0
   -7.4338    2.3436  -18.0575 H   0  0  0  0  0
   -5.7247    1.8272  -20.2941 H   0  0  0  0  0
   -4.3898    2.6183  -19.3238 H   0  0  0  0  0
   -4.1920    4.1884  -21.2752 H   0  0  0  0  0
   -6.3714    2.7450  -22.3484 H   0  0  0  0  0
   -5.8610    4.0319  -24.1595 H   0  0  0  0  0
   -5.1850    0.8796  -23.2643 H   0  0  0  0  0
   -4.3342    1.2712  -25.2550 H   0  0  0  0  0
   -2.7028    2.6070  -23.5700 H   0  0  0  0  0
   -4.0610   -0.8334  -22.3091 H   0  0  0  0  0
   -0.0143   -3.2502  -23.2370 H   0  0  0  0  0
    1.6127   -2.8434  -23.7927 H   0  0  0  0  0
    1.6478    1.7435  -24.4382 H   0  0  0  0  0
  1  2  1  0  0  0
  2  3  1  0  0  0
  2  6  1  0  0  0
  3  4  1  0  0  0
  3  5  2  0  0  0
  6  7  1  0  0  0
  7  8  1  0  0  0
  8  9  1  0  0  0
  8 10  1  0  0  0
 10 11  1  0  0  0
 11 12  1  0  0  0
 11 13  1  0  0  0
 12 17  1  0  0  0
 13 14  1  0  0  0
 13 15  1  0  0  0
 15 16  1  0  0  0
 15 17  1  0  0  0
 17 18  1  0  0  0
 18 19  4  0  0  0
 18 27  4  0  0  0
 19 20  4  0  0  0
 20 21  4  0  0  0
 21 22  4  0  0  0
 21 27  4  0  0  0
 22 23  1  0  0  0
 22 24  4  0  0  0
 24 25  4  0  0  0
 25 26  4  0  0  0
 26 27  4  0  0  0
  1 28  1  0  0  0
  1 29  1  0  0  0
  1 30  1  0  0  0
  2 31  1  0  0  0
  4 32  1  0  0  0
  6 33  1  0  0  0
  6 34  1  0  0  0
  7 35  1  0  0  0
  7 36  1  0  0  0
  9 37  1  0  0  0
  9 38  1  0  0  0
  9 39  1  0  0  0
 10 40  1  0  0  0
 10 41  1  0  0  0
 11 42  1  0  0  0
 13 43  1  0  0  0
 14 44  1  0  0  0
 15 45  1  0  0  0
 16 46  1  0  0  0
 17 47  1  0  0  0
 19 48  1  0  0  0
 23 49  1  0  0  0
 23 50  1  0  0  0
 25 51  1  0  0  0
M  END
$$$$
