3eor_ligand
  -I-interpret- 

 32 32  0  0  0  0  0  0  0  0999 V2000
  139.4770  101.0830   43.5270 O   0  0  0  0  0
  140.0950   99.8960   44.1150 P   0  0  0  0  0
  140.9030   99.0870   43.2120 O   0  0  0  0  0
  139.2450   99.1180   45.0070 O   0  0  0  0  0
  141.3260  100.6400   45.1830 C   0  0  0  0  0
  140.8440  101.0260   46.4580 O   0  0  0  0  0
  141.1170   99.9410   47.2670 C   0  0  0  0  0
  142.5430   99.8620   47.0690 C   0  0  0  0  0
  142.9990   99.0090   48.0760 O   0  0  0  0  0
  141.1050  100.1320   48.7410 C   0  0  0  0  0
  139.9510  100.9120   49.0900 N   0  0  0  0  0
  138.7110  100.5390   48.7120 C   0  0  0  0  0
  137.6590  101.3330   49.0640 C   0  0  0  0  0
  137.9080  102.4530   49.7810 C   0  0  0  0  0
  136.9260  103.2160   50.1250 N   0  0  0  0  0
  139.1270  102.7790   50.1280 N   0  0  0  0  0
  140.1330  102.0170   49.7900 C   0  0  0  0  0
  141.3710  102.3180   50.1280 O   0  0  0  0  0
  138.9697  101.5444   44.1988 H   0  0  0  0  0
  138.7443   99.7131   45.5699 H   0  0  0  0  0
  141.6728  101.5460   44.6861 H   0  0  0  0  0
  142.0990   99.8896   45.3487 H   0  0  0  0  0
  140.4017   99.1559   47.0219 H   0  0  0  0  0
  143.0144  100.8432   47.1255 H   0  0  0  0  0
  142.7936   99.4870   46.0767 H   0  0  0  0  0
  143.9511   98.9102   48.0033 H   0  0  0  0  0
  142.0120  100.6476   49.0568 H   0  0  0  0  0
  141.0652   99.1644   49.2412 H   0  0  0  0  0
  138.5534   99.6252   48.1391 H   0  0  0  0  0
  136.6414  101.0711   48.7743 H   0  0  0  0  0
  135.9726  102.9725   49.8563 H   0  0  0  0  0
  139.2923  103.6309   50.6641 H   0  0  0  0  0
  1  2  1  0  0  0
  2  3  2  0  0  0
  2  4  1  0  0  0
  2  5  1  0  0  0
  5  6  1  0  0  0
  6  7  1  0  0  0
  7  8  1  0  0  0
  7 10  1  0  0  0
  8  9  1  0  0  0
 10 11  1  0  0  0
 11 12  1  0  0  0
 11 17  1  0  0  0
 12 13  2  0  0  0
 13 14  1  0  0  0
 14 15  2  0  0  0
 14 16  1  0  0  0
 16 17  1  0  0  0
 17 18  2  0  0  0
  1 19  1  0  0  0
  4 20  1  0  0  0
  5 21  1  0  0  0
  5 22  1  0  0  0
  7 23  1  0  0  0
  8 24  1  0  0  0
  8 25  1  0  0  0
  9 26  1  0  0  0
 10 27  1  0  0  0
 10 28  1  0  0  0
 12 29  1  0  0  0
 13 30  1  0  0  0
 15 31  1  0  0  0
 16 32  1  0  0  0
M  END
$$$$
