### 
### Created by X-TOOL on Mon Sep 10 21:13:00 2018
### 

@<TRIPOS>MOLECULE
3eor_ligand
   30    30     1     0     0
SMALL
GAST_HUCK


@<TRIPOS>ATOM
      1 OAN       139.4770  101.0830   43.5270 O.co2     1 CFV        -0.5607
      2 PAM       140.0950   99.8960   44.1150 P.3       1 CFV         0.0846
      3 OAO       140.9030   99.0870   43.2120 O.co2     1 CFV        -0.5607
      4 OAP       139.2450   99.1180   45.0070 O.co2     1 CFV        -0.5607
      5 CAL       141.3260  100.6400   45.1830 C.3       1 CFV         0.1182
      6 OAK       140.8440  101.0260   46.4580 O.3       1 CFV        -0.3542
      7 CAJ       141.1170   99.9410   47.2670 C.3       1 CFV         0.1122
      8 CAQ       142.5430   99.8620   47.0690 C.3       1 CFV         0.0732
      9 OAR       142.9990   99.0090   48.0760 O.3       1 CFV        -0.3924
     10 CAA       141.1050  100.1320   48.7410 C.3       1 CFV         0.0994
     11 NAB       139.9510  100.9120   49.0900 N.am      1 CFV        -0.1745
     12 CAC       138.7110  100.5390   48.7120 C.2       1 CFV         0.0711
     13 CAD       137.6590  101.3330   49.0640 C.2       1 CFV         0.0018
     14 CAE       137.9080  102.4530   49.7810 C.2       1 CFV         0.0853
     15 NAF       136.9260  103.2160   50.1250 N.2       1 CFV        -0.4291
     16 NAG       139.1270  102.7790   50.1280 N.am      1 CFV        -0.1924
     17 CAH       140.1330  102.0170   49.7900 C.2       1 CFV         0.3466
     18 OAI       141.3710  102.3180   50.1280 O.2       1 CFV        -0.3778
     19 H1        141.7209  101.5350   44.6801 H         1 CFV         0.0753
     20 H2        142.1384   99.9129   45.3290 H         1 CFV         0.0753
     21 H3        140.5387   99.0549   46.9665 H         1 CFV         0.0648
     22 H4        143.0029  100.8564   47.1666 H         1 CFV         0.0584
     23 H5        142.7735   99.4471   46.0767 H         1 CFV         0.0584
     24 H6        143.9412   98.9112   48.0041 H         1 CFV         0.2095
     25 H7        142.0180  100.6596   49.0543 H         1 CFV         0.0658
     26 H8        141.0568   99.1537   49.2416 H         1 CFV         0.0658
     27 H9        138.5535   99.6260   48.1396 H         1 CFV         0.1287
     28 H10       136.6423  101.0714   48.7746 H         1 CFV         0.0330
     29 H11       137.1010  104.0527   50.6592 H         1 CFV         0.0340
     30 H12       139.2890  103.6142   50.6536 H         1 CFV         0.2412
@<TRIPOS>BOND
     1    1    2 ar 
     2    2    3 ar 
     3    2    4 ar 
     4    2    5 1  
     5    5    6 1  
     6    6    7 1  
     7    7    8 1  
     8    7   10 1  
     9    8    9 1  
    10   10   11 1  
    11   11   12 1  
    12   11   17 am 
    13   12   13 2  
    14   13   14 1  
    15   14   15 2  
    16   14   16 1  
    17   16   17 am 
    18   17   18 2  
    19    5   19 1  
    20    5   20 1  
    21    7   21 1  
    22    8   22 1  
    23    8   23 1  
    24    9   24 1  
    25   10   25 1  
    26   10   26 1  
    27   12   27 1  
    28   13   28 1  
    29   15   29 1  
    30   16   30 1  
@<TRIPOS>SUBSTRUCTURE
     1 CFV         1

