4mic_ligand
  -I-interpret- 

 52 53  0  0  0  0  0  0  0  0999 V2000
   39.5530   28.8480   34.7690 C   0  0  0  0  0
   39.7590   27.3280   34.6910 C   0  0  0  0  0
   40.0740   26.7590   36.0740 C   0  0  0  0  0
   38.6180   26.7550   34.1100 C   0  0  0  0  0
   38.6450   26.5560   32.7330 C   0  0  0  0  0
   37.5550   26.0090   32.0760 C   0  0  0  0  0
   37.4660   26.4090   34.8300 C   0  0  0  0  0
   36.3720   25.8580   34.1600 C   0  0  0  0  0
   36.4100   25.6450   32.7790 C   0  0  0  0  0
   35.3080   25.1060   32.1130 C   0  0  0  0  0
   35.4500   24.4540   30.7240 C   0  0  0  0  0
   34.2330   23.8930   29.9730 C   0  0  0  0  0
   33.0940   23.9590   30.4340 O   0  0  0  0  0
   34.5330   23.3380   28.7920 N   0  0  0  0  0
   33.5070   22.7410   27.9230 C   0  0  0  0  0
   33.4260   21.3110   28.1790 O   0  0  0  0  0
   32.3300   20.7420   27.4460 C   0  0  0  0  0
   32.2270   19.2620   27.7820 C   0  0  0  0  0
   33.4810   18.6600   27.4050 O   0  0  0  0  0
   32.4880   20.9780   25.9100 C   0  0  0  0  0
   31.2860   20.5930   25.2430 O   0  0  0  0  0
   32.7320   22.4580   25.5970 C   0  0  0  0  0
   33.0200   22.6240   24.2010 O   0  0  0  0  0
   33.8830   22.9760   26.4660 C   0  0  0  0  0
   34.1020   24.3770   26.2450 O   0  0  0  0  0
   39.4059   29.2454   33.7648 H   0  0  0  0  0
   38.6755   29.0636   35.3786 H   0  0  0  0  0
   40.4319   29.3099   35.2188 H   0  0  0  0  0
   40.6173   27.0862   34.0641 H   0  0  0  0  0
   39.2328   26.9443   36.7419 H   0  0  0  0  0
   40.2460   25.6857   35.9933 H   0  0  0  0  0
   40.9671   27.2427   36.4697 H   0  0  0  0  0
   39.5332   26.8335   32.1654 H   0  0  0  0  0
   37.5943   25.8620   30.9967 H   0  0  0  0  0
   37.4246   26.5693   35.9074 H   0  0  0  0  0
   35.4766   25.5904   34.7211 H   0  0  0  0  0
   34.6648   25.9673   31.9327 H   0  0  0  0  0
   34.9903   24.2850   32.7557 H   0  0  0  0  0
   36.0684   23.5760   30.9105 H   0  0  0  0  0
   35.7956   25.2689   30.0879 H   0  0  0  0  0
   35.5055   23.3288   28.4845 H   0  0  0  0  0
   32.5405   23.2007   28.1297 H   0  0  0  0  0
   31.4040   21.2368   27.7389 H   0  0  0  0  0
   31.3988   18.7998   27.2449 H   0  0  0  0  0
   32.0330   19.1190   28.8450 H   0  0  0  0  0
   33.4559   17.7208   27.6023 H   0  0  0  0  0
   33.3387   20.3865   25.5716 H   0  0  0  0  0
   31.3844   20.7385   24.2992 H   0  0  0  0  0
   31.8367   23.0366   25.8246 H   0  0  0  0  0
   33.1712   23.5536   24.0149 H   0  0  0  0  0
   34.8025   22.4497   26.2097 H   0  0  0  0  0
   34.3387   24.5217   25.3260 H   0  0  0  0  0
  1  2  1  0  0  0
  2  3  1  0  0  0
  2  4  1  0  0  0
  4  5  4  0  0  0
  4  7  4  0  0  0
  5  6  4  0  0  0
  6  9  4  0  0  0
  7  8  4  0  0  0
  8  9  4  0  0  0
  9 10  1  0  0  0
 10 11  1  0  0  0
 11 12  1  0  0  0
 12 13  2  0  0  0
 12 14  1  0  0  0
 14 15  1  0  0  0
 15 16  1  0  0  0
 15 24  1  0  0  0
 16 17  1  0  0  0
 17 18  1  0  0  0
 17 20  1  0  0  0
 18 19  1  0  0  0
 20 21  1  0  0  0
 20 22  1  0  0  0
 22 23  1  0  0  0
 22 24  1  0  0  0
 24 25  1  0  0  0
  1 26  1  0  0  0
  1 27  1  0  0  0
  1 28  1  0  0  0
  2 29  1  0  0  0
  3 30  1  0  0  0
  3 31  1  0  0  0
  3 32  1  0  0  0
  5 33  1  0  0  0
  6 34  1  0  0  0
  7 35  1  0  0  0
  8 36  1  0  0  0
 10 37  1  0  0  0
 10 38  1  0  0  0
 11 39  1  0  0  0
 11 40  1  0  0  0
 14 41  1  0  0  0
 15 42  1  0  0  0
 17 43  1  0  0  0
 18 44  1  0  0  0
 18 45  1  0  0  0
 19 46  1  0  0  0
 20 47  1  0  0  0
 21 48  1  0  0  0
 22 49  1  0  0  0
 23 50  1  0  0  0
 24 51  1  0  0  0
 25 52  1  0  0  0
M  END
$$$$
