1rlq_ligand
  -I-interpret- 

161164  0  0  0  0  0  0  0  0999 V2000
   14.1260    2.1820   -1.5550 N   0  3  0  0  0
   12.9430    2.6890   -2.3060 C   0  0  0  0  0
   11.8520    1.6160   -2.3220 C   0  0  0  0  0
   11.4460    1.1470   -3.3660 O   0  0  0  0  0
   13.3540    3.0200   -3.7420 C   0  0  0  0  0
   12.1690    3.6460   -4.4820 C   0  0  0  0  0
   12.1330    5.1510   -4.2040 C   0  0  0  0  0
   11.5810    5.8630   -5.3910 N   0  0  0  0  0
   11.7520    7.1510   -5.5230 C   0  0  0  0  0
   12.4120    7.8220   -4.6160 N   0  0  0  0  0
   11.2640    7.7700   -6.5640 N   0  0  0  0  0
   11.3730    1.2260   -1.1720 N   0  0  0  0  0
   10.3090    0.1840   -1.1220 C   0  0  0  0  0
    9.2040    0.5350   -2.1200 C   0  0  0  0  0
    8.6140    1.5950   -2.0590 O   0  0  0  0  0
    9.7210    0.1210    0.2900 C   0  0  0  0  0
    8.9220   -0.3450   -3.0420 N   0  0  0  0  0
    7.8560   -0.0590   -4.0420 C   0  0  0  0  0
    6.5570    0.2990   -3.3130 C   0  0  0  0  0
    6.3740   -0.0570   -2.1660 O   0  0  0  0  0
    7.6290   -1.2950   -4.9140 C   0  0  0  0  0
    8.7810   -1.4320   -5.9120 C   0  0  0  0  0
    8.6750   -2.7790   -6.6300 C   0  0  0  0  0
    8.7040   -0.2990   -6.9360 C   0  0  0  0  0
    5.6920    0.9940   -4.0060 N   0  0  0  0  0
    4.3970    1.4170   -3.4470 C   0  0  0  0  0
    3.5050    0.1930   -3.1930 C   0  0  0  0  0
    3.3810   -0.6610   -4.0480 O   0  0  0  0  0
    3.7790    2.3090   -4.5260 C   0  0  0  0  0
    4.7080    2.2610   -5.7680 C   0  0  0  0  0
    5.9370    1.4170   -5.3970 C   0  0  0  0  0
    2.9090    0.1410   -2.0260 N   0  0  0  0  0
    2.0270   -0.9770   -1.6550 C   0  0  0  0  0
    0.8400   -1.0390   -2.6190 C   0  0  0  0  0
   -0.0580   -0.2230   -2.5620 O   0  0  0  0  0
    1.5530   -0.6520   -0.2310 C   0  0  0  0  0
    2.2040    0.6930    0.1850 C   0  0  0  0  0
    3.0620    1.1820   -0.9930 C   0  0  0  0  0
    0.8330   -1.9940   -3.5090 N   0  0  0  0  0
   -0.2960   -2.1030   -4.4760 C   0  0  0  0  0
   -1.6230   -1.8700   -3.7480 C   0  0  0  0  0
   -1.7200   -2.0860   -2.5560 O   0  0  0  0  0
   -0.2980   -3.4960   -5.1030 C   0  0  0  0  0
    0.7370   -3.5500   -6.2270 C   0  0  0  0  0
    1.1810   -4.9990   -6.4350 C   0  0  0  0  0
    0.1150   -3.0140   -7.5180 C   0  0  0  0  0
   -2.6090   -1.4370   -4.4920 N   0  0  0  0  0
   -3.9460   -1.1660   -3.9400 C   0  0  0  0  0
   -4.5100   -2.4220   -3.2710 C   0  0  0  0  0
   -5.0800   -3.2700   -3.9240 O   0  0  0  0  0
   -4.7990   -0.7610   -5.1490 C   0  0  0  0  0
   -3.8720   -0.7430   -6.3920 C   0  0  0  0  0
   -2.4720   -1.1910   -5.9390 C   0  0  0  0  0
   -4.3350   -2.5180   -1.9710 N   0  0  0  0  0
   -4.8280   -3.6890   -1.1660 C   0  0  0  0  0
   -5.4290   -4.7890   -2.0450 C   0  0  0  0  0
   -4.8380   -5.8310   -2.2280 O   0  0  0  0  0
   -5.8850   -3.2000   -0.1740 C   0  0  0  0  0
   -5.8280   -4.0550    1.0960 C   0  0  0  0  0
   -6.9730   -3.6640    2.0370 C   0  0  0  0  0
   -8.1250   -3.1490    1.2440 N   0  0  0  0  0
   -8.8110   -3.9590    0.4840 C   0  0  0  0  0
   -8.4980   -5.2260    0.4250 N   0  0  0  0  0
   -9.8130   -3.5010   -0.2140 N   0  0  0  0  0
   -6.6010   -4.5630   -2.5780 N   0  0  0  0  0
   -7.2570   -5.5890   -3.4480 C   0  0  0  0  0
   -7.9010   -6.6580   -2.5570 C   0  0  0  0  0
   -8.7950   -7.3380   -3.0330 O   0  0  0  0  0
   -6.2150   -6.2040   -4.4190 C   0  0  0  0  0
   -6.1410   -7.7410   -4.3000 C   0  0  0  0  0
   -5.7630   -8.3520   -3.1170 C   0  0  0  0  0
   -6.4380   -8.5350   -5.3900 C   0  0  0  0  0
   -5.6820   -9.7280   -3.0310 C   0  0  0  0  0
   -6.3570   -9.9110   -5.3020 C   0  0  0  0  0
   -5.9780  -10.5170   -4.1230 C   0  0  0  0  0
   -5.8940  -11.8920   -4.0390 O   0  0  0  0  0
   -7.4880   -6.7760   -1.4150 O   0  0  0  0  0
   13.8507    1.9617   -0.5979 H   0  0  0  0  0
   14.4812    1.3411   -2.0100 H   0  0  0  0  0
   14.8530    2.8974   -1.5449 H   0  0  0  0  0
   12.5621    3.5878   -1.8211 H   0  0  0  0  0
   13.6585    2.1061   -4.2521 H   0  0  0  0  0
   14.1860    3.7240   -3.7282 H   0  0  0  0  0
   11.2417    3.1898   -4.1356 H   0  0  0  0  0
   12.2783    3.4764   -5.5532 H   0  0  0  0  0
   13.1435    5.5076   -4.0042 H   0  0  0  0  0
   11.5007    5.3452   -3.3376 H   0  0  0  0  0
   11.0680    5.3427   -6.1027 H   0  0  0  0  0
   12.5452    8.8277   -4.7220 H   0  0  0  0  0
   12.7938    7.3399   -3.8022 H   0  0  0  0  0
   10.7497    7.2476   -7.2733 H   0  0  0  0  0
   11.7272    1.6347   -0.3072 H   0  0  0  0  0
   10.7372   -0.7846   -1.3800 H   0  0  0  0  0
   10.5094   -0.1300    0.9996 H   0  0  0  0  0
    9.2934    1.0899    0.5477 H   0  0  0  0  0
    8.9430   -0.6417    0.3245 H   0  0  0  0  0
    9.4314   -1.2280   -3.0776 H   0  0  0  0  0
    8.1619    0.7767   -4.6714 H   0  0  0  0  0
    6.6889   -1.1905   -5.4556 H   0  0  0  0  0
    7.5868   -2.1827   -4.2829 H   0  0  0  0  0
    9.7317   -1.3777   -5.3816 H   0  0  0  0  0
    8.7294   -3.5848   -5.8980 H   0  0  0  0  0
    7.7246   -2.8324   -7.1611 H   0  0  0  0  0
    9.4957   -2.8760   -7.3407 H   0  0  0  0  0
    7.7535   -0.3546   -7.4667 H   0  0  0  0  0
    8.7791    0.6593   -6.4220 H   0  0  0  0  0
    9.5247   -0.3969   -7.6467 H   0  0  0  0  0
    4.5060    1.9363   -2.4949 H   0  0  0  0  0
    3.6840    3.3324   -4.1631 H   0  0  0  0  0
    2.7813    1.9547   -4.7850 H   0  0  0  0  0
    5.0110    3.2679   -6.0551 H   0  0  0  0  0
    4.1856    1.8192   -6.6165 H   0  0  0  0  0
    6.0633    0.5654   -6.0655 H   0  0  0  0  0
    6.8638    1.9825   -5.4936 H   0  0  0  0  0
    2.5301   -1.9428   -1.7020 H   0  0  0  0  0
    1.8458   -1.4449    0.4573 H   0  0  0  0  0
    0.4662   -0.5736   -0.2008 H   0  0  0  0  0
    2.8216    0.5566    1.0728 H   0  0  0  0  0
    1.4355    1.4278    0.4249 H   0  0  0  0  0
    2.7409    2.1601   -1.3511 H   0  0  0  0  0
    4.1046    1.3201   -0.7066 H   0  0  0  0  0
    1.6000   -2.6655   -3.5426 H   0  0  0  0  0
   -0.1753   -1.3520   -5.2567 H   0  0  0  0  0
   -1.2867   -3.7106   -5.5087 H   0  0  0  0  0
   -0.0486   -4.2369   -4.3434 H   0  0  0  0  0
    1.5997   -2.9392   -5.9610 H   0  0  0  0  0
    1.6219   -5.3785   -5.5132 H   0  0  0  0  0
    0.3173   -5.6073   -6.7035 H   0  0  0  0  0
    1.9191   -5.0401   -7.2360 H   0  0  0  0  0
   -0.7463   -3.6259   -7.7862 H   0  0  0  0  0
   -0.2036   -1.9828   -7.3654 H   0  0  0  0  0
    0.8533   -3.0528   -8.3189 H   0  0  0  0  0
   -3.9292   -0.3878   -3.1770 H   0  0  0  0  0
   -5.2410    0.2226   -4.9901 H   0  0  0  0  0
   -5.6147   -1.4695   -5.2933 H   0  0  0  0  0
   -3.8296    0.2591   -6.8187 H   0  0  0  0  0
   -4.2549   -1.4150   -7.1601 H   0  0  0  0  0
   -2.1364   -2.0800   -6.4731 H   0  0  0  0  0
   -1.7142   -0.4376   -6.1539 H   0  0  0  0  0
   -3.8438   -1.7659   -1.4879 H   0  0  0  0  0
   -3.9728   -4.1187   -0.6444 H   0  0  0  0  0
   -6.8736   -3.2851   -0.6252 H   0  0  0  0  0
   -5.6901   -2.1582    0.0804 H   0  0  0  0  0
   -4.8754   -3.8896    1.5993 H   0  0  0  0  0
   -5.9258   -5.1068    0.8270 H   0  0  0  0  0
   -6.6291   -2.8867    2.7194 H   0  0  0  0  0
   -7.2886   -4.5399    2.6038 H   0  0  0  0  0
   -8.3778   -2.1622    1.2952 H   0  0  0  0  0
   -9.0374   -5.8575   -0.1672 H   0  0  0  0  0
   -7.7143   -5.5837    0.9711 H   0  0  0  0  0
  -10.0589   -2.5123   -0.1652 H   0  0  0  0  0
   -7.0739   -3.6772   -2.3989 H   0  0  0  0  0
   -8.0367   -5.1279   -4.0542 H   0  0  0  0  0
   -5.2357   -5.7973   -4.1667 H   0  0  0  0  0
   -6.5145   -5.9573   -5.4376 H   0  0  0  0  0
   -5.5271   -7.7416   -2.2453 H   0  0  0  0  0
   -6.7394   -8.0712   -6.3292 H   0  0  0  0  0
   -5.3817  -10.1943   -2.0926 H   0  0  0  0  0
   -6.5947  -10.5230   -6.1721 H   0  0  0  0  0
   -6.1328  -12.2783   -4.8848 H   0  0  0  0  0
   -6.7864   -6.1388   -1.2622 H   0  0  0  0  0
  1  2  1  0  0  0
  2  3  1  0  0  0
  2  5  1  0  0  0
  3  4  2  0  0  0
  3 12  1  0  0  0
  5  6  1  0  0  0
  6  7  1  0  0  0
  7  8  1  0  0  0
  8  9  1  0  0  0
  9 10  1  0  0  0
  9 11  2  0  0  0
 12 13  1  0  0  0
 13 14  1  0  0  0
 13 16  1  0  0  0
 14 15  2  0  0  0
 14 17  1  0  0  0
 17 18  1  0  0  0
 18 19  1  0  0  0
 18 21  1  0  0  0
 19 20  2  0  0  0
 19 25  1  0  0  0
 21 22  1  0  0  0
 22 23  1  0  0  0
 22 24  1  0  0  0
 25 26  1  0  0  0
 25 31  1  0  0  0
 26 27  1  0  0  0
 26 29  1  0  0  0
 27 28  2  0  0  0
 27 32  1  0  0  0
 29 30  1  0  0  0
 30 31  1  0  0  0
 32 33  1  0  0  0
 32 38  1  0  0  0
 33 34  1  0  0  0
 33 36  1  0  0  0
 34 35  2  0  0  0
 34 39  1  0  0  0
 36 37  1  0  0  0
 37 38  1  0  0  0
 39 40  1  0  0  0
 40 41  1  0  0  0
 40 43  1  0  0  0
 41 42  2  0  0  0
 41 47  1  0  0  0
 43 44  1  0  0  0
 44 45  1  0  0  0
 44 46  1  0  0  0
 47 48  1  0  0  0
 47 53  1  0  0  0
 48 49  1  0  0  0
 48 51  1  0  0  0
 49 50  2  0  0  0
 49 54  1  0  0  0
 51 52  1  0  0  0
 52 53  1  0  0  0
 54 55  1  0  0  0
 55 56  1  0  0  0
 55 58  1  0  0  0
 56 57  2  0  0  0
 56 65  1  0  0  0
 58 59  1  0  0  0
 59 60  1  0  0  0
 60 61  1  0  0  0
 61 62  1  0  0  0
 62 63  1  0  0  0
 62 64  2  0  0  0
 65 66  1  0  0  0
 66 67  1  0  0  0
 66 69  1  0  0  0
 67 68  2  0  0  0
 67 77  1  0  0  0
 69 70  1  0  0  0
 70 71  4  0  0  0
 70 72  4  0  0  0
 71 73  4  0  0  0
 72 74  4  0  0  0
 73 75  4  0  0  0
 74 75  4  0  0  0
 75 76  1  0  0  0
  1 78  1  0  0  0
  1 79  1  0  0  0
  1 80  1  0  0  0
  2 81  1  0  0  0
  5 82  1  0  0  0
  5 83  1  0  0  0
  6 84  1  0  0  0
  6 85  1  0  0  0
  7 86  1  0  0  0
  7 87  1  0  0  0
  8 88  1  0  0  0
 10 89  1  0  0  0
 10 90  1  0  0  0
 11 91  1  0  0  0
 12 92  1  0  0  0
 13 93  1  0  0  0
 16 94  1  0  0  0
 16 95  1  0  0  0
 16 96  1  0  0  0
 17 97  1  0  0  0
 18 98  1  0  0  0
 21 99  1  0  0  0
 21100  1  0  0  0
 22101  1  0  0  0
 23102  1  0  0  0
 23103  1  0  0  0
 23104  1  0  0  0
 24105  1  0  0  0
 24106  1  0  0  0
 24107  1  0  0  0
 26108  1  0  0  0
 29109  1  0  0  0
 29110  1  0  0  0
 30111  1  0  0  0
 30112  1  0  0  0
 31113  1  0  0  0
 31114  1  0  0  0
 33115  1  0  0  0
 36116  1  0  0  0
 36117  1  0  0  0
 37118  1  0  0  0
 37119  1  0  0  0
 38120  1  0  0  0
 38121  1  0  0  0
 39122  1  0  0  0
 40123  1  0  0  0
 43124  1  0  0  0
 43125  1  0  0  0
 44126  1  0  0  0
 45127  1  0  0  0
 45128  1  0  0  0
 45129  1  0  0  0
 46130  1  0  0  0
 46131  1  0  0  0
 46132  1  0  0  0
 48133  1  0  0  0
 51134  1  0  0  0
 51135  1  0  0  0
 52136  1  0  0  0
 52137  1  0  0  0
 53138  1  0  0  0
 53139  1  0  0  0
 54140  1  0  0  0
 55141  1  0  0  0
 58142  1  0  0  0
 58143  1  0  0  0
 59144  1  0  0  0
 59145  1  0  0  0
 60146  1  0  0  0
 60147  1  0  0  0
 61148  1  0  0  0
 63149  1  0  0  0
 63150  1  0  0  0
 64151  1  0  0  0
 65152  1  0  0  0
 66153  1  0  0  0
 69154  1  0  0  0
 69155  1  0  0  0
 71156  1  0  0  0
 72157  1  0  0  0
 73158  1  0  0  0
 74159  1  0  0  0
 76160  1  0  0  0
 77161  1  0  0  0
M  END
$$$$
