### 
### Created by X-TOOL on Mon Sep 10 21:12:45 2018
### 

@<TRIPOS>MOLECULE
1rlq_ligand
  162   165     1     0     0
SMALL
GAST_HUCK


@<TRIPOS>ATOM
      1 N          14.1260    2.1820   -1.5550 N.4       1 ARG         0.2379
      2 CA         12.9430    2.6890   -2.3060 C.3       1 ARG         0.0651
      3 C          11.8520    1.6160   -2.3220 C.2       1 ARG         0.2267
      4 O          11.4460    1.1470   -3.3660 O.2       1 ARG        -0.3907
      5 CB         13.3540    3.0200   -3.7420 C.3       1 ARG         0.0110
      6 CG         12.1690    3.6460   -4.4820 C.3       1 ARG        -0.0125
      7 CD         12.1330    5.1510   -4.2040 C.3       1 ARG         0.0629
      8 NE         11.5810    5.8630   -5.3910 N.pl3     1 ARG        -0.2723
      9 CZ         11.7520    7.1510   -5.5230 C.cat     1 ARG         0.2882
     10 NH1        12.4120    7.8220   -4.6160 N.pl3     1 ARG        -0.2849
     11 NH2        11.2640    7.7700   -6.5640 N.pl3     1 ARG        -0.2849
     12 H1         14.8450    2.8884   -1.5441 H         1 ARG         0.2015
     13 H2         14.4781    1.3510   -2.0039 H         1 ARG         0.2015
     14 H3         13.8551    1.9637   -0.6089 H         1 ARG         0.2015
     15 H4         12.5586    3.5959   -1.8163 H         1 ARG         0.1098
     16 H5         13.6617    2.0979   -4.2569 H         1 ARG         0.0347
     17 H6         14.1939    3.7302   -3.7283 H         1 ARG         0.0347
     18 H7         11.2332    3.1858   -4.1320 H         1 ARG         0.0302
     19 H8         12.2797    3.4751   -5.5630 H         1 ARG         0.0302
     20 H9         13.1526    5.5110   -4.0021 H         1 ARG         0.0689
     21 H10        11.4951    5.3471   -3.3296 H         1 ARG         0.0689
     22 H11        11.0629    5.3376   -6.1097 H         1 ARG         0.2642
     23 H12        12.5455    8.8378   -4.7224 H         1 ARG         0.2615
     24 H13        12.7986    7.3350   -3.7949 H         1 ARG         0.2615
     25 H14        10.7437    7.2427   -7.2796 H         1 ARG         0.2615
     26 H15        11.3994    8.7856   -6.6695 H         1 ARG         0.2615
     27 N          11.3730    1.2260   -1.1720 N.am      1 ALA        -0.2613
     28 CA         10.3090    0.1840   -1.1220 C.3       1 ALA         0.1283
     29 C           9.2040    0.5350   -2.1200 C.2       1 ALA         0.2036
     30 O           8.6140    1.5950   -2.0590 O.2       1 ALA        -0.3944
     31 CB          9.7210    0.1210    0.2900 C.3       1 ALA        -0.0244
     32 H16        11.7203    1.6267   -0.3242 H         1 ALA         0.1884
     33 H17        10.7410   -0.7934   -1.3826 H         1 ALA         0.0797
     34 H18         8.9357   -0.6484    0.3261 H         1 ALA         0.0277
     35 H19         9.2891    1.0983    0.5513 H         1 ALA         0.0277
     36 H20        10.5157   -0.1323    1.0072 H         1 ALA         0.0277
     37 N           8.9220   -0.3450   -3.0420 N.am      1 LEU        -0.2637
     38 CA          7.8560   -0.0590   -4.0420 C.3       1 LEU         0.1314
     39 C           6.5570    0.2990   -3.3130 C.2       1 LEU         0.2064
     40 O           6.3740   -0.0570   -2.1660 O.2       1 LEU        -0.3942
     41 CB          7.6290   -1.2950   -4.9140 C.3       1 LEU        -0.0101
     42 CG          8.7810   -1.4320   -5.9120 C.3       1 LEU        -0.0425
     43 CD1         8.6750   -2.7790   -6.6300 C.3       1 LEU        -0.0625
     44 CD2         8.7040   -0.2990   -6.9360 C.3       1 LEU        -0.0625
     45 H21         9.4214   -1.2107   -3.0769 H         1 LEU         0.1883
     46 H22         8.1650    0.7849   -4.6763 H         1 LEU         0.0800
     47 H23         6.6805   -1.1891   -5.4609 H         1 LEU         0.0315
     48 H24         7.5870   -2.1908   -4.2770 H         1 LEU         0.0315
     49 H25         9.7398   -1.3769   -5.3757 H         1 LEU         0.0298
     50 H26         9.5028   -2.8781   -7.3476 H         1 LEU         0.0232
     51 H27         7.7163   -2.8342   -7.1664 H         1 LEU         0.0232
     52 H28         8.7298   -3.5931   -5.8923 H         1 LEU         0.0232
     53 H29         8.7803    0.6687   -6.4185 H         1 LEU         0.0232
     54 H30         7.7449   -0.3536   -7.4718 H         1 LEU         0.0232
     55 H31         9.5314   -0.3970   -7.6542 H         1 LEU         0.0232
     56 N           5.6920    0.9940   -4.0060 N.am      1 PRO        -0.2498
     57 CA          4.3970    1.4170   -3.4470 C.3       1 PRO         0.1340
     58 C           3.5050    0.1930   -3.1930 C.2       1 PRO         0.2066
     59 O           3.3810   -0.6610   -4.0480 O.2       1 PRO        -0.3942
     60 CB          3.7790    2.3090   -4.5260 C.3       1 PRO        -0.0104
     61 CG          4.7080    2.2610   -5.7680 C.3       1 PRO        -0.0281
     62 CD          5.9370    1.4170   -5.3970 C.3       1 PRO         0.0369
     63 H32         4.5380    1.9760   -2.5102 H         1 PRO         0.0802
     64 H33         3.6997    3.3424   -4.1574 H         1 PRO         0.0313
     65 H34         2.7787    1.9367   -4.7920 H         1 PRO         0.0313
     66 H35         5.0212    3.2793   -6.0417 H         1 PRO         0.0287
     67 H36         4.1784    1.8002   -6.6149 H         1 PRO         0.0287
     68 H37         6.0220    0.5429   -6.0594 H         1 PRO         0.0524
     69 H38         6.8555    2.0185   -5.4639 H         1 PRO         0.0524
     70 N           2.9090    0.1410   -2.0260 N.am      1 PRO        -0.2498
     71 CA          2.0270   -0.9770   -1.6550 C.3       1 PRO         0.1338
     72 C           0.8400   -1.0390   -2.6190 C.2       1 PRO         0.2041
     73 O          -0.0580   -0.2230   -2.5620 O.2       1 PRO        -0.3944
     74 CB          1.5530   -0.6520   -0.2310 C.3       1 PRO        -0.0104
     75 CG          2.2040    0.6930    0.1850 C.3       1 PRO        -0.0281
     76 CD          3.0620    1.1820   -0.9930 C.3       1 PRO         0.0369
     77 H39         2.5731   -1.9316   -1.6750 H         1 PRO         0.0802
     78 H40         1.8656   -1.4492    0.4594 H         1 PRO         0.0313
     79 H41         0.4570   -0.5597   -0.2125 H         1 PRO         0.0313
     80 H42         2.8365    0.5442    1.0726 H         1 PRO         0.0287
     81 H43         1.4224    1.4331    0.4116 H         1 PRO         0.0287
     82 H44         2.6968    2.1516   -1.3625 H         1 PRO         0.0524
     83 H45         4.1156    1.2776   -0.6918 H         1 PRO         0.0524
     84 N           0.8330   -1.9940   -3.5090 N.am      1 LEU        -0.2637
     85 CA         -0.2960   -2.1030   -4.4760 C.3       1 LEU         0.1314
     86 C          -1.6230   -1.8700   -3.7480 C.2       1 LEU         0.2064
     87 O          -1.7200   -2.0860   -2.5560 O.2       1 LEU        -0.3942
     88 CB         -0.2980   -3.4960   -5.1030 C.3       1 LEU        -0.0101
     89 CG          0.7370   -3.5500   -6.2270 C.3       1 LEU        -0.0425
     90 CD1         1.1810   -4.9990   -6.4350 C.3       1 LEU        -0.0625
     91 CD2         0.1150   -3.0140   -7.5180 C.3       1 LEU        -0.0625
     92 H46         1.5850   -2.6523   -3.5420 H         1 LEU         0.1883
     93 H47        -0.1748   -1.3467   -5.2654 H         1 LEU         0.0800
     94 H48        -1.2957   -3.7124   -5.5125 H         1 LEU         0.0315
     95 H49        -0.0462   -4.2436   -4.3364 H         1 LEU         0.0315
     96 H50         1.6072   -2.9343   -5.9559 H         1 LEU         0.0298
     97 H51         1.9259   -5.0418   -7.2432 H         1 LEU         0.0232
     98 H52         0.3102   -5.6140   -6.7060 H         1 LEU         0.0232
     99 H53         1.6262   -5.3832   -5.5054 H         1 LEU         0.0232
    100 H54        -0.2036   -1.9721   -7.3664 H         1 LEU         0.0232
    101 H55        -0.7567   -3.6284   -7.7877 H         1 LEU         0.0232
    102 H56         0.8580   -3.0560   -8.3280 H         1 LEU         0.0232
    103 N          -2.6090   -1.4370   -4.4920 N.am      1 PRO        -0.2498
    104 CA         -3.9460   -1.1660   -3.9400 C.3       1 PRO         0.1338
    105 C          -4.5100   -2.4220   -3.2710 C.2       1 PRO         0.2041
    106 O          -5.0800   -3.2700   -3.9240 O.2       1 PRO        -0.3944
    107 CB         -4.7990   -0.7610   -5.1490 C.3       1 PRO        -0.0104
    108 CG         -3.8720   -0.7430   -6.3920 C.3       1 PRO        -0.0281
    109 CD         -2.4720   -1.1910   -5.9390 C.3       1 PRO         0.0369
    110 H57        -3.9038   -0.3475   -3.2063 H         1 PRO         0.0802
    111 H58        -5.2286    0.2386   -4.9870 H         1 PRO         0.0313
    112 H59        -5.6101   -1.4892   -5.2966 H         1 PRO         0.0313
    113 H60        -3.8233    0.2741   -6.8081 H         1 PRO         0.0287
    114 H61        -4.2571   -1.4339   -7.1564 H         1 PRO         0.0287
    115 H62        -2.1706   -2.1105   -6.4622 H         1 PRO         0.0524
    116 H63        -1.7310   -0.4008   -6.1299 H         1 PRO         0.0524
    117 N          -4.3350   -2.5180   -1.9710 N.am      1 ARG        -0.2637
    118 CA         -4.8280   -3.6890   -1.1660 C.3       1 ARG         0.1311
    119 C          -5.4290   -4.7890   -2.0450 C.2       1 ARG         0.2035
    120 O          -4.8380   -5.8310   -2.2280 O.2       1 ARG        -0.3944
    121 CB         -5.8850   -3.2000   -0.1740 C.3       1 ARG        -0.0092
    122 CG         -5.8280   -4.0550    1.0960 C.3       1 ARG        -0.0156
    123 CD         -6.9730   -3.6640    2.0370 C.3       1 ARG         0.0627
    124 NE         -8.1250   -3.1490    1.2440 N.pl3     1 ARG        -0.2723
    125 CZ         -8.8110   -3.9590    0.4840 C.cat     1 ARG         0.2882
    126 NH1        -8.4980   -5.2260    0.4250 N.pl3     1 ARG        -0.2849
    127 NH2        -9.8130   -3.5010   -0.2140 N.pl3     1 ARG        -0.2849
    128 H64        -3.8534   -1.7806   -1.4973 H         1 ARG         0.1883
    129 H65        -3.9793   -4.1128   -0.6092 H         1 ARG         0.0800
    130 H66        -6.8827   -3.2859   -0.6293 H         1 ARG         0.0313
    131 H67        -5.6883   -2.1486    0.0828 H         1 ARG         0.0313
    132 H68        -4.8660   -3.8911    1.6037 H         1 ARG         0.0301
    133 H69        -5.9239   -5.1170    0.8259 H         1 ARG         0.0301
    134 H70        -6.6266   -2.8815    2.7281 H         1 ARG         0.0689
    135 H71        -7.2908   -4.5464    2.6117 H         1 ARG         0.0689
    136 H72        -8.3803   -2.1525    1.2957 H         1 ARG         0.2642
    137 H73        -9.0407   -5.8631   -0.1753 H         1 ARG         0.2615
    138 H74        -7.7085   -5.5878    0.9788 H         1 ARG         0.2615
    139 H75       -10.0594   -2.5020   -0.1671 H         1 ARG         0.2615
    140 H76       -10.3580   -4.1383   -0.8121 H         1 ARG         0.2615
    141 N          -6.6010   -4.5630   -2.5780 N.am      1 TYR        -0.2679
    142 CA         -7.2570   -5.5890   -3.4480 C.3       1 TYR         0.1025
    143 C          -7.9010   -6.6580   -2.5570 C.2       1 TYR         0.0619
    144 O          -8.7950   -7.3380   -3.0330 O.co2     1 TYR        -0.5665
    145 CB         -6.2150   -6.2040   -4.4190 C.3       1 TYR         0.0108
    146 CG         -6.1410   -7.7410   -4.3000 C.ar      1 TYR        -0.0499
    147 CD1        -5.7630   -8.3520   -3.1170 C.ar      1 TYR        -0.0686
    148 CD2        -6.4380   -8.5350   -5.3900 C.ar      1 TYR        -0.0686
    149 CE1        -5.6820   -9.7280   -3.0310 C.ar      1 TYR        -0.0398
    150 CE2        -6.3570   -9.9110   -5.3020 C.ar      1 TYR        -0.0398
    151 CZ         -5.9780  -10.5170   -4.1230 C.ar      1 TYR         0.0805
    152 OH         -5.8940  -11.8920   -4.0390 O.3       1 TYR        -0.3376
    153 OXT        -7.4880   -6.7760   -1.4150 O.co2     1 TYR        -0.5665
    154 H77        -7.0646   -3.6945   -2.4024 H         1 TYR         0.1877
    155 H78        -8.0450   -5.1043   -4.0431 H         1 TYR         0.0747
    156 H79        -5.2251   -5.7831   -4.1889 H         1 TYR         0.0446
    157 H80        -6.4942   -5.9419   -5.4502 H         1 TYR         0.0446
    158 H81        -5.5284   -7.7450   -2.2501 H         1 TYR         0.0530
    159 H82        -6.7377   -8.0738   -6.3241 H         1 TYR         0.0530
    160 H83        -5.3834  -10.1917   -2.0978 H         1 TYR         0.0525
    161 H84        -6.5934  -10.5197   -6.1673 H         1 TYR         0.0525
    162 H85        -5.6211  -12.1385   -3.1631 H         1 TYR         0.2458
@<TRIPOS>BOND
     1    1    2 1  
     2    1   12 1  
     3    1   13 1  
     4    1   14 1  
     5    2    3 1  
     6    2    5 1  
     7    2   15 1  
     8    3    4 2  
     9    3   27 am 
    10    5    6 1  
    11    5   16 1  
    12    5   17 1  
    13    6    7 1  
    14    6   18 1  
    15    6   19 1  
    16    7    8 1  
    17    7   20 1  
    18    7   21 1  
    19    8    9 ar 
    20    8   22 1  
    21    9   10 ar 
    22    9   11 ar 
    23   10   23 1  
    24   10   24 1  
    25   11   25 1  
    26   11   26 1  
    27   27   28 1  
    28   27   32 1  
    29   28   29 1  
    30   28   31 1  
    31   28   33 1  
    32   29   30 2  
    33   29   37 am 
    34   31   34 1  
    35   31   35 1  
    36   31   36 1  
    37   37   38 1  
    38   37   45 1  
    39   38   39 1  
    40   38   41 1  
    41   38   46 1  
    42   39   40 2  
    43   39   56 am 
    44   41   42 1  
    45   41   47 1  
    46   41   48 1  
    47   42   43 1  
    48   42   44 1  
    49   42   49 1  
    50   43   50 1  
    51   43   51 1  
    52   43   52 1  
    53   44   53 1  
    54   44   54 1  
    55   44   55 1  
    56   56   57 1  
    57   56   62 1  
    58   57   58 1  
    59   57   60 1  
    60   57   63 1  
    61   58   59 2  
    62   58   70 am 
    63   60   61 1  
    64   60   64 1  
    65   60   65 1  
    66   61   62 1  
    67   61   66 1  
    68   61   67 1  
    69   62   68 1  
    70   62   69 1  
    71   70   71 1  
    72   70   76 1  
    73   71   72 1  
    74   71   74 1  
    75   71   77 1  
    76   72   73 2  
    77   72   84 am 
    78   74   75 1  
    79   74   78 1  
    80   74   79 1  
    81   75   76 1  
    82   75   80 1  
    83   75   81 1  
    84   76   82 1  
    85   76   83 1  
    86   84   85 1  
    87   84   92 1  
    88   85   86 1  
    89   85   88 1  
    90   85   93 1  
    91   86   87 2  
    92   86  103 am 
    93   88   89 1  
    94   88   94 1  
    95   88   95 1  
    96   89   90 1  
    97   89   91 1  
    98   89   96 1  
    99   90   97 1  
   100   90   98 1  
   101   90   99 1  
   102   91  100 1  
   103   91  101 1  
   104   91  102 1  
   105  103  104 1  
   106  103  109 1  
   107  104  105 1  
   108  104  107 1  
   109  104  110 1  
   110  105  106 2  
   111  105  117 am 
   112  107  108 1  
   113  107  111 1  
   114  107  112 1  
   115  108  109 1  
   116  108  113 1  
   117  108  114 1  
   118  109  115 1  
   119  109  116 1  
   120  117  118 1  
   121  117  128 1  
   122  118  119 1  
   123  118  121 1  
   124  118  129 1  
   125  119  120 2  
   126  119  141 am 
   127  121  122 1  
   128  121  130 1  
   129  121  131 1  
   130  122  123 1  
   131  122  132 1  
   132  122  133 1  
   133  123  124 1  
   134  123  134 1  
   135  123  135 1  
   136  124  125 ar 
   137  124  136 1  
   138  125  126 ar 
   139  125  127 ar 
   140  126  137 1  
   141  126  138 1  
   142  127  139 1  
   143  127  140 1  
   144  141  142 1  
   145  141  154 1  
   146  142  143 1  
   147  142  145 1  
   148  142  155 1  
   149  143  144 ar 
   150  143  153 ar 
   151  145  146 1  
   152  145  156 1  
   153  145  157 1  
   154  146  147 ar 
   155  146  148 ar 
   156  147  149 ar 
   157  147  158 1  
   158  148  150 ar 
   159  148  159 1  
   160  149  151 ar 
   161  149  160 1  
   162  150  151 ar 
   163  150  161 1  
   164  151  152 1  
   165  152  162 1  
@<TRIPOS>SUBSTRUCTURE
     1 ARG         1

