3pwm_ligand
  -I-interpret- 

 75 78  0  0  0  0  0  0  0  0999 V2000
    7.2120   14.4990   14.5710 N   0  0  0  0  0
    8.0170   15.5300   14.8510 C   0  0  0  0  0
    9.3760   15.5090   14.5770 C   0  0  0  0  0
   10.1760   16.6190   14.8830 C   0  0  0  0  0
    9.6200   17.6670   15.6050 C   0  0  0  0  0
    8.2700   17.6550   15.9090 C   0  0  0  0  0
    7.4580   16.6020   15.5490 C   0  0  0  0  0
   10.5730   19.0600   16.1150 S   0  0  0  0  0
   11.6640   19.2760   15.1330 O   0  0  0  0  0
    9.6740   20.2340   16.2800 O   0  0  0  0  0
   11.2780   18.7540   17.5620 N   0  0  0  0  0
   10.4050   18.4100   18.6550 C   0  0  0  0  0
   10.7140   19.0590   20.0220 C   0  0  0  0  0
   10.7190   20.5820   19.9290 C   0  0  0  0  0
    9.6060   18.6240   21.0130 C   0  0  0  0  0
   12.5300   18.0240   17.4860 C   0  0  0  0  0
   13.6530   18.8770   18.0620 C   0  0  0  0  0
   14.7870   18.1030   18.4090 O   0  0  0  0  0
   14.0430   20.0180   17.1240 C   0  0  0  0  0
   14.8930   20.9470   17.8660 N   0  0  0  0  0
   14.6400   22.2020   18.2380 C   0  0  0  0  0
   13.5660   22.7580   17.9910 O   0  0  0  0  0
   15.6630   22.7980   18.8910 O   0  0  0  0  0
   15.5010   24.2120   19.1040 C   0  0  0  0  0
   16.0760   24.5420   20.4880 C   0  0  0  0  0
   17.4870   24.4300   20.2780 O   0  0  0  0  0
   17.7700   24.9680   18.9950 C   0  0  0  0  0
   18.7220   24.1400   18.3060 O   0  0  0  0  0
   18.0430   23.3900   17.3460 C   0  0  0  0  0
   16.8730   24.2860   16.8940 C   0  0  0  0  0
   16.4750   24.9400   18.1950 C   0  0  0  0  0
   14.7850   19.5270   15.8920 C   0  0  0  0  0
   16.4810   21.0740   14.8380 C   0  0  0  0  0
   16.8230   22.1650   14.0440 C   0  0  0  0  0
   15.8470   22.9050   13.3890 C   0  0  0  0  0
   14.5290   22.4740   13.4980 C   0  0  0  0  0
   14.1770   21.3880   14.2850 C   0  0  0  0  0
   15.1580   20.6880   14.9690 C   0  0  0  0  0
    7.5931   13.6569   14.1397 H   0  0  0  0  0
    6.2171   14.5550   14.7888 H   0  0  0  0  0
    9.8243   14.6259   14.1218 H   0  0  0  0  0
   11.2162   16.6587   14.5598 H   0  0  0  0  0
    7.8386   18.4994   16.4465 H   0  0  0  0  0
    6.3984   16.6058   15.8045 H   0  0  0  0  0
   10.5167   17.3356   18.8011 H   0  0  0  0  0
    9.4147   18.7660   18.3711 H   0  0  0  0  0
   11.7013   18.7374   20.3535 H   0  0  0  0  0
   11.4801   20.8987   19.2159 H   0  0  0  0  0
    9.7405   20.9276   19.5954 H   0  0  0  0  0
   10.9399   21.0039   20.9095 H   0  0  0  0  0
    8.6374   18.9609   20.6438 H   0  0  0  0  0
    9.6049   17.5375   21.1008 H   0  0  0  0  0
    9.7987   19.0685   21.9894 H   0  0  0  0  0
   12.7504   17.7894   16.4446 H   0  0  0  0  0
   12.4464   17.1000   18.0581 H   0  0  0  0  0
   13.2618   19.3183   18.9787 H   0  0  0  0  0
   15.4680   18.6775   18.7665 H   0  0  0  0  0
   13.1315   20.5040   16.7760 H   0  0  0  0  0
   15.8072   20.5847   18.1370 H   0  0  0  0  0
   14.4541   24.4791   18.9601 H   0  0  0  0  0
   15.7087   23.8776   21.2702 H   0  0  0  0  0
   15.7769   25.5261   20.8488 H   0  0  0  0  0
   18.1715   25.9759   19.0997 H   0  0  0  0  0
   17.6920   22.4402   17.7494 H   0  0  0  0  0
   18.6907   23.1201   16.5119 H   0  0  0  0  0
   16.0621   23.7366   16.4157 H   0  0  0  0  0
   17.1439   24.9967   16.1132 H   0  0  0  0  0
   15.9820   25.8728   17.9214 H   0  0  0  0  0
   14.1355   18.8436   15.3450 H   0  0  0  0  0
   15.7008   19.0308   16.2132 H   0  0  0  0  0
   17.2606   20.5196   15.3604 H   0  0  0  0  0
   17.8714   22.4425   13.9348 H   0  0  0  0  0
   16.1047   23.7919   12.8102 H   0  0  0  0  0
   13.7510   23.0049   12.9493 H   0  0  0  0  0
   13.1327   21.0861   14.3653 H   0  0  0  0  0
  2  1  1  0  0  0
  3  2  4  0  0  0
  7  2  4  0  0  0
  4  3  4  0  0  0
  5  4  4  0  0  0
  5  6  4  0  0  0
  8  5  1  0  0  0
  6  7  4  0  0  0
  8  9  2  0  0  0
  8 10  2  0  0  0
 11  8  1  0  0  0
 11 12  1  0  0  0
 16 11  1  0  0  0
 12 13  1  0  0  0
 13 14  1  0  0  0
 13 15  1  0  0  0
 17 16  1  0  0  0
 17 18  1  0  0  0
 19 17  1  0  0  0
 19 20  1  0  0  0
 32 19  1  0  0  0
 20 21  1  0  0  0
 21 22  2  0  0  0
 21 23  1  0  0  0
 23 24  1  0  0  0
 24 25  1  0  0  0
 24 31  1  0  0  0
 25 26  1  0  0  0
 27 26  1  0  0  0
 27 28  1  0  0  0
 31 27  1  0  0  0
 29 28  1  0  0  0
 30 29  1  0  0  0
 31 30  1  0  0  0
 38 32  1  0  0  0
 33 34  4  0  0  0
 33 38  4  0  0  0
 34 35  4  0  0  0
 35 36  4  0  0  0
 36 37  4  0  0  0
 37 38  4  0  0  0
  1 39  1  0  0  0
  1 40  1  0  0  0
  3 41  1  0  0  0
  4 42  1  0  0  0
  6 43  1  0  0  0
  7 44  1  0  0  0
 12 45  1  0  0  0
 12 46  1  0  0  0
 13 47  1  0  0  0
 14 48  1  0  0  0
 14 49  1  0  0  0
 14 50  1  0  0  0
 15 51  1  0  0  0
 15 52  1  0  0  0
 15 53  1  0  0  0
 16 54  1  0  0  0
 16 55  1  0  0  0
 17 56  1  0  0  0
 18 57  1  0  0  0
 19 58  1  0  0  0
 20 59  1  0  0  0
 24 60  1  0  0  0
 25 61  1  0  0  0
 25 62  1  0  0  0
 27 63  1  0  0  0
 29 64  1  0  0  0
 29 65  1  0  0  0
 30 66  1  0  0  0
 30 67  1  0  0  0
 31 68  1  0  0  0
 32 69  1  0  0  0
 32 70  1  0  0  0
 33 71  1  0  0  0
 34 72  1  0  0  0
 35 73  1  0  0  0
 36 74  1  0  0  0
 37 75  1  0  0  0
M  END
$$$$
