4meo_ligand
  -I-interpret- 

 40 42  0  0  0  0  0  0  0  0999 V2000
   28.1710   13.1290    3.7430 O   0  0  0  0  0
   26.9660   13.3500    3.8150 C   0  0  0  0  0
   26.1750   12.9010    4.9850 C   0  0  0  0  0
   26.2100   14.0820    2.7950 N   0  0  0  0  0
   26.7000   14.6100    1.5400 C   0  0  0  0  0
   25.8460   14.5660    0.4130 C   0  0  0  0  0
   26.3470   14.9800   -0.8570 C   0  0  0  0  0
   27.6250   15.4470   -1.0230 C   0  0  0  0  0
   28.4580   15.4990    0.0930 C   0  0  0  0  0
   28.0220   15.0950    1.3710 C   0  0  0  0  0
   29.8230   15.9760   -0.0460 C   0  0  0  0  0
   30.7940   15.4150   -1.0420 C   0  0  0  0  0
   30.5190   14.3110   -1.9300 C   0  0  0  0  0
   31.4700   13.8280   -2.8080 C   0  0  0  0  0
   32.7780   14.4300   -2.8660 C   0  0  0  0  0
   33.0820   15.4660   -2.0310 C   0  0  0  0  0
   32.0850   15.9930   -1.0790 C   0  0  0  0  0
   32.4260   17.1160   -0.1370 N   0  0  0  0  0
   33.6570   17.6830   -0.2220 O   0  0  0  0  0
   31.5100   17.5730    0.7780 C   0  0  0  0  0
   31.9720   18.6440    1.7350 C   0  0  0  0  0
   30.2120   17.0290    0.8390 C   0  0  0  0  0
   26.2395   11.8163    5.0709 H   0  0  0  0  0
   26.5720   13.3626    5.8891 H   0  0  0  0  0
   25.1338   13.1950    4.8525 H   0  0  0  0  0
   25.2216   14.2377    2.9931 H   0  0  0  0  0
   24.8173   14.2199    0.5138 H   0  0  0  0  0
   25.6908   14.9230   -1.7254 H   0  0  0  0  0
   27.9803   15.7691   -2.0018 H   0  0  0  0  0
   28.6971   15.1550    2.2247 H   0  0  0  0  0
   29.5337   13.8454   -1.9073 H   0  0  0  0  0
   31.2299   12.9879   -3.4597 H   0  0  0  0  0
   33.5206   14.0600   -3.5729 H   0  0  0  0  0
   34.0764   15.9109   -2.0679 H   0  0  0  0  0
   33.7332   18.3797    0.4341 H   0  0  0  0  0
   30.4599   17.7581    0.5521 H   0  0  0  0  0
   32.8101   18.2681    2.3218 H   0  0  0  0  0
   32.2864   19.5222    1.1711 H   0  0  0  0  0
   31.1520   18.9126    2.4010 H   0  0  0  0  0
   29.4983   17.4143    1.5672 H   0  0  0  0  0
  1  2  2  0  0  0
  2  3  1  0  0  0
  2  4  1  0  0  0
  4  5  1  0  0  0
  5  6  4  0  0  0
  5 10  4  0  0  0
  6  7  4  0  0  0
  7  8  4  0  0  0
  8  9  4  0  0  0
  9 10  4  0  0  0
  9 11  1  0  0  0
 11 12  1  0  0  0
 11 22  2  0  0  0
 12 13  4  0  0  0
 12 17  4  0  0  0
 13 14  4  0  0  0
 14 15  4  0  0  0
 15 16  4  0  0  0
 16 17  4  0  0  0
 17 18  1  0  0  0
 18 19  1  0  0  0
 18 20  1  0  0  0
 20 21  1  0  0  0
 20 22  1  0  0  0
  3 23  1  0  0  0
  3 24  1  0  0  0
  3 25  1  0  0  0
  4 26  1  0  0  0
  6 27  1  0  0  0
  7 28  1  0  0  0
  8 29  1  0  0  0
 10 30  1  0  0  0
 13 31  1  0  0  0
 14 32  1  0  0  0
 15 33  1  0  0  0
 16 34  1  0  0  0
 19 35  1  0  0  0
 20 36  1  0  0  0
 21 37  1  0  0  0
 21 38  1  0  0  0
 21 39  1  0  0  0
 22 40  1  0  0  0
M  END
$$$$
