5m7s_ligand
  -I-interpret- 

 32 33  0  0  0  0  0  0  0  0999 V2000
  -16.2160    3.7950   38.1880 C   0  0  0  0  0
  -16.2430    2.6540   37.1700 C   0  0  0  0  0
  -15.2040    1.5580   37.4110 C   0  0  0  0  0
  -13.8330    2.2080   37.6330 C   0  0  0  0  0
  -13.9310    3.1810   38.8050 C   0  0  0  0  0
  -12.6260    3.8770   39.1230 C   0  0  0  0  0
  -18.0950    2.2130   38.4410 C   0  0  0  0  0
  -19.7700    0.9260   41.0490 C   0  0  0  0  0
  -17.6330    2.1500   37.2280 N   0  0  0  0  0
  -15.1730    0.6730   36.2790 O   0  0  0  0  0
  -12.8410    1.2150   37.9200 O   0  0  0  0  0
  -14.9010    4.2120   38.5130 O   0  0  0  0  0
  -19.2710    1.6210   38.7510 N   0  0  0  0  0
  -12.1490    4.6020   37.9840 O   0  0  0  0  0
  -17.1560    3.1380   39.6100 S   0  0  0  0  0
  -20.0580    1.8940   39.9440 C   0  0  0  0  0
  -16.6627    4.7112   37.8018 H   0  0  0  0  0
  -15.9645    3.0117   36.1788 H   0  0  0  0  0
  -15.4652    0.9778   38.2960 H   0  0  0  0  0
  -13.5401    2.7364   36.7258 H   0  0  0  0  0
  -14.2201    2.5751   39.6637 H   0  0  0  0  0
  -11.8847    3.1272   39.3994 H   0  0  0  0  0
  -12.7901    4.5764   39.9427 H   0  0  0  0  0
  -20.0028   -0.0850   40.7145 H   0  0  0  0  0
  -18.7156    0.9872   41.3183 H   0  0  0  0  0
  -20.3827    1.1734   41.9159 H   0  0  0  0  0
  -18.1570    1.8008   36.4255 H   0  0  0  0  0
  -16.0398    0.2782   36.1591 H   0  0  0  0  0
  -12.7796    0.6032   37.1827 H   0  0  0  0  0
  -11.3217    5.0357   38.2056 H   0  0  0  0  0
  -19.8032    2.8938   40.2955 H   0  0  0  0  0
  -21.1121    1.8035   39.6816 H   0  0  0  0  0
  1  2  1  0  0  0
  1 12  1  0  0  0
 15  1  1  0  0  0
  2  3  1  0  0  0
  9  2  1  0  0  0
  3  4  1  0  0  0
  3 10  1  0  0  0
  5  4  1  0  0  0
  4 11  1  0  0  0
  5  6  1  0  0  0
 12  5  1  0  0  0
  6 14  1  0  0  0
  7  9  1  0  0  0
 13  7  2  0  0  0
  7 15  1  0  0  0
 16  8  1  0  0  0
 13 16  1  0  0  0
  1 17  1  0  0  0
  2 18  1  0  0  0
  3 19  1  0  0  0
  4 20  1  0  0  0
  5 21  1  0  0  0
  6 22  1  0  0  0
  6 23  1  0  0  0
  8 24  1  0  0  0
  8 25  1  0  0  0
  8 26  1  0  0  0
  9 27  1  0  0  0
 10 28  1  0  0  0
 11 29  1  0  0  0
 14 30  1  0  0  0
 16 31  1  0  0  0
 16 32  1  0  0  0
M  END
$$$$
