6peg_ligand
  -I-interpret- 

 72 76  0  0  0  0  0  0  0  0999 V2000
   30.5700    1.1780  -47.4110 C   0  0  0  0  0
   29.9200   -0.0010  -48.1380 C   0  0  0  0  0
   30.8190   -0.4440  -49.3240 C   0  0  0  0  0
   28.5970    0.4810  -48.7040 C   0  0  0  0  0
   28.6930    1.0060  -49.9980 O   0  0  0  0  0
   27.2380    0.3650  -48.0000 C   0  0  0  0  0
   26.9330   -0.4810  -46.9820 C   0  0  0  0  0
   27.5820   -1.4390  -46.1840 C   0  0  0  0  0
   26.8470   -2.1110  -45.1830 C   0  0  0  0  0
   25.4850   -1.8230  -44.9880 C   0  0  0  0  0
   24.8450   -0.8910  -45.7940 C   0  0  0  0  0
   25.5440   -0.2620  -46.7520 N   0  0  0  0  0
   25.0920    0.6930  -47.6470 N   0  0  0  0  0
   26.1400    1.0480  -48.4060 C   0  0  0  0  0
   26.1040    2.0670  -49.5270 C   0  0  0  0  0
   25.0290    3.0770  -49.2810 C   0  0  0  0  0
   23.8090    2.8240  -49.8570 C   0  0  0  0  0
   25.2820    4.2050  -48.5150 C   0  0  0  0  0
   24.2820    5.1420  -48.3480 C   0  0  0  0  0
   23.0310    4.9180  -48.9460 C   0  0  0  0  0
   22.7910    3.7500  -49.6840 C   0  0  0  0  0
   21.5200    3.4430  -50.3160 N   0  0  0  0  0
   20.3670    3.9940  -49.7800 N   0  0  0  0  0
   19.0870    3.6260  -50.2790 C   0  0  0  0  0
   18.0150    4.4670  -50.0040 C   0  0  0  0  0
   16.7400    4.2160  -50.4380 C   0  0  0  0  0
   16.4990    3.0530  -51.2120 C   0  0  0  0  0
   15.2300    2.7640  -51.6780 C   0  0  0  0  0
   13.8760    3.8700  -51.3390 S   0  0  0  0  0
   14.2920    5.0790  -52.0910 O   0  0  0  0  0
   13.7190    4.0360  -49.8320 O   0  0  0  0  0
   12.7320    3.2130  -52.0010 O   0  0  0  0  0
   14.9800    1.6270  -52.4060 C   0  0  0  0  0
   15.9890    0.7380  -52.7150 C   0  0  0  0  0
   15.5470   -0.7150  -53.6720 S   0  0  0  0  0
   14.0790   -0.7420  -53.7800 O   0  0  0  0  0
   16.3290   -0.4510  -54.9490 O   0  0  0  0  0
   16.0800   -1.8830  -52.8280 O   0  0  0  0  0
   17.3020    0.9590  -52.2940 C   0  0  0  0  0
   18.3920    0.0480  -52.6260 N   0  0  0  0  0
   17.5670    2.1430  -51.5190 C   0  0  0  0  0
   18.8540    2.4720  -51.0640 C   0  0  0  0  0
   19.8770    1.5790  -51.3600 O   0  0  0  0  0
   30.7325    1.9931  -48.1162 H   0  0  0  0  0
   29.9135    1.5152  -46.6089 H   0  0  0  0  0
   31.5255    0.8626  -46.9918 H   0  0  0  0  0
   29.7828   -0.8355  -47.4503 H   0  0  0  0  0
   30.3275   -1.2494  -49.8698 H   0  0  0  0  0
   30.9813    0.4025  -49.9912 H   0  0  0  0  0
   31.7771   -0.7950  -48.9407 H   0  0  0  0  0
   28.0492    0.6615  -47.7791 H   0  0  0  0  0
   29.6118    1.0023  -50.2763 H   0  0  0  0  0
   28.6385   -1.6602  -46.3359 H   0  0  0  0  0
   27.3383   -2.8569  -44.5582 H   0  0  0  0  0
   24.9293   -2.3332  -44.2012 H   0  0  0  0  0
   23.7868   -0.6725  -45.6505 H   0  0  0  0  0
   25.8996    1.5534  -50.4665 H   0  0  0  0  0
   27.0660    2.5773  -49.5732 H   0  0  0  0  0
   23.6440    1.9161  -50.4371 H   0  0  0  0  0
   26.2576    4.3499  -48.0509 H   0  0  0  0  0
   24.4607    6.0426  -47.7606 H   0  0  0  0  0
   22.2393    5.6590  -48.8354 H   0  0  0  0  0
   21.4770    2.8363  -51.1348 H   0  0  0  0  0
   20.4370    4.6704  -49.0198 H   0  0  0  0  0
   18.1970    5.3669  -49.4165 H   0  0  0  0  0
   15.9259    4.8980  -50.1927 H   0  0  0  0  0
   13.4490    3.1997  -49.4455 H   0  0  0  0  0
   13.9649    1.4227  -52.7464 H   0  0  0  0  0
   17.0374   -1.8314  -52.7808 H   0  0  0  0  0
   18.2079   -0.7853  -53.1846 H   0  0  0  0  0
   19.3382    0.2444  -52.2995 H   0  0  0  0  0
   19.5302    0.8641  -51.8987 H   0  0  0  0  0
  1  2  1  0  0  0
  2  3  1  0  0  0
  2  4  1  0  0  0
  4  5  1  0  0  0
  4  6  1  0  0  0
  6  7  4  0  0  0
  6 14  4  0  0  0
  7  8  4  0  0  0
  7 12  4  0  0  0
  8  9  4  0  0  0
  9 10  4  0  0  0
 10 11  4  0  0  0
 11 12  4  0  0  0
 12 13  4  0  0  0
 13 14  4  0  0  0
 14 15  1  0  0  0
 15 16  1  0  0  0
 16 17  4  0  0  0
 16 18  4  0  0  0
 17 21  4  0  0  0
 18 19  4  0  0  0
 19 20  4  0  0  0
 20 21  4  0  0  0
 21 22  1  0  0  0
 22 23  1  0  0  0
 23 24  1  0  0  0
 24 25  4  0  0  0
 24 42  4  0  0  0
 25 26  4  0  0  0
 26 27  4  0  0  0
 27 28  4  0  0  0
 27 41  4  0  0  0
 28 29  1  0  0  0
 28 33  4  0  0  0
 29 30  2  0  0  0
 29 31  1  0  0  0
 29 32  2  0  0  0
 33 34  4  0  0  0
 34 35  1  0  0  0
 34 39  4  0  0  0
 35 36  2  0  0  0
 35 37  2  0  0  0
 35 38  1  0  0  0
 39 40  1  0  0  0
 39 41  4  0  0  0
 41 42  4  0  0  0
 42 43  1  0  0  0
  1 44  1  0  0  0
  1 45  1  0  0  0
  1 46  1  0  0  0
  2 47  1  0  0  0
  3 48  1  0  0  0
  3 49  1  0  0  0
  3 50  1  0  0  0
  4 51  1  0  0  0
  5 52  1  0  0  0
  8 53  1  0  0  0
  9 54  1  0  0  0
 10 55  1  0  0  0
 11 56  1  0  0  0
 15 57  1  0  0  0
 15 58  1  0  0  0
 17 59  1  0  0  0
 18 60  1  0  0  0
 19 61  1  0  0  0
 20 62  1  0  0  0
 22 63  1  0  0  0
 23 64  1  0  0  0
 25 65  1  0  0  0
 26 66  1  0  0  0
 31 67  1  0  0  0
 33 68  1  0  0  0
 38 69  1  0  0  0
 40 70  1  0  0  0
 40 71  1  0  0  0
 43 72  1  0  0  0
M  END
$$$$
