5yib_ligand
  -I-interpret- 

106110  0  0  0  0  0  0  0  0999 V2000
   20.1220  -25.3240  -25.0180 C   0  0  0  0  0
   17.8070  -26.2670  -24.3990 C   0  0  0  0  0
   16.6920  -24.5500  -27.0200 C   0  0  0  0  0
   16.4360  -23.2970  -27.5980 C   0  0  0  0  0
   15.6480  -22.3720  -26.9230 C   0  0  0  0  0
   15.1170  -22.6850  -25.6630 C   0  0  0  0  0
   15.3640  -23.9250  -25.0910 C   0  0  0  0  0
   18.0000  -27.5860  -23.5820 C   0  0  0  0  0
   17.1830  -27.4660  -22.2770 C   0  0  0  0  0
   19.1450  -25.8900  -20.8230 C   0  0  0  0  0
   17.9970  -27.0420  -18.8030 C   0  0  0  0  0
   16.8750  -26.5630  -19.9140 C   0  0  0  0  0
   23.3780  -27.7790  -26.0960 C   0  0  0  0  0
   23.4730  -26.9310  -27.3770 C   0  0  0  0  0
   24.6780  -26.9590  -28.1000 C   0  0  0  0  0
   24.8160  -26.2190  -29.2710 C   0  0  0  0  0
   23.7340  -25.4220  -29.7150 C   0  0  0  0  0
   22.5450  -25.3800  -29.0070 C   0  0  0  0  0
   22.4010  -26.1470  -27.8230 C   0  0  0  0  0
   21.1820  -26.0890  -27.0810 O   0  0  0  0  0
   21.2860  -25.1480  -26.0270 C   0  0  0  0  0
   20.1620  -24.8200  -23.9540 O   0  0  0  0  0
   18.9410  -26.1260  -25.3980 N   0  0  0  0  0
   16.4240  -26.2410  -25.1360 C   0  0  0  0  0
   16.1580  -24.8630  -25.7720 C   0  0  0  0  0
   16.1100  -27.9470  -22.1830 O   0  0  0  0  0
   17.6800  -26.6740  -21.1460 N   0  0  0  0  0
   19.4550  -26.2830  -19.3710 S   0  0  0  0  0
   16.3380  -25.1350  -19.6940 C   0  0  0  0  0
   16.9670  -24.1580  -19.8720 O   0  0  0  0  0
   14.9520  -25.0720  -19.1660 N   0  0  0  0  0
   14.3060  -23.7900  -18.8070 C   0  0  0  0  0
   13.3010  -24.1410  -17.7100 C   0  0  0  0  0
   12.1920  -23.1300  -17.9120 C   0  0  0  0  0
   12.2610  -22.7690  -19.4190 C   0  0  0  0  0
   11.3130  -22.1590  -20.2640 C   0  0  0  0  0
   11.6130  -21.9550  -21.6350 C   0  0  0  0  0
   12.8670  -22.3440  -22.1560 C   0  0  0  0  0
   13.8200  -22.9610  -21.3150 C   0  0  0  0  0
   13.4960  -23.1700  -19.9490 C   0  0  0  0  0
   12.8000  -25.4670  -17.8960 O   0  0  0  0  0
   17.5910  -26.6100  -17.3860 C   0  0  0  0  0
   18.0750  -28.6080  -18.9400 C   0  0  0  0  0
   17.7500  -28.7470  -24.3110 O   0  0  0  0  0
   21.3930  -24.4920  -29.5480 C   0  0  0  0  0
   26.1080  -26.2390  -30.0170 N   0  0  0  0  0
   26.7030  -24.9060  -30.3800 C   0  0  0  0  0
   26.7870  -27.5310  -30.3070 C   0  0  0  0  0
   27.9360  -27.4680  -31.3670 C   0  0  0  0  0
   28.8900  -28.5860  -31.1660 N   0  3  0  0  0
   29.9660  -28.1670  -30.2910 C   0  0  0  0  0
   29.4340  -29.1550  -32.4330 C   0  0  0  0  0
   17.8206  -25.4264  -23.7053 H   0  0  0  0  0
   17.3084  -25.2780  -27.5474 H   0  0  0  0  0
   16.8541  -23.0498  -28.5738 H   0  0  0  0  0
   15.4422  -21.4012  -27.3739 H   0  0  0  0  0
   14.5090  -21.9526  -25.1320 H   0  0  0  0  0
   14.9431  -24.1706  -24.1160 H   0  0  0  0  0
   19.0540  -27.6977  -23.3278 H   0  0  0  0  0
   19.0774  -24.8103  -20.9564 H   0  0  0  0  0
   19.9360  -26.1859  -21.5121 H   0  0  0  0  0
   15.9569  -27.1502  -19.8944 H   0  0  0  0  0
   23.5355  -28.8286  -26.3441 H   0  0  0  0  0
   24.1407  -27.4532  -25.3887 H   0  0  0  0  0
   22.3908  -27.6536  -25.6512 H   0  0  0  0  0
   25.5104  -27.5644  -27.7412 H   0  0  0  0  0
   23.8382  -24.8334  -30.6265 H   0  0  0  0  0
   22.2305  -25.3054  -25.5062 H   0  0  0  0  0
   21.2398  -24.1429  -26.4463 H   0  0  0  0  0
   18.8887  -26.5754  -26.3122 H   0  0  0  0  0
   15.6382  -26.4464  -24.4090 H   0  0  0  0  0
   16.4361  -26.9923  -25.9256 H   0  0  0  0  0
   14.4287  -25.9394  -19.0470 H   0  0  0  0  0
   15.0807  -23.0761  -18.5273 H   0  0  0  0  0
   13.7344  -24.1102  -16.7103 H   0  0  0  0  0
   12.3192  -22.2534  -17.2768 H   0  0  0  0  0
   11.2180  -23.5325  -17.6336 H   0  0  0  0  0
   10.3492  -21.8439  -19.8641 H   0  0  0  0  0
   10.8724  -21.4958  -22.2898 H   0  0  0  0  0
   13.0993  -22.1683  -23.2064 H   0  0  0  0  0
   14.7879  -23.2713  -21.7086 H   0  0  0  0  0
   12.1713  -25.6709  -17.1998 H   0  0  0  0  0
   18.3866  -26.8678  -16.6870 H   0  0  0  0  0
   17.4258  -25.5327  -17.3693 H   0  0  0  0  0
   16.6734  -27.1240  -17.0997 H   0  0  0  0  0
   18.2187  -28.8731  -19.9875 H   0  0  0  0  0
   18.9127  -28.9817  -18.3511 H   0  0  0  0  0
   17.1475  -29.0499  -18.5760 H   0  0  0  0  0
   18.2919  -28.7489  -25.1034 H   0  0  0  0  0
   21.7266  -23.4554  -29.5955 H   0  0  0  0  0
   21.1125  -24.8308  -30.5453 H   0  0  0  0  0
   20.5336  -24.5683  -28.8818 H   0  0  0  0  0
   26.0049  -24.3582  -31.0130 H   0  0  0  0  0
   26.8955  -24.3359  -29.4712 H   0  0  0  0  0
   27.6382  -25.0614  -30.9179 H   0  0  0  0  0
   26.0257  -28.1959  -30.7149 H   0  0  0  0  0
   27.2451  -27.8563  -29.3730 H   0  0  0  0  0
   28.4688  -26.5236  -31.2561 H   0  0  0  0  0
   27.5027  -27.5470  -32.3641 H   0  0  0  0  0
   28.3599  -29.3412  -30.7311 H   0  0  0  0  0
   30.4902  -27.3234  -30.7401 H   0  0  0  0  0
   29.5535  -27.8687  -29.3272 H   0  0  0  0  0
   30.6609  -28.9948  -30.1497 H   0  0  0  0  0
   28.6133  -29.5370  -33.0401 H   0  0  0  0  0
   29.9620  -28.3757  -32.9825 H   0  0  0  0  0
   30.1228  -29.9667  -32.1990 H   0  0  0  0  0
  1 21  1  0  0  0
  1 22  2  0  0  0
 23  1  1  0  0  0
  2  8  1  0  0  0
  2 23  1  0  0  0
 24  2  1  0  0  0
  3  4  4  0  0  0
 25  3  4  0  0  0
  4  5  4  0  0  0
  6  5  4  0  0  0
  7  6  4  0  0  0
 25  7  4  0  0  0
  8  9  1  0  0  0
  8 44  1  0  0  0
  9 26  2  0  0  0
  9 27  1  0  0  0
 27 10  1  0  0  0
 10 28  1  0  0  0
 12 11  1  0  0  0
 11 28  1  0  0  0
 11 42  1  0  0  0
 11 43  1  0  0  0
 27 12  1  0  0  0
 12 29  1  0  0  0
 14 13  1  0  0  0
 14 15  4  0  0  0
 19 14  4  0  0  0
 15 16  4  0  0  0
 17 16  4  0  0  0
 16 46  1  0  0  0
 18 17  4  0  0  0
 19 18  4  0  0  0
 18 45  1  0  0  0
 20 19  1  0  0  0
 21 20  1  0  0  0
 24 25  1  0  0  0
 29 30  2  0  0  0
 29 31  1  0  0  0
 31 32  1  0  0  0
 32 33  1  0  0  0
 32 40  1  0  0  0
 33 34  1  0  0  0
 33 41  1  0  0  0
 34 35  1  0  0  0
 35 36  4  0  0  0
 35 40  4  0  0  0
 36 37  4  0  0  0
 37 38  4  0  0  0
 38 39  4  0  0  0
 39 40  4  0  0  0
 46 47  1  0  0  0
 46 48  1  0  0  0
 48 49  1  0  0  0
 49 50  1  0  0  0
 50 51  1  0  0  0
 50 52  1  0  0  0
  2 53  1  0  0  0
  3 54  1  0  0  0
  4 55  1  0  0  0
  5 56  1  0  0  0
  6 57  1  0  0  0
  7 58  1  0  0  0
  8 59  1  0  0  0
 10 60  1  0  0  0
 10 61  1  0  0  0
 12 62  1  0  0  0
 13 63  1  0  0  0
 13 64  1  0  0  0
 13 65  1  0  0  0
 15 66  1  0  0  0
 17 67  1  0  0  0
 21 68  1  0  0  0
 21 69  1  0  0  0
 23 70  1  0  0  0
 24 71  1  0  0  0
 24 72  1  0  0  0
 31 73  1  0  0  0
 32 74  1  0  0  0
 33 75  1  0  0  0
 34 76  1  0  0  0
 34 77  1  0  0  0
 36 78  1  0  0  0
 37 79  1  0  0  0
 38 80  1  0  0  0
 39 81  1  0  0  0
 41 82  1  0  0  0
 42 83  1  0  0  0
 42 84  1  0  0  0
 42 85  1  0  0  0
 43 86  1  0  0  0
 43 87  1  0  0  0
 43 88  1  0  0  0
 44 89  1  0  0  0
 45 90  1  0  0  0
 45 91  1  0  0  0
 45 92  1  0  0  0
 47 93  1  0  0  0
 47 94  1  0  0  0
 47 95  1  0  0  0
 48 96  1  0  0  0
 48 97  1  0  0  0
 49 98  1  0  0  0
 49 99  1  0  0  0
 50100  1  0  0  0
 51101  1  0  0  0
 51102  1  0  0  0
 51103  1  0  0  0
 52104  1  0  0  0
 52105  1  0  0  0
 52106  1  0  0  0
M  END
$$$$
