### 
### Created by X-TOOL on Wed Jan  1 15:39:36 2020
### 

@<TRIPOS>MOLECULE
5yib_ligand
  105   109     1     0     0
SMALL
GAST_HUCK


@<TRIPOS>ATOM
      1 C10        20.1220  -25.3240  -25.0180 C.2       1 8VC         0.2065
      2 C13        17.8070  -26.2670  -24.3990 C.3       1 8VC         0.0947
      3 C16        16.6920  -24.5500  -27.0200 C.ar      1 8VC        -0.0603
      4 C17        16.4360  -23.2970  -27.5980 C.ar      1 8VC        -0.0686
      5 C18        15.6480  -22.3720  -26.9230 C.ar      1 8VC        -0.0687
      6 C19        15.1170  -22.6850  -25.6630 C.ar      1 8VC        -0.0686
      7 C20        15.3640  -23.9250  -25.0910 C.ar      1 8VC        -0.0603
      8 C21        18.0000  -27.5860  -23.5820 C.3       1 8VC         0.1744
      9 C22        17.1830  -27.4660  -22.2770 C.2       1 8VC         0.2377
     10 C25        19.1450  -25.8900  -20.8230 C.2       1 8VC         0.0433
     11 C27        17.9970  -27.0420  -18.8030 C.3       1 8VC         0.0651
     12 C28        16.8750  -26.5630  -19.9140 C.3       1 8VC         0.1692
     13 C01        23.3780  -27.7790  -26.0960 C.3       1 8VC        -0.0375
     14 C02        23.4730  -26.9310  -27.3770 C.ar      1 8VC        -0.0341
     15 C03        24.6780  -26.9590  -28.1000 C.ar      1 8VC        -0.0582
     16 C04        24.8160  -26.2190  -29.2710 C.ar      1 8VC         0.0156
     17 C05        23.7340  -25.4220  -29.7150 C.ar      1 8VC        -0.0582
     18 C06        22.5450  -25.3800  -29.0070 C.ar      1 8VC        -0.0341
     19 C07        22.4010  -26.1470  -27.8230 C.ar      1 8VC         0.0831
     20 O08        21.1820  -26.0890  -27.0810 O.3       1 8VC        -0.3139
     21 C09        21.2860  -25.1480  -26.0270 C.3       1 8VC         0.1528
     22 O11        20.1620  -24.8200  -23.9540 O.2       1 8VC        -0.3942
     23 N12        18.9410  -26.1260  -25.3980 N.am      1 8VC        -0.2750
     24 C14        16.4240  -26.2410  -25.1360 C.3       1 8VC         0.0086
     25 C15        16.1580  -24.8630  -25.7720 C.ar      1 8VC        -0.0406
     26 O23        16.1100  -27.9470  -22.1830 O.2       1 8VC        -0.3837
     27 N24        17.6800  -26.6740  -21.1460 N.am      1 8VC        -0.2248
     28 S26        19.4550  -26.2830  -19.3710 S.3       1 8VC        -0.1154
     29 C29        16.3380  -25.1350  -19.6940 C.2       1 8VC         0.2133
     30 O30        16.9670  -24.1580  -19.8720 O.2       1 8VC        -0.3935
     31 N31        14.9520  -25.0720  -19.1660 N.am      1 8VC        -0.2685
     32 C32        14.3060  -23.7900  -18.8070 C.3       1 8VC         0.1007
     33 C33        13.3010  -24.1410  -17.7100 C.3       1 8VC         0.0951
     34 C34        12.1920  -23.1300  -17.9120 C.3       1 8VC         0.0085
     35 C35        12.2610  -22.7690  -19.4190 C.ar      1 8VC        -0.0361
     36 C36        11.3130  -22.1590  -20.2640 C.ar      1 8VC        -0.0667
     37 C37        11.6130  -21.9550  -21.6350 C.ar      1 8VC        -0.0755
     38 C38        12.8670  -22.3440  -22.1560 C.ar      1 8VC        -0.0754
     39 C39        13.8200  -22.9610  -21.3150 C.ar      1 8VC        -0.0646
     40 C40        13.4960  -23.1700  -19.9490 C.ar      1 8VC        -0.0133
     41 O41        12.8000  -25.4670  -17.8960 O.3       1 8VC        -0.3857
     42 C42        17.5910  -26.6100  -17.3860 C.3       1 8VC        -0.0439
     43 C43        18.0750  -28.6080  -18.9400 C.3       1 8VC        -0.0439
     44 O44        17.7500  -28.7470  -24.3110 O.3       1 8VC        -0.3688
     45 C45        21.3930  -24.4920  -29.5480 C.3       1 8VC        -0.0375
     46 N46        26.1080  -26.2390  -30.0170 N.pl3     1 8VC        -0.3151
     47 C47        26.7030  -24.9060  -30.3800 C.3       1 8VC         0.0134
     48 C48        26.7870  -27.5310  -30.3070 C.3       1 8VC         0.0642
     49 C49        27.9360  -27.4680  -31.3670 C.3       1 8VC        -0.0127
     50 N50        28.8900  -28.5860  -31.1660 N.4       1 8VC         0.2323
     51 C51        29.9660  -28.1670  -30.2910 C.3       1 8VC        -0.0433
     52 C52        29.4340  -29.1550  -32.4330 C.3       1 8VC        -0.0433
     53 H1         17.8423  -25.4167  -23.7021 H         1 8VC         0.0630
     54 H2         17.3050  -25.2740  -27.5445 H         1 8VC         0.0557
     55 H3         16.8518  -23.0511  -28.5684 H         1 8VC         0.0599
     56 H4         15.4434  -21.4065  -27.3714 H         1 8VC         0.0559
     57 H5         14.5123  -21.9566  -25.1349 H         1 8VC         0.0599
     58 H6         14.9455  -24.1693  -24.1214 H         1 8VC         0.0557
     59 H7         19.0605  -27.6348  -23.2940 H         1 8VC         0.0864
     60 H8         19.7299  -25.2563  -21.4880 H         1 8VC         0.0458
     61 H9         16.0213  -27.2564  -19.9318 H         1 8VC         0.0911
     62 H10        24.3281  -28.3100  -25.9365 H         1 8VC         0.0365
     63 H11        22.5625  -28.5098  -26.1997 H         1 8VC         0.0365
     64 H12        23.1757  -27.1233  -25.2363 H         1 8VC         0.0365
     65 H13        25.5058  -27.5611  -27.7432 H         1 8VC         0.0372
     66 H14        23.8376  -24.8367  -30.6215 H         1 8VC         0.0372
     67 H15        22.2425  -25.2958  -25.5042 H         1 8VC         0.0848
     68 H16        21.2502  -24.1315  -26.4458 H         1 8VC         0.0848
     69 H17        18.8898  -26.5666  -26.2943 H         1 8VC         0.1859
     70 H18        15.6267  -26.4615  -24.4110 H         1 8VC         0.0451
     71 H19        16.4236  -27.0068  -25.9257 H         1 8VC         0.0451
     72 H20        14.4389  -25.9224  -19.0493 H         1 8VC         0.1881
     73 H21        15.0605  -23.0730  -18.4511 H         1 8VC         0.0732
     74 H22        13.7514  -24.0469  -16.7109 H         1 8VC         0.0659
     75 H23        12.3618  -22.2381  -17.2910 H         1 8VC         0.0439
     76 H24        11.2152  -23.5700  -17.6625 H         1 8VC         0.0439
     77 H25        10.3545  -21.8456  -19.8663 H         1 8VC         0.0537
     78 H26        10.8765  -21.4984  -22.2862 H         1 8VC         0.0541
     79 H27        13.0980  -22.1692  -23.2006 H         1 8VC         0.0541
     80 H28        14.7826  -23.2696  -21.7065 H         1 8VC         0.0538
     81 H29        12.1079  -25.6339  -17.2670 H         1 8VC         0.2103
     82 H30        18.3556  -26.9420  -16.6683 H         1 8VC         0.0247
     83 H31        16.6233  -27.0645  -17.1272 H         1 8VC         0.0247
     84 H32        17.5034  -25.5142  -17.3477 H         1 8VC         0.0247
     85 H33        18.8102  -29.0026  -18.2232 H         1 8VC         0.0247
     86 H34        18.3820  -28.8718  -19.9628 H         1 8VC         0.0247
     87 H35        17.0873  -29.0441  -18.7296 H         1 8VC         0.0247
     88 H36        17.9619  -29.5052  -23.7793 H         1 8VC         0.2134
     89 H37        21.7197  -23.9893  -30.4702 H         1 8VC         0.0365
     90 H38        21.1266  -23.7371  -28.7936 H         1 8VC         0.0365
     91 H39        20.5161  -25.1201  -29.7638 H         1 8VC         0.0365
     92 H40        27.6469  -25.0615  -30.9230 H         1 8VC         0.0473
     93 H41        26.8978  -24.3296  -29.4636 H         1 8VC         0.0473
     94 H42        25.9994  -24.3522  -31.0189 H         1 8VC         0.0473
     95 H43        26.0276  -28.2378  -30.6728 H         1 8VC         0.0562
     96 H44        27.2150  -27.9071  -29.3661 H         1 8VC         0.0562
     97 H45        28.4713  -26.5125  -31.2643 H         1 8VC         0.0833
     98 H46        27.5025  -27.5390  -32.3755 H         1 8VC         0.0833
     99 H47        28.3866  -29.3263  -30.7028 H         1 8VC         0.2028
    100 H48        30.6681  -29.0016  -30.1476 H         1 8VC         0.0777
    101 H49        29.5511  -27.8657  -29.3179 H         1 8VC         0.0777
    102 H50        30.4959  -27.3157  -30.7431 H         1 8VC         0.0777
    103 H51        28.6022  -29.4664  -33.0820 H         1 8VC         0.0777
    104 H52        30.0651  -30.0260  -32.2026 H         1 8VC         0.0777
    105 H53        30.0358  -28.3923  -32.9489 H         1 8VC         0.0777
@<TRIPOS>BOND
     1    1   21 1  
     2    1   22 2  
     3   23    1 am 
     4    2    8 1  
     5    2   23 1  
     6   24    2 1  
     7    3    4 ar 
     8   25    3 ar 
     9    4    5 ar 
    10    6    5 ar 
    11    7    6 ar 
    12   25    7 ar 
    13    8    9 1  
    14    8   44 1  
    15    9   26 2  
    16    9   27 am 
    17   27   10 1  
    18   10   28 1  
    19   12   11 1  
    20   11   28 1  
    21   11   42 1  
    22   11   43 1  
    23   27   12 1  
    24   12   29 1  
    25   14   13 1  
    26   14   15 ar 
    27   19   14 ar 
    28   15   16 ar 
    29   17   16 ar 
    30   16   46 1  
    31   18   17 ar 
    32   19   18 ar 
    33   18   45 1  
    34   20   19 1  
    35   21   20 1  
    36   24   25 1  
    37   29   30 2  
    38   29   31 am 
    39   31   32 1  
    40   32   33 1  
    41   32   40 1  
    42   33   34 1  
    43   33   41 1  
    44   34   35 1  
    45   35   36 ar 
    46   35   40 ar 
    47   36   37 ar 
    48   37   38 ar 
    49   38   39 ar 
    50   39   40 ar 
    51   46   47 1  
    52   46   48 1  
    53   48   49 1  
    54   49   50 1  
    55   50   51 1  
    56   50   52 1  
    57    2   53 1  
    58    3   54 1  
    59    4   55 1  
    60    5   56 1  
    61    6   57 1  
    62    7   58 1  
    63    8   59 1  
    64   10   60 1  
    65   12   61 1  
    66   13   62 1  
    67   13   63 1  
    68   13   64 1  
    69   15   65 1  
    70   17   66 1  
    71   21   67 1  
    72   21   68 1  
    73   23   69 1  
    74   24   70 1  
    75   24   71 1  
    76   31   72 1  
    77   32   73 1  
    78   33   74 1  
    79   34   75 1  
    80   34   76 1  
    81   36   77 1  
    82   37   78 1  
    83   38   79 1  
    84   39   80 1  
    85   41   81 1  
    86   42   82 1  
    87   42   83 1  
    88   42   84 1  
    89   43   85 1  
    90   43   86 1  
    91   43   87 1  
    92   44   88 1  
    93   45   89 1  
    94   45   90 1  
    95   45   91 1  
    96   47   92 1  
    97   47   93 1  
    98   47   94 1  
    99   48   95 1  
   100   48   96 1  
   101   49   97 1  
   102   49   98 1  
   103   50   99 1  
   104   51  100 1  
   105   51  101 1  
   106   51  102 1  
   107   52  103 1  
   108   52  104 1  
   109   52  105 1  
@<TRIPOS>SUBSTRUCTURE
     1 8VC         1

