3kr5_ligand
  -I-interpret- 

 50 51  0  0  0  0  0  0  0  0999 V2000
   86.6490   72.6470   28.4520 O   0  0  0  0  0
   86.3520   73.3980   29.7240 P   0  0  0  0  0
   86.7790   74.8510   29.8080 O   0  0  0  0  0
   84.5430   73.3400   29.7330 C   0  0  0  0  0
   84.1480   72.4750   30.9290 C   0  0  0  0  0
   82.7310   72.6800   31.4010 C   0  0  0  0  0
   82.0380   71.3480   31.5150 C   0  0  0  0  0
   82.5060   70.2450   30.7840 C   0  0  0  0  0
   81.8470   69.0260   30.8770 C   0  0  0  0  0
   80.7300   68.9400   31.7060 C   0  0  0  0  0
   80.2640   70.0340   32.4500 C   0  0  0  0  0
   80.9190   71.2510   32.3530 C   0  0  0  0  0
   84.0820   74.7080   29.8070 N   0  3  0  0  0
   87.1440   72.5630   31.1050 C   0  0  0  0  0
   87.9860   71.4390   30.5560 C   0  0  0  0  0
   87.1480   70.2010   30.6450 C   0  0  0  0  0
   86.9760   69.5140   29.6140 O   0  0  0  0  0
   86.6410   69.9090   31.7490 O   0  0  0  0  0
   89.2540   71.3260   31.3960 C   0  0  0  0  0
   90.4220   70.7320   30.6260 C   0  0  0  0  0
   90.2490   70.1490   29.3660 C   0  0  0  0  0
   91.3450   69.6110   28.7070 C   0  0  0  0  0
   92.6080   69.6570   29.2960 C   0  0  0  0  0
   92.7830   70.2320   30.5490 C   0  0  0  0  0
   91.6880   70.7720   31.2130 C   0  0  0  0  0
   86.5314   75.2071   30.6644 H   0  0  0  0  0
   84.0909   72.8983   28.8450 H   0  0  0  0  0
   84.8043   72.7500   31.7547 H   0  0  0  0  0
   84.2345   71.4347   30.6152 H   0  0  0  0  0
   82.1979   73.3052   30.6848 H   0  0  0  0  0
   82.7412   73.1672   32.3760 H   0  0  0  0  0
   83.3837   70.3448   30.1454 H   0  0  0  0  0
   82.1946   68.1586   30.3159 H   0  0  0  0  0
   80.2004   67.9901   31.7787 H   0  0  0  0  0
   79.3944   69.9276   33.0986 H   0  0  0  0  0
   80.5708   72.1160   32.9174 H   0  0  0  0  0
   84.3863   75.2136   28.9750 H   0  0  0  0  0
   83.0634   74.7199   29.8600 H   0  0  0  0  0
   84.4721   75.1525   30.6381 H   0  0  0  0  0
   86.3903   72.1682   31.7863 H   0  0  0  0  0
   87.7693   73.2640   31.6579 H   0  0  0  0  0
   88.2901   71.6038   29.5223 H   0  0  0  0  0
   87.4509   69.9137   28.8816 H   0  0  0  0  0
   89.0390   70.6661   32.2365 H   0  0  0  0  0
   89.5375   72.3312   31.7081 H   0  0  0  0  0
   89.2614   70.1177   28.9059 H   0  0  0  0  0
   91.2185   69.1514   27.7268 H   0  0  0  0  0
   93.4655   69.2384   28.7691 H   0  0  0  0  0
   93.7715   70.2593   31.0075 H   0  0  0  0  0
   91.8180   71.2279   32.1945 H   0  0  0  0  0
  1  2  2  0  0  0
  2  3  1  0  0  0
  2  4  1  0  0  0
  2 14  1  0  0  0
  4  5  1  0  0  0
  4 13  1  0  0  0
  5  6  1  0  0  0
  6  7  1  0  0  0
  7  8  4  0  0  0
  7 12  4  0  0  0
  8  9  4  0  0  0
  9 10  4  0  0  0
 10 11  4  0  0  0
 11 12  4  0  0  0
 14 15  1  0  0  0
 15 16  1  0  0  0
 15 19  1  0  0  0
 16 17  1  0  0  0
 16 18  2  0  0  0
 19 20  1  0  0  0
 20 21  4  0  0  0
 20 25  4  0  0  0
 21 22  4  0  0  0
 22 23  4  0  0  0
 23 24  4  0  0  0
 24 25  4  0  0  0
  3 26  1  0  0  0
  4 27  1  0  0  0
  5 28  1  0  0  0
  5 29  1  0  0  0
  6 30  1  0  0  0
  6 31  1  0  0  0
  8 32  1  0  0  0
  9 33  1  0  0  0
 10 34  1  0  0  0
 11 35  1  0  0  0
 12 36  1  0  0  0
 13 37  1  0  0  0
 13 38  1  0  0  0
 13 39  1  0  0  0
 14 40  1  0  0  0
 14 41  1  0  0  0
 15 42  1  0  0  0
 17 43  1  0  0  0
 19 44  1  0  0  0
 19 45  1  0  0  0
 21 46  1  0  0  0
 22 47  1  0  0  0
 23 48  1  0  0  0
 24 49  1  0  0  0
 25 50  1  0  0  0
M  END
$$$$
