### 
### Created by X-TOOL on Mon Sep 10 21:13:04 2018
### 

@<TRIPOS>MOLECULE
3kr5_ligand
   48    49     1     0     0
SMALL
GAST_HUCK


@<TRIPOS>ATOM
      1 O3         86.6490   72.6470   28.4520 O.co2     1 BEY        -0.6154
      2 P          86.3520   73.3980   29.7240 P.3       1 BEY         0.0376
      3 O4         86.7790   74.8510   29.8080 O.co2     1 BEY        -0.6154
      4 C19        84.5430   73.3400   29.7330 C.3       1 BEY         0.0390
      5 C18        84.1480   72.4750   30.9290 C.3       1 BEY         0.0167
      6 C15        82.7310   72.6800   31.4010 C.3       1 BEY        -0.0124
      7 C16        82.0380   71.3480   31.5150 C.ar      1 BEY        -0.0428
      8 C10        82.5060   70.2450   30.7840 C.ar      1 BEY        -0.0603
      9 C11        81.8470   69.0260   30.8770 C.ar      1 BEY        -0.0686
     10 C12        80.7300   68.9400   31.7060 C.ar      1 BEY        -0.0687
     11 C14        80.2640   70.0340   32.4500 C.ar      1 BEY        -0.0686
     12 C13        80.9190   71.2510   32.3530 C.ar      1 BEY        -0.0603
     13 N          84.0820   74.7080   29.8070 N.4       1 BEY         0.2337
     14 C17        87.1440   72.5630   31.1050 C.3       1 BEY         0.0347
     15 C8         87.9860   71.4390   30.5560 C.3       1 BEY         0.0374
     16 C9         87.1480   70.2010   30.6450 C.2       1 BEY         0.0413
     17 O2         86.9760   69.5140   29.6140 O.co2     1 BEY        -0.5685
     18 O1         86.6410   69.9090   31.7490 O.co2     1 BEY        -0.5685
     19 C7         89.2540   71.3260   31.3960 C.3       1 BEY        -0.0033
     20 C1         90.4220   70.7320   30.6260 C.ar      1 BEY        -0.0411
     21 C2         90.2490   70.1490   29.3660 C.ar      1 BEY        -0.0602
     22 C3         91.3450   69.6110   28.7070 C.ar      1 BEY        -0.0686
     23 C4         92.6080   69.6570   29.2960 C.ar      1 BEY        -0.0687
     24 C6         92.7830   70.2320   30.5490 C.ar      1 BEY        -0.0686
     25 C5         91.6880   70.7720   31.2130 C.ar      1 BEY        -0.0602
     26 H          84.0909   72.8983   28.8450 H         1 BEY         0.1066
     27 H          84.8043   72.7500   31.7547 H         1 BEY         0.0359
     28 H          84.2345   71.4347   30.6152 H         1 BEY         0.0359
     29 H          82.1979   73.3052   30.6848 H         1 BEY         0.0428
     30 H          82.7412   73.1672   32.3760 H         1 BEY         0.0428
     31 H          83.3837   70.3448   30.1454 H         1 BEY         0.0557
     32 H          82.1946   68.1586   30.3159 H         1 BEY         0.0599
     33 H          80.2004   67.9901   31.7787 H         1 BEY         0.0559
     34 H          79.3944   69.9276   33.0986 H         1 BEY         0.0599
     35 H          80.5708   72.1160   32.9174 H         1 BEY         0.0557
     36 H          84.3863   75.2136   28.9750 H         1 BEY         0.2013
     37 H          83.0634   74.7199   29.8600 H         1 BEY         0.2013
     38 H          84.4721   75.1525   30.6381 H         1 BEY         0.2013
     39 H          86.3903   72.1682   31.7863 H         1 BEY         0.0489
     40 H          87.7693   73.2640   31.6579 H         1 BEY         0.0489
     41 H          88.2901   71.6038   29.5223 H         1 BEY         0.0504
     42 H          89.0390   70.6661   32.2365 H         1 BEY         0.0447
     43 H          89.5375   72.3312   31.7081 H         1 BEY         0.0447
     44 H          89.2614   70.1177   28.9059 H         1 BEY         0.0557
     45 H          91.2185   69.1514   27.7268 H         1 BEY         0.0599
     46 H          93.4655   69.2384   28.7691 H         1 BEY         0.0559
     47 H          93.7715   70.2593   31.0075 H         1 BEY         0.0599
     48 H          91.8180   71.2279   32.1945 H         1 BEY         0.0557
@<TRIPOS>BOND
     1    1    2 ar 
     2    2    3 ar 
     3    2    4 1  
     4    2   14 1  
     5    4    5 1  
     6    4   13 1  
     7    5    6 1  
     8    6    7 1  
     9    7    8 ar 
    10    7   12 ar 
    11    8    9 ar 
    12    9   10 ar 
    13   10   11 ar 
    14   11   12 ar 
    15   14   15 1  
    16   15   16 1  
    17   15   19 1  
    18   16   17 ar 
    19   16   18 ar 
    20   19   20 1  
    21   20   21 ar 
    22   20   25 ar 
    23   21   22 ar 
    24   22   23 ar 
    25   23   24 ar 
    26   24   25 ar 
    27    4   26 1  
    28    5   27 1  
    29    5   28 1  
    30    6   29 1  
    31    6   30 1  
    32    8   31 1  
    33    9   32 1  
    34   10   33 1  
    35   11   34 1  
    36   12   35 1  
    37   13   36 1  
    38   13   37 1  
    39   13   38 1  
    40   14   39 1  
    41   14   40 1  
    42   15   41 1  
    43   19   42 1  
    44   19   43 1  
    45   21   44 1  
    46   22   45 1  
    47   23   46 1  
    48   24   47 1  
    49   25   48 1  
@<TRIPOS>SUBSTRUCTURE
     1 BEY         1

