5lbq_ligand
  -I-interpret- 

 49 50  0  0  0  0  0  0  0  0999 V2000
  -62.1680  -36.1180  -32.1670 C   0  0  0  0  0
  -61.0990  -36.7340  -31.3330 N   0  3  0  0  0
  -59.7520  -36.1180  -31.4910 C   0  0  0  0  0
  -61.0590  -38.2080  -31.4560 C   0  0  0  0  0
  -60.5590  -38.6940  -32.8130 C   0  0  0  0  0
  -61.3320  -39.9120  -33.2960 C   0  0  0  0  0
  -60.6260  -41.0840  -32.7980 N   0  0  0  0  0
  -60.4880  -42.1890  -33.5760 C   0  0  0  0  0
  -60.9980  -42.2410  -34.8500 N   0  0  0  0  0
  -60.8790  -43.3210  -35.6690 C   0  0  0  0  0
  -61.3740  -43.3960  -36.9410 N   0  0  0  0  0
  -62.1030  -42.3450  -37.6270 C   0  0  0  0  0
  -59.8240  -43.2530  -33.0720 N   0  0  0  0  0
  -59.6780  -44.3650  -33.8360 C   0  0  0  0  0
  -60.2020  -44.4100  -35.1430 C   0  0  0  0  0
  -58.9970  -45.4840  -33.3290 C   0  0  0  0  0
  -58.8360  -46.6440  -34.1120 C   0  0  0  0  0
  -58.1630  -47.7510  -33.6330 O   0  0  0  0  0
  -56.8610  -47.6410  -33.0470 C   0  0  0  0  0
  -59.3630  -46.6640  -35.4060 C   0  0  0  0  0
  -60.0380  -45.5490  -35.9160 C   0  0  0  0  0
  -59.2460  -47.7780  -36.1960 O   0  0  0  0  0
  -60.3470  -48.1800  -37.0210 C   0  0  0  0  0
  -61.9954  -36.3622  -33.2152 H   0  0  0  0  0
  -63.1381  -36.5066  -31.8571 H   0  0  0  0  0
  -62.1502  -35.0359  -32.0370 H   0  0  0  0  0
  -61.3722  -36.5178  -30.3743 H   0  0  0  0  0
  -59.0847  -36.5041  -30.7205 H   0  0  0  0  0
  -59.3541  -36.3650  -32.4753 H   0  0  0  0  0
  -59.8350  -35.0356  -31.3924 H   0  0  0  0  0
  -62.0783  -38.5741  -31.3329 H   0  0  0  0  0
  -60.3675  -38.5805  -30.7002 H   0  0  0  0  0
  -59.5097  -38.9716  -32.7125 H   0  0  0  0  0
  -60.6972  -37.8910  -33.5370 H   0  0  0  0  0
  -61.3891  -39.9278  -34.3844 H   0  0  0  0  0
  -62.3573  -39.8915  -32.9265 H   0  0  0  0  0
  -60.2318  -41.0753  -31.8573 H   0  0  0  0  0
  -61.2177  -44.2650  -37.4518 H   0  0  0  0  0
  -63.0068  -42.1061  -37.0665 H   0  0  0  0  0
  -61.4746  -41.4575  -37.7010 H   0  0  0  0  0
  -62.3731  -42.6849  -38.6268 H   0  0  0  0  0
  -58.5887  -45.4545  -32.3188 H   0  0  0  0  0
  -56.1682  -47.2266  -33.7794 H   0  0  0  0  0
  -56.9092  -46.9843  -32.1784 H   0  0  0  0  0
  -56.5180  -48.6287  -32.7388 H   0  0  0  0  0
  -60.4381  -45.5765  -36.9295 H   0  0  0  0  0
  -61.2135  -48.3867  -36.3929 H   0  0  0  0  0
  -60.5865  -47.3792  -37.7206 H   0  0  0  0  0
  -60.0753  -49.0788  -37.5746 H   0  0  0  0  0
  1  2  1  0  0  0
  2  3  1  0  0  0
  2  4  1  0  0  0
  4  5  1  0  0  0
  5  6  1  0  0  0
  6  7  1  0  0  0
  7  8  1  0  0  0
  8  9  4  0  0  0
  8 13  4  0  0  0
  9 10  4  0  0  0
 10 11  1  0  0  0
 10 15  4  0  0  0
 11 12  1  0  0  0
 13 14  4  0  0  0
 14 15  4  0  0  0
 14 16  4  0  0  0
 15 21  4  0  0  0
 16 17  4  0  0  0
 17 18  1  0  0  0
 17 20  4  0  0  0
 18 19  1  0  0  0
 20 21  4  0  0  0
 20 22  1  0  0  0
 22 23  1  0  0  0
  1 24  1  0  0  0
  1 25  1  0  0  0
  1 26  1  0  0  0
  2 27  1  0  0  0
  3 28  1  0  0  0
  3 29  1  0  0  0
  3 30  1  0  0  0
  4 31  1  0  0  0
  4 32  1  0  0  0
  5 33  1  0  0  0
  5 34  1  0  0  0
  6 35  1  0  0  0
  6 36  1  0  0  0
  7 37  1  0  0  0
 11 38  1  0  0  0
 12 39  1  0  0  0
 12 40  1  0  0  0
 12 41  1  0  0  0
 16 42  1  0  0  0
 19 43  1  0  0  0
 19 44  1  0  0  0
 19 45  1  0  0  0
 21 46  1  0  0  0
 23 47  1  0  0  0
 23 48  1  0  0  0
 23 49  1  0  0  0
M  END
$$$$
