3uef_ligand
  -I-interpret- 

 83 82  0  0  0  0  0  0  0  0999 V2000
  -61.5350  -75.4700   29.8300 N   0  3  0  0  0
  -60.6410  -74.7520   30.7720 C   0  0  0  0  0
  -61.4520  -73.8370   31.6800 C   0  0  0  0  0
  -62.6860  -73.6720   31.5110 O   0  0  0  0  0
  -59.6060  -73.9410   30.0180 C   0  0  0  0  0
  -60.7500  -73.2440   32.6460 N   0  0  0  0  0
  -61.4000  -72.3930   33.6230 C   0  0  0  0  0
  -60.4540  -71.2910   34.0510 C   0  0  0  0  0
  -59.2340  -71.4020   33.9430 O   0  0  0  0  0
  -61.8260  -73.1950   34.8730 C   0  0  0  0  0
  -60.7100  -74.0970   35.4000 C   0  0  0  0  0
  -60.9180  -74.6090   36.8190 C   0  0  0  0  0
  -59.9090  -75.6290   37.1490 N   0  0  0  0  0
  -58.6290  -75.3730   37.4200 C   0  0  0  0  0
  -58.1790  -74.1230   37.4030 N   0  0  0  0  0
  -57.7850  -76.3680   37.6960 N   0  0  0  0  0
  -61.0540  -70.2620   34.6270 N   0  0  0  0  0
  -60.3400  -69.1090   35.1640 C   0  0  0  0  0
  -59.3370  -69.4280   36.3140 C   0  0  0  0  0
  -59.3600  -70.5210   36.8960 O   0  0  0  0  0
  -61.3710  -68.0440   35.5680 C   0  0  0  0  0
  -60.6970  -66.7980   35.6340 O   0  0  0  0  0
  -62.1200  -68.4070   36.9210 C   0  0  0  0  0
  -58.4560  -68.4760   36.6140 N   0  0  0  0  0
  -57.3100  -68.6960   37.5340 C   0  0  0  0  0
  -57.6060  -68.8310   39.0680 C   0  0  0  0  0
  -58.4510  -68.1210   39.6120 O   0  0  0  0  0
  -56.2810  -67.5650   37.3240 C   0  0  0  0  0
  -54.8830  -67.9790   37.7260 C   0  0  0  0  0
  -53.9360  -66.8350   37.9690 C   0  0  0  0  0
  -52.6210  -67.4190   38.4760 C   0  0  0  0  0
  -51.5110  -66.4610   38.2430 N   0  3  0  0  0
  -56.8740  -69.7330   39.7450 N   0  0  0  0  0
  -56.8630  -69.8730   41.2290 C   0  0  0  0  0
  -55.5780  -69.2950   41.8430 C   0  0  0  0  0
  -55.4850  -68.1030   42.1550 O   0  0  0  0  0
  -56.9800  -71.3490   41.6480 C   0  0  0  0  0
  -54.5830  -69.9980   42.0510 O   0  0  0  0  0
  -62.2220  -76.0080   30.3583 H   0  0  0  0  0
  -62.0148  -74.7936   29.2361 H   0  0  0  0  0
  -60.9806  -76.1002   29.2504 H   0  0  0  0  0
  -60.1263  -75.4942   31.3822 H   0  0  0  0  0
  -60.1080  -73.1854   29.4137 H   0  0  0  0  0
  -58.9386  -73.4546   30.7294 H   0  0  0  0  0
  -59.0296  -74.6018   29.3705 H   0  0  0  0  0
  -59.7420  -73.3911   32.6983 H   0  0  0  0  0
  -62.2902  -71.9707   33.1567 H   0  0  0  0  0
  -62.6672  -73.8296   34.5942 H   0  0  0  0  0
  -62.0811  -72.4830   35.6579 H   0  0  0  0  0
  -59.7986  -73.4993   35.4100 H   0  0  0  0  0
  -60.6768  -74.9714   34.7501 H   0  0  0  0  0
  -61.9104  -75.0536   36.8943 H   0  0  0  0  0
  -60.8216  -73.7757   37.5150 H   0  0  0  0  0
  -60.2114  -76.6029   37.1720 H   0  0  0  0  0
  -58.8135  -73.3555   37.1821 H   0  0  0  0  0
  -56.8045  -76.1657   37.8914 H   0  0  0  0  0
  -58.1199  -77.3313   37.7117 H   0  0  0  0  0
  -62.0713  -70.2758   34.6995 H   0  0  0  0  0
  -59.6928  -68.7312   34.3725 H   0  0  0  0  0
  -62.1638  -67.9934   34.8216 H   0  0  0  0  0
  -61.3194  -66.1117   35.8853 H   0  0  0  0  0
  -62.6443  -69.3551   36.8014 H   0  0  0  0  0
  -61.3909  -68.4927   37.7267 H   0  0  0  0  0
  -62.8369  -67.6215   37.1600 H   0  0  0  0  0
  -58.5729  -67.5541   36.1934 H   0  0  0  0  0
  -56.9451  -69.6849   37.2565 H   0  0  0  0  0
  -56.5756  -66.7200   37.9463 H   0  0  0  0  0
  -56.2673  -67.3129   36.2636 H   0  0  0  0  0
  -54.4737  -68.5607   36.9000 H   0  0  0  0  0
  -54.9707  -68.5243   38.6657 H   0  0  0  0  0
  -54.3536  -66.1474   38.7045 H   0  0  0  0  0
  -53.7721  -66.2767   37.0473 H   0  0  0  0  0
  -52.4116  -68.3448   37.9402 H   0  0  0  0  0
  -52.7057  -67.6138   39.5451 H   0  0  0  0  0
  -50.6387  -66.8632   38.5861 H   0  0  0  0  0
  -51.4301  -66.2727   37.2438 H   0  0  0  0  0
  -51.7042  -65.5913   38.7396 H   0  0  0  0  0
  -56.2845  -70.3663   39.2049 H   0  0  0  0  0
  -57.7227  -69.3142   41.5988 H   0  0  0  0  0
  -57.9139  -71.7610   41.2656 H   0  0  0  0  0
  -56.1395  -71.9093   41.2384 H   0  0  0  0  0
  -56.9692  -71.4185   42.7357 H   0  0  0  0  0
  -54.7653  -70.8987   41.7734 H   0  0  0  0  0
  1  2  1  0  0  0
  2  3  1  0  0  0
  2  5  1  0  0  0
  3  4  2  0  0  0
  3  6  1  0  0  0
  6  7  1  0  0  0
  7  8  1  0  0  0
  7 10  1  0  0  0
  8  9  2  0  0  0
  8 17  1  0  0  0
 10 11  1  0  0  0
 11 12  1  0  0  0
 12 13  1  0  0  0
 13 14  1  0  0  0
 14 15  2  0  0  0
 14 16  1  0  0  0
 17 18  1  0  0  0
 18 19  1  0  0  0
 18 21  1  0  0  0
 19 20  2  0  0  0
 19 24  1  0  0  0
 21 22  1  0  0  0
 21 23  1  0  0  0
 24 25  1  0  0  0
 25 26  1  0  0  0
 25 28  1  0  0  0
 26 27  2  0  0  0
 26 33  1  0  0  0
 28 29  1  0  0  0
 29 30  1  0  0  0
 30 31  1  0  0  0
 31 32  1  0  0  0
 33 34  1  0  0  0
 34 35  1  0  0  0
 34 37  1  0  0  0
 35 36  2  0  0  0
 35 38  1  0  0  0
  1 39  1  0  0  0
  1 40  1  0  0  0
  1 41  1  0  0  0
  2 42  1  0  0  0
  5 43  1  0  0  0
  5 44  1  0  0  0
  5 45  1  0  0  0
  6 46  1  0  0  0
  7 47  1  0  0  0
 10 48  1  0  0  0
 10 49  1  0  0  0
 11 50  1  0  0  0
 11 51  1  0  0  0
 12 52  1  0  0  0
 12 53  1  0  0  0
 13 54  1  0  0  0
 15 55  1  0  0  0
 16 56  1  0  0  0
 16 57  1  0  0  0
 17 58  1  0  0  0
 18 59  1  0  0  0
 21 60  1  0  0  0
 22 61  1  0  0  0
 23 62  1  0  0  0
 23 63  1  0  0  0
 23 64  1  0  0  0
 24 65  1  0  0  0
 25 66  1  0  0  0
 28 67  1  0  0  0
 28 68  1  0  0  0
 29 69  1  0  0  0
 29 70  1  0  0  0
 30 71  1  0  0  0
 30 72  1  0  0  0
 31 73  1  0  0  0
 31 74  1  0  0  0
 32 75  1  0  0  0
 32 76  1  0  0  0
 32 77  1  0  0  0
 33 78  1  0  0  0
 34 79  1  0  0  0
 37 80  1  0  0  0
 37 81  1  0  0  0
 37 82  1  0  0  0
 38 83  1  0  0  0
M  END
$$$$
