4bs4_ligand
  -I-interpret- 

 36 38  0  0  0  0  0  0  0  0999 V2000
  -38.1700  -11.0450    5.7030 C   0  0  0  0  0
  -39.4980  -10.9430    7.8020 C   0  0  0  0  0
  -38.6960  -10.1090    8.5790 C   0  0  0  0  0
  -38.6250  -10.2950    9.9630 C   0  0  0  0  0
  -40.2130  -11.9680    8.4280 C   0  0  0  0  0
  -40.1600  -12.1560    9.8020 C   0  0  0  0  0
  -39.3250  -11.3300   10.5820 C   0  0  0  0  0
  -39.3130  -11.5760   12.0380 C   0  0  0  0  0
  -40.0750  -12.6350   12.4750 O   0  0  0  0  0
  -40.1940  -12.9900   13.7870 C   0  0  0  0  0
  -41.0260  -14.0130   14.2050 C   0  0  0  0  0
  -41.1250  -14.3250   15.5680 C   0  0  0  0  0
  -40.4060  -13.5970   16.5320 C   0  0  0  0  0
  -39.5770  -12.5420   16.1390 C   0  0  0  0  0
  -39.4800  -12.2050   14.8040 C   0  0  0  0  0
  -38.5810  -11.1250   14.2900 C   0  0  0  0  0
  -37.8650  -10.5000   15.0840 O   0  0  0  0  0
  -38.5420  -10.8360   12.9210 C   0  0  0  0  0
  -39.5640  -10.7880    6.3130 C   0  0  0  0  0
  -40.0560   -9.4030    5.9410 C   0  0  0  0  0
  -38.2302  -10.9685    4.6174 H   0  0  0  0  0
  -37.4666  -10.3038    6.0823 H   0  0  0  0  0
  -37.8321  -12.0436    5.9800 H   0  0  0  0  0
  -38.1233   -9.3106    8.1071 H   0  0  0  0  0
  -38.0147   -9.6224   10.5657 H   0  0  0  0  0
  -40.8266  -12.6353    7.8228 H   0  0  0  0  0
  -40.7585  -12.9352   10.2739 H   0  0  0  0  0
  -41.6051  -14.5770   13.4738 H   0  0  0  0  0
  -41.7695  -15.1448   15.8853 H   0  0  0  0  0
  -40.4949  -13.8554   17.5872 H   0  0  0  0  0
  -39.0086  -11.9869   16.8852 H   0  0  0  0  0
  -37.9071  -10.0313   12.5502 H   0  0  0  0  0
  -40.2693  -11.5167    5.9133 H   0  0  0  0  0
  -41.0517   -9.2487    6.3568 H   0  0  0  0  0
  -39.3726   -8.6556    6.3442 H   0  0  0  0  0
  -40.0962   -9.3125    4.8555 H   0  0  0  0  0
 19  1  1  0  0  0
  2  3  4  0  0  0
  2  5  4  0  0  0
  2 19  1  0  0  0
  3  4  4  0  0  0
  4  7  4  0  0  0
  5  6  4  0  0  0
  6  7  4  0  0  0
  7  8  1  0  0  0
  8  9  1  0  0  0
  8 18  2  0  0  0
  9 10  1  0  0  0
 10 11  4  0  0  0
 10 15  4  0  0  0
 11 12  4  0  0  0
 12 13  4  0  0  0
 13 14  4  0  0  0
 14 15  4  0  0  0
 15 16  1  0  0  0
 16 17  2  0  0  0
 16 18  1  0  0  0
 19 20  1  0  0  0
  1 21  1  0  0  0
  1 22  1  0  0  0
  1 23  1  0  0  0
  3 24  1  0  0  0
  4 25  1  0  0  0
  5 26  1  0  0  0
  6 27  1  0  0  0
 11 28  1  0  0  0
 12 29  1  0  0  0
 13 30  1  0  0  0
 14 31  1  0  0  0
 18 32  1  0  0  0
 19 33  1  0  0  0
 20 34  1  0  0  0
 20 35  1  0  0  0
 20 36  1  0  0  0
M  END
$$$$
