4y6m_ligand
  -I-interpret- 

100103  0  0  0  0  0  0  0  0999 V2000
   29.5060  -33.3120  -37.7150 O   0  0  0  0  0
   29.6730  -32.2660  -37.1360 C   0  0  0  0  0
   29.2030  -32.1660  -35.7100 C   0  0  0  0  0
   29.2840  -33.2840  -34.8880 C   0  0  0  0  0
   28.7000  -30.9750  -35.1970 C   0  0  0  0  0
   28.2740  -30.9150  -33.8700 C   0  0  0  0  0
   27.7290  -29.6120  -33.3580 C   0  0  0  0  0
   26.4060  -29.4450  -33.2530 N   0  0  0  0  0
   25.8510  -28.2520  -32.6120 C   0  0  0  0  0
   25.3660  -28.6310  -31.2090 C   0  0  0  0  0
   26.3190  -28.2210  -30.1100 C   0  0  0  0  0
   25.4690  -30.4490  -33.7660 C   0  0  0  0  0
   24.1200  -29.8180  -34.1000 C   0  0  0  0  0
   24.1080  -29.1040  -35.4370 C   0  0  0  0  0
   28.5090  -28.7190  -33.0860 O   0  0  0  0  0
   28.3590  -32.0410  -33.0440 C   0  0  0  0  0
   28.8620  -33.2280  -33.5610 C   0  0  0  0  0
   28.9690  -34.3940  -32.7790 N   0  0  0  0  0
   30.2180  -34.6190  -32.0510 C   0  0  0  0  0
   29.9170  -35.2960  -30.7230 C   0  0  0  0  0
   28.9560  -36.4660  -30.8750 C   0  0  0  0  0
   27.6430  -35.9360  -31.4300 C   0  0  0  0  0
   27.8610  -35.3560  -32.8170 C   0  0  0  0  0
   30.2750  -31.2340  -37.7230 N   0  0  0  0  0
   30.4710  -31.1340  -39.0400 C   0  0  0  0  0
   29.4760  -30.7530  -39.8640 C   0  0  0  0  0
   28.0990  -30.5240  -39.3570 C   0  0  0  0  0
   27.0920  -31.4030  -39.7760 C   0  0  0  0  0
   25.7870  -31.2560  -39.3160 C   0  0  0  0  0
   25.4830  -30.2330  -38.4280 C   0  0  0  0  0
   26.4840  -29.3590  -38.0050 C   0  0  0  0  0
   27.7920  -29.5040  -38.4680 C   0  0  0  0  0
   31.8680  -31.3780  -39.5680 C   0  0  0  0  0
   31.8580  -31.5320  -40.9890 O   0  0  0  0  0
   32.4590  -32.6710  -39.0360 C   0  0  0  0  0
   33.9340  -32.5700  -38.9160 N   0  3  0  0  0
   34.6050  -33.8950  -38.8390 C   0  0  0  0  0
   36.1080  -33.6860  -38.7210 C   0  0  0  0  0
   34.2830  -34.7540  -40.0660 C   0  0  0  0  0
   34.1300  -34.6440  -37.6260 C   0  0  0  0  0
   33.7230  -33.9400  -36.5080 C   0  0  0  0  0
   33.2610  -34.6110  -35.4080 C   0  0  0  0  0
   33.2300  -36.0010  -35.3750 C   0  0  0  0  0
   33.6510  -36.7100  -36.4890 C   0  0  0  0  0
   34.1020  -36.0330  -37.6160 C   0  0  0  0  0
   32.8400  -33.8510  -34.3650 O   0  0  0  0  0
   33.7820  -33.3070  -33.4750 C   0  0  0  0  0
   29.6829  -34.2168  -35.2866 H   0  0  0  0  0
   28.6388  -30.0902  -35.8307 H   0  0  0  0  0
   25.0183  -27.8678  -33.2011 H   0  0  0  0  0
   26.6155  -27.4780  -32.5437 H   0  0  0  0  0
   25.2757  -29.7168  -31.1759 H   0  0  0  0  0
   24.4239  -28.1106  -31.0365 H   0  0  0  0  0
   27.2818  -28.7077  -30.2655 H   0  0  0  0  0
   26.4500  -27.1391  -30.1293 H   0  0  0  0  0
   25.9101  -28.5216  -29.1454 H   0  0  0  0  0
   25.3190  -31.2106  -33.0008 H   0  0  0  0  0
   25.8858  -30.8845  -34.6741 H   0  0  0  0  0
   23.9018  -29.0787  -33.3293 H   0  0  0  0  0
   23.3835  -30.6201  -34.1478 H   0  0  0  0  0
   24.8514  -28.3069  -35.4285 H   0  0  0  0  0
   24.3444  -29.8146  -36.2290 H   0  0  0  0  0
   23.1196  -28.6789  -35.6116 H   0  0  0  0  0
   28.0337  -31.9873  -32.0051 H   0  0  0  0  0
   30.7088  -33.6631  -31.8681 H   0  0  0  0  0
   30.8735  -35.2573  -32.6434 H   0  0  0  0  0
   29.4525  -34.5604  -30.0664 H   0  0  0  0  0
   30.8541  -35.6788  -30.3189 H   0  0  0  0  0
   28.7889  -36.9408  -29.9082 H   0  0  0  0  0
   29.3758  -37.2092  -31.5529 H   0  0  0  0  0
   27.2643  -35.1552  -30.7705 H   0  0  0  0  0
   26.9243  -36.7531  -31.4921 H   0  0  0  0  0
   28.1027  -36.1600  -33.5122 H   0  0  0  0  0
   26.9529  -34.8502  -33.1452 H   0  0  0  0  0
   30.6069  -30.4730  -37.1304 H   0  0  0  0  0
   29.6856  -30.6099  -40.9240 H   0  0  0  0  0
   27.3329  -32.2094  -40.4686 H   0  0  0  0  0
   25.0076  -31.9404  -39.6511 H   0  0  0  0  0
   24.4633  -30.1131  -38.0619 H   0  0  0  0  0
   26.2427  -28.5568  -37.3076 H   0  0  0  0  0
   28.5701  -28.8183  -38.1325 H   0  0  0  0  0
   32.4527  -30.5150  -39.2494 H   0  0  0  0  0
   32.7534  -31.6853  -41.2994 H   0  0  0  0  0
   32.2185  -33.4772  -39.7291 H   0  0  0  0  0
   32.0400  -32.8675  -38.0491 H   0  0  0  0  0
   34.1411  -32.0670  -38.0531 H   0  0  0  0  0
   34.2810  -32.0948  -39.7492 H   0  0  0  0  0
   36.4676  -33.1424  -39.5946 H   0  0  0  0  0
   36.3241  -33.1120  -37.8200 H   0  0  0  0  0
   36.6049  -34.6545  -38.6642 H   0  0  0  0  0
   33.2062  -34.9127  -40.1243 H   0  0  0  0  0
   34.6255  -34.2429  -40.9658 H   0  0  0  0  0
   34.7890  -35.7154  -39.9778 H   0  0  0  0  0
   33.7700  -32.8510  -36.5024 H   0  0  0  0  0
   32.8797  -36.5252  -34.4859 H   0  0  0  0  0
   33.6284  -37.7997  -36.4813 H   0  0  0  0  0
   34.4335  -36.5915  -38.4914 H   0  0  0  0  0
   34.3461  -34.1138  -33.0071 H   0  0  0  0  0
   34.4632  -32.6556  -34.0224 H   0  0  0  0  0
   33.2646  -32.7312  -32.7076 H   0  0  0  0  0
  1  2  2  0  0  0
  2  3  1  0  0  0
  2 24  1  0  0  0
  3  4  4  0  0  0
  3  5  4  0  0  0
  4 17  4  0  0  0
  5  6  4  0  0  0
  6  7  1  0  0  0
  6 16  4  0  0  0
  7  8  1  0  0  0
  7 15  2  0  0  0
  8  9  1  0  0  0
  8 12  1  0  0  0
  9 10  1  0  0  0
 10 11  1  0  0  0
 12 13  1  0  0  0
 13 14  1  0  0  0
 16 17  4  0  0  0
 17 18  1  0  0  0
 18 19  1  0  0  0
 18 23  1  0  0  0
 19 20  1  0  0  0
 20 21  1  0  0  0
 21 22  1  0  0  0
 22 23  1  0  0  0
 24 25  1  0  0  0
 25 26  2  0  0  0
 25 33  1  0  0  0
 26 27  1  0  0  0
 27 28  4  0  0  0
 27 32  4  0  0  0
 28 29  4  0  0  0
 29 30  4  0  0  0
 30 31  4  0  0  0
 31 32  4  0  0  0
 33 34  1  0  0  0
 33 35  1  0  0  0
 35 36  1  0  0  0
 36 37  1  0  0  0
 37 38  1  0  0  0
 37 39  1  0  0  0
 37 40  1  0  0  0
 40 41  4  0  0  0
 40 45  4  0  0  0
 41 42  4  0  0  0
 42 43  4  0  0  0
 42 46  1  0  0  0
 43 44  4  0  0  0
 44 45  4  0  0  0
 46 47  1  0  0  0
  4 48  1  0  0  0
  5 49  1  0  0  0
  9 50  1  0  0  0
  9 51  1  0  0  0
 10 52  1  0  0  0
 10 53  1  0  0  0
 11 54  1  0  0  0
 11 55  1  0  0  0
 11 56  1  0  0  0
 12 57  1  0  0  0
 12 58  1  0  0  0
 13 59  1  0  0  0
 13 60  1  0  0  0
 14 61  1  0  0  0
 14 62  1  0  0  0
 14 63  1  0  0  0
 16 64  1  0  0  0
 19 65  1  0  0  0
 19 66  1  0  0  0
 20 67  1  0  0  0
 20 68  1  0  0  0
 21 69  1  0  0  0
 21 70  1  0  0  0
 22 71  1  0  0  0
 22 72  1  0  0  0
 23 73  1  0  0  0
 23 74  1  0  0  0
 24 75  1  0  0  0
 26 76  1  0  0  0
 28 77  1  0  0  0
 29 78  1  0  0  0
 30 79  1  0  0  0
 31 80  1  0  0  0
 32 81  1  0  0  0
 33 82  1  0  0  0
 34 83  1  0  0  0
 35 84  1  0  0  0
 35 85  1  0  0  0
 36 86  1  0  0  0
 36 87  1  0  0  0
 38 88  1  0  0  0
 38 89  1  0  0  0
 38 90  1  0  0  0
 39 91  1  0  0  0
 39 92  1  0  0  0
 39 93  1  0  0  0
 41 94  1  0  0  0
 43 95  1  0  0  0
 44 96  1  0  0  0
 45 97  1  0  0  0
 47 98  1  0  0  0
 47 99  1  0  0  0
 47100  1  0  0  0
M  END
$$$$
