1gsf_ligand
  -I-interpret- 

 31 31  0  0  0  0  0  0  0  0999 V2000
   88.3190   27.9380   14.8870 C   0  0  0  0  0
   87.9030   29.1770   14.4270 O   0  0  0  0  0
   89.5140   27.3760   14.4540 C   0  0  0  0  0
   90.6280   28.3360   13.4790 Cl  0  0  0  0  0
   89.8600   26.0750   14.7670 C   0  0  0  0  0
   91.3830   25.4320   14.1560 Cl  0  0  0  0  0
   89.0290   25.2730   15.5380 C   0  0  0  0  0
   87.8620   25.8500   16.0180 C   0  0  0  0  0
   87.5200   27.1610   15.6980 C   0  0  0  0  0
   89.3290   23.8910   15.7610 C   0  0  0  0  0
   88.5420   23.0440   15.3240 O   0  0  0  0  0
   90.4860   23.5100   16.4790 C   0  0  0  0  0
   90.5260   23.8250   17.8620 C   0  0  0  0  0
   89.2370   23.6450   18.6760 C   0  0  0  0  0
   91.3800   22.8640   15.9580 C   0  0  0  0  0
   86.5960   29.6750   14.8530 C   0  0  0  0  0
   85.4390   29.0540   14.0450 C   0  0  0  0  0
   85.5860   27.9510   13.4650 O   0  0  0  0  0
   84.3550   29.6770   14.0310 O   0  0  0  0  0
   87.2005   25.2658   16.6577 H   0  0  0  0  0
   86.5983   27.5831   16.0984 H   0  0  0  0  0
   90.7540   24.8898   17.9109 H   0  0  0  0  0
   91.2439   23.1300   18.2975 H   0  0  0  0  0
   88.4549   24.2808   18.2610 H   0  0  0  0  0
   88.9222   22.6025   18.6297 H   0  0  0  0  0
   89.4218   23.9244   19.7133 H   0  0  0  0  0
   91.2989   22.5656   14.9128 H   0  0  0  0  0
   92.2600   22.5852   16.5377 H   0  0  0  0  0
   86.5777   30.7532   14.6943 H   0  0  0  0  0
   86.4579   29.4071   15.9005 H   0  0  0  0  0
   86.4850   27.6401   13.5942 H   0  0  0  0  0
  1  2  1  0  0  0
  1  3  4  0  0  0
  1  9  4  0  0  0
  2 16  1  0  0  0
  3  4  1  0  0  0
  3  5  4  0  0  0
  5  6  1  0  0  0
  5  7  4  0  0  0
  7  8  4  0  0  0
  7 10  1  0  0  0
  8  9  4  0  0  0
 10 11  2  0  0  0
 10 12  1  0  0  0
 12 13  1  0  0  0
 12 15  2  0  0  0
 13 14  1  0  0  0
 16 17  1  0  0  0
 17 18  1  0  0  0
 17 19  2  0  0  0
  8 20  1  0  0  0
  9 21  1  0  0  0
 13 22  1  0  0  0
 13 23  1  0  0  0
 14 24  1  0  0  0
 14 25  1  0  0  0
 14 26  1  0  0  0
 15 27  1  0  0  0
 15 28  1  0  0  0
 16 29  1  0  0  0
 16 30  1  0  0  0
 18 31  1  0  0  0
M  END
$$$$
