1my8_ligand
  -I-interpret- 

 33 34  0  0  0  0  0  0  0  0999 V2000
   21.3760    5.6630   12.9020 C   0  0  0  0  0
   20.2550    5.9910   12.0770 C   0  0  0  0  0
   20.3930    5.5700   10.7980 C   0  0  0  0  0
   21.8700    4.7660   10.5360 S   0  0  0  0  0
   22.3520    4.9810   12.1710 C   0  0  0  0  0
   23.6970    4.4390   12.6240 C   0  0  0  0  0
   24.5080    5.5520   13.3120 C   0  0  0  0  0
   24.7450    6.6240   12.7270 O   0  0  0  0  0
   24.9370    5.2900   14.5650 N   0  0  0  0  0
   25.7220    6.1670   15.4200 C   0  0  0  0  0
   26.2890    5.3370   16.6210 B   0  0  0  0  0
   25.2530    4.4120   17.1330 O   0  0  0  0  0
   26.7340    6.2010   17.6910 O   0  0  0  0  0
   24.9030    7.4540   15.8330 C   0  0  0  0  0
   25.2100    8.7350   15.2830 C   0  0  0  0  0
   23.8260    7.3360   16.7810 C   0  0  0  0  0
   23.0920    8.4970   17.1610 C   0  0  0  0  0
   23.4120    9.7620   16.6080 C   0  0  0  0  0
   24.4690    9.8820   15.6670 C   0  0  0  0  0
   21.4581    5.9119   13.9600 H   0  0  0  0  0
   19.3780    6.5260   12.4413 H   0  0  0  0  0
   19.6428    5.7281   10.0232 H   0  0  0  0  0
   24.2487    4.0772   11.7563 H   0  0  0  0  0
   23.5361    3.6239   13.3296 H   0  0  0  0  0
   24.6840    4.3813   14.9531 H   0  0  0  0  0
   26.5810    6.5602   14.8762 H   0  0  0  0  0
   25.6103    3.9085   17.8682 H   0  0  0  0  0
   27.0755    5.6663   18.4115 H   0  0  0  0  0
   26.0211    8.8327   14.5615 H   0  0  0  0  0
   23.5734    6.3644   17.2056 H   0  0  0  0  0
   22.2789    8.4114   17.8819 H   0  0  0  0  0
   22.8458   10.6446   16.9055 H   0  0  0  0  0
   24.7108   10.8553   15.2400 H   0  0  0  0  0
  1  2  4  0  0  0
  1  5  4  0  0  0
  2  3  4  0  0  0
  3  4  4  0  0  0
  4  5  4  0  0  0
  5  6  1  0  0  0
  6  7  1  0  0  0
  7  8  2  0  0  0
  7  9  1  0  0  0
  9 10  1  0  0  0
 10 11  1  0  0  0
 10 14  1  0  0  0
 11 12  1  0  0  0
 11 13  1  0  0  0
 14 15  4  0  0  0
 14 16  4  0  0  0
 15 19  4  0  0  0
 16 17  4  0  0  0
 17 18  4  0  0  0
 18 19  4  0  0  0
  1 20  1  0  0  0
  2 21  1  0  0  0
  3 22  1  0  0  0
  6 23  1  0  0  0
  6 24  1  0  0  0
  9 25  1  0  0  0
 10 26  1  0  0  0
 12 27  1  0  0  0
 13 28  1  0  0  0
 15 29  1  0  0  0
 16 30  1  0  0  0
 17 31  1  0  0  0
 18 32  1  0  0  0
 19 33  1  0  0  0
M  END
$$$$
