### 
### Created by X-TOOL on Mon Sep 10 21:12:49 2018
### 

@<TRIPOS>MOLECULE
1my8_ligand
   33    34     1     0     0
SMALL
GAST_HUCK


@<TRIPOS>ATOM
      1 CAF        21.3760    5.6630   12.9020 C.2       1 SM3        -0.0791
      2 CAC        20.2550    5.9910   12.0770 C.2       1 SM3        -0.0924
      3 CAB        20.3930    5.5700   10.7980 C.2       1 SM3        -0.0189
      4 SAD        21.8700    4.7660   10.5360 S.3       1 SM3        -0.0419
      5 CAE        22.3520    4.9810   12.1710 C.2       1 SM3         0.0307
      6 CAG        23.6970    4.4390   12.6240 C.3       1 SM3         0.0818
      7 CAH        24.5080    5.5520   13.3120 C.2       1 SM3         0.1904
      8 OAI        24.7450    6.6240   12.7270 O.2       1 SM3        -0.3936
      9 NAJ        24.9370    5.2900   14.5650 N.am      1 SM3        -0.2815
     10 CAK        25.7220    6.1670   15.4200 C.3       1 SM3         0.0849
     11 B          26.2890    5.3370   16.6210 B         1 SM3         0.7343
     12 OAT        25.2530    4.4120   17.1330 O.3       1 SM3        -0.4949
     13 OAO        26.7340    6.2010   17.6910 O.3       1 SM3        -0.4949
     14 CAL        24.9030    7.4540   15.8330 C.ar      1 SM3        -0.0288
     15 CAQ        25.2100    8.7350   15.2830 C.ar      1 SM3        -0.0595
     16 CAM        23.8260    7.3360   16.7810 C.ar      1 SM3        -0.0595
     17 CAN        23.0920    8.4970   17.1610 C.ar      1 SM3        -0.0685
     18 CAS        23.4120    9.7620   16.6080 C.ar      1 SM3        -0.0687
     19 CAR        24.4690    9.8820   15.6670 C.ar      1 SM3        -0.0685
     20 H1         21.4580    5.9116   13.9591 H         1 SM3         0.0284
     21 H2         19.3788    6.5255   12.4410 H         1 SM3         0.0373
     22 H3         19.6435    5.7279   10.0239 H         1 SM3         0.0603
     23 H4         24.2539    4.0694   11.7504 H         1 SM3         0.0685
     24 H5         23.5371    3.6134   13.3330 H         1 SM3         0.0685
     25 H6         24.6890    4.3991   14.9455 H         1 SM3         0.1866
     26 H7         26.5851    6.5187   14.8357 H         1 SM3         0.0583
     27 H8         24.9610    3.8445   16.4293 H         1 SM3         0.1668
     28 H9         27.3988    6.7943   17.3617 H         1 SM3         0.1668
     29 H10        26.0167    8.8321   14.5654 H         1 SM3         0.0557
     30 H11        23.5748    6.3697   17.2033 H         1 SM3         0.0557
     31 H12        22.2834    8.4119   17.8779 H         1 SM3         0.0599
     32 H13        22.8489   10.6398   16.9038 H         1 SM3         0.0559
     33 H14        24.7094   10.8499   15.2423 H         1 SM3         0.0599
@<TRIPOS>BOND
     1    1    2 1  
     2    1    5 2  
     3    2    3 2  
     4    3    4 1  
     5    4    5 1  
     6    5    6 1  
     7    6    7 1  
     8    7    8 2  
     9    7    9 am 
    10    9   10 1  
    11   10   11 1  
    12   10   14 1  
    13   11   12 1  
    14   11   13 1  
    15   14   15 ar 
    16   14   16 ar 
    17   15   19 ar 
    18   16   17 ar 
    19   17   18 ar 
    20   18   19 ar 
    21    1   20 1  
    22    2   21 1  
    23    3   22 1  
    24    6   23 1  
    25    6   24 1  
    26    9   25 1  
    27   10   26 1  
    28   12   27 1  
    29   13   28 1  
    30   15   29 1  
    31   16   30 1  
    32   17   31 1  
    33   18   32 1  
    34   19   33 1  
@<TRIPOS>SUBSTRUCTURE
     1 SM3         1

