4s1g_ligand
  -I-interpret- 

 60 62  0  0  0  0  0  0  0  0999 V2000
   33.0980   58.2780   41.9270 C   0  0  0  0  0
   34.1240   59.3160   41.5530 C   0  0  0  0  0
   33.9110   60.6020   42.0150 N   0  0  0  0  0
   32.7210   60.9360   42.6570 C   0  0  0  0  0
   31.9580   59.9240   43.1900 N   0  0  0  0  0
   32.3700   58.5410   43.2350 C   0  0  0  0  0
   31.0610   57.7580   43.2230 C   0  0  0  0  0
   33.2430   58.2340   44.4730 C   0  0  0  0  0
   32.3230   62.1620   42.7090 N   0  0  0  0  0
   34.8910   61.6150   41.6680 C   0  0  0  0  0
   35.1050   58.9820   40.9150 O   0  0  0  0  0
   32.7040   58.8580   45.7560 C   0  0  0  0  0
   33.4640   56.7370   44.7220 C   0  0  0  0  0
   36.2330   61.4670   42.3220 C   0  0  0  0  0
   36.3740   60.9530   43.6060 C   0  0  0  0  0
   37.6260   60.8410   44.1800 C   0  0  0  0  0
   38.7370   61.2490   43.4750 C   0  0  0  0  0
   38.5980   61.7370   42.1920 C   0  0  0  0  0
   37.3540   61.8510   41.6050 C   0  0  0  0  0
   39.7140   62.1080   41.5470 F   0  0  0  0  0
   37.8500   60.3470   45.5590 C   0  0  0  0  0
   38.9840   60.0610   45.9360 O   0  0  0  0  0
   36.7380   60.2900   46.3720 N   0  0  0  0  0
   36.8650   59.7660   47.7270 C   0  0  0  0  0
   37.0910   58.2790   47.7400 C   0  0  0  0  0
   37.8450   57.7120   48.7560 C   0  0  0  0  0
   38.0550   56.3480   48.7690 C   0  0  0  0  0
   37.5280   55.5270   47.7840 C   0  0  0  0  0
   36.7910   56.0850   46.7570 C   0  0  0  0  0
   36.5790   57.4550   46.7420 C   0  0  0  0  0
   35.5970   60.0900   48.4920 C   0  0  0  0  0
   33.6318   57.3352   42.0467 H   0  0  0  0  0
   32.3441   58.2812   41.1398 H   0  0  0  0  0
   31.0456   60.1649   43.5771 H   0  0  0  0  0
   31.2781   56.6898   43.2204 H   0  0  0  0  0
   30.4803   58.0099   44.1104 H   0  0  0  0  0
   30.4925   58.0167   42.3297 H   0  0  0  0  0
   34.2008   58.6898   44.2223 H   0  0  0  0  0
   32.8815   62.8983   42.2773 H   0  0  0  0  0
   34.4847   62.5683   42.0060 H   0  0  0  0  0
   35.0582   61.5299   40.5943 H   0  0  0  0  0
   31.7617   58.3797   46.0232 H   0  0  0  0  0
   33.4264   58.7146   46.5596 H   0  0  0  0  0
   32.5401   59.9241   45.5990 H   0  0  0  0  0
   34.1816   56.6068   45.5320 H   0  0  0  0  0
   32.5170   56.2718   44.9956 H   0  0  0  0  0
   33.8499   56.2722   43.8147 H   0  0  0  0  0
   35.4921   60.6366   44.1630 H   0  0  0  0  0
   39.7253   61.1863   43.9305 H   0  0  0  0  0
   37.2552   62.2380   40.5908 H   0  0  0  0  0
   35.8332   60.6119   46.0283 H   0  0  0  0  0
   37.7327   60.2323   48.1936 H   0  0  0  0  0
   38.2693   58.3396   49.5397 H   0  0  0  0  0
   38.6476   55.9070   49.5705 H   0  0  0  0  0
   37.6937   54.4502   47.8194 H   0  0  0  0  0
   36.3809   55.4552   45.9675 H   0  0  0  0  0
   35.9990   57.8962   45.9314 H   0  0  0  0  0
   35.4590   61.1708   48.5230 H   0  0  0  0  0
   34.7451   59.6278   47.9932 H   0  0  0  0  0
   35.6783   59.7035   49.5079 H   0  0  0  0  0
  1  2  1  0  0  0
  1  6  1  0  0  0
  2  3  1  0  0  0
  2 11  2  0  0  0
  3  4  4  0  0  0
  3 10  1  0  0  0
  4  5  1  0  0  0
  4  9  2  0  0  0
  5  6  1  0  0  0
  6  7  1  0  0  0
  6  8  1  0  0  0
  8 12  1  0  0  0
  8 13  1  0  0  0
 10 14  1  0  0  0
 14 15  4  0  0  0
 14 19  4  0  0  0
 15 16  4  0  0  0
 16 17  4  0  0  0
 16 21  1  0  0  0
 17 18  4  0  0  0
 18 19  4  0  0  0
 18 20  1  0  0  0
 21 22  2  0  0  0
 21 23  1  0  0  0
 23 24  1  0  0  0
 24 25  1  0  0  0
 24 31  1  0  0  0
 25 26  4  0  0  0
 25 30  4  0  0  0
 26 27  4  0  0  0
 27 28  4  0  0  0
 28 29  4  0  0  0
 29 30  4  0  0  0
  1 32  1  0  0  0
  1 33  1  0  0  0
  5 34  1  0  0  0
  7 35  1  0  0  0
  7 36  1  0  0  0
  7 37  1  0  0  0
  8 38  1  0  0  0
  9 39  1  0  0  0
 10 40  1  0  0  0
 10 41  1  0  0  0
 12 42  1  0  0  0
 12 43  1  0  0  0
 12 44  1  0  0  0
 13 45  1  0  0  0
 13 46  1  0  0  0
 13 47  1  0  0  0
 15 48  1  0  0  0
 17 49  1  0  0  0
 19 50  1  0  0  0
 23 51  1  0  0  0
 24 52  1  0  0  0
 26 53  1  0  0  0
 27 54  1  0  0  0
 28 55  1  0  0  0
 29 56  1  0  0  0
 30 57  1  0  0  0
 31 58  1  0  0  0
 31 59  1  0  0  0
 31 60  1  0  0  0
M  END
$$$$
