4yk5_ligand
  -I-interpret- 

 70 74  0  0  0  0  0  0  0  0999 V2000
   18.4020   18.7250   32.5390 O   0  0  0  0  0
   10.1030   17.7040   28.2370 C   0  0  0  0  0
   17.0480   17.2110   33.4570 O   0  0  0  0  0
   10.7920   17.1290   27.1530 C   0  0  0  0  0
   14.1770   17.1160   30.3720 C   0  0  0  0  0
   12.9270   17.6310   30.7180 N   0  0  0  0  0
   12.1390   16.7530   27.3500 C   0  0  0  0  0
   12.7860   16.9610   28.5880 C   0  0  0  0  0
   15.1830   16.0640   28.2140 C   0  0  0  0  0
   14.1070   16.6910   29.0480 C   0  0  0  0  0
   10.0960   12.7210   34.3900 Cl  0  0  0  0  0
   10.7580   14.1580   33.7310 C   0  0  0  0  0
    9.9230   15.0370   33.0440 C   0  0  0  0  0
   10.4590   16.2110   32.5040 C   0  0  0  0  0
   12.1170   14.4340   33.8970 C   0  0  0  0  0
   12.6510   15.6110   33.3590 C   0  0  0  0  0
   11.8260   16.5130   32.6580 C   0  0  0  0  0
   12.4230   17.7800   32.0880 C   0  0  0  0  0
   12.0690   17.5440   29.6320 C   0  0  0  0  0
   15.3560   17.0540   31.3160 C   0  0  0  0  0
   16.2810   18.3000   31.4070 C   0  0  0  0  0
   17.3450   18.1110   32.4970 C   0  0  0  0  0
   15.5440   19.6370   31.6130 C   0  0  0  0  0
   17.0370   18.4290   30.0570 C   0  0  0  0  0
   10.7210   17.9240   29.4770 C   0  0  0  0  0
   10.1250   16.8820   25.8620 C   0  0  0  0  0
    9.0470   17.6630   25.3880 C   0  0  0  0  0
    8.4330   17.3750   24.1540 C   0  0  0  0  0
    8.8820   16.2950   23.3690 C   0  0  0  0  0
    9.9430   15.5240   23.8530 C   0  0  0  0  0
   10.4010   14.4850   23.1390 F   0  0  0  0  0
   10.5560   15.8040   25.0720 C   0  0  0  0  0
    8.2670   15.9520   22.0770 C   0  0  0  0  0
    8.7020   16.4690   20.8250 C   0  0  0  0  0
    9.8370   17.4520   20.6790 C   0  0  0  0  0
    8.0410   16.0550   19.6500 C   0  0  0  0  0
    6.9770   15.1470   19.6890 C   0  0  0  0  0
    6.5540   14.6320   20.9110 C   0  0  0  0  0
    7.1950   15.0300   22.0870 C   0  0  0  0  0
    9.0581   17.9868   28.1093 H   0  0  0  0  0
   16.1891   16.8226   33.2752 H   0  0  0  0  0
   12.6904   16.2930   26.5300 H   0  0  0  0  0
   16.0269   16.7495   28.1368 H   0  0  0  0  0
   15.5092   15.1354   28.6823 H   0  0  0  0  0
   14.7926   15.8528   27.2185 H   0  0  0  0  0
    8.8627   14.8121   32.9285 H   0  0  0  0  0
    9.8124   16.8986   31.9588 H   0  0  0  0  0
   12.7565   13.7388   34.4409 H   0  0  0  0  0
   13.7113   15.8310   33.4831 H   0  0  0  0  0
   11.6328   18.5304   32.0645 H   0  0  0  0  0
   13.2691   18.0535   32.7183 H   0  0  0  0  0
   15.9882   16.2504   30.9382 H   0  0  0  0  0
   14.9254   16.9392   32.3107 H   0  0  0  0  0
   14.8652   19.8087   30.7776 H   0  0  0  0  0
   14.9758   19.5978   32.5424 H   0  0  0  0  0
   16.2714   20.4472   31.6643 H   0  0  0  0  0
   17.6286   17.5296   29.8859 H   0  0  0  0  0
   16.3161   18.5505   29.2485 H   0  0  0  0  0
   17.6952   19.2971   30.0921 H   0  0  0  0  0
   10.1713   18.3783   30.3013 H   0  0  0  0  0
    8.6858   18.4998   25.9858 H   0  0  0  0  0
    7.6051   17.9916   23.8040 H   0  0  0  0  0
   11.3798   15.1791   25.4167 H   0  0  0  0  0
    9.6022   18.3610   21.2328 H   0  0  0  0  0
   10.7517   17.0102   21.0744 H   0  0  0  0  0
    9.9743   17.6925   19.6248 H   0  0  0  0  0
    8.3667   16.4518   18.6885 H   0  0  0  0  0
    6.4816   14.8443   18.7665 H   0  0  0  0  0
    5.7276   13.9224   20.9503 H   0  0  0  0  0
    6.8593   14.6182   23.0388 H   0  0  0  0  0
 22  1  2  0  0  0
  4  2  4  0  0  0
 25  2  4  0  0  0
 22  3  1  0  0  0
  7  4  4  0  0  0
  4 26  1  0  0  0
  5  6  4  0  0  0
  5 10  4  0  0  0
 20  5  1  0  0  0
  6 18  1  0  0  0
  6 19  4  0  0  0
  8  7  4  0  0  0
 10  8  4  0  0  0
  8 19  4  0  0  0
 10  9  1  0  0  0
 12 11  1  0  0  0
 13 12  4  0  0  0
 15 12  4  0  0  0
 14 13  4  0  0  0
 17 14  4  0  0  0
 16 15  4  0  0  0
 17 16  4  0  0  0
 18 17  1  0  0  0
 19 25  4  0  0  0
 21 20  1  0  0  0
 21 22  1  0  0  0
 21 23  1  0  0  0
 21 24  1  0  0  0
 26 27  4  0  0  0
 26 32  4  0  0  0
 27 28  4  0  0  0
 28 29  4  0  0  0
 29 30  4  0  0  0
 29 33  1  0  0  0
 30 31  1  0  0  0
 30 32  4  0  0  0
 33 34  4  0  0  0
 33 39  4  0  0  0
 34 35  1  0  0  0
 34 36  4  0  0  0
 36 37  4  0  0  0
 37 38  4  0  0  0
 38 39  4  0  0  0
  2 40  1  0  0  0
  3 41  1  0  0  0
  7 42  1  0  0  0
  9 43  1  0  0  0
  9 44  1  0  0  0
  9 45  1  0  0  0
 13 46  1  0  0  0
 14 47  1  0  0  0
 15 48  1  0  0  0
 16 49  1  0  0  0
 18 50  1  0  0  0
 18 51  1  0  0  0
 20 52  1  0  0  0
 20 53  1  0  0  0
 23 54  1  0  0  0
 23 55  1  0  0  0
 23 56  1  0  0  0
 24 57  1  0  0  0
 24 58  1  0  0  0
 24 59  1  0  0  0
 25 60  1  0  0  0
 27 61  1  0  0  0
 28 62  1  0  0  0
 32 63  1  0  0  0
 35 64  1  0  0  0
 35 65  1  0  0  0
 35 66  1  0  0  0
 36 67  1  0  0  0
 37 68  1  0  0  0
 38 69  1  0  0  0
 39 70  1  0  0  0
M  END
$$$$
