2nn7_ligand
  -I-interpret- 

 32 32  0  0  0  0  0  0  0  0999 V2000
  -17.3450   -0.0940  -19.4520 C   0  0  0  0  0
  -18.0990    1.1180  -19.6320 C   0  0  0  0  0
  -18.7530    1.7170  -18.5300 C   0  0  0  0  0
  -18.6730    1.1350  -17.2430 C   0  0  0  0  0
  -17.9350   -0.0430  -17.0520 C   0  0  0  0  0
  -17.2660   -0.6640  -18.1590 C   0  0  0  0  0
  -16.5430   -0.8610  -20.8190 S   0  0  0  0  0
  -16.2170    0.2080  -21.7320 O   0  0  0  0  0
  -17.5190   -1.8370  -21.2900 O   0  0  0  0  0
  -15.2320   -1.6140  -20.2810 N   0  0  0  0  0
  -19.3900    1.7510  -16.0770 C   0  0  0  0  0
  -18.7590    3.0130  -15.5280 C   0  0  0  0  0
  -19.4590    3.6790  -14.3620 C   0  0  0  0  0
  -18.8600    4.8420  -13.9480 O   0  0  0  0  0
  -20.4620    3.2100  -13.8950 O   0  0  0  0  0
  -19.4960    5.5630  -12.8580 C   0  0  0  0  0
  -18.7570    6.8890  -12.7570 C   0  0  0  0  0
  -18.1664    1.5754  -20.6191 H   0  0  0  0  0
  -19.3234    2.6347  -18.6736 H   0  0  0  0  0
  -17.8697   -0.4879  -16.0591 H   0  0  0  0  0
  -16.6943   -1.5789  -18.0034 H   0  0  0  0  0
  -14.3080   -1.3152  -20.5931 H   0  0  0  0  0
  -15.3227   -2.3915  -19.6270 H   0  0  0  0  0
  -19.3707    1.0154  -15.2729 H   0  0  0  0  0
  -20.3842    2.0254  -16.4297 H   0  0  0  0  0
  -18.7827    3.7368  -16.3427 H   0  0  0  0  0
  -17.7772    2.7184  -15.1574 H   0  0  0  0  0
  -19.4394    5.0036  -11.9242 H   0  0  0  0  0
  -20.5590    5.7131  -13.0467 H   0  0  0  0  0
  -17.7037    6.7015  -12.5483 H   0  0  0  0  0
  -18.8515    7.4289  -13.6992 H   0  0  0  0  0
  -19.1881    7.4833  -11.9514 H   0  0  0  0  0
  1  2  4  0  0  0
  1  6  4  0  0  0
  1  7  1  0  0  0
  2  3  4  0  0  0
  3  4  4  0  0  0
  4  5  4  0  0  0
  4 11  1  0  0  0
  5  6  4  0  0  0
  7  8  2  0  0  0
  7  9  2  0  0  0
  7 10  1  0  0  0
 11 12  1  0  0  0
 12 13  1  0  0  0
 13 14  1  0  0  0
 13 15  2  0  0  0
 14 16  1  0  0  0
 16 17  1  0  0  0
  2 18  1  0  0  0
  3 19  1  0  0  0
  5 20  1  0  0  0
  6 21  1  0  0  0
 10 22  1  0  0  0
 10 23  1  0  0  0
 11 24  1  0  0  0
 11 25  1  0  0  0
 12 26  1  0  0  0
 12 27  1  0  0  0
 16 28  1  0  0  0
 16 29  1  0  0  0
 17 30  1  0  0  0
 17 31  1  0  0  0
 17 32  1  0  0  0
M  END
$$$$
