1uy6_ligand
  -I-interpret- 

 52 54  0  0  0  0  0  0  0  0999 V2000
    8.2560   10.1870   23.0600 C   0  0  0  0  0
    8.0950   11.3890   23.8530 O   0  0  0  0  0
    6.8220   11.8930   24.0150 C   0  0  0  0  0
    5.6590   11.2860   23.4960 C   0  0  0  0  0
    6.6540   13.0700   24.8410 C   0  0  0  0  0
    7.7140   13.7150   25.3760 O   0  0  0  0  0
    8.0410   15.0020   24.8170 C   0  0  0  0  0
    5.3100   13.5540   25.1120 C   0  0  0  0  0
    5.2900   14.7170   25.8570 O   0  0  0  0  0
    4.1560   15.5370   25.9070 C   0  0  0  0  0
    4.1860   12.8870   24.5880 C   0  0  0  0  0
    4.3830   11.7460   23.7770 C   0  0  0  0  0
    3.2090   11.0270   23.1370 C   0  0  0  0  0
    1.9940   10.7670   23.9920 C   0  0  0  0  0
    0.8030   11.3050   23.7050 N   0  0  0  0  0
    0.0520   10.9000   24.7540 C   0  0  0  0  0
   -1.3510   11.0400   25.1150 C   0  0  0  0  0
   -2.1950   11.7260   24.3210 N   0  0  0  0  0
    0.8580   10.0890   25.6590 C   0  0  0  0  0
    0.3420    9.5640   26.7850 N   0  0  0  0  0
   -0.9570    9.7930   27.0860 C   0  0  0  0  0
   -1.7780   10.5150   26.2810 N   0  0  0  0  0
    2.0680   10.0630   25.1400 N   0  0  0  0  0
    3.1820    9.3050   25.7100 C   0  0  0  0  0
    2.9290    7.8460   25.3350 C   0  0  0  0  0
    4.0350    7.2060   24.5160 C   0  0  0  0  0
    4.0540    5.7230   24.9060 C   0  0  0  0  0
    7.6854    9.3758   23.5122 H   0  0  0  0  0
    7.8924   10.3690   22.0487 H   0  0  0  0  0
    9.3110    9.9151   23.0247 H   0  0  0  0  0
    5.7693   10.4179   22.8461 H   0  0  0  0  0
    8.2679   14.8892   23.7569 H   0  0  0  0  0
    7.1928   15.6757   24.9387 H   0  0  0  0  0
    8.9089   15.4114   25.3340 H   0  0  0  0  0
    3.9142   15.8821   24.9018 H   0  0  0  0  0
    3.3167   14.9700   26.3096 H   0  0  0  0  0
    4.3576   16.3949   26.5484 H   0  0  0  0  0
    3.1795   13.2450   24.8044 H   0  0  0  0  0
    3.5863   10.0426   22.8600 H   0  0  0  0  0
    2.8669   11.6831   22.3366 H   0  0  0  0  0
   -1.8524   12.1519   23.4598 H   0  0  0  0  0
   -3.1769   11.8197   24.5808 H   0  0  0  0  0
   -1.3603    9.3816   28.0113 H   0  0  0  0  0
    3.2359    9.4325   26.7912 H   0  0  0  0  0
    4.1386    9.6538   25.3211 H   0  0  0  0  0
    2.0267    7.8255   24.7238 H   0  0  0  0  0
    2.8565    7.2850   26.2667 H   0  0  0  0  0
    4.9966    7.6776   24.7185 H   0  0  0  0  0
    3.8542    7.3289   23.4482 H   0  0  0  0  0
    4.2535    5.6319   25.9737 H   0  0  0  0  0
    3.0868    5.2758   24.6764 H   0  0  0  0  0
    4.8351    5.2108   24.3441 H   0  0  0  0  0
  1  2  1  0  0  0
  2  3  1  0  0  0
  3  4  4  0  0  0
  3  5  4  0  0  0
  4 12  4  0  0  0
  5  6  1  0  0  0
  5  8  4  0  0  0
  6  7  1  0  0  0
  8  9  1  0  0  0
  8 11  4  0  0  0
  9 10  1  0  0  0
 11 12  4  0  0  0
 12 13  1  0  0  0
 13 14  1  0  0  0
 14 15  4  0  0  0
 14 23  4  0  0  0
 15 16  4  0  0  0
 16 17  4  0  0  0
 16 19  4  0  0  0
 17 18  1  0  0  0
 17 22  4  0  0  0
 19 20  4  0  0  0
 19 23  4  0  0  0
 20 21  4  0  0  0
 21 22  4  0  0  0
 23 24  1  0  0  0
 24 25  1  0  0  0
 25 26  1  0  0  0
 26 27  1  0  0  0
  1 28  1  0  0  0
  1 29  1  0  0  0
  1 30  1  0  0  0
  4 31  1  0  0  0
  7 32  1  0  0  0
  7 33  1  0  0  0
  7 34  1  0  0  0
 10 35  1  0  0  0
 10 36  1  0  0  0
 10 37  1  0  0  0
 11 38  1  0  0  0
 13 39  1  0  0  0
 13 40  1  0  0  0
 18 41  1  0  0  0
 18 42  1  0  0  0
 21 43  1  0  0  0
 24 44  1  0  0  0
 24 45  1  0  0  0
 25 46  1  0  0  0
 25 47  1  0  0  0
 26 48  1  0  0  0
 26 49  1  0  0  0
 27 50  1  0  0  0
 27 51  1  0  0  0
 27 52  1  0  0  0
M  END
$$$$
