4wkn_ligand
  -I-interpret- 

 39 41  0  0  0  0  0  0  0  0999 V2000
    8.0250   48.7900  -37.0790 C   0  0  0  0  0
    9.5770   48.9810  -35.3500 C   0  0  0  0  0
   10.0410   50.1780  -35.8700 C   0  0  0  0  0
    9.4460   50.6650  -37.0370 C   0  0  0  0  0
   14.2060   44.2620  -37.8620 C   0  0  0  0  0
   12.4850   44.6540  -37.9410 S   0  0  0  0  0
   12.1830   45.8050  -36.6490 C   0  0  0  0  0
   12.1030   45.1310  -35.2750 C   0  0  0  0  0
   12.0830   46.1990  -34.1730 C   0  0  0  0  0
   10.7200   46.1700  -33.5910 N   0  3  0  0  0
   10.1780   47.4860  -33.2460 C   0  0  0  0  0
   10.3150   48.6520  -34.2070 C   0  0  0  0  0
   11.2110   49.7100  -34.0520 C   0  0  0  0  0
   11.0210   50.6080  -35.0590 N   0  0  0  0  0
    9.8550   51.8410  -37.5920 N   0  0  0  0  0
    8.4430   49.9560  -37.6180 N   0  0  0  0  0
    8.5760   48.2890  -35.9550 N   0  0  0  0  0
    9.8630   45.4430  -34.5710 C   0  0  0  0  0
   10.8080   44.3650  -35.0770 C   0  0  0  0  0
   11.0000   43.3570  -34.0740 O   0  0  0  0  0
    7.2203   48.2391  -37.5660 H   0  0  0  0  0
   14.7911   45.1709  -38.0018 H   0  0  0  0  0
   14.4341   43.8277  -36.8886 H   0  0  0  0  0
   14.4507   43.5464  -38.6470 H   0  0  0  0  0
   11.2258   46.2885  -36.8443 H   0  0  0  0  0
   13.0097   46.5152  -36.6292 H   0  0  0  0  0
   12.9636   44.4641  -35.2242 H   0  0  0  0  0
   12.3160   47.1841  -34.5772 H   0  0  0  0  0
   12.8380   45.9937  -33.4141 H   0  0  0  0  0
   10.7481   45.6933  -32.6897 H   0  0  0  0  0
   10.7515   47.7911  -32.3707 H   0  0  0  0  0
    9.1027   47.3227  -33.1741 H   0  0  0  0  0
   11.9461   49.8034  -33.2526 H   0  0  0  0  0
   10.6044   52.3777  -37.1552 H   0  0  0  0  0
    9.4116   52.1843  -38.4440 H   0  0  0  0  0
    9.4739   46.0830  -35.3629 H   0  0  0  0  0
    8.9480   45.0445  -34.1327 H   0  0  0  0  0
   10.4454   43.8578  -35.9711 H   0  0  0  0  0
   10.1810   42.8721  -33.9484 H   0  0  0  0  0
  1 16  4  0  0  0
 17  1  4  0  0  0
  2  3  4  0  0  0
 12  2  4  0  0  0
  2 17  4  0  0  0
  3  4  4  0  0  0
  3 14  4  0  0  0
  4 15  1  0  0  0
  4 16  4  0  0  0
  6  5  1  0  0  0
  7  6  1  0  0  0
  8  7  1  0  0  0
  9  8  1  0  0  0
  8 19  1  0  0  0
 10  9  1  0  0  0
 11 10  1  0  0  0
 10 18  1  0  0  0
 11 12  1  0  0  0
 12 13  4  0  0  0
 13 14  4  0  0  0
 18 19  1  0  0  0
 19 20  1  0  0  0
  1 21  1  0  0  0
  5 22  1  0  0  0
  5 23  1  0  0  0
  5 24  1  0  0  0
  7 25  1  0  0  0
  7 26  1  0  0  0
  8 27  1  0  0  0
  9 28  1  0  0  0
  9 29  1  0  0  0
 10 30  1  0  0  0
 11 31  1  0  0  0
 11 32  1  0  0  0
 13 33  1  0  0  0
 15 34  1  0  0  0
 15 35  1  0  0  0
 18 36  1  0  0  0
 18 37  1  0  0  0
 19 38  1  0  0  0
 20 39  1  0  0  0
M  END
$$$$
