4civ_ligand
  -I-interpret- 

 26 26  0  0  0  0  0  0  0  0999 V2000
   13.7080    3.6830   41.9960 O   0  0  0  0  0
   13.3790    2.7040   40.9930 C   0  0  0  0  0
   11.8730    2.3980   41.0860 C   0  0  0  0  0
   11.5900    1.6990   42.3090 O   0  0  0  0  0
   11.4380    1.5330   39.9180 C   0  0  0  0  0
   11.6700    2.2910   38.6120 C   0  0  0  0  0
   11.6590    1.3950   37.5240 C   0  0  0  0  0
   10.7410    1.5240   36.6910 O   0  0  0  0  0
   12.5850    0.5510   37.4390 O   0  0  0  0  0
   10.6400    3.2770   38.4630 O   0  0  0  0  0
   12.8920    2.9680   38.5930 C   0  0  0  0  0
   13.7230    3.1660   39.7010 C   0  0  0  0  0
   14.8950    3.8680   39.4680 C   0  0  0  0  0
   15.7140    3.0310   38.6430 O   0  0  0  0  0
   13.4655    3.3465   42.8617 H   0  0  0  0  0
   13.9504    1.7926   41.1693 H   0  0  0  0  0
   11.3288    3.3421   41.0630 H   0  0  0  0  0
   11.8619    2.2386   43.0550 H   0  0  0  0  0
   10.3793    1.2932   40.0168 H   0  0  0  0  0
   12.0186    0.6105   39.9118 H   0  0  0  0  0
   13.1700    0.6423   38.1947 H   0  0  0  0  0
   10.6626    3.8774   39.2117 H   0  0  0  0  0
   13.2248    3.3747   37.6380 H   0  0  0  0  0
   15.3996    4.1063   40.4043 H   0  0  0  0  0
   14.6890    4.8187   38.9762 H   0  0  0  0  0
   16.5415    3.4800   38.4552 H   0  0  0  0  0
  1  2  1  0  0  0
  2  3  1  0  0  0
  2 12  1  0  0  0
  3  4  1  0  0  0
  3  5  1  0  0  0
  5  6  1  0  0  0
  6  7  1  0  0  0
  6 10  1  0  0  0
  6 11  1  0  0  0
  7  8  2  0  0  0
  7  9  1  0  0  0
 11 12  2  0  0  0
 12 13  1  0  0  0
 13 14  1  0  0  0
  1 15  1  0  0  0
  2 16  1  0  0  0
  3 17  1  0  0  0
  4 18  1  0  0  0
  5 19  1  0  0  0
  5 20  1  0  0  0
  9 21  1  0  0  0
 10 22  1  0  0  0
 11 23  1  0  0  0
 13 24  1  0  0  0
 13 25  1  0  0  0
 14 26  1  0  0  0
M  END
$$$$
