3iu8_ligand
  -I-interpret- 

 21 22  0  0  0  0  0  0  0  0999 V2000
    6.7540   46.4650    8.4770 F   0  0  0  0  0
   10.4220   43.0520    4.4420 S   0  0  0  0  0
    9.6980   45.2510    5.7960 C   0  0  0  0  0
    7.8540   43.0640    3.5700 N   0  0  0  0  0
   10.0570   45.4040    7.1650 C   0  0  0  0  0
    8.0370   43.2670    1.4100 N   0  0  0  0  0
    9.0470   45.7890    8.0870 C   0  0  0  0  0
    9.3680   43.2330    1.9050 N   0  0  0  0  0
    7.7320   46.0720    7.6200 C   0  0  0  0  0
    7.3720   45.9370    6.2690 C   0  0  0  0  0
    8.3720   45.5350    5.3760 C   0  0  0  0  0
   10.7110   44.7790    4.7380 C   0  0  0  0  0
    7.1260   43.1350    2.4240 C   0  0  0  0  0
    9.1430   43.1040    3.2370 C   0  0  0  0  0
   11.0805   45.2302    7.4973 H   0  0  0  0  0
    9.2782   45.8675    9.1493 H   0  0  0  0  0
    6.3556   46.1371    5.9300 H   0  0  0  0  0
    8.1235   45.4364    4.3193 H   0  0  0  0  0
   10.5873   45.3468    3.8159 H   0  0  0  0  0
   11.7296   44.9369    5.0925 H   0  0  0  0  0
    6.0407   43.0951    2.3313 H   0  0  0  0  0
  9  1  1  0  0  0
 12  2  1  0  0  0
  2 14  1  0  0  0
  5  3  4  0  0  0
  3 11  4  0  0  0
  3 12  1  0  0  0
  4 13  4  0  0  0
 14  4  4  0  0  0
  7  5  4  0  0  0
  6  8  4  0  0  0
 13  6  4  0  0  0
  7  9  4  0  0  0
  8 14  4  0  0  0
  9 10  4  0  0  0
 10 11  4  0  0  0
  5 15  1  0  0  0
  7 16  1  0  0  0
 10 17  1  0  0  0
 11 18  1  0  0  0
 12 19  1  0  0  0
 12 20  1  0  0  0
 13 21  1  0  0  0
M  END
$$$$
