2hha_ligand
  -I-interpret- 

 45 47  0  0  0  0  0  0  0  0999 V2000
   38.4020   51.0630   35.1160 C   0  0  0  0  0
   37.0120   51.0180   35.8440 C   0  0  0  0  0
   36.6180   51.9990   36.4760 O   0  0  0  0  0
   36.6780   48.6550   34.9980 C   0  0  0  0  0
   35.5290   47.6620   35.1590 C   0  0  0  0  0
   34.4530   48.3520   36.0060 C   0  0  0  0  0
   34.9680   49.7490   36.3440 C   0  0  0  0  0
   40.0500   50.3780   36.8840 C   0  0  0  0  0
   40.6580   49.0770   38.4290 C   0  0  0  0  0
   40.9620   48.5040   39.7470 C   0  0  0  0  0
   40.0550   48.7580   40.8130 C   0  0  0  0  0
   40.2580   48.1900   42.0740 C   0  0  0  0  0
   42.3150   47.1040   41.2420 C   0  0  0  0  0
   42.0990   47.6780   39.9640 C   0  0  0  0  0
   39.5680   51.5510   36.0190 C   0  0  0  0  0
   36.2740   49.8650   35.7310 N   0  0  0  0  0
   38.1850   51.9180   33.9660 N   0  3  0  0  0
   40.2190   50.3410   38.2170 N   0  0  0  0  0
   40.7570   48.3590   37.2740 N   0  0  0  0  0
   40.3510   49.2300   36.2410 O   0  0  0  0  0
   41.3770   47.3580   42.2880 C   0  0  0  0  0
   41.5720   46.6140   43.8760 S   0  0  0  0  0
   41.7080   45.2180   43.7070 O   0  0  0  0  0
   40.4330   47.0260   44.6760 O   0  0  0  0  0
   43.0480   47.3780   44.5050 C   0  0  0  0  0
   40.7430   52.1060   35.1530 C   0  0  0  0  0
   38.7271   50.0631   34.8286 H   0  0  0  0  0
   37.6080   48.4991   34.4513 H   0  0  0  0  0
   35.4825   46.6531   34.7491 H   0  0  0  0  0
   33.4977   47.9244   36.3103 H   0  0  0  0  0
   34.4534   50.5094   36.9314 H   0  0  0  0  0
   39.1923   49.4026   40.6447 H   0  0  0  0  0
   39.5575   48.3883   42.8852 H   0  0  0  0  0
   43.1871   46.4760   41.4240 H   0  0  0  0  0
   42.8007   47.4873   39.1520 H   0  0  0  0  0
   39.2148   52.3594   36.6591 H   0  0  0  0  0
   37.4113   51.5508   33.4120 H   0  0  0  0  0
   37.9603   52.8612   34.2827 H   0  0  0  0  0
   39.0312   51.9416   33.3969 H   0  0  0  0  0
   43.2936   46.9467   45.4754 H   0  0  0  0  0
   43.8698   47.2044   43.8103 H   0  0  0  0  0
   42.8827   48.4499   44.6137 H   0  0  0  0  0
   41.5433   52.4515   35.8074 H   0  0  0  0  0
   41.1188   51.3155   34.5034 H   0  0  0  0  0
   40.3841   52.9371   34.5458 H   0  0  0  0  0
  1  2  1  0  0  0
 15  1  1  0  0  0
  1 17  1  0  0  0
  2  3  2  0  0  0
  2 16  1  0  0  0
  4  5  4  0  0  0
 16  4  4  0  0  0
  6  5  4  0  0  0
  7  6  4  0  0  0
 16  7  4  0  0  0
  8 15  1  0  0  0
 18  8  4  0  0  0
  8 20  4  0  0  0
  9 10  1  0  0  0
  9 18  4  0  0  0
  9 19  4  0  0  0
 10 11  4  0  0  0
 10 14  4  0  0  0
 11 12  4  0  0  0
 12 21  4  0  0  0
 14 13  4  0  0  0
 13 21  4  0  0  0
 15 26  1  0  0  0
 19 20  4  0  0  0
 21 22  1  0  0  0
 22 23  2  0  0  0
 22 24  2  0  0  0
 22 25  1  0  0  0
  1 27  1  0  0  0
  4 28  1  0  0  0
  5 29  1  0  0  0
  6 30  1  0  0  0
  7 31  1  0  0  0
 11 32  1  0  0  0
 12 33  1  0  0  0
 13 34  1  0  0  0
 14 35  1  0  0  0
 15 36  1  0  0  0
 17 37  1  0  0  0
 17 38  1  0  0  0
 17 39  1  0  0  0
 25 40  1  0  0  0
 25 41  1  0  0  0
 25 42  1  0  0  0
 26 43  1  0  0  0
 26 44  1  0  0  0
 26 45  1  0  0  0
M  END
$$$$
