### 
### Created by X-TOOL on Mon Sep 10 21:13:29 2018
### 

@<TRIPOS>MOLECULE
5svl_ligand
   43    45     1     0     0
SMALL
GAST_HUCK


@<TRIPOS>ATOM
      1 PG        118.5530   89.3140  105.9640 P.3       1 ATP         0.1879
      2 O1G       118.6970   89.0510  104.4890 O.co2     1 ATP        -0.6091
      3 O2G       118.7120   88.1200  106.8600 O.co2     1 ATP        -0.6091
      4 O3G       117.3450   90.1240  106.3270 O.co2     1 ATP        -0.6091
      5 PB        120.8650   90.7030  105.1870 P.3       1 ATP         0.3553
      6 O1B       120.1190   91.6070  104.2380 O.co2     1 ATP        -0.5652
      7 O2B       121.5610   89.4690  104.6620 O.co2     1 ATP        -0.5652
      8 O3B       119.8390   90.2100  106.3260 O.3       1 ATP        -0.1546
      9 PA        121.6170   92.6570  107.1140 P.3       1 ATP         0.3266
     10 O1A       120.1470   92.9880  106.9700 O.co2     1 ATP        -0.5692
     11 O2A       122.6500   93.7630  107.0810 O.co2     1 ATP        -0.5692
     12 O3A       121.9820   91.5700  105.9730 O.3       1 ATP        -0.1171
     13 O5'       121.8460   91.8290  108.4720 O.3       1 ATP        -0.2441
     14 C5'       123.1430   91.3260  108.7730 C.3       1 ATP         0.1131
     15 C4'       123.0470   90.0850  109.6560 C.3       1 ATP         0.1189
     16 O4'       122.2730   90.3730  110.8210 O.3       1 ATP        -0.3364
     17 C3'       122.3580   88.9300  108.9450 C.3       1 ATP         0.1149
     18 O3'       122.9830   87.6900  109.3100 O.3       1 ATP        -0.3864
     19 C2'       120.9470   88.9700  109.4640 C.3       1 ATP         0.1385
     20 O2'       120.3060   87.6970  109.4790 O.3       1 ATP        -0.3836
     21 C1'       121.1530   89.4930  110.8740 C.3       1 ATP         0.2010
     22 N9        119.9470   90.1980  111.3340 N.pl3     1 ATP        -0.1919
     23 C8        119.3850   91.2850  110.7630 C.2       1 ATP         0.1123
     24 N7        118.2820   91.6690  111.4410 N.2       1 ATP        -0.2958
     25 C5        118.1420   90.8100  112.4570 C.ar      1 ATP         0.1045
     26 C6        117.1780   90.6530  113.5630 C.ar      1 ATP         0.1298
     27 N6        116.1550   91.5180  113.6790 N.pl3     1 ATP        -0.3152
     28 N1        117.3700   89.6240  114.4220 N.ar      1 ATP        -0.2698
     29 C2        118.4050   88.7810  114.2840 C.ar      1 ATP         0.0533
     30 N3        119.3190   88.8670  113.3020 N.ar      1 ATP        -0.2714
     31 C4        119.2300   89.8430  112.3830 C.ar      1 ATP         0.1613
     32 H1        123.7178   92.1013  109.3007 H         1 ATP         0.0648
     33 H2        123.6554   91.0638  107.8357 H         1 ATP         0.0648
     34 H3        124.0624   89.7799  109.9491 H         1 ATP         0.0651
     35 H4        122.3849   89.0599  107.8530 H         1 ATP         0.0648
     36 H5        122.5480   86.9737  108.8627 H         1 ATP         0.2100
     37 H6        120.3367   89.6655  108.8691 H         1 ATP         0.0676
     38 H7        120.7961   87.1035  110.0357 H         1 ATP         0.2101
     39 H8        121.3658   88.6585  111.5583 H         1 ATP         0.0996
     40 H9        119.7695   91.7848  109.8751 H         1 ATP         0.1349
     41 H10       115.4781   91.4148  114.4484 H         1 ATP         0.1820
     42 H11       116.0484   92.2837  112.9984 H         1 ATP         0.1820
     43 H12       118.5105   87.9818  115.0087 H         1 ATP         0.0996
@<TRIPOS>BOND
     1    1    2 ar 
     2    1    3 ar 
     3    1    4 ar 
     4    8    1 1  
     5    5    6 ar 
     6    5    7 ar 
     7    5    8 1  
     8   12    5 1  
     9    9   10 ar 
    10    9   11 ar 
    11    9   12 1  
    12    9   13 1  
    13   13   14 1  
    14   14   15 1  
    15   15   16 1  
    16   15   17 1  
    17   16   21 1  
    18   17   18 1  
    19   17   19 1  
    20   19   20 1  
    21   19   21 1  
    22   21   22 1  
    23   22   23 1  
    24   22   31 1  
    25   23   24 2  
    26   24   25 1  
    27   25   26 ar 
    28   25   31 ar 
    29   26   27 1  
    30   26   28 ar 
    31   28   29 ar 
    32   29   30 ar 
    33   30   31 ar 
    34   14   32 1  
    35   14   33 1  
    36   15   34 1  
    37   17   35 1  
    38   18   36 1  
    39   19   37 1  
    40   20   38 1  
    41   21   39 1  
    42   23   40 1  
    43   27   41 1  
    44   27   42 1  
    45   29   43 1  
@<TRIPOS>SUBSTRUCTURE
     1 ATP         1

