6hjk_ligand
  -I-interpret- 

 57 60  0  0  0  0  0  0  0  0999 V2000
  -28.4210   -8.5200   -6.3200 C   0  0  0  0  0
  -30.0480   -8.7680   -8.2450 C   0  0  0  0  0
  -33.8930  -10.4890   -9.5550 C   0  0  0  0  0
  -31.8560   -8.2450   -9.5450 C   0  0  0  0  0
  -27.6030   -9.2910   -8.4180 C   0  0  0  0  0
  -19.6620  -12.1990    2.5680 F   0  0  0  0  0
  -20.0410  -11.7250    1.3680 C   0  0  0  0  0
  -19.1030  -11.1390    0.5330 C   0  0  0  0  0
  -19.5040  -10.6520   -0.7120 C   0  0  0  0  0
  -20.8540  -10.7500   -1.1240 C   0  0  0  0  0
  -21.2510  -10.2010   -2.4860 C   0  0  0  0  0
  -22.7360   -9.9690   -2.8790 C   0  0  0  0  0
  -23.0190   -9.6010   -4.1650 C   0  0  0  0  0
  -24.4840   -9.5430   -4.6580 C   0  0  0  0  0
  -24.7540   -9.1230   -6.0120 N   0  0  0  0  0
  -26.0830   -9.0400   -6.5550 C   0  0  0  0  0
  -27.1500   -8.6070   -5.7860 C   0  0  0  0  0
  -28.6530   -8.8610   -7.6540 C   0  0  0  0  0
  -31.1480   -9.4080   -7.7690 N   0  0  0  0  0
  -32.2030   -9.0890   -8.5510 N   0  0  0  0  0
  -33.5610   -9.5870   -8.3780 C   0  0  0  0  0
  -33.7090  -10.2770   -7.0230 C   0  0  0  0  0
  -32.5630   -7.6490  -10.5730 N   0  0  0  0  0
  -31.9600   -6.8470  -11.4360 C   0  0  0  0  0
  -30.6480   -6.5700  -11.3430 N   0  0  0  0  0
  -29.8820   -7.1060  -10.3660 C   0  0  0  0  0
  -28.4970   -6.7650  -10.3170 N   0  0  0  0  0
  -30.4610   -7.9820   -9.4060 C   0  0  0  0  0
  -26.3130   -9.3780   -7.8740 C   0  0  0  0  0
  -25.3660   -9.8610   -3.9020 O   0  0  0  0  0
  -20.3670   -9.9230   -3.2930 O   0  0  0  0  0
  -21.8050  -11.3410   -0.2780 C   0  0  0  0  0
  -21.3980  -11.8290    0.9500 C   0  0  0  0  0
  -22.4150  -12.4630    1.8840 C   0  0  0  0  0
  -21.8630  -13.4730    2.5500 F   0  0  0  0  0
  -23.4870  -12.8960    1.1750 F   0  0  0  0  0
  -22.7780  -11.5060    2.7300 F   0  0  0  0  0
  -29.2485   -8.1828   -5.6957 H   0  0  0  0  0
  -33.8190   -9.9183  -10.4807 H   0  0  0  0  0
  -33.1900  -11.3215   -9.5827 H   0  0  0  0  0
  -34.9073  -10.8719   -9.4429 H   0  0  0  0  0
  -27.7702   -9.5685   -9.4587 H   0  0  0  0  0
  -18.0618  -11.0592    0.8456 H   0  0  0  0  0
  -18.7700  -10.1917   -1.3734 H   0  0  0  0  0
  -23.5334  -10.0966   -2.1469 H   0  0  0  0  0
  -22.2075   -9.3470   -4.8469 H   0  0  0  0  0
  -23.9668   -8.8738   -6.6108 H   0  0  0  0  0
  -26.9847   -8.3309   -4.7446 H   0  0  0  0  0
  -34.2797   -8.7675   -8.3706 H   0  0  0  0  0
  -33.0139  -11.1146   -6.9654 H   0  0  0  0  0
  -33.4883   -9.5647   -6.2280 H   0  0  0  0  0
  -34.7300  -10.6422   -6.9123 H   0  0  0  0  0
  -32.5417   -6.4000  -12.2422 H   0  0  0  0  0
  -28.1036   -6.1286  -11.0103 H   0  0  0  0  0
  -27.9006   -7.1576   -9.5887 H   0  0  0  0  0
  -25.4851   -9.7153   -8.4977 H   0  0  0  0  0
  -22.8485  -11.4142   -0.5843 H   0  0  0  0  0
  1 17  4  0  0  0
 18  1  4  0  0  0
  2 18  1  0  0  0
 19  2  4  0  0  0
  2 28  4  0  0  0
 21  3  1  0  0  0
 20  4  4  0  0  0
  4 23  4  0  0  0
  4 28  4  0  0  0
 18  5  4  0  0  0
  5 29  4  0  0  0
  7  6  1  0  0  0
  8  7  4  0  0  0
  7 33  4  0  0  0
  9  8  4  0  0  0
 10  9  4  0  0  0
 11 10  1  0  0  0
 10 32  4  0  0  0
 12 11  1  0  0  0
 11 31  2  0  0  0
 13 12  2  0  0  0
 14 13  1  0  0  0
 15 14  1  0  0  0
 14 30  2  0  0  0
 16 15  1  0  0  0
 17 16  4  0  0  0
 29 16  4  0  0  0
 20 19  4  0  0  0
 20 21  1  0  0  0
 21 22  1  0  0  0
 23 24  4  0  0  0
 24 25  4  0  0  0
 25 26  4  0  0  0
 26 27  1  0  0  0
 26 28  4  0  0  0
 32 33  4  0  0  0
 33 34  1  0  0  0
 34 35  1  0  0  0
 34 36  1  0  0  0
 34 37  1  0  0  0
  1 38  1  0  0  0
  3 39  1  0  0  0
  3 40  1  0  0  0
  3 41  1  0  0  0
  5 42  1  0  0  0
  8 43  1  0  0  0
  9 44  1  0  0  0
 12 45  1  0  0  0
 13 46  1  0  0  0
 15 47  1  0  0  0
 17 48  1  0  0  0
 21 49  1  0  0  0
 22 50  1  0  0  0
 22 51  1  0  0  0
 22 52  1  0  0  0
 24 53  1  0  0  0
 27 54  1  0  0  0
 27 55  1  0  0  0
 29 56  1  0  0  0
 32 57  1  0  0  0
M  END
$$$$
