3bcs_ligand
  -I-interpret- 

 33 34  0  0  0  0  0  0  0  0999 V2000
   34.2110   23.6060   28.7830 N   0  0  0  0  0
   32.3890   24.2570   29.9950 O   0  0  0  0  0
   33.6170   24.2610   29.8630 C   0  0  0  0  0
   34.4340   24.9320   30.7800 N   0  0  0  0  0
   35.8250   24.9440   30.6240 C   0  0  0  0  0
   36.5020   25.5480   31.4480 O   0  0  0  0  0
   36.4300   24.2780   29.5560 C   0  0  0  0  0
   35.6150   23.6100   28.6380 C   0  0  0  0  0
   33.3260   22.9020   27.8180 C   0  0  0  0  0
   33.3120   21.4810   28.1060 O   0  0  0  0  0
   32.2360   20.8510   27.3610 C   0  0  0  0  0
   32.1660   19.3840   27.8020 C   0  0  0  0  0
   33.2990   18.6750   27.3010 O   0  0  0  0  0
   32.4090   21.0040   25.8270 C   0  0  0  0  0
   31.2510   20.4900   25.1550 O   0  0  0  0  0
   32.6490   22.4660   25.4170 C   0  0  0  0  0
   33.0940   22.5160   24.0620 O   0  0  0  0  0
   33.6990   23.1260   26.3350 C   0  0  0  0  0
   33.8330   24.5270   26.0520 O   0  0  0  0  0
   34.0111   25.4178   31.5709 H   0  0  0  0  0
   37.5139   24.2791   29.4409 H   0  0  0  0  0
   36.0700   23.0847   27.7983 H   0  0  0  0  0
   32.3348   23.3353   27.9520 H   0  0  0  0  0
   31.2913   21.3479   27.5816 H   0  0  0  0  0
   31.2551   18.9323   27.4092 H   0  0  0  0  0
   32.1619   19.3344   28.8909 H   0  0  0  0  0
   33.2500   17.7577   27.5799 H   0  0  0  0  0
   33.2903   20.4333   25.5341 H   0  0  0  0  0
   31.3634   20.5871   24.2066 H   0  0  0  0  0
   31.7116   23.0134   25.5155 H   0  0  0  0  0
   33.2430   23.4299   23.8088 H   0  0  0  0  0
   34.6633   22.6567   26.1401 H   0  0  0  0  0
   34.0644   24.6449   25.1278 H   0  0  0  0  0
  1  3  1  0  0  0
  1  8  1  0  0  0
  1  9  1  0  0  0
  3  2  2  0  0  0
  3  4  1  0  0  0
  4  5  1  0  0  0
  5  6  2  0  0  0
  5  7  1  0  0  0
  7  8  2  0  0  0
  9 10  1  0  0  0
  9 18  1  0  0  0
 10 11  1  0  0  0
 11 12  1  0  0  0
 11 14  1  0  0  0
 12 13  1  0  0  0
 14 15  1  0  0  0
 14 16  1  0  0  0
 16 17  1  0  0  0
 16 18  1  0  0  0
 18 19  1  0  0  0
  4 20  1  0  0  0
  7 21  1  0  0  0
  8 22  1  0  0  0
  9 23  1  0  0  0
 11 24  1  0  0  0
 12 25  1  0  0  0
 12 26  1  0  0  0
 13 27  1  0  0  0
 14 28  1  0  0  0
 15 29  1  0  0  0
 16 30  1  0  0  0
 17 31  1  0  0  0
 18 32  1  0  0  0
 19 33  1  0  0  0
M  END
$$$$
