3pd3_ligand
  -I-interpret- 

 48 50  0  0  0  0  0  0  0  0999 V2000
    7.9710    4.2830  -14.2220 C   0  0  0  0  0
    7.9690    2.1420  -13.0520 N   0  3  0  0  0
    9.1750    4.5880  -13.6710 O   0  0  0  0  0
   14.0130    7.1450  -16.8330 N   0  0  0  0  0
   13.3490    6.0040  -16.8930 C   0  0  0  0  0
   12.0760    5.9550  -17.2430 N   0  0  0  0  0
   11.4080    7.0770  -17.5480 C   0  0  0  0  0
   12.0710    8.2960  -17.4900 C   0  0  0  0  0
   13.4110    8.3070  -17.1240 C   0  0  0  0  0
   14.0880    9.4520  -17.0860 N   0  0  0  0  0
   11.1990    9.2420  -17.8240 N   0  0  0  0  0
   10.0370    8.6480  -18.0850 C   0  0  0  0  0
    7.4910    4.8310  -15.3360 N   0  0  0  0  0
   10.1590    7.3320  -17.9270 N   0  0  0  0  0
    7.1040    3.2320  -13.5260 C   0  0  0  0  0
    6.3590    3.8440  -12.3380 C   0  0  0  0  0
    5.3880    2.9000  -11.8760 O   0  0  0  0  0
    9.1040    6.3420  -18.2440 C   0  0  0  0  0
    9.0220    5.1860  -17.2450 C   0  0  0  0  0
    8.2680    4.1160  -17.8220 O   0  0  0  0  0
    8.2120    5.8380  -16.1280 C   0  0  0  0  0
    7.2070    6.6810  -16.9140 C   0  0  0  0  0
    7.8270    6.9990  -18.1730 O   0  0  0  0  0
    6.8910    7.9530  -16.1240 C   0  0  0  0  0
    8.1040    8.6350  -15.7950 O   0  0  0  0  0
    5.7070    5.1790  -12.7060 C   0  0  0  0  0
    8.4654    1.7344  -13.8444 H   0  0  0  0  0
    8.6425    2.5114  -12.3809 H   0  0  0  0  0
    7.3972    1.4266  -12.6030 H   0  0  0  0  0
   13.8664    5.0768  -16.6467 H   0  0  0  0  0
   15.0762    9.4520  -16.8334 H   0  0  0  0  0
   13.6187   10.3296  -17.3095 H   0  0  0  0  0
    9.1231    9.1618  -18.3832 H   0  0  0  0  0
    6.5698    4.5352  -15.6588 H   0  0  0  0  0
    6.3685    2.8517  -14.2349 H   0  0  0  0  0
    7.0693    4.0597  -11.5399 H   0  0  0  0  0
    4.9122    3.2714  -11.1295 H   0  0  0  0  0
    9.3505    5.9446  -19.2286 H   0  0  0  0  0
    9.9810    4.7708  -16.9353 H   0  0  0  0  0
    8.2154    3.3895  -17.1966 H   0  0  0  0  0
    8.8270    6.3973  -15.4230 H   0  0  0  0  0
    6.2702    6.1487  -17.0790 H   0  0  0  0  0
    6.3683    7.6855  -15.2057 H   0  0  0  0  0
    6.2640    8.6066  -16.7304 H   0  0  0  0  0
    7.8979    9.4313  -15.2999 H   0  0  0  0  0
    6.4762    5.8810  -13.0281 H   0  0  0  0  0
    4.9939    5.0227  -13.5155 H   0  0  0  0  0
    5.1882    5.5807  -11.8356 H   0  0  0  0  0
  1  3  2  0  0  0
 13  1  1  0  0  0
  1 15  1  0  0  0
 15  2  1  0  0  0
  5  4  4  0  0  0
  9  4  4  0  0  0
  6  5  4  0  0  0
  7  6  4  0  0  0
  7  8  4  0  0  0
 14  7  4  0  0  0
  8  9  4  0  0  0
 11  8  4  0  0  0
  9 10  1  0  0  0
 12 11  4  0  0  0
 14 12  4  0  0  0
 21 13  1  0  0  0
 18 14  1  0  0  0
 15 16  1  0  0  0
 16 17  1  0  0  0
 16 26  1  0  0  0
 19 18  1  0  0  0
 18 23  1  0  0  0
 19 20  1  0  0  0
 19 21  1  0  0  0
 21 22  1  0  0  0
 22 23  1  0  0  0
 22 24  1  0  0  0
 24 25  1  0  0  0
  2 27  1  0  0  0
  2 28  1  0  0  0
  2 29  1  0  0  0
  5 30  1  0  0  0
 10 31  1  0  0  0
 10 32  1  0  0  0
 12 33  1  0  0  0
 13 34  1  0  0  0
 15 35  1  0  0  0
 16 36  1  0  0  0
 17 37  1  0  0  0
 18 38  1  0  0  0
 19 39  1  0  0  0
 20 40  1  0  0  0
 21 41  1  0  0  0
 22 42  1  0  0  0
 24 43  1  0  0  0
 24 44  1  0  0  0
 25 45  1  0  0  0
 26 46  1  0  0  0
 26 47  1  0  0  0
 26 48  1  0  0  0
M  END
$$$$
