3sbh_ligand
  -I-interpret- 

 37 38  0  0  0  0  0  0  0  0999 V2000
   -1.3560    9.0120   11.4600 N   0  0  0  0  0
   -1.5440    7.8500   12.1120 C   0  0  0  0  0
   -1.4420    7.9540   13.4360 N   0  0  0  0  0
   -1.1900    9.0050   14.1490 C   0  0  0  0  0
   -1.0020   10.2410   13.5110 C   0  0  0  0  0
   -1.0940   10.1920   12.1250 C   0  0  0  0  0
   -1.8870    6.1790   11.4530 S   0  0  0  0  0
   -2.0450    5.1780   12.9480 C   0  0  0  0  0
   -3.5030    5.2490   13.3330 C   0  0  0  0  0
   -4.1950    6.0990   12.8090 O   0  0  0  0  0
   -1.1360    8.7320   15.5790 C   0  0  0  0  0
   -0.8980   11.4970   11.3900 C   0  0  0  0  0
   -4.1800    4.2360   14.2170 C   0  0  0  0  0
   -3.3950    3.1790   14.5780 C   0  0  0  0  0
   -3.9210    2.1820   15.4310 C   0  0  0  0  0
   -5.2530    2.2380   15.7830 C   0  0  0  0  0
   -6.0630    3.2960   15.3870 C   0  0  0  0  0
   -5.5460    4.3270   14.5820 C   0  0  0  0  0
   -5.9030    0.8760   16.7610 S   0  0  0  0  0
   -7.3790    0.8960   16.5530 O   0  0  0  0  0
   -5.3080    1.0000   18.0900 O   0  0  0  0  0
   -5.2190   -0.4730   16.0140 N   0  0  0  0  0
   -0.8006   11.1626   14.0571 H   0  0  0  0  0
   -1.4038    5.5511   13.7466 H   0  0  0  0  0
   -1.7289    4.1495   12.7737 H   0  0  0  0  0
   -2.0958    8.3337   15.9081 H   0  0  0  0  0
   -0.3508    8.0029   15.7790 H   0  0  0  0  0
   -0.9211    9.6558   16.1161 H   0  0  0  0  0
   -0.0509   11.4060   10.7102 H   0  0  0  0  0
   -1.7981   11.7311   10.8216 H   0  0  0  0  0
   -0.7041   12.2923   12.1097 H   0  0  0  0  0
   -2.3712    3.1045   14.2115 H   0  0  0  0  0
   -3.2832    1.3810   15.8048 H   0  0  0  0  0
   -7.1059    3.3268   15.7025 H   0  0  0  0  0
   -6.1687    5.1592   14.2535 H   0  0  0  0  0
   -5.8120   -1.1325   15.5102 H   0  0  0  0  0
   -4.2124   -0.6292   16.0661 H   0  0  0  0  0
  1  2  4  0  0  0
  1  6  4  0  0  0
  2  3  4  0  0  0
  2  7  1  0  0  0
  3  4  4  0  0  0
  4  5  4  0  0  0
  4 11  1  0  0  0
  5  6  4  0  0  0
  6 12  1  0  0  0
  7  8  1  0  0  0
  8  9  1  0  0  0
  9 10  2  0  0  0
  9 13  1  0  0  0
 13 14  4  0  0  0
 13 18  4  0  0  0
 14 15  4  0  0  0
 15 16  4  0  0  0
 16 17  4  0  0  0
 16 19  1  0  0  0
 17 18  4  0  0  0
 19 20  2  0  0  0
 19 21  2  0  0  0
 19 22  1  0  0  0
  5 23  1  0  0  0
  8 24  1  0  0  0
  8 25  1  0  0  0
 11 26  1  0  0  0
 11 27  1  0  0  0
 11 28  1  0  0  0
 12 29  1  0  0  0
 12 30  1  0  0  0
 12 31  1  0  0  0
 14 32  1  0  0  0
 15 33  1  0  0  0
 17 34  1  0  0  0
 18 35  1  0  0  0
 22 36  1  0  0  0
 22 37  1  0  0  0
M  END
$$$$
