5ncz_ligand
  -I-interpret- 

 61 64  0  0  0  0  0  0  0  0999 V2000
   -8.8400  -47.1890   25.1420 C   0  0  0  0  0
   -2.5950  -52.2880   24.9230 C   0  0  0  0  0
   -3.3100  -51.4600   24.0780 C   0  0  0  0  0
   -7.4370  -47.3360   25.3580 C   0  0  0  0  0
   -4.1520  -51.9940   23.1230 C   0  0  0  0  0
   -3.5690  -54.2000   23.8490 C   0  0  0  0  0
   -6.7360  -46.3240   25.9880 C   0  0  0  0  0
   -6.7370  -48.4690   24.9630 C   0  0  0  0  0
   -6.6860  -49.6010   21.5850 C   0  0  0  0  0
   -5.5140  -48.8520   18.1470 C   0  0  0  0  0
   -4.8740  -51.1160   22.2040 C   0  0  0  0  0
   -6.0230  -50.4750   22.5300 C   0  0  0  0  0
   -4.6730  -49.7100   18.7260 C   0  0  0  0  0
   -3.4790  -50.2610   18.0290 C   0  0  0  0  0
   -7.6710  -51.8130   23.7040 C   0  0  0  0  0
   -1.7310  -56.2340   22.3940 C   0  0  0  0  0
   -3.6690  -57.5230   22.1900 C   0  0  0  0  0
   -6.6930  -50.6560   23.8620 C   0  0  0  0  0
   -9.9770  -47.0180   24.9890 N   0  0  0  0  0
   -5.4190  -46.4070   26.2080 N   0  0  0  0  0
   -7.4070  -45.1810   26.4330 N   0  0  0  0  0
   -2.7270  -53.6580   24.8030 C   0  0  0  0  0
   -4.2790  -53.3670   23.0050 C   0  0  0  0  0
   -4.8260  -47.5200   25.7720 C   0  0  0  0  0
   -6.1480  -49.4160   20.3780 C   0  0  0  0  0
   -4.2900  -50.9150   20.8540 C   0  0  0  0  0
   -3.6790  -55.6890   23.7000 C   0  0  0  0  0
   -5.4130  -48.5580   25.1690 N   0  0  0  0  0
   -4.9920  -50.0590   20.0150 N   0  0  0  0  0
   -7.4560  -49.4910   24.3220 N   0  0  0  0  0
   -3.1850  -56.1660   22.4020 N   0  3  0  0  0
   -3.2470  -51.4930   20.5730 O   0  0  0  0  0
   -6.8110  -48.3920   19.1590 S   0  0  0  0  0
   -1.9327  -51.8636   25.6776 H   0  0  0  0  0
   -3.2084  -50.3783   24.1662 H   0  0  0  0  0
   -7.6148  -49.0994   21.8567 H   0  0  0  0  0
   -5.3865  -48.4814   17.1299 H   0  0  0  0  0
   -5.6329  -51.2622   22.9727 H   0  0  0  0  0
   -3.7978  -50.8055   17.1402 H   0  0  0  0  0
   -2.8198  -49.4430   17.7386 H   0  0  0  0  0
   -2.9480  -50.9367   18.6996 H   0  0  0  0  0
   -8.4002  -51.5678   22.9318 H   0  0  0  0  0
   -7.1251  -52.7120   23.4177 H   0  0  0  0  0
   -8.1851  -51.9843   24.6498 H   0  0  0  0  0
   -1.3951  -56.8952   23.1928 H   0  0  0  0  0
   -1.3919  -56.6214   21.4332 H   0  0  0  0  0
   -1.3210  -55.2362   22.5500 H   0  0  0  0  0
   -3.3029  -57.8924   21.2321 H   0  0  0  0  0
   -3.3061  -58.1662   22.9916 H   0  0  0  0  0
   -4.7590  -57.5225   22.1881 H   0  0  0  0  0
   -5.9105  -50.8256   24.6016 H   0  0  0  0  0
   -8.4136  -45.0936   26.2930 H   0  0  0  0  0
   -6.8900  -44.4346   26.8977 H   0  0  0  0  0
   -2.1638  -54.3161   25.4646 H   0  0  0  0  0
   -4.9381  -53.7909   22.2474 H   0  0  0  0  0
   -3.7489  -47.5899   25.9238 H   0  0  0  0  0
   -6.8325  -49.2467   21.2092 H   0  0  0  0  0
   -4.7330  -55.9562   23.7760 H   0  0  0  0  0
   -3.0716  -56.1494   24.4793 H   0  0  0  0  0
   -8.4643  -49.4259   24.1825 H   0  0  0  0  0
   -3.5100  -55.5224   21.6805 H   0  0  0  0  0
  4  1  1  0  0  0
  1 19  3  0  0  0
  2  3  4  0  0  0
 22  2  4  0  0  0
  5  3  4  0  0  0
  4  7  4  0  0  0
  8  4  4  0  0  0
  5 11  1  0  0  0
 23  5  4  0  0  0
  6 22  4  0  0  0
  6 23  4  0  0  0
 27  6  1  0  0  0
  7 20  4  0  0  0
  7 21  1  0  0  0
  8 28  4  0  0  0
 30  8  1  0  0  0
 12  9  2  0  0  0
  9 25  1  0  0  0
 13 10  2  0  0  0
 33 10  1  0  0  0
 11 12  1  0  0  0
 11 26  1  0  0  0
 12 18  1  0  0  0
 13 14  1  0  0  0
 29 13  1  0  0  0
 18 15  1  0  0  0
 31 16  1  0  0  0
 31 17  1  0  0  0
 18 30  1  0  0  0
 24 20  4  0  0  0
 28 24  4  0  0  0
 29 25  1  0  0  0
 25 33  1  0  0  0
 26 29  1  0  0  0
 26 32  2  0  0  0
 27 31  1  0  0  0
  2 34  1  0  0  0
  3 35  1  0  0  0
  9 36  1  0  0  0
 10 37  1  0  0  0
 11 38  1  0  0  0
 14 39  1  0  0  0
 14 40  1  0  0  0
 14 41  1  0  0  0
 15 42  1  0  0  0
 15 43  1  0  0  0
 15 44  1  0  0  0
 16 45  1  0  0  0
 16 46  1  0  0  0
 16 47  1  0  0  0
 17 48  1  0  0  0
 17 49  1  0  0  0
 17 50  1  0  0  0
 18 51  1  0  0  0
 21 52  1  0  0  0
 21 53  1  0  0  0
 22 54  1  0  0  0
 23 55  1  0  0  0
 24 56  1  0  0  0
 25 57  1  0  0  0
 27 58  1  0  0  0
 27 59  1  0  0  0
 30 60  1  0  0  0
 31 61  1  0  0  0
M  END
$$$$
