4f7n_ligand
  -I-interpret- 

 56 57  0  0  0  0  0  0  0  0999 V2000
   -4.8150  -22.3490  153.9230 O   0  0  0  0  0
   -3.7150  -22.7900  154.1390 C   0  0  0  0  0
   -3.0820  -23.5990  153.1940 N   0  0  0  0  0
   -3.6460  -23.9680  151.8790 C   0  0  0  0  0
   -5.0570  -24.5550  151.8500 C   0  0  0  0  0
   -5.2900  -25.1200  150.4380 C   0  0  0  0  0
   -6.7820  -25.1610  150.0830 C   0  0  0  0  0
   -6.9460  -25.1560  148.5650 C   0  0  0  0  0
   -8.1970  -25.7420  148.2460 O   0  0  0  0  0
   -3.0670  -22.5610  155.3550 N   0  0  0  0  0
   -3.5030  -21.7010  156.4100 C   0  0  0  0  0
   -2.6850  -21.0650  157.2770 N   0  0  0  0  0
   -3.3230  -20.3000  158.0310 N   0  0  0  0  0
   -4.6270  -20.3650  157.7310 C   0  0  0  0  0
   -5.7470  -19.6000  158.4470 C   0  0  0  0  0
   -6.5470  -20.6170  159.2890 C   0  0  0  0  0
   -6.6760  -18.9640  157.3810 C   0  0  0  0  0
   -5.1710  -18.5140  159.3940 C   0  0  0  0  0
   -4.7880  -21.2620  156.6870 C   0  0  0  0  0
   -1.2240  -21.1580  157.3810 C   0  0  0  0  0
   -0.4470  -21.0520  156.2280 C   0  0  0  0  0
    0.9380  -21.1160  156.2970 C   0  0  0  0  0
    1.5550  -21.2590  157.5240 C   0  0  0  0  0
    3.0580  -21.3180  157.5690 C   0  0  0  0  0
    0.7840  -21.3450  158.6870 C   0  0  0  0  0
   -0.6060  -21.2860  158.6180 C   0  0  0  0  0
   -2.1589  -23.9636  153.4293 H   0  0  0  0  0
   -2.9957  -24.7529  151.4928 H   0  0  0  0  0
   -3.7061  -23.0367  151.3159 H   0  0  0  0  0
   -5.7954  -23.7874  152.0814 H   0  0  0  0  0
   -5.1597  -25.3410  152.5982 H   0  0  0  0  0
   -4.9012  -26.1378  150.4066 H   0  0  0  0  0
   -4.7839  -24.4733  149.7213 H   0  0  0  0  0
   -7.2793  -24.2874  150.5045 H   0  0  0  0  0
   -7.2277  -26.0673  150.4930 H   0  0  0  0  0
   -6.1397  -25.7246  148.1017 H   0  0  0  0  0
   -6.9076  -24.1333  148.1899 H   0  0  0  0  0
   -8.3138  -25.7455  147.2931 H   0  0  0  0  0
   -2.1903  -23.0601  155.5060 H   0  0  0  0  0
   -6.9674  -21.3791  158.6329 H   0  0  0  0  0
   -5.8839  -21.0868  160.0154 H   0  0  0  0  0
   -7.3525  -20.1007  159.8111 H   0  0  0  0  0
   -6.0985  -18.2797  156.7594 H   0  0  0  0  0
   -7.1035  -19.7498  156.7581 H   0  0  0  0  0
   -7.4768  -18.4170  157.8786 H   0  0  0  0  0
   -4.5381  -18.9871  160.1448 H   0  0  0  0  0
   -4.5808  -17.8043  158.8144 H   0  0  0  0  0
   -5.9910  -17.9905  159.8857 H   0  0  0  0  0
   -5.7153  -21.5557  156.1951 H   0  0  0  0  0
   -0.9327  -20.9174  155.2615 H   0  0  0  0  0
    1.5353  -21.0537  155.3874 H   0  0  0  0  0
    3.4047  -22.1681  156.9814 H   0  0  0  0  0
    3.4690  -20.3970  157.1555 H   0  0  0  0  0
    3.3851  -21.4315  158.6026 H   0  0  0  0  0
    1.2737  -21.4590  159.6541 H   0  0  0  0  0
   -1.2039  -21.3399  159.5278 H   0  0  0  0  0
  1  2  2  0  0  0
  2  3  1  0  0  0
  2 10  1  0  0  0
  3  4  1  0  0  0
  4  5  1  0  0  0
  5  6  1  0  0  0
  6  7  1  0  0  0
  7  8  1  0  0  0
  8  9  1  0  0  0
 10 11  1  0  0  0
 11 12  4  0  0  0
 11 19  4  0  0  0
 12 13  4  0  0  0
 12 20  1  0  0  0
 13 14  4  0  0  0
 14 15  1  0  0  0
 14 19  4  0  0  0
 15 16  1  0  0  0
 15 17  1  0  0  0
 15 18  1  0  0  0
 20 21  4  0  0  0
 20 26  4  0  0  0
 21 22  4  0  0  0
 22 23  4  0  0  0
 23 24  1  0  0  0
 23 25  4  0  0  0
 25 26  4  0  0  0
  3 27  1  0  0  0
  4 28  1  0  0  0
  4 29  1  0  0  0
  5 30  1  0  0  0
  5 31  1  0  0  0
  6 32  1  0  0  0
  6 33  1  0  0  0
  7 34  1  0  0  0
  7 35  1  0  0  0
  8 36  1  0  0  0
  8 37  1  0  0  0
  9 38  1  0  0  0
 10 39  1  0  0  0
 16 40  1  0  0  0
 16 41  1  0  0  0
 16 42  1  0  0  0
 17 43  1  0  0  0
 17 44  1  0  0  0
 17 45  1  0  0  0
 18 46  1  0  0  0
 18 47  1  0  0  0
 18 48  1  0  0  0
 19 49  1  0  0  0
 21 50  1  0  0  0
 22 51  1  0  0  0
 24 52  1  0  0  0
 24 53  1  0  0  0
 24 54  1  0  0  0
 25 55  1  0  0  0
 26 56  1  0  0  0
M  END
$$$$
