### 
### Created by X-TOOL on Mon Sep 10 21:13:00 2018
### 

@<TRIPOS>MOLECULE
3ekq_ligand
   99   103     1     0     0
SMALL
GAST_HUCK


@<TRIPOS>ATOM
      1 C          21.3450    3.9920   20.3020 C.2       1 ROC         0.2293
      2 O          21.6770    4.9420   19.5970 O.2       1 ROC        -0.3762
      3 N1         20.0570    3.1850   22.3140 N.ar      1 ROC        -0.2737
      4 C2         20.4500    4.1940   21.5000 C.ar      1 ROC         0.1219
      5 C3         20.0220    5.4890   21.7750 C.ar      1 ROC        -0.0136
      6 C4         19.2030    5.7400   22.8710 C.ar      1 ROC        -0.0314
      7 C5         17.9960    4.9170   24.7930 C.ar      1 ROC        -0.0444
      8 C6         17.6140    3.8590   25.6120 C.ar      1 ROC        -0.0546
      9 C7         18.0610    2.5710   25.3290 C.ar      1 ROC        -0.0545
     10 C8         18.8750    2.3480   24.2190 C.ar      1 ROC        -0.0370
     11 C4A        18.8160    4.6870   23.6910 C.ar      1 ROC         0.0097
     12 C8A        19.2610    3.4030   23.3920 C.ar      1 ROC         0.0527
     13 N          21.8560    2.8410   19.8780 N.am      1 ROC        -0.2600
     14 CA         22.5650    1.8330   19.1290 C.3       1 ROC         0.1473
     15 C1         21.6380    0.7640   18.6380 C.2       1 ROC         0.2045
     16 O1         21.5990   -0.3060   19.2130 O.2       1 ROC        -0.3943
     17 CB         23.8390    1.4110   19.8600 C.3       1 ROC         0.0773
     18 CG         24.6760    2.6690   20.0300 C.2       1 ROC         0.1780
     19 OD1        25.0430    3.3120   19.0660 O.2       1 ROC        -0.3970
     20 ND2        24.9540    3.0520   21.2690 N.am      1 ROC        -0.3007
     21 C9         20.3360    0.0470   15.3800 C.3       1 ROC         0.0619
     22 O2         20.3890    1.1460   14.6110 O.3       1 ROC        -0.3914
     23 CA1        19.9940    0.2430   16.8330 C.3       1 ROC         0.0754
     24 N2         20.9320    1.1060   17.5390 N.am      1 ROC        -0.2775
     25 CB1        18.5430    0.7680   16.8850 C.3       1 ROC         0.0063
     26 CG1        18.0940    1.2920   18.2270 C.ar      1 ROC        -0.0408
     27 CD1        17.8760    0.4390   19.3050 C.ar      1 ROC        -0.0603
     28 CD2        17.8800    2.6600   18.3820 C.ar      1 ROC        -0.0603
     29 CE1        17.4450    0.9530   20.5280 C.ar      1 ROC        -0.0686
     30 CE2        17.4550    3.1770   19.6030 C.ar      1 ROC        -0.0686
     31 CZ         17.2350    2.3180   20.6770 C.ar      1 ROC        -0.0687
     32 N11        20.6040   -2.3240   15.0360 N.4       1 ROC         0.4179
     33 CM         19.9030   -1.1010   14.8020 C.3       1 ROC        -0.0804
     34 C21        19.7790   -3.5230   14.8150 C.3       1 ROC        -0.0052
     35 CC         18.5270   -3.5160   15.6430 C.2       1 ROC         0.1590
     36 O3         18.6080   -3.2180   16.8350 O.2       1 ROC        -0.3990
     37 C31        20.5800   -4.7800   15.1780 C.3       1 ROC        -0.0489
     38 C3A        21.8500   -4.8810   14.3390 C.3       1 ROC        -0.0396
     39 C41        22.6740   -6.1240   14.6870 C.3       1 ROC        -0.0499
     40 C51        23.3710   -6.0080   16.0410 C.3       1 ROC        -0.0528
     41 C61        24.2090   -4.7400   16.1360 C.3       1 ROC        -0.0529
     42 C71        23.3440   -3.5140   15.8490 C.3       1 ROC        -0.0518
     43 C7A        22.6850   -3.6130   14.4760 C.3       1 ROC        -0.0565
     44 C81        21.8390   -2.3810   14.2140 C.3       1 ROC        -0.1061
     45 N3         17.4290   -3.9050   14.9580 N.am      1 ROC        -0.2831
     46 CD         16.0670   -4.0650   15.4580 C.3       1 ROC         0.0446
     47 C11        15.2220   -4.6620   14.3330 C.3       1 ROC        -0.0396
     48 C22        16.0460   -4.9990   16.6710 C.3       1 ROC        -0.0396
     49 C32        15.4970   -2.6920   15.8130 C.3       1 ROC        -0.0396
     50 H          20.3299    6.3108   21.1285 H         1 ROC         0.0729
     51 H          18.8674    6.7547   23.0849 H         1 ROC         0.0774
     52 H          17.6529    5.9276   25.0143 H         1 ROC         0.0657
     53 H          16.9677    4.0377   26.4713 H         1 ROC         0.0652
     54 H          17.7754    1.7395   25.9733 H         1 ROC         0.0657
     55 H          19.2139    1.3366   23.9947 H         1 ROC         0.0653
     56 H          21.4688    2.2362   20.6023 H         1 ROC         0.1882
     57 H          22.9515    2.2390   18.1942 H         1 ROC         0.0826
     58 H          24.3819    0.6547   19.2931 H         1 ROC         0.0551
     59 H          23.6048    0.9645   20.8264 H         1 ROC         0.0551
     60 H          25.4884    3.9055   21.4312 H         1 ROC         0.1814
     61 H          24.6334    2.4930   22.0597 H         1 ROC         0.1814
     62 H          21.4021   -0.1685   15.4513 H         1 ROC         0.0597
     63 H          20.6143    0.8956   13.7120 H         1 ROC         0.2098
     64 H          20.0755   -0.7065   17.3620 H         1 ROC         0.0604
     65 H          21.0667    2.0481   17.1720 H         1 ROC         0.1857
     66 H          17.8968   -0.0772   16.6481 H         1 ROC         0.0449
     67 H          18.4891    1.6054   16.1893 H         1 ROC         0.0449
     68 H          18.0423   -0.6324   19.1933 H         1 ROC         0.0557
     69 H          18.0468    3.3316   17.5398 H         1 ROC         0.0557
     70 H          17.2725    0.2816   21.3692 H         1 ROC         0.0599
     71 H          17.2952    4.2491   19.7178 H         1 ROC         0.0599
     72 H          16.8982    2.7166   21.6340 H         1 ROC         0.0559
     73 H          20.0092   -0.9253   13.7315 H         1 ROC         0.0046
     74 H          18.9141   -1.2664   15.2295 H         1 ROC         0.0046
     75 H          19.5000   -3.5227   13.7613 H         1 ROC         0.0293
     76 H          19.9620   -5.6565   14.9834 H         1 ROC         0.0275
     77 H          20.8597   -4.7244   16.2300 H         1 ROC         0.0275
     78 H          21.5458   -4.9847   13.2975 H         1 ROC         0.0304
     79 H          23.4429   -6.2407   13.9233 H         1 ROC         0.0268
     80 H          21.9941   -6.9748   14.7320 H         1 ROC         0.0268
     81 H          24.0318   -6.8664   16.1618 H         1 ROC         0.0265
     82 H          22.6078   -5.9744   16.8185 H         1 ROC         0.0265
     83 H          25.0141   -4.7884   15.4029 H         1 ROC         0.0265
     84 H          24.6209   -4.6588   17.1419 H         1 ROC         0.0265
     85 H          23.9789   -2.6282   15.8672 H         1 ROC         0.0267
     86 H          22.5626   -3.4543   16.6066 H         1 ROC         0.0267
     87 H          23.4759   -3.6659   13.7279 H         1 ROC         0.0284
     88 H          22.4422   -1.5095   14.4686 H         1 ROC         0.0023
     89 H          21.5348   -2.4093   13.1677 H         1 ROC         0.0023
     90 H          17.5693   -4.1125   13.9692 H         1 ROC         0.1856
     91 H          15.2336   -3.9893   13.4754 H         1 ROC         0.0254
     92 H          15.6349   -5.6285   14.0439 H         1 ROC         0.0254
     93 H          14.1971   -4.7925   14.6802 H         1 ROC         0.0254
     94 H          16.4345   -5.9757   16.3826 H         1 ROC         0.0254
     95 H          16.6668   -4.5788   17.4623 H         1 ROC         0.0254
     96 H          15.0218   -5.1051   17.0286 H         1 ROC         0.0254
     97 H          16.1173   -2.2301   16.5811 H         1 ROC         0.0254
     98 H          15.4890   -2.0623   14.9234 H         1 ROC         0.0254
     99 H          14.4797   -2.8080   16.1868 H         1 ROC         0.0254
@<TRIPOS>BOND
     1    1    2 2  
     2    1    4 1  
     3   13    1 am 
     4    4    3 ar 
     5    3   12 ar 
     6    4    5 ar 
     7    5    6 ar 
     8    6   11 ar 
     9    7    8 ar 
    10   11    7 ar 
    11    9    8 ar 
    12   10    9 ar 
    13   12   10 ar 
    14   12   11 ar 
    15   14   13 1  
    16   15   14 1  
    17   14   17 1  
    18   15   16 2  
    19   24   15 am 
    20   17   18 1  
    21   18   19 2  
    22   18   20 am 
    23   21   22 1  
    24   23   21 1  
    25   21   33 1  
    26   23   24 1  
    27   23   25 1  
    28   25   26 1  
    29   26   27 ar 
    30   26   28 ar 
    31   27   29 ar 
    32   28   30 ar 
    33   29   31 ar 
    34   30   31 ar 
    35   33   32 1  
    36   32   34 1  
    37   32   44 1  
    38   34   35 1  
    39   34   37 1  
    40   35   36 2  
    41   35   45 am 
    42   37   38 1  
    43   38   39 1  
    44   38   43 1  
    45   39   40 1  
    46   40   41 1  
    47   41   42 1  
    48   42   43 1  
    49   43   44 1  
    50   45   46 1  
    51   46   47 1  
    52   46   48 1  
    53   46   49 1  
    54    5   50 1  
    55    6   51 1  
    56    7   52 1  
    57    8   53 1  
    58    9   54 1  
    59   10   55 1  
    60   13   56 1  
    61   14   57 1  
    62   17   58 1  
    63   17   59 1  
    64   20   60 1  
    65   20   61 1  
    66   21   62 1  
    67   22   63 1  
    68   23   64 1  
    69   24   65 1  
    70   25   66 1  
    71   25   67 1  
    72   27   68 1  
    73   28   69 1  
    74   29   70 1  
    75   30   71 1  
    76   31   72 1  
    77   33   73 1  
    78   33   74 1  
    79   34   75 1  
    80   37   76 1  
    81   37   77 1  
    82   38   78 1  
    83   39   79 1  
    84   39   80 1  
    85   40   81 1  
    86   40   82 1  
    87   41   83 1  
    88   41   84 1  
    89   42   85 1  
    90   42   86 1  
    91   43   87 1  
    92   44   88 1  
    93   44   89 1  
    94   45   90 1  
    95   47   91 1  
    96   47   92 1  
    97   47   93 1  
    98   48   94 1  
    99   48   95 1  
   100   48   96 1  
   101   49   97 1  
   102   49   98 1  
   103   49   99 1  
@<TRIPOS>SUBSTRUCTURE
     1 ROC         1

