3ekq_ligand
  -I-interpret- 

100104  0  0  0  0  0  0  0  0999 V2000
   21.3450    3.9920   20.3020 C   0  0  0  0  0
   21.6770    4.9420   19.5970 O   0  0  0  0  0
   20.0570    3.1850   22.3140 N   0  0  0  0  0
   20.4500    4.1940   21.5000 C   0  0  0  0  0
   20.0220    5.4890   21.7750 C   0  0  0  0  0
   19.2030    5.7400   22.8710 C   0  0  0  0  0
   17.9960    4.9170   24.7930 C   0  0  0  0  0
   17.6140    3.8590   25.6120 C   0  0  0  0  0
   18.0610    2.5710   25.3290 C   0  0  0  0  0
   18.8750    2.3480   24.2190 C   0  0  0  0  0
   18.8160    4.6870   23.6910 C   0  0  0  0  0
   19.2610    3.4030   23.3920 C   0  0  0  0  0
   21.8560    2.8410   19.8780 N   0  0  0  0  0
   22.5650    1.8330   19.1290 C   0  0  0  0  0
   21.6380    0.7640   18.6380 C   0  0  0  0  0
   21.5990   -0.3060   19.2130 O   0  0  0  0  0
   23.8390    1.4110   19.8600 C   0  0  0  0  0
   24.6760    2.6690   20.0300 C   0  0  0  0  0
   25.0430    3.3120   19.0660 O   0  0  0  0  0
   24.9540    3.0520   21.2690 N   0  0  0  0  0
   20.3360    0.0470   15.3800 C   0  0  0  0  0
   20.3890    1.1460   14.6110 O   0  0  0  0  0
   19.9940    0.2430   16.8330 C   0  0  0  0  0
   20.9320    1.1060   17.5390 N   0  0  0  0  0
   18.5430    0.7680   16.8850 C   0  0  0  0  0
   18.0940    1.2920   18.2270 C   0  0  0  0  0
   17.8760    0.4390   19.3050 C   0  0  0  0  0
   17.8800    2.6600   18.3820 C   0  0  0  0  0
   17.4450    0.9530   20.5280 C   0  0  0  0  0
   17.4550    3.1770   19.6030 C   0  0  0  0  0
   17.2350    2.3180   20.6770 C   0  0  0  0  0
   20.6040   -2.3240   15.0360 N   0  3  0  0  0
   19.9030   -1.1010   14.8020 C   0  0  0  0  0
   19.7790   -3.5230   14.8150 C   0  0  0  0  0
   18.5270   -3.5160   15.6430 C   0  0  0  0  0
   18.6080   -3.2180   16.8350 O   0  0  0  0  0
   20.5800   -4.7800   15.1780 C   0  0  0  0  0
   21.8500   -4.8810   14.3390 C   0  0  0  0  0
   22.6740   -6.1240   14.6870 C   0  0  0  0  0
   23.3710   -6.0080   16.0410 C   0  0  0  0  0
   24.2090   -4.7400   16.1360 C   0  0  0  0  0
   23.3440   -3.5140   15.8490 C   0  0  0  0  0
   22.6850   -3.6130   14.4760 C   0  0  0  0  0
   21.8390   -2.3810   14.2140 C   0  0  0  0  0
   17.4290   -3.9050   14.9580 N   0  0  0  0  0
   16.0670   -4.0650   15.4580 C   0  0  0  0  0
   15.2220   -4.6620   14.3330 C   0  0  0  0  0
   16.0460   -4.9990   16.6710 C   0  0  0  0  0
   15.4970   -2.6920   15.8130 C   0  0  0  0  0
   20.3299    6.3108   21.1285 H   0  0  0  0  0
   18.8674    6.7547   23.0849 H   0  0  0  0  0
   17.6529    5.9276   25.0143 H   0  0  0  0  0
   16.9677    4.0377   26.4713 H   0  0  0  0  0
   17.7754    1.7395   25.9733 H   0  0  0  0  0
   19.2139    1.3366   23.9947 H   0  0  0  0  0
   21.4688    2.2362   20.6023 H   0  0  0  0  0
   22.9515    2.2390   18.1942 H   0  0  0  0  0
   24.3819    0.6547   19.2931 H   0  0  0  0  0
   23.6048    0.9645   20.8264 H   0  0  0  0  0
   25.4884    3.9055   21.4312 H   0  0  0  0  0
   24.6334    2.4930   22.0597 H   0  0  0  0  0
   21.4021   -0.1685   15.4513 H   0  0  0  0  0
   20.6143    0.8956   13.7120 H   0  0  0  0  0
   20.0755   -0.7065   17.3620 H   0  0  0  0  0
   21.0667    2.0481   17.1720 H   0  0  0  0  0
   17.8968   -0.0772   16.6481 H   0  0  0  0  0
   18.4891    1.6054   16.1893 H   0  0  0  0  0
   18.0423   -0.6324   19.1933 H   0  0  0  0  0
   18.0468    3.3316   17.5398 H   0  0  0  0  0
   17.2725    0.2816   21.3692 H   0  0  0  0  0
   17.2952    4.2491   19.7178 H   0  0  0  0  0
   16.8982    2.7166   21.6340 H   0  0  0  0  0
   20.8538   -2.3274   16.0249 H   0  0  0  0  0
   20.0092   -0.9253   13.7315 H   0  0  0  0  0
   18.9141   -1.2664   15.2295 H   0  0  0  0  0
   19.5000   -3.5227   13.7613 H   0  0  0  0  0
   19.9620   -5.6565   14.9834 H   0  0  0  0  0
   20.8597   -4.7244   16.2300 H   0  0  0  0  0
   21.5458   -4.9847   13.2975 H   0  0  0  0  0
   23.4429   -6.2407   13.9233 H   0  0  0  0  0
   21.9941   -6.9748   14.7320 H   0  0  0  0  0
   24.0318   -6.8664   16.1618 H   0  0  0  0  0
   22.6078   -5.9744   16.8185 H   0  0  0  0  0
   25.0141   -4.7884   15.4029 H   0  0  0  0  0
   24.6209   -4.6588   17.1419 H   0  0  0  0  0
   23.9789   -2.6282   15.8672 H   0  0  0  0  0
   22.5626   -3.4543   16.6066 H   0  0  0  0  0
   23.4759   -3.6659   13.7279 H   0  0  0  0  0
   22.4422   -1.5095   14.4686 H   0  0  0  0  0
   21.5348   -2.4093   13.1677 H   0  0  0  0  0
   17.5693   -4.1125   13.9692 H   0  0  0  0  0
   15.2336   -3.9893   13.4754 H   0  0  0  0  0
   15.6349   -5.6285   14.0439 H   0  0  0  0  0
   14.1971   -4.7925   14.6802 H   0  0  0  0  0
   16.4345   -5.9757   16.3826 H   0  0  0  0  0
   16.6668   -4.5788   17.4623 H   0  0  0  0  0
   15.0218   -5.1051   17.0286 H   0  0  0  0  0
   16.1173   -2.2301   16.5811 H   0  0  0  0  0
   15.4890   -2.0623   14.9234 H   0  0  0  0  0
   14.4797   -2.8080   16.1868 H   0  0  0  0  0
  1  2  2  0  0  0
  1  4  1  0  0  0
 13  1  1  0  0  0
  4  3  4  0  0  0
  3 12  4  0  0  0
  4  5  4  0  0  0
  5  6  4  0  0  0
  6 11  4  0  0  0
  7  8  4  0  0  0
 11  7  4  0  0  0
  9  8  4  0  0  0
 10  9  4  0  0  0
 12 10  4  0  0  0
 12 11  4  0  0  0
 14 13  1  0  0  0
 15 14  1  0  0  0
 14 17  1  0  0  0
 15 16  2  0  0  0
 24 15  1  0  0  0
 17 18  1  0  0  0
 18 19  2  0  0  0
 18 20  1  0  0  0
 21 22  1  0  0  0
 23 21  1  0  0  0
 21 33  1  0  0  0
 23 24  1  0  0  0
 23 25  1  0  0  0
 25 26  1  0  0  0
 26 27  4  0  0  0
 26 28  4  0  0  0
 27 29  4  0  0  0
 28 30  4  0  0  0
 29 31  4  0  0  0
 30 31  4  0  0  0
 33 32  1  0  0  0
 32 34  1  0  0  0
 32 44  1  0  0  0
 34 35  1  0  0  0
 34 37  1  0  0  0
 35 36  2  0  0  0
 35 45  1  0  0  0
 37 38  1  0  0  0
 38 39  1  0  0  0
 38 43  1  0  0  0
 39 40  1  0  0  0
 40 41  1  0  0  0
 41 42  1  0  0  0
 42 43  1  0  0  0
 43 44  1  0  0  0
 45 46  1  0  0  0
 46 47  1  0  0  0
 46 48  1  0  0  0
 46 49  1  0  0  0
  5 50  1  0  0  0
  6 51  1  0  0  0
  7 52  1  0  0  0
  8 53  1  0  0  0
  9 54  1  0  0  0
 10 55  1  0  0  0
 13 56  1  0  0  0
 14 57  1  0  0  0
 17 58  1  0  0  0
 17 59  1  0  0  0
 20 60  1  0  0  0
 20 61  1  0  0  0
 21 62  1  0  0  0
 22 63  1  0  0  0
 23 64  1  0  0  0
 24 65  1  0  0  0
 25 66  1  0  0  0
 25 67  1  0  0  0
 27 68  1  0  0  0
 28 69  1  0  0  0
 29 70  1  0  0  0
 30 71  1  0  0  0
 31 72  1  0  0  0
 32 73  1  0  0  0
 33 74  1  0  0  0
 33 75  1  0  0  0
 34 76  1  0  0  0
 37 77  1  0  0  0
 37 78  1  0  0  0
 38 79  1  0  0  0
 39 80  1  0  0  0
 39 81  1  0  0  0
 40 82  1  0  0  0
 40 83  1  0  0  0
 41 84  1  0  0  0
 41 85  1  0  0  0
 42 86  1  0  0  0
 42 87  1  0  0  0
 43 88  1  0  0  0
 44 89  1  0  0  0
 44 90  1  0  0  0
 45 91  1  0  0  0
 47 92  1  0  0  0
 47 93  1  0  0  0
 47 94  1  0  0  0
 48 95  1  0  0  0
 48 96  1  0  0  0
 48 97  1  0  0  0
 49 98  1  0  0  0
 49 99  1  0  0  0
 49100  1  0  0  0
M  END
$$$$
