3wav_ligand
  -I-interpret- 

 40 42  0  0  0  0  0  0  0  0999 V2000
   15.8010   39.1020   18.4880 C   0  0  0  0  0
   17.2150   39.1240   18.9550 C   0  0  0  0  0
   18.1130   39.6140   17.9490 N   0  3  0  0  0
   19.3870   40.0910   18.3310 C   0  0  0  0  0
   18.0020   38.8380   16.7510 C   0  0  0  0  0
   16.6520   38.9990   16.1540 C   0  0  0  0  0
   15.6020   38.7970   17.0990 N   0  0  0  0  0
   14.3250   38.2520   16.7300 C   0  0  0  0  0
   13.6610   37.9520   15.1500 S   0  0  0  0  0
   13.3880   37.8250   17.6320 N   0  0  0  0  0
   12.2330   37.3050   17.0860 C   0  0  0  0  0
   11.1850   36.8230   17.8600 O   0  0  0  0  0
   12.1760   37.2820   15.6400 C   0  0  0  0  0
   10.9560   36.7350   14.8630 C   0  0  0  0  0
   11.0060   36.7020   13.3140 C   0  0  0  0  0
   11.3600   37.8760   12.5330 C   0  0  0  0  0
   11.3590   37.8060   11.2010 C   0  0  0  0  0
   11.8060   39.2210   10.3030 Cl  0  0  0  0  0
   10.9980   36.5940   10.5700 C   0  0  0  0  0
   10.9640   36.4110    8.8810 Cl  0  0  0  0  0
   10.6370   35.4560   11.3550 C   0  0  0  0  0
   10.6390   35.5280   12.6950 C   0  0  0  0  0
   15.4129   40.1093   18.6390 H   0  0  0  0  0
   15.3053   38.3101   19.0495 H   0  0  0  0  0
   17.5063   38.1026   19.1998 H   0  0  0  0  0
   17.2764   39.7893   19.8162 H   0  0  0  0  0
   17.7739   40.5480   17.7185 H   0  0  0  0  0
   20.0589   39.2465   18.4839 H   0  0  0  0  0
   19.7831   40.7346   17.5455 H   0  0  0  0  0
   19.2983   40.6586   19.2573 H   0  0  0  0  0
   18.1606   37.7870   16.9925 H   0  0  0  0  0
   18.7499   39.1800   16.0356 H   0  0  0  0  0
   16.5429   38.2510   15.3687 H   0  0  0  0  0
   16.5722   40.0194   15.7793 H   0  0  0  0  0
   10.4828   36.5088   17.2858 H   0  0  0  0  0
   10.1406   37.4172   15.1035 H   0  0  0  0  0
   10.8763   35.6904   15.1640 H   0  0  0  0  0
   11.6246   38.8078   13.0329 H   0  0  0  0  0
   10.3584   34.5243   10.8627 H   0  0  0  0  0
   10.3515   34.6615   13.2905 H   0  0  0  0  0
  1  2  1  0  0  0
  1  7  1  0  0  0
  2  3  1  0  0  0
  3  4  1  0  0  0
  3  5  1  0  0  0
  5  6  1  0  0  0
  6  7  1  0  0  0
  7  8  1  0  0  0
  8  9  4  0  0  0
  8 10  4  0  0  0
  9 13  4  0  0  0
 10 11  4  0  0  0
 11 12  1  0  0  0
 11 13  4  0  0  0
 13 14  1  0  0  0
 14 15  1  0  0  0
 15 16  4  0  0  0
 15 22  4  0  0  0
 16 17  4  0  0  0
 17 18  1  0  0  0
 17 19  4  0  0  0
 19 20  1  0  0  0
 19 21  4  0  0  0
 21 22  4  0  0  0
  1 23  1  0  0  0
  1 24  1  0  0  0
  2 25  1  0  0  0
  2 26  1  0  0  0
  3 27  1  0  0  0
  4 28  1  0  0  0
  4 29  1  0  0  0
  4 30  1  0  0  0
  5 31  1  0  0  0
  5 32  1  0  0  0
  6 33  1  0  0  0
  6 34  1  0  0  0
 12 35  1  0  0  0
 14 36  1  0  0  0
 14 37  1  0  0  0
 16 38  1  0  0  0
 21 39  1  0  0  0
 22 40  1  0  0  0
M  END
$$$$
