2vxn_ligand
  -I-interpret- 

 16 15  0  0  0  0  0  0  0  0999 V2000
   26.4380   -2.5700   11.3190 C   0  0  0  0  0
   26.2920   -2.4850    9.8050 C   0  0  0  0  0
   25.5710   -1.9750   12.0050 N   0  0  0  0  0
   25.5300   -2.1400   13.3190 O   0  0  0  0  0
   27.3860   -3.2570   11.7500 O   0  0  0  0  0
   27.6160   -2.2880    9.2480 O   0  0  0  0  0
   29.1510   -1.5580    7.4350 O   0  0  0  0  0
   27.3610   -3.3360    6.9070 O   0  0  0  0  0
   26.6860   -0.9240    7.3470 O   0  0  0  0  0
   27.6960   -2.0300    7.6410 P   0  0  0  0  0
   25.6373   -1.6575    9.5318 H   0  0  0  0  0
   25.8469   -3.3998    9.4137 H   0  0  0  0  0
   24.8953   -1.3620   11.5488 H   0  0  0  0  0
   24.8124   -1.6170   13.6838 H   0  0  0  0  0
   29.7515   -2.2812    7.6298 H   0  0  0  0  0
   28.0203   -4.0002    7.1209 H   0  0  0  0  0
  1  2  1  0  0  0
  1  3  1  0  0  0
  1  5  2  0  0  0
  2  6  1  0  0  0
  3  4  1  0  0  0
  6 10  1  0  0  0
 10  7  1  0  0  0
 10  8  1  0  0  0
 10  9  2  0  0  0
  2 11  1  0  0  0
  2 12  1  0  0  0
  3 13  1  0  0  0
  4 14  1  0  0  0
  7 15  1  0  0  0
  8 16  1  0  0  0
M  END
$$$$
