1oss_ligand
  -I-interpret- 

 17 17  0  0  0  0  0  0  0  0999 V2000
   44.8550  -22.9570   62.4190 C   0  0  0  0  0
   44.8680  -21.8170   63.2880 C   0  0  0  0  0
   43.6490  -21.2040   63.7150 C   0  0  0  0  0
   42.3960  -21.7230   63.2760 C   0  0  0  0  0
   42.3380  -22.8600   62.4030 C   0  0  0  0  0
   43.5830  -23.4710   61.9810 C   0  0  0  0  0
   46.1000  -23.6220   61.9680 C   0  0  0  0  0
   46.0620  -24.4620   60.9410 N   0  0  0  0  0
   47.2530  -23.3680   62.6390 N   0  0  0  0  0
   45.8210  -21.4117   63.6281 H   0  0  0  0  0
   43.6778  -20.3386   64.3771 H   0  0  0  0  0
   41.4713  -21.2505   63.6074 H   0  0  0  0  0
   41.3801  -23.2552   62.0649 H   0  0  0  0  0
   43.5559  -24.3366   61.3191 H   0  0  0  0  0
   46.9130  -24.9355   60.6376 H   0  0  0  0  0
   48.1189  -23.8275   62.3572 H   0  0  0  0  0
   47.2531  -22.7177   63.4248 H   0  0  0  0  0
  1  2  4  0  0  0
  1  6  4  0  0  0
  1  7  1  0  0  0
  2  3  4  0  0  0
  3  4  4  0  0  0
  4  5  4  0  0  0
  5  6  4  0  0  0
  7  8  2  0  0  0
  7  9  1  0  0  0
  2 10  1  0  0  0
  3 11  1  0  0  0
  4 12  1  0  0  0
  5 13  1  0  0  0
  6 14  1  0  0  0
  8 15  1  0  0  0
  9 16  1  0  0  0
  9 17  1  0  0  0
M  END
$$$$
