5dgj_ligand
  -I-interpret- 

 78 78  0  0  0  0  0  0  0  0999 V2000
   17.2770  -57.2450  140.4980 O   0  0  0  0  0
   16.5900  -56.5160  139.8540 C   0  0  0  0  0
   16.2640  -55.1990  140.2540 O   0  0  0  0  0
   16.6270  -54.7600  141.5610 C   0  0  0  0  0
   15.9100  -55.6000  142.6460 C   0  0  0  0  0
   18.1660  -54.8410  141.7290 C   0  0  0  0  0
   16.2000  -53.2740  141.6730 C   0  0  0  0  0
   17.5320  -56.3410  136.4060 O   0  0  0  0  0
   17.6300  -57.4470  136.8430 C   0  0  0  0  0
   14.2840  -54.1290  132.9170 N   0  0  0  0  0
   16.6380  -58.0230  137.8330 C   0  0  0  0  0
   15.5630  -58.7790  137.0480 C   0  0  0  0  0
   14.7240  -59.6820  137.9840 C   0  0  0  0  0
   16.0180  -56.9560  138.5750 N   0  0  0  0  0
   13.2810  -53.0700  132.7480 C   0  0  0  0  0
   19.4390  -56.2520  133.5510 N   0  0  0  0  0
   18.9000  -55.7820  132.2850 C   0  0  0  0  0
   18.0310  -54.5440  132.5410 C   0  0  0  0  0
   16.6770  -54.9400  133.1440 C   0  0  0  0  0
   15.6910  -53.7780  132.9570 C   0  0  0  0  0
   16.0500  -52.6430  132.8400 O   0  0  0  0  0
   20.0580  -55.4750  131.3480 C   0  0  0  0  0
   20.6860  -56.5880  130.9790 O   0  0  0  0  0
   18.7250  -58.3310  136.4410 N   0  0  0  0  0
   19.6740  -57.8110  135.4910 C   0  0  0  0  0
   18.9440  -57.4530  134.1970 C   0  0  0  0  0
   18.0560  -58.1030  133.7190 O   0  0  0  0  0
   20.7420  -58.8510  135.1140 C   0  0  0  0  0
   21.7480  -59.1920  136.2640 C   0  0  0  0  0
   22.4800  -57.9160  136.7110 C   0  0  0  0  0
   23.6330  -58.2330  137.6650 C   0  0  0  0  0
   24.6330  -59.2000  137.0270 C   0  0  0  0  0
   23.9600  -60.5080  136.5840 C   0  0  0  0  0
   22.7010  -60.2790  135.7240 C   0  0  0  0  0
   16.1787  -55.2223  143.6326 H   0  0  0  0  0
   14.8314  -55.5247  142.5081 H   0  0  0  0  0
   16.2169  -56.6422  142.5585 H   0  0  0  0  0
   18.6470  -54.2542  140.9464 H   0  0  0  0  0
   18.4450  -54.4448  142.7054 H   0  0  0  0  0
   18.4843  -55.8807  141.6529 H   0  0  0  0  0
   16.4900  -52.8866  142.6497 H   0  0  0  0  0
   16.6920  -52.6960  140.8908 H   0  0  0  0  0
   15.1188  -53.1982  141.5570 H   0  0  0  0  0
   13.9940  -55.1029  133.0055 H   0  0  0  0  0
   17.1476  -58.6916  138.5268 H   0  0  0  0  0
   16.0511  -59.4065  136.3023 H   0  0  0  0  0
   14.9003  -58.0539  136.5756 H   0  0  0  0  0
   15.3776  -60.4068  138.4694 H   0  0  0  0  0
   14.2371  -59.0663  138.7403 H   0  0  0  0  0
   13.9684  -60.2067  137.3992 H   0  0  0  0  0
   15.1789  -56.5044  138.2111 H   0  0  0  0  0
   13.3593  -52.3622  133.5732 H   0  0  0  0  0
   13.4569  -52.5519  131.8053 H   0  0  0  0  0
   12.2849  -53.5126  132.7405 H   0  0  0  0  0
   20.1870  -55.7218  133.9980 H   0  0  0  0  0
   18.2733  -56.5417  131.8180 H   0  0  0  0  0
   17.8569  -54.0360  131.5925 H   0  0  0  0  0
   18.5496  -53.8911  133.2430 H   0  0  0  0  0
   16.7953  -55.1559  134.2058 H   0  0  0  0  0
   16.2967  -55.8304  132.6433 H   0  0  0  0  0
   20.7669  -54.8321  131.8698 H   0  0  0  0  0
   19.6644  -54.9858  130.4570 H   0  0  0  0  0
   21.4102  -56.3650  130.3896 H   0  0  0  0  0
   18.8122  -59.2749  136.8176 H   0  0  0  0  0
   20.1495  -56.9473  135.9557 H   0  0  0  0  0
   21.3241  -58.4288  134.2949 H   0  0  0  0  0
   20.2165  -59.7730  134.8652 H   0  0  0  0  0
   21.2439  -59.5757  137.1510 H   0  0  0  0  0
   21.7684  -57.2753  137.2318 H   0  0  0  0  0
   22.8890  -57.4262  135.8273 H   0  0  0  0  0
   23.2235  -58.6988  138.5614 H   0  0  0  0  0
   24.1518  -57.3044  137.9028 H   0  0  0  0  0
   25.3959  -59.4412  137.7672 H   0  0  0  0  0
   25.0599  -58.7195  136.1467 H   0  0  0  0  0
   23.6545  -61.0442  137.4825 H   0  0  0  0  0
   24.6781  -61.0618  135.9792 H   0  0  0  0  0
   23.0404  -59.9476  134.7426 H   0  0  0  0  0
   22.1447  -61.2163  135.7160 H   0  0  0  0  0
  2  1  2  0  0  0
  2  3  1  0  0  0
 14  2  1  0  0  0
  3  4  1  0  0  0
  4  5  1  0  0  0
  4  6  1  0  0  0
  4  7  1  0  0  0
  9  8  2  0  0  0
  9 11  1  0  0  0
 24  9  1  0  0  0
 10 15  1  0  0  0
 20 10  1  0  0  0
 11 12  1  0  0  0
 11 14  1  0  0  0
 12 13  1  0  0  0
 16 17  1  0  0  0
 26 16  1  0  0  0
 17 18  1  0  0  0
 17 22  1  0  0  0
 18 19  1  0  0  0
 19 20  1  0  0  0
 20 21  2  0  0  0
 22 23  1  0  0  0
 25 24  1  0  0  0
 25 26  1  0  0  0
 25 28  1  0  0  0
 26 27  2  0  0  0
 28 29  1  0  0  0
 29 30  1  0  0  0
 29 34  1  0  0  0
 30 31  1  0  0  0
 31 32  1  0  0  0
 32 33  1  0  0  0
 33 34  1  0  0  0
  5 35  1  0  0  0
  5 36  1  0  0  0
  5 37  1  0  0  0
  6 38  1  0  0  0
  6 39  1  0  0  0
  6 40  1  0  0  0
  7 41  1  0  0  0
  7 42  1  0  0  0
  7 43  1  0  0  0
 10 44  1  0  0  0
 11 45  1  0  0  0
 12 46  1  0  0  0
 12 47  1  0  0  0
 13 48  1  0  0  0
 13 49  1  0  0  0
 13 50  1  0  0  0
 14 51  1  0  0  0
 15 52  1  0  0  0
 15 53  1  0  0  0
 15 54  1  0  0  0
 16 55  1  0  0  0
 17 56  1  0  0  0
 18 57  1  0  0  0
 18 58  1  0  0  0
 19 59  1  0  0  0
 19 60  1  0  0  0
 22 61  1  0  0  0
 22 62  1  0  0  0
 23 63  1  0  0  0
 24 64  1  0  0  0
 25 65  1  0  0  0
 28 66  1  0  0  0
 28 67  1  0  0  0
 29 68  1  0  0  0
 30 69  1  0  0  0
 30 70  1  0  0  0
 31 71  1  0  0  0
 31 72  1  0  0  0
 32 73  1  0  0  0
 32 74  1  0  0  0
 33 75  1  0  0  0
 33 76  1  0  0  0
 34 77  1  0  0  0
 34 78  1  0  0  0
M  END
$$$$
