5k4i_ligand
  -I-interpret- 

 51 54  0  0  0  0  0  0  0  0999 V2000
   17.6420   -2.2150   17.0700 C   0  0  0  0  0
   18.0750   -3.0200   18.1320 C   0  0  0  0  0
   17.5800   -1.1110   14.1700 C   0  0  0  0  0
   16.8060    0.1510   12.3970 C   0  0  0  0  0
   13.9350   -2.5460   15.2120 C   0  0  0  0  0
   12.8040   -1.2000   13.5390 C   0  0  0  0  0
   10.2960   -2.9480   15.6710 C   0  0  0  0  0
    8.8090   -4.5030   14.4260 C   0  0  0  0  0
    9.2940   -6.8380   14.2950 C   0  0  0  0  0
   20.9110   -3.2420   15.9000 C   0  0  0  0  0
   19.6480   -2.9730   16.5990 N   0  0  0  0  0
   18.6320   -2.2060   16.1320 C   0  0  0  0  0
   19.2800   -3.4680   17.8540 N   0  0  0  0  0
   18.6680   -1.5320   14.9150 N   0  0  0  0  0
   17.8000   -0.2770   13.1600 N   0  0  0  0  0
   15.5110   -0.2870   12.6460 C   0  0  0  0  0
   15.3210   -1.1850   13.7000 C   0  0  0  0  0
   16.3700   -1.5450   14.4420 N   0  0  0  0  0
   13.9840   -1.6500   14.1300 C   0  0  0  0  0
   12.7280   -2.9510   15.6660 C   0  0  0  0  0
   11.5710   -2.5050   15.1020 N   0  0  0  0  0
   11.5700   -1.6550   14.0540 C   0  0  0  0  0
   10.5130   -1.2630   13.5620 O   0  0  0  0  0
   10.4620   -2.9440   17.1900 C   0  0  0  0  0
    9.1620   -3.0400   17.7720 O   0  0  0  0  0
    9.9420   -4.3270   15.1920 C   0  0  0  0  0
    8.4800   -5.7680   13.9790 C   0  0  0  0  0
   10.4250   -6.6640   15.0610 C   0  0  0  0  0
   10.7460   -5.4040   15.5120 C   0  0  0  0  0
   11.2070   -7.7190   15.3680 F   0  0  0  0  0
    8.8850   -8.4200   13.7460 Cl  0  0  0  0  0
   16.6881   -1.6916   17.0053 H   0  0  0  0  0
   17.5081   -3.2384   19.0370 H   0  0  0  0  0
   17.0025    0.8431   11.5781 H   0  0  0  0  0
   14.8528   -2.9073   15.6760 H   0  0  0  0  0
   12.8391   -1.5747   12.5160 H   0  0  0  0  0
   12.7987   -0.1223   13.7025 H   0  0  0  0  0
    9.4900   -2.2834   15.3601 H   0  0  0  0  0
    8.1778   -3.6505   14.1751 H   0  0  0  0  0
   20.7015   -3.7341   14.9502 H   0  0  0  0  0
   21.4307   -2.3016   15.7165 H   0  0  0  0  0
   21.5351   -3.8893   16.5162 H   0  0  0  0  0
   19.5912   -1.3271   14.5326 H   0  0  0  0  0
   14.6727    0.0577   12.0405 H   0  0  0  0  0
   12.6885   -2.5631   16.6839 H   0  0  0  0  0
   12.7199   -4.0224   15.4655 H   0  0  0  0  0
   10.9547   -2.0273   17.5141 H   0  0  0  0  0
   11.0803   -3.7845   17.5050 H   0  0  0  0  0
    9.2401   -3.0394   18.7288 H   0  0  0  0  0
    7.5824   -5.9209   13.3798 H   0  0  0  0  0
   11.6364   -5.2555   16.1229 H   0  0  0  0  0
  1  2  4  0  0  0
 12  1  4  0  0  0
 13  2  4  0  0  0
  3 14  1  0  0  0
  3 15  4  0  0  0
 18  3  4  0  0  0
  4 15  4  0  0  0
 16  4  4  0  0  0
  5 19  2  0  0  0
 20  5  1  0  0  0
 19  6  1  0  0  0
  6 22  1  0  0  0
 21  7  1  0  0  0
  7 24  1  0  0  0
  7 26  1  0  0  0
 26  8  4  0  0  0
  8 27  4  0  0  0
 27  9  4  0  0  0
  9 28  4  0  0  0
  9 31  1  0  0  0
 11 10  1  0  0  0
 12 11  4  0  0  0
 11 13  4  0  0  0
 14 12  1  0  0  0
 17 16  4  0  0  0
 17 18  4  0  0  0
 19 17  1  0  0  0
 20 21  1  0  0  0
 21 22  1  0  0  0
 22 23  2  0  0  0
 24 25  1  0  0  0
 26 29  4  0  0  0
 28 29  4  0  0  0
 28 30  1  0  0  0
  1 32  1  0  0  0
  2 33  1  0  0  0
  4 34  1  0  0  0
  5 35  1  0  0  0
  6 36  1  0  0  0
  6 37  1  0  0  0
  7 38  1  0  0  0
  8 39  1  0  0  0
 10 40  1  0  0  0
 10 41  1  0  0  0
 10 42  1  0  0  0
 14 43  1  0  0  0
 16 44  1  0  0  0
 20 45  1  0  0  0
 20 46  1  0  0  0
 24 47  1  0  0  0
 24 48  1  0  0  0
 25 49  1  0  0  0
 27 50  1  0  0  0
 29 51  1  0  0  0
M  END
$$$$
