3l4z_ligand
  -I-interpret- 

 39 39  0  0  0  0  0  0  0  0999 V2000
   45.5930   94.3270   35.6510 C   0  0  0  0  0
   46.4390   93.6620   34.5700 C   0  0  0  0  0
   45.4420   93.4090   33.4200 C   0  0  0  0  0
   44.4620   93.3080   35.9670 C   0  0  0  0  0
   43.9910   92.7450   34.3170 S   0  0  0  0  0
   47.4560   94.6280   34.1970 O   0  0  0  0  0
   46.4190   94.5190   36.7990 O   0  0  0  0  0
   43.3230   93.9460   36.7850 C   0  0  0  0  0
   42.8480   95.1280   36.1600 O   0  0  0  0  0
   44.3280   90.9610   34.4780 C   0  0  0  0  0
   43.7480   90.0630   33.3930 C   0  0  0  0  0
   44.0570   88.5990   33.7370 C   0  0  0  0  0
   43.5760   87.6740   32.6200 C   0  0  0  0  0
   42.2760   88.1380   32.2820 O   0  0  0  0  0
   44.3130   90.3770   32.1290 O   0  0  0  0  0
   43.3690   88.2440   34.9500 O   0  0  0  0  0
   44.0760   87.6120   36.0520 S   0  0  0  0  0
   45.0180   88.5450   36.7410 O   0  0  0  0  0
   43.0620   87.1850   37.0990 O   0  0  0  0  0
   44.8470   86.4340   35.5370 O   0  0  0  0  0
   45.1839   95.2914   35.3498 H   0  0  0  0  0
   46.9335   92.7350   34.8603 H   0  0  0  0  0
   45.8253   92.7322   32.6564 H   0  0  0  0  0
   45.2184   94.3025   32.8371 H   0  0  0  0  0
   44.7605   92.4787   36.6083 H   0  0  0  0  0
   48.0564   94.7598   34.9344 H   0  0  0  0  0
   47.1124   95.1495   36.5911 H   0  0  0  0  0
   43.7037   94.2021   37.7737 H   0  0  0  0  0
   42.5013   93.2333   36.8552 H   0  0  0  0  0
   42.1406   95.5056   36.6878 H   0  0  0  0  0
   43.8620   90.6475   35.4122 H   0  0  0  0  0
   45.4106   90.8502   34.4166 H   0  0  0  0  0
   42.6706   90.2200   33.3424 H   0  0  0  0  0
   45.1346   88.4890   33.8586 H   0  0  0  0  0
   43.5592   86.6325   32.9412 H   0  0  0  0  0
   44.2468   87.6997   31.7613 H   0  0  0  0  0
   41.9156   87.5928   31.5788 H   0  0  0  0  0
   43.9358   89.8017   31.4594 H   0  0  0  0  0
   42.4301   86.5805   36.7030 H   0  0  0  0  0
  1  2  1  0  0  0
  1  4  1  0  0  0
  1  7  1  0  0  0
  2  3  1  0  0  0
  2  6  1  0  0  0
  3  5  1  0  0  0
  4  5  1  0  0  0
  4  8  1  0  0  0
  5 10  1  0  0  0
  8  9  1  0  0  0
 10 11  1  0  0  0
 11 12  1  0  0  0
 11 15  1  0  0  0
 12 13  1  0  0  0
 12 16  1  0  0  0
 13 14  1  0  0  0
 16 17  1  0  0  0
 17 18  2  0  0  0
 17 19  1  0  0  0
 17 20  2  0  0  0
  1 21  1  0  0  0
  2 22  1  0  0  0
  3 23  1  0  0  0
  3 24  1  0  0  0
  4 25  1  0  0  0
  6 26  1  0  0  0
  7 27  1  0  0  0
  8 28  1  0  0  0
  8 29  1  0  0  0
  9 30  1  0  0  0
 10 31  1  0  0  0
 10 32  1  0  0  0
 11 33  1  0  0  0
 12 34  1  0  0  0
 13 35  1  0  0  0
 13 36  1  0  0  0
 14 37  1  0  0  0
 15 38  1  0  0  0
 19 39  1  0  0  0
M  END
$$$$
