4pli_ligand
  -I-interpret- 

 35 34  0  0  0  0  0  0  0  0999 V2000
   -1.7300    7.6350  -16.9510 N   0  3  0  0  0
   -0.9720    6.9730  -15.9060 C   0  0  0  0  0
    0.4870    6.8230  -16.3300 C   0  0  0  0  0
    0.6620    5.6060  -17.2320 C   0  0  0  0  0
    2.0660    5.0160  -17.1260 C   0  0  0  0  0
    3.0690    5.8210  -17.9430 C   0  0  0  0  0
    4.3270    5.0700  -18.0920 N   0  3  0  0  0
   -1.0510    7.7700  -14.6380 C   0  0  0  0  0
   -1.3790    7.1760  -13.5880 O   0  0  0  0  0
    4.1020    3.8350  -18.8510 C   0  0  0  0  0
    4.8750    4.7480  -16.7710 C   0  0  0  0  0
    5.2940    5.8780  -18.8310 C   0  0  0  0  0
   -0.7850    8.9900  -14.6910 O   0  0  0  0  0
   -1.6720    7.0880  -17.8100 H   0  0  0  0  0
   -2.7052    7.7156  -16.6630 H   0  0  0  0  0
   -1.3438    8.5652  -17.1122 H   0  0  0  0  0
   -1.3955    5.9831  -15.7362 H   0  0  0  0  0
    1.1019    6.6936  -15.4393 H   0  0  0  0  0
    0.7887    7.7153  -16.8786 H   0  0  0  0  0
    0.4998    5.9189  -18.2634 H   0  0  0  0  0
   -0.0531    4.8444  -16.9210 H   0  0  0  0  0
    2.0436    3.9967  -17.5114 H   0  0  0  0  0
    2.3733    5.0382  -16.0804 H   0  0  0  0  0
    3.2740    6.7603  -17.4294 H   0  0  0  0  0
    2.6504    6.0135  -18.9308 H   0  0  0  0  0
   -1.5358    6.2489  -13.7818 H   0  0  0  0  0
    5.0478    3.3067  -18.9714 H   0  0  0  0  0
    3.3969    3.2022  -18.3121 H   0  0  0  0  0
    3.6948    4.0817  -19.8315 H   0  0  0  0  0
    4.1703    4.1156  -16.2310 H   0  0  0  0  0
    5.8211    4.2201  -16.8904 H   0  0  0  0  0
    5.0396    5.6697  -16.2128 H   0  0  0  0  0
    6.2258    5.3222  -18.9351 H   0  0  0  0  0
    4.8942    6.1078  -19.8187 H   0  0  0  0  0
    5.4810    6.8048  -18.2887 H   0  0  0  0  0
  1  2  1  0  0  0
  2  3  1  0  0  0
  2  8  1  0  0  0
  3  4  1  0  0  0
  4  5  1  0  0  0
  5  6  1  0  0  0
  6  7  1  0  0  0
  7 10  1  0  0  0
  7 11  1  0  0  0
  7 12  1  0  0  0
  8  9  1  0  0  0
  8 13  2  0  0  0
  1 14  1  0  0  0
  1 15  1  0  0  0
  1 16  1  0  0  0
  2 17  1  0  0  0
  3 18  1  0  0  0
  3 19  1  0  0  0
  4 20  1  0  0  0
  4 21  1  0  0  0
  5 22  1  0  0  0
  5 23  1  0  0  0
  6 24  1  0  0  0
  6 25  1  0  0  0
  9 26  1  0  0  0
 10 27  1  0  0  0
 10 28  1  0  0  0
 10 29  1  0  0  0
 11 30  1  0  0  0
 11 31  1  0  0  0
 11 32  1  0  0  0
 12 33  1  0  0  0
 12 34  1  0  0  0
 12 35  1  0  0  0
M  END
$$$$
