1pmn_ligand
  -I-interpret- 

 64 68  0  0  0  0  0  0  0  0999 V2000
   22.9290   10.6810   31.0540 N   0  0  0  0  0
   23.0120   12.0320   30.9590 C   0  0  0  0  0
   22.0990   12.6890   31.7610 N   0  0  0  0  0
   21.2860   11.7150   32.5060 C   0  0  0  0  0
   21.8180   10.3910   32.0700 C   0  0  0  0  0
   23.8100    9.7730   30.2840 C   0  0  0  0  0
   25.0520    9.3460   31.0580 C   0  0  0  0  0
   26.2730    9.1030   30.1750 C   0  0  0  0  0
   23.7550   12.8320   30.2590 C   0  0  0  0  0
   22.9930   13.7550   29.2460 C   0  0  0  0  0
   23.9490   14.6900   28.4210 C   0  0  0  0  0
   24.8670   15.4780   29.3040 N   0  3  0  0  0
   25.6460   14.6180   30.2170 C   0  0  0  0  0
   24.7420   13.6940   31.1040 C   0  0  0  0  0
   25.7710   16.3300   28.4900 C   0  0  0  0  0
   20.2330   12.1130   33.4840 C   0  0  0  0  0
   21.4780    8.9140   32.2260 C   0  0  0  0  0
   20.1490   11.4870   34.7500 C   0  0  0  0  0
   19.1640   11.8230   35.6780 C   0  0  0  0  0
   18.1870   12.8000   35.3520 C   0  0  0  0  0
   18.2510   13.4610   34.0840 C   0  0  0  0  0
   19.2830   13.1020   33.1400 C   0  0  0  0  0
   19.2050   10.9730   37.1650 Cl  0  0  0  0  0
   16.9170   13.2460   36.4370 Cl  0  0  0  0  0
   20.2400    8.5980   32.8480 C   0  0  0  0  0
   19.9620    7.2220   33.0170 C   0  0  0  0  0
   20.8310    6.2650   32.6340 N   0  0  0  0  0
   21.9780    6.6790   32.0780 C   0  0  0  0  0
   22.3180    7.9500   31.8670 N   0  0  0  0  0
   22.9070    5.7760   31.6830 N   0  0  0  0  0
   23.0400    5.3650   30.3010 C   0  0  0  0  0
   24.3720    4.7200   30.6710 C   0  0  0  0  0
   24.2570    5.7910   29.6330 C   0  0  0  0  0
   24.1419   10.3090   29.3948 H   0  0  0  0  0
   23.2384    8.8741   30.0531 H   0  0  0  0  0
   24.8178    8.4051   31.5559 H   0  0  0  0  0
   25.3022   10.1552   31.7441 H   0  0  0  0  0
   26.0497    8.3131   29.4578 H   0  0  0  0  0
   26.5222   10.0202   29.6414 H   0  0  0  0  0
   27.1159    8.8028   30.7974 H   0  0  0  0  0
   24.3324   12.1207   29.6684 H   0  0  0  0  0
   22.3219   14.3932   29.8209 H   0  0  0  0  0
   22.4712   13.1098   28.5393 H   0  0  0  0  0
   23.3345   15.3918   27.8571 H   0  0  0  0  0
   24.5586   14.0634   27.7700 H   0  0  0  0  0
   24.2809   16.0770   29.8855 H   0  0  0  0  0
   26.2134   15.2677   30.8834 H   0  0  0  0  0
   26.2822   13.9759   29.6079 H   0  0  0  0  0
   25.3937   13.0154   31.6544 H   0  0  0  0  0
   24.1518   14.3328   31.7610 H   0  0  0  0  0
   26.3683   15.6988   27.8321 H   0  0  0  0  0
   25.1764   17.0204   27.8918 H   0  0  0  0  0
   26.4294   16.8939   29.1508 H   0  0  0  0  0
   20.8771   10.7180   35.0080 H   0  0  0  0  0
   17.5234   14.2325   33.8319 H   0  0  0  0  0
   19.3294   13.5911   32.1670 H   0  0  0  0  0
   19.5452    9.3713   33.1757 H   0  0  0  0  0
   19.0162    6.9259   33.4708 H   0  0  0  0  0
   23.5324    5.3730   32.3808 H   0  0  0  0  0
   22.0516    5.2708   29.8512 H   0  0  0  0  0
   24.8154    3.7344   30.8131 H   0  0  0  0  0
   24.9642    4.4643   31.5497 H   0  0  0  0  0
   24.7519    6.7339   29.4006 H   0  0  0  0  0
   24.5917    5.9482   28.6077 H   0  0  0  0  0
  1  2  4  0  0  0
  1  5  4  0  0  0
  1  6  1  0  0  0
  2  3  4  0  0  0
  2  9  1  0  0  0
  3  4  4  0  0  0
  4  5  4  0  0  0
  4 16  1  0  0  0
  5 17  1  0  0  0
  6  7  1  0  0  0
  7  8  1  0  0  0
  9 10  1  0  0  0
  9 14  1  0  0  0
 10 11  1  0  0  0
 11 12  1  0  0  0
 12 13  1  0  0  0
 12 15  1  0  0  0
 13 14  1  0  0  0
 16 18  4  0  0  0
 16 22  4  0  0  0
 17 25  4  0  0  0
 17 29  4  0  0  0
 18 19  4  0  0  0
 19 20  4  0  0  0
 19 23  1  0  0  0
 20 21  4  0  0  0
 20 24  1  0  0  0
 21 22  4  0  0  0
 25 26  4  0  0  0
 26 27  4  0  0  0
 27 28  4  0  0  0
 28 29  4  0  0  0
 28 30  1  0  0  0
 30 31  1  0  0  0
 31 32  1  0  0  0
 31 33  1  0  0  0
 32 33  1  0  0  0
  6 34  1  0  0  0
  6 35  1  0  0  0
  7 36  1  0  0  0
  7 37  1  0  0  0
  8 38  1  0  0  0
  8 39  1  0  0  0
  8 40  1  0  0  0
  9 41  1  0  0  0
 10 42  1  0  0  0
 10 43  1  0  0  0
 11 44  1  0  0  0
 11 45  1  0  0  0
 12 46  1  0  0  0
 13 47  1  0  0  0
 13 48  1  0  0  0
 14 49  1  0  0  0
 14 50  1  0  0  0
 15 51  1  0  0  0
 15 52  1  0  0  0
 15 53  1  0  0  0
 18 54  1  0  0  0
 21 55  1  0  0  0
 22 56  1  0  0  0
 25 57  1  0  0  0
 26 58  1  0  0  0
 30 59  1  0  0  0
 31 60  1  0  0  0
 32 61  1  0  0  0
 32 62  1  0  0  0
 33 63  1  0  0  0
 33 64  1  0  0  0
M  END
$$$$
