5e7n_ligand
  -I-interpret- 

 47 49  0  0  0  0  0  0  0  0999 V2000
  -12.5370  -11.9690   23.5710 C   0  0  0  0  0
  -10.8200  -14.0480   24.2230 C   0  0  0  0  0
  -11.8130  -14.2410   23.2770 C   0  0  0  0  0
   -6.4270  -11.3040   21.9510 C   0  0  0  0  0
  -17.5850   -9.8460   20.5370 C   0  0  0  0  0
   -6.4130  -13.1150   23.5180 C   0  0  0  0  0
   -7.3790  -10.6500   22.7080 C   0  0  0  0  0
   -9.8700  -15.1900   24.5750 C   0  0  0  0  0
   -9.3980  -12.5460   26.0840 S   0  0  0  0  0
  -10.6920  -12.8170   24.8430 C   0  0  0  0  0
  -16.5390  -10.6620   20.9370 C   0  0  0  0  0
  -13.5060  -10.8390   23.2210 C   0  0  0  0  0
  -14.6780  -11.1990   22.4320 N   0  0  0  0  0
   -7.8700  -13.0450   25.4950 N   0  0  0  0  0
  -15.7500  -10.3050   22.0190 C   0  0  0  0  0
  -11.5510  -11.7770   24.5220 C   0  0  0  0  0
  -16.2520  -11.9510   20.1690 C   0  0  0  0  0
   -9.7210  -13.2280   27.3380 O   0  0  0  0  0
   -9.3810  -11.1460   26.5170 O   0  0  0  0  0
  -13.3000   -9.7320   23.5990 O   0  0  0  0  0
  -15.2760  -12.6800   20.4930 O   0  0  0  0  0
  -12.6740  -13.2030   22.9570 C   0  0  0  0  0
   -7.3650  -12.4530   24.2740 C   0  0  0  0  0
  -16.9960  -12.2830   19.2090 O   0  0  0  0  0
   -5.7910  -10.4730   20.3210 Br  0  0  0  0  0
   -7.8510  -11.2210   23.8740 C   0  0  0  0  0
   -5.9410  -12.5400   22.3500 C   0  0  0  0  0
  -16.0280   -9.1420   22.7240 C   0  0  0  0  0
  -17.8510   -8.6780   21.2330 C   0  0  0  0  0
  -17.0730   -8.3260   22.3230 C   0  0  0  0  0
  -11.9173  -15.2079   22.7848 H   0  0  0  0  0
  -18.1964  -10.1220   19.6778 H   0  0  0  0  0
   -6.0362  -14.0855   23.8409 H   0  0  0  0  0
   -7.7589   -9.6809   22.3847 H   0  0  0  0  0
  -10.4438  -16.0321   24.9618 H   0  0  0  0  0
   -9.3276  -15.4983   23.6812 H   0  0  0  0  0
   -9.1627  -14.8521   25.3324 H   0  0  0  0  0
  -14.7543  -12.1735   22.1406 H   0  0  0  0  0
   -7.3249  -13.7470   25.9954 H   0  0  0  0  0
  -11.4497  -10.8114   25.0174 H   0  0  0  0  0
  -14.8167  -12.2854   21.2380 H   0  0  0  0  0
  -13.4616  -13.3583   22.2197 H   0  0  0  0  0
   -8.6004  -10.7050   24.4741 H   0  0  0  0  0
   -5.1925  -13.0555   21.7483 H   0  0  0  0  0
  -15.4254   -8.8715   23.5911 H   0  0  0  0  0
  -18.6743   -8.0349   20.9220 H   0  0  0  0  0
  -17.2833   -7.4049   22.8666 H   0  0  0  0  0
  1 12  1  0  0  0
 16  1  4  0  0  0
  1 22  4  0  0  0
  2  3  4  0  0  0
  2  8  1  0  0  0
 10  2  4  0  0  0
  3 22  4  0  0  0
  4  7  4  0  0  0
  4 25  1  0  0  0
 27  4  4  0  0  0
 11  5  4  0  0  0
  5 29  4  0  0  0
 23  6  4  0  0  0
  6 27  4  0  0  0
  7 26  4  0  0  0
  9 10  1  0  0  0
 14  9  1  0  0  0
  9 18  2  0  0  0
  9 19  2  0  0  0
 10 16  4  0  0  0
 15 11  4  0  0  0
 11 17  1  0  0  0
 12 13  1  0  0  0
 12 20  2  0  0  0
 13 15  1  0  0  0
 14 23  1  0  0  0
 15 28  4  0  0  0
 17 21  1  0  0  0
 17 24  2  0  0  0
 23 26  4  0  0  0
 28 30  4  0  0  0
 29 30  4  0  0  0
  3 31  1  0  0  0
  5 32  1  0  0  0
  6 33  1  0  0  0
  7 34  1  0  0  0
  8 35  1  0  0  0
  8 36  1  0  0  0
  8 37  1  0  0  0
 13 38  1  0  0  0
 14 39  1  0  0  0
 16 40  1  0  0  0
 21 41  1  0  0  0
 22 42  1  0  0  0
 26 43  1  0  0  0
 27 44  1  0  0  0
 28 45  1  0  0  0
 29 46  1  0  0  0
 30 47  1  0  0  0
M  END
$$$$
