2c6c_ligand
  -I-interpret- 

 37 37  0  0  0  0  0  0  0  0999 V2000
   14.0420   48.9140   41.2050 O   0  0  0  0  0
   14.0850   47.7170   40.9600 C   0  0  0  0  0
   13.0780   47.2080   40.2340 O   0  0  0  0  0
   15.2400   46.9010   41.5370 C   0  0  0  0  0
   14.9530   45.4160   41.6760 C   0  0  0  0  0
   16.1400   44.6590   42.2360 C   0  0  0  0  0
   17.2850   44.8080   41.2410 C   0  0  0  0  0
   17.2860   43.9800   40.2220 O   0  0  0  0  0
   18.1420   45.6770   41.3440 O   0  0  0  0  0
   16.4890   45.1770   43.6500 C   0  0  0  0  0
   17.7180   44.2040   44.5120 P   0  0  0  0  0
   17.0020   43.6120   45.7800 O   0  0  0  0  0
   18.3300   43.0560   43.5460 O   0  0  0  0  0
   18.9990   45.4030   44.9180 C   0  0  0  0  0
   20.1740   44.9130   45.6410 C   0  0  0  0  0
   21.3520   44.5990   44.9640 C   0  0  0  0  0
   22.4320   44.1360   45.7290 C   0  0  0  0  0
   20.0810   44.8150   47.0150 C   0  0  0  0  0
   21.1360   44.3460   47.8040 C   0  0  0  0  0
   22.3290   44.0220   47.1370 C   0  0  0  0  0
   23.9280   43.3670   48.4000 I   0  0  0  0  0
   13.2202   46.2671   40.1071 H   0  0  0  0  0
   15.4325   47.2842   42.5391 H   0  0  0  0  0
   16.0778   47.0011   40.8469 H   0  0  0  0  0
   14.7306   45.0175   40.6861 H   0  0  0  0  0
   14.1155   45.2934   42.3628 H   0  0  0  0  0
   15.9199   43.5985   42.3584 H   0  0  0  0  0
   16.5482   43.3714   40.3049 H   0  0  0  0  0
   15.5743   45.1330   44.2412 H   0  0  0  0  0
   16.9009   46.1791   43.5306 H   0  0  0  0  0
   18.7544   43.4683   42.7900 H   0  0  0  0  0
   18.5255   46.1268   45.5814 H   0  0  0  0  0
   19.3730   45.7697   43.9621 H   0  0  0  0  0
   21.4302   44.7092   43.8824 H   0  0  0  0  0
   23.3630   43.8602   45.2337 H   0  0  0  0  0
   19.1526   45.1137   47.5019 H   0  0  0  0  0
   21.0374   44.2371   48.8841 H   0  0  0  0  0
  1  2  2  0  0  0
  2  3  1  0  0  0
  2  4  1  0  0  0
  4  5  1  0  0  0
  5  6  1  0  0  0
  6  7  1  0  0  0
  6 10  1  0  0  0
  7  8  1  0  0  0
  7  9  2  0  0  0
 10 11  1  0  0  0
 11 12  2  0  0  0
 11 13  1  0  0  0
 11 14  1  0  0  0
 14 15  1  0  0  0
 15 16  4  0  0  0
 15 18  4  0  0  0
 16 17  4  0  0  0
 17 20  4  0  0  0
 18 19  4  0  0  0
 19 20  4  0  0  0
 20 21  1  0  0  0
  3 22  1  0  0  0
  4 23  1  0  0  0
  4 24  1  0  0  0
  5 25  1  0  0  0
  5 26  1  0  0  0
  6 27  1  0  0  0
  8 28  1  0  0  0
 10 29  1  0  0  0
 10 30  1  0  0  0
 13 31  1  0  0  0
 14 32  1  0  0  0
 14 33  1  0  0  0
 16 34  1  0  0  0
 17 35  1  0  0  0
 18 36  1  0  0  0
 19 37  1  0  0  0
M  END
$$$$
