### 
### Created by X-TOOL on Mon Sep 10 21:12:54 2018
### 

@<TRIPOS>MOLECULE
2c6c_ligand
   34    34     1     0     0
SMALL
GAST_HUCK


@<TRIPOS>ATOM
      1 O5         14.0420   48.9140   41.2050 O.co2     1 24I        -0.5690
      2 C14        14.0850   47.7170   40.9600 C.2       1 24I         0.0349
      3 O6         13.0780   47.2080   40.2340 O.co2     1 24I        -0.5690
      4 C13        15.2400   46.9010   41.5370 C.3       1 24I         0.0020
      5 C12        14.9530   45.4160   41.6760 C.3       1 24I        -0.0255
      6 C10        16.1400   44.6590   42.2360 C.3       1 24I         0.0292
      7 C9         17.2850   44.8080   41.2410 C.2       1 24I         0.0395
      8 O4         17.2860   43.9800   40.2220 O.co2     1 24I        -0.5687
      9 O3         18.1420   45.6770   41.3440 O.co2     1 24I        -0.5687
     10 C7         16.4890   45.1770   43.6500 C.3       1 24I         0.0296
     11 P1         17.7180   44.2040   44.5120 P.3       1 24I        -0.0019
     12 O1         17.0020   43.6120   45.7800 O.co2     1 24I        -0.6175
     13 O2         18.3300   43.0560   43.5460 O.co2     1 24I        -0.6175
     14 C6         18.9990   45.4030   44.9180 C.3       1 24I         0.0480
     15 C8         20.1740   44.9130   45.6410 C.ar      1 24I        -0.0232
     16 C5         21.3520   44.5990   44.9640 C.ar      1 24I        -0.0559
     17 C3         22.4320   44.1360   45.7290 C.ar      1 24I        -0.0575
     18 C4         20.0810   44.8150   47.0150 C.ar      1 24I        -0.0559
     19 C2         21.1360   44.3460   47.8040 C.ar      1 24I        -0.0575
     20 C1         22.3290   44.0220   47.1370 C.ar      1 24I         0.0023
     21 I          23.9280   43.3670   48.4000 I         1 24I        -0.0552
     22 H1         15.4783   47.2998   42.5341 H         1 24I         0.0432
     23 H2         16.1107   47.0224   40.8758 H         1 24I         0.0432
     24 H3         14.7067   45.0075   40.6848 H         1 24I         0.0304
     25 H4         14.0953   45.2816   42.3515 H         1 24I         0.0304
     26 H5         15.8829   43.5926   42.3181 H         1 24I         0.0482
     27 H6         15.5685   45.1798   44.2521 H         1 24I         0.0487
     28 H7         16.8686   46.2051   43.5556 H         1 24I         0.0487
     29 H8         18.5346   46.1862   45.5351 H         1 24I         0.0633
     30 H9         19.3520   45.8418   43.9731 H         1 24I         0.0633
     31 H10        21.4297   44.7086   43.8884 H         1 24I         0.0564
     32 H11        23.3578   43.8617   45.2364 H         1 24I         0.0627
     33 H12        19.1577   45.1120   47.4992 H         1 24I         0.0564
     34 H13        21.0379   44.2377   48.8781 H         1 24I         0.0627
@<TRIPOS>BOND
     1    1    2 ar 
     2    2    3 ar 
     3    2    4 1  
     4    4    5 1  
     5    5    6 1  
     6    6    7 1  
     7    6   10 1  
     8    7    8 ar 
     9    7    9 ar 
    10   10   11 1  
    11   11   12 ar 
    12   11   13 ar 
    13   11   14 1  
    14   14   15 1  
    15   15   16 ar 
    16   15   18 ar 
    17   16   17 ar 
    18   17   20 ar 
    19   18   19 ar 
    20   19   20 ar 
    21   20   21 1  
    22    4   22 1  
    23    4   23 1  
    24    5   24 1  
    25    5   25 1  
    26    6   26 1  
    27   10   27 1  
    28   10   28 1  
    29   14   29 1  
    30   14   30 1  
    31   16   31 1  
    32   17   32 1  
    33   18   33 1  
    34   19   34 1  
@<TRIPOS>SUBSTRUCTURE
     1 24I         1

