2xg9_ligand
  -I-interpret- 

 46 47  0  0  0  0  0  0  0  0999 V2000
   16.7820    9.6370   23.5230 C   0  0  0  0  0
   17.0050    8.2380   24.1040 C   0  0  0  0  0
   17.3360    7.3350   23.0140 O   0  0  0  0  0
   15.7660    7.8210   24.9400 C   0  0  0  0  0
   15.9080    6.5190   25.5240 O   0  0  0  0  0
   15.4580    8.8600   26.0510 C   0  0  0  0  0
   14.2070    8.5330   26.6820 O   0  0  0  0  0
   15.3330   10.2580   25.4170 C   0  0  0  0  0
   16.5240   10.5300   24.6290 N   0  3  0  0  0
   15.0490   11.3960   26.4210 C   0  0  0  0  0
   16.1060   11.4780   27.3690 O   0  0  0  0  0
   14.2230    7.7230   27.8750 C   0  0  0  0  0
   12.7600    7.3240   28.2040 C   0  0  0  0  0
   11.9160    8.5410   28.5890 C   0  0  0  0  0
   12.6090    9.2730   29.7380 C   0  0  0  0  0
   14.0800    9.5920   29.4010 C   0  0  0  0  0
   14.8790   10.2640   30.5180 C   0  0  0  0  0
   12.1580    6.6560   27.0930 O   0  0  0  0  0
   10.5740    8.1100   28.8690 O   0  0  0  0  0
   11.9070   10.5180   30.0290 O   0  0  0  0  0
   14.7940    8.4030   29.0160 O   0  0  0  0  0
   14.9650    9.3900   31.6210 O   0  0  0  0  0
   15.9394    9.6329   22.8316 H   0  0  0  0  0
   17.6605    9.9633   22.9664 H   0  0  0  0  0
   17.8458    8.2101   24.7971 H   0  0  0  0  0
   18.1097    7.6643   22.5509 H   0  0  0  0  0
   14.9302    7.7848   24.2413 H   0  0  0  0  0
   16.0984    5.8791   24.8341 H   0  0  0  0  0
   16.2618    8.8483   26.7872 H   0  0  0  0  0
   14.4509   10.2377   24.7769 H   0  0  0  0  0
   16.3875   11.4544   24.2201 H   0  0  0  0  0
   17.3140   10.4269   25.2659 H   0  0  0  0  0
   14.1134   11.1918   26.9416 H   0  0  0  0  0
   14.9740   12.3408   25.8827 H   0  0  0  0  0
   15.9232   12.1871   27.9898 H   0  0  0  0  0
   14.8504    6.8533   27.6798 H   0  0  0  0  0
   12.7946    6.6470   29.0576 H   0  0  0  0  0
   11.8328    9.2621   27.7759 H   0  0  0  0  0
   12.5876    8.6166   30.6080 H   0  0  0  0  0
   14.0018   10.3059   28.5810 H   0  0  0  0  0
   14.3798   11.1846   30.8203 H   0  0  0  0  0
   15.8813   10.4981   30.1593 H   0  0  0  0  0
   11.2551    6.4176   27.3154 H   0  0  0  0  0
   10.0392    8.8695   29.1113 H   0  0  0  0  0
   12.3480   10.9715   30.7511 H   0  0  0  0  0
   15.4665    9.8109   32.3230 H   0  0  0  0  0
  1  2  1  0  0  0
  1  9  1  0  0  0
  2  3  1  0  0  0
  2  4  1  0  0  0
  4  5  1  0  0  0
  4  6  1  0  0  0
  6  7  1  0  0  0
  6  8  1  0  0  0
  7 12  1  0  0  0
  8  9  1  0  0  0
  8 10  1  0  0  0
 10 11  1  0  0  0
 12 13  1  0  0  0
 12 21  1  0  0  0
 13 14  1  0  0  0
 13 18  1  0  0  0
 14 15  1  0  0  0
 14 19  1  0  0  0
 15 16  1  0  0  0
 15 20  1  0  0  0
 16 17  1  0  0  0
 16 21  1  0  0  0
 17 22  1  0  0  0
  1 23  1  0  0  0
  1 24  1  0  0  0
  2 25  1  0  0  0
  3 26  1  0  0  0
  4 27  1  0  0  0
  5 28  1  0  0  0
  6 29  1  0  0  0
  8 30  1  0  0  0
  9 31  1  0  0  0
  9 32  1  0  0  0
 10 33  1  0  0  0
 10 34  1  0  0  0
 11 35  1  0  0  0
 12 36  1  0  0  0
 13 37  1  0  0  0
 14 38  1  0  0  0
 15 39  1  0  0  0
 16 40  1  0  0  0
 17 41  1  0  0  0
 17 42  1  0  0  0
 18 43  1  0  0  0
 19 44  1  0  0  0
 20 45  1  0  0  0
 22 46  1  0  0  0
M  END
$$$$
