3uh2_ligand
  -I-interpret- 

 40 42  0  0  0  0  0  0  0  0999 V2000
  -30.4480   -4.2670    2.9810 C   0  0  0  0  0
  -30.8190   -4.5140    4.3830 N   0  3  0  0  0
  -31.9510   -3.6590    4.7510 C   0  0  0  0  0
  -29.6960   -4.2150    5.3180 C   0  0  0  0  0
  -28.7590   -5.4020    5.6010 C   0  0  0  0  0
  -29.0100   -6.4790    5.0650 O   0  0  0  0  0
  -27.7080   -5.1370    6.4170 N   0  0  0  0  0
  -26.6600   -5.9910    6.8760 C   0  0  0  0  0
  -26.8110   -7.4010    6.9460 C   0  0  0  0  0
  -25.7380   -8.2630    7.3080 C   0  0  0  0  0
  -25.8530   -9.7430    7.3790 C   0  0  0  0  0
  -27.0430  -10.4380    7.0030 C   0  0  0  0  0
  -27.1380  -11.8360    7.1530 C   0  0  0  0  0
  -26.0290  -12.5810    7.6200 C   0  0  0  0  0
  -24.8290  -11.9240    7.9600 C   0  0  0  0  0
  -24.7190  -10.5190    7.7960 C   0  0  0  0  0
  -23.4290   -9.8230    8.1540 C   0  0  0  0  0
  -22.4230  -10.4300    8.5150 O   0  0  0  0  0
  -23.4090   -8.4880    8.0370 N   0  0  0  0  0
  -24.4820   -7.6600    7.5980 C   0  0  0  0  0
  -24.3200   -6.2480    7.5670 C   0  0  0  0  0
  -25.3910   -5.4120    7.1490 C   0  0  0  0  0
  -30.1716   -3.2197    2.8587 H   0  0  0  0  0
  -29.6027   -4.9009    2.7131 H   0  0  0  0  0
  -31.2958   -4.4980    2.3360 H   0  0  0  0  0
  -31.0605   -5.5019    4.4609 H   0  0  0  0  0
  -32.2472   -3.8726    5.7780 H   0  0  0  0  0
  -31.6571   -2.6128    4.6664 H   0  0  0  0  0
  -32.7877   -3.8580    4.0814 H   0  0  0  0  0
  -30.1440   -3.9313    6.2703 H   0  0  0  0  0
  -29.0912   -3.4392    4.8485 H   0  0  0  0  0
  -27.6588   -4.1762    6.7560 H   0  0  0  0  0
  -27.7822   -7.8384    6.7145 H   0  0  0  0  0
  -27.8867   -9.8810    6.5956 H   0  0  0  0  0
  -28.0698  -12.3458    6.9082 H   0  0  0  0  0
  -26.1028  -13.6642    7.7169 H   0  0  0  0  0
  -23.9860  -12.4952    8.3487 H   0  0  0  0  0
  -22.5390   -8.0181    8.2872 H   0  0  0  0  0
  -23.3701   -5.8043    7.8652 H   0  0  0  0  0
  -25.2406   -4.3380    7.0390 H   0  0  0  0  0
  1  2  1  0  0  0
  2  3  1  0  0  0
  2  4  1  0  0  0
  4  5  1  0  0  0
  5  6  2  0  0  0
  5  7  1  0  0  0
  7  8  1  0  0  0
  8  9  4  0  0  0
  8 22  4  0  0  0
  9 10  4  0  0  0
 10 11  1  0  0  0
 10 20  4  0  0  0
 11 12  4  0  0  0
 11 16  4  0  0  0
 12 13  4  0  0  0
 13 14  4  0  0  0
 14 15  4  0  0  0
 15 16  4  0  0  0
 16 17  1  0  0  0
 17 18  2  0  0  0
 17 19  1  0  0  0
 19 20  1  0  0  0
 20 21  4  0  0  0
 21 22  4  0  0  0
  1 23  1  0  0  0
  1 24  1  0  0  0
  1 25  1  0  0  0
  2 26  1  0  0  0
  3 27  1  0  0  0
  3 28  1  0  0  0
  3 29  1  0  0  0
  4 30  1  0  0  0
  4 31  1  0  0  0
  7 32  1  0  0  0
  9 33  1  0  0  0
 12 34  1  0  0  0
 13 35  1  0  0  0
 14 36  1  0  0  0
 15 37  1  0  0  0
 19 38  1  0  0  0
 21 39  1  0  0  0
 22 40  1  0  0  0
M  END
$$$$
