### 
### Created by X-TOOL on Mon Sep 10 21:13:09 2018
### 

@<TRIPOS>MOLECULE
3uh2_ligand
   39    41     1     0     0
SMALL
GAST_HUCK


@<TRIPOS>ATOM
      1 CAA       -30.4480   -4.2670    2.9810 C.3       1 P34        -0.1229
      2 N         -30.8190   -4.5140    4.3830 N.4       1 P34         0.4098
      3 CAB       -31.9510   -3.6590    4.7510 C.3       1 P34        -0.1229
      4 CA        -29.6960   -4.2150    5.3180 C.3       1 P34        -0.0135
      5 C         -28.7590   -5.4020    5.6010 C.2       1 P34         0.1795
      6 O         -29.0100   -6.4790    5.0650 O.2       1 P34        -0.3890
      7 NAM       -27.7080   -5.1370    6.4170 N.am      1 P34        -0.2433
      8 CAP       -26.6600   -5.9910    6.8760 C.ar      1 P34         0.0542
      9 CAK       -26.8110   -7.4010    6.9460 C.ar      1 P34        -0.0434
     10 CAU       -25.7380   -8.2630    7.3080 C.ar      1 P34        -0.0020
     11 CAT       -25.8530   -9.7430    7.3790 C.ar      1 P34        -0.0079
     12 CAI       -27.0430  -10.4380    7.0030 C.ar      1 P34        -0.0530
     13 CAF       -27.1380  -11.8360    7.1530 C.ar      1 P34        -0.0599
     14 CAE       -26.0290  -12.5810    7.6200 C.ar      1 P34        -0.0588
     15 CAH       -24.8290  -11.9240    7.9600 C.ar      1 P34        -0.0442
     16 CAS       -24.7190  -10.5190    7.7960 C.ar      1 P34         0.0572
     17 CAQ       -23.4290   -9.8230    8.1540 C.2       1 P34         0.2237
     18 OAD       -22.4230  -10.4300    8.5150 O.2       1 P34        -0.3870
     19 NAN       -23.4090   -8.4880    8.0370 N.am      1 P34        -0.2368
     20 CAR       -24.4820   -7.6600    7.5980 C.ar      1 P34         0.0685
     21 CAJ       -24.3200   -6.2480    7.5670 C.ar      1 P34        -0.0471
     22 CAG       -25.3910   -5.4120    7.1490 C.ar      1 P34        -0.0498
     23 H         -30.1716   -3.2197    2.8587 H         1 P34        -0.0016
     24 H         -29.6027   -4.9009    2.7131 H         1 P34        -0.0016
     25 H         -31.2958   -4.4980    2.3360 H         1 P34        -0.0016
     26 H         -32.2472   -3.8726    5.7780 H         1 P34        -0.0016
     27 H         -31.6571   -2.6128    4.6664 H         1 P34        -0.0016
     28 H         -32.7877   -3.8580    4.0814 H         1 P34        -0.0016
     29 H         -30.1440   -3.9313    6.2703 H         1 P34         0.0261
     30 H         -29.0912   -3.4392    4.8485 H         1 P34         0.0261
     31 H         -27.6588   -4.1762    6.7560 H         1 P34         0.2210
     32 H         -27.7822   -7.8384    6.7145 H         1 P34         0.0468
     33 H         -27.8867   -9.8810    6.5956 H         1 P34         0.0613
     34 H         -28.0698  -12.3458    6.9082 H         1 P34         0.0643
     35 H         -26.1028  -13.6642    7.7169 H         1 P34         0.0608
     36 H         -23.9860  -12.4952    8.3487 H         1 P34         0.0661
     37 H         -22.5390   -8.0181    8.2872 H         1 P34         0.2277
     38 H         -23.3701   -5.8043    7.8652 H         1 P34         0.0486
     39 H         -25.2406   -4.3380    7.0390 H         1 P34         0.0494
@<TRIPOS>BOND
     1    1    2 1  
     2    2    3 1  
     3    2    4 1  
     4    4    5 1  
     5    5    6 2  
     6    5    7 am 
     7    7    8 1  
     8    8    9 ar 
     9    8   22 ar 
    10    9   10 ar 
    11   10   11 1  
    12   10   20 ar 
    13   11   12 ar 
    14   11   16 ar 
    15   12   13 ar 
    16   13   14 ar 
    17   14   15 ar 
    18   15   16 ar 
    19   16   17 1  
    20   17   18 2  
    21   17   19 am 
    22   19   20 1  
    23   20   21 ar 
    24   21   22 ar 
    25    1   23 1  
    26    1   24 1  
    27    1   25 1  
    28    3   26 1  
    29    3   27 1  
    30    3   28 1  
    31    4   29 1  
    32    4   30 1  
    33    7   31 1  
    34    9   32 1  
    35   12   33 1  
    36   13   34 1  
    37   14   35 1  
    38   15   36 1  
    39   19   37 1  
    40   21   38 1  
    41   22   39 1  
@<TRIPOS>SUBSTRUCTURE
     1 P34         1

