4guj_ligand
  -I-interpret- 

 22 22  0  0  0  0  0  0  0  0999 V2000
   17.1840    0.0100   83.2070 O   0  0  0  0  0
   18.2930    0.0720   82.3060 C   0  0  0  0  0
   17.9080   -0.3960   80.9170 C   0  0  0  0  0
   17.2310   -1.6600   81.0070 O   0  0  0  0  0
   19.1700   -0.5100   80.0710 C   0  0  0  0  0
   20.0250    0.7540   80.1290 C   0  0  0  0  0
   21.0640    0.9290   79.1110 C   0  0  0  0  0
   21.6460   -0.1000   78.6980 O   0  0  0  0  0
   21.3540    2.0680   78.6710 O   0  0  0  0  0
   19.8320    1.6530   81.0970 C   0  0  0  0  0
   18.8040    1.4880   82.2020 C   0  0  0  0  0
   17.6960    2.3600   81.9550 O   0  0  0  0  0
   16.8693   -0.8952   83.2636 H   0  0  0  0  0
   19.0667   -0.5845   82.7041 H   0  0  0  0  0
   17.2317    0.3186   80.4479 H   0  0  0  0  0
   16.4413   -1.5613   81.5439 H   0  0  0  0  0
   18.8689   -0.6666   79.0352 H   0  0  0  0  0
   19.7636   -1.3372   80.4602 H   0  0  0  0  0
   20.8057    2.7263   79.1042 H   0  0  0  0  0
   20.4455    2.5539   81.0938 H   0  0  0  0  0
   19.2964    1.7373   83.1419 H   0  0  0  0  0
   17.0461    2.2556   82.6538 H   0  0  0  0  0
  1  2  1  0  0  0
  2  3  1  0  0  0
  2 11  1  0  0  0
  3  4  1  0  0  0
  3  5  1  0  0  0
  5  6  1  0  0  0
  6  7  1  0  0  0
  6 10  2  0  0  0
  7  8  2  0  0  0
  7  9  1  0  0  0
 10 11  1  0  0  0
 11 12  1  0  0  0
  1 13  1  0  0  0
  2 14  1  0  0  0
  3 15  1  0  0  0
  4 16  1  0  0  0
  5 17  1  0  0  0
  5 18  1  0  0  0
  9 19  1  0  0  0
 10 20  1  0  0  0
 11 21  1  0  0  0
 12 22  1  0  0  0
M  END
$$$$
