4xu0_ligand
  -I-interpret- 

 69 73  0  0  0  0  0  0  0  0999 V2000
   -8.1300   -0.5920   12.0710 C   0  0  0  0  0
   -5.5270   -0.7000   12.8130 C   0  0  0  0  0
   -5.8740   -0.4150   11.5050 C   0  0  0  0  0
   -7.1810   -0.3610   11.1560 N   0  0  0  0  0
   -3.7160   -0.4080   11.6400 C   0  0  0  0  0
   -7.8210   -0.8660   13.3430 N   0  0  0  0  0
   -6.5340   -0.9290   13.7440 C   0  0  0  0  0
   -2.2310   -9.9870   13.8270 C   0  0  0  0  0
   -1.0030   -9.2810   13.5090 N   0  0  0  0  0
   -0.0720   -9.4700   14.4390 C   0  0  0  0  0
    0.9880   -8.8630   14.5090 O   0  0  0  0  0
   -0.4790  -10.3820   15.3120 N   0  0  0  0  0
   -1.8930  -10.6480   15.1660 C   0  0  0  0  0
   -2.6230  -10.0170   16.3420 C   0  0  0  0  0
   -3.4340   -8.6160   15.6640 S   0  0  0  0  0
   -3.4340   -9.0580   13.9560 C   0  0  0  0  0
   -3.3330   -7.8770   12.9980 C   0  0  0  0  0
   -3.7220   -8.3490   11.6020 C   0  0  0  0  0
   -3.9680   -7.1740   10.6670 C   0  0  0  0  0
   -4.2040   -7.6430    9.2350 C   0  0  0  0  0
   -4.5880   -6.4550    8.3850 C   0  0  0  0  0
   -5.6770   -5.9280    8.5200 O   0  0  0  0  0
   -3.6820   -6.0400    7.5070 N   0  0  0  0  0
   -4.0420   -4.9340    6.4100 S   0  0  0  0  0
   -5.2110   -5.3340    5.6800 O   0  0  0  0  0
   -2.9490   -4.8000    5.4880 O   0  0  0  0  0
   -4.3290   -3.5770    7.0640 O   0  0  0  0  0
   -3.3840   -2.8950    7.8830 C   0  0  0  0  0
   -3.7700   -1.4220    7.8210 C   0  0  0  0  0
   -4.9130   -1.1590    8.6480 O   0  0  0  0  0
   -2.6890   -0.4610    8.2860 C   0  0  0  0  0
   -1.8320   -0.1090    7.1980 O   0  0  0  0  0
   -3.5190    0.7280    8.7190 C   0  0  0  0  0
   -3.9550    1.3990    7.5320 O   0  0  0  0  0
   -2.7520    1.7420    9.5640 C   0  0  0  0  0
   -4.7630    0.0870    9.3440 C   0  0  0  0  0
   -4.7530   -0.2250   10.8030 N   0  0  0  0  0
   -4.1800   -0.6880   12.8780 N   0  0  0  0  0
   -6.2410   -1.2140   15.0380 N   0  0  0  0  0
   -9.1778   -0.5560   11.7729 H   0  0  0  0  0
   -2.6640   -0.3408   11.3626 H   0  0  0  0  0
   -2.5246  -10.6878   13.0454 H   0  0  0  0  0
   -0.8707   -8.7099   12.6743 H   0  0  0  0  0
    0.1259  -10.8360   15.9964 H   0  0  0  0  0
   -2.1760  -11.7006   15.1665 H   0  0  0  0  0
   -1.9389   -9.7417   17.1447 H   0  0  0  0  0
   -3.3265  -10.7103   16.8030 H   0  0  0  0  0
   -4.3805   -9.5190   13.6737 H   0  0  0  0  0
   -2.3131   -7.4924   12.9891 H   0  0  0  0  0
   -4.0024   -7.0794   13.3201 H   0  0  0  0  0
   -4.6411   -8.9302   11.6767 H   0  0  0  0  0
   -2.9049   -8.9471   11.1987 H   0  0  0  0  0
   -3.0881   -6.5307   10.6802 H   0  0  0  0  0
   -4.8554   -6.6404   11.0074 H   0  0  0  0  0
   -5.0054   -8.3816    9.2176 H   0  0  0  0  0
   -3.2941   -8.0969    8.8424 H   0  0  0  0  0
   -2.7412   -6.4333    7.5330 H   0  0  0  0  0
   -2.3650   -3.0537    7.5300 H   0  0  0  0  0
   -3.4038   -3.2679    8.9070 H   0  0  0  0  0
   -3.9631   -1.2491    6.7623 H   0  0  0  0  0
   -2.0336   -0.8575    9.0615 H   0  0  0  0  0
   -1.1557    0.4976    7.5082 H   0  0  0  0  0
   -4.4863    2.1613    7.7735 H   0  0  0  0  0
   -2.3859    1.2564   10.4685 H   0  0  0  0  0
   -1.9091    2.1275    8.9904 H   0  0  0  0  0
   -3.4153    2.5636    9.8343 H   0  0  0  0  0
   -5.5608    0.8236    9.2489 H   0  0  0  0  0
   -5.2685   -1.2631   15.3418 H   0  0  0  0  0
   -6.9932   -1.3791   15.7068 H   0  0  0  0  0
  4  1  4  0  0  0
  1  6  4  0  0  0
  3  2  4  0  0  0
  2  7  4  0  0  0
 38  2  4  0  0  0
  3  4  4  0  0  0
 37  3  4  0  0  0
 37  5  4  0  0  0
  5 38  4  0  0  0
  7  6  4  0  0  0
  7 39  1  0  0  0
  8  9  1  0  0  0
  8 13  1  0  0  0
 16  8  1  0  0  0
  9 10  1  0  0  0
 10 11  2  0  0  0
 12 10  1  0  0  0
 13 12  1  0  0  0
 14 13  1  0  0  0
 15 14  1  0  0  0
 16 15  1  0  0  0
 17 16  1  0  0  0
 18 17  1  0  0  0
 19 18  1  0  0  0
 20 19  1  0  0  0
 21 20  1  0  0  0
 21 22  2  0  0  0
 23 21  1  0  0  0
 24 23  1  0  0  0
 24 25  2  0  0  0
 24 26  2  0  0  0
 27 24  1  0  0  0
 28 27  1  0  0  0
 29 28  1  0  0  0
 30 29  1  0  0  0
 31 29  1  0  0  0
 36 30  1  0  0  0
 31 32  1  0  0  0
 33 31  1  0  0  0
 33 34  1  0  0  0
 33 35  1  0  0  0
 36 33  1  0  0  0
 36 37  1  0  0  0
  1 40  1  0  0  0
  5 41  1  0  0  0
  8 42  1  0  0  0
  9 43  1  0  0  0
 12 44  1  0  0  0
 13 45  1  0  0  0
 14 46  1  0  0  0
 14 47  1  0  0  0
 16 48  1  0  0  0
 17 49  1  0  0  0
 17 50  1  0  0  0
 18 51  1  0  0  0
 18 52  1  0  0  0
 19 53  1  0  0  0
 19 54  1  0  0  0
 20 55  1  0  0  0
 20 56  1  0  0  0
 23 57  1  0  0  0
 28 58  1  0  0  0
 28 59  1  0  0  0
 29 60  1  0  0  0
 31 61  1  0  0  0
 32 62  1  0  0  0
 34 63  1  0  0  0
 35 64  1  0  0  0
 35 65  1  0  0  0
 35 66  1  0  0  0
 36 67  1  0  0  0
 39 68  1  0  0  0
 39 69  1  0  0  0
M  END
$$$$
