2mpa_ligand
  -I-interpret- 

188191  0  0  0  0  0  0  0  0999 V2000
  -14.2710   10.6420   47.8440 N   0  0  0  0  0
  -14.8290   11.4530   46.9570 C   0  0  0  0  0
  -14.2400   11.8470   45.9480 O   0  0  0  0  0
  -16.2600   11.8900   47.2490 C   0  0  0  0  0
  -12.9110   10.1410   47.6930 C   0  0  0  0  0
  -12.4530    9.5000   49.0130 C   0  0  0  0  0
  -12.2330   10.5350   49.9770 O   0  0  0  0  0
  -11.1890    8.6670   48.8180 C   0  0  0  0  0
  -12.8030    9.1140   46.5670 C   0  0  0  0  0
  -13.7880    8.4580   46.2250 O   0  0  0  0  0
  -11.6090    8.9730   45.9970 N   0  0  0  0  0
  -11.4020    8.0040   44.9290 C   0  0  0  0  0
  -10.0950    7.2040   45.0850 C   0  0  0  0  0
   -9.1410    7.6810   45.7030 O   0  0  0  0  0
  -11.4400    8.7090   43.5630 C   0  0  0  0  0
  -10.3260    9.7020   43.3150 C   0  0  0  0  0
  -10.3700   10.2440   41.8790 C   0  0  0  0  0
  -11.5460   11.1820   41.5990 C   0  0  0  0  0
  -11.4020   12.5320   42.2400 N   0  3  0  0  0
  -10.0710    5.9850   44.5380 N   0  0  0  0  0
   -8.8970    5.0940   44.5840 C   0  0  0  0  0
   -7.6680    5.6870   43.9270 C   0  0  0  0  0
   -7.6580    6.8450   43.5200 O   0  0  0  0  0
   -9.1480    3.7820   43.8300 C   0  0  0  0  0
  -10.2090    2.9420   44.4560 C   0  0  0  0  0
  -10.2480    2.8690   45.7050 O   0  0  0  0  0
  -10.9860    2.3230   43.6980 O   0  0  0  0  0
   -6.6510    4.8380   43.8010 N   0  0  0  0  0
   -5.3970    5.1690   43.1360 C   0  0  0  0  0
   -5.6980    4.9650   41.6520 C   0  0  0  0  0
   -4.9430    5.3770   40.7770 O   0  0  0  0  0
   -4.2750    4.1940   43.5470 C   0  0  0  0  0
   -4.0580    4.2970   44.9570 O   0  0  0  0  0
   -2.9770    4.5080   42.8040 C   0  0  0  0  0
   -6.8160    4.3040   41.3910 N   0  0  0  0  0
   -7.2560    4.0460   40.0330 C   0  0  0  0  0
   -8.4290    4.9670   39.7030 C   0  0  0  0  0
   -9.0970    4.8050   38.6960 O   0  0  0  0  0
   -7.6690    2.5810   39.8840 C   0  0  0  0  0
   -6.5330    1.6290   40.1640 C   0  0  0  0  0
   -5.4390    1.7670   39.6000 O   0  0  0  0  0
   -6.7820    0.6450   41.0310 N   0  0  0  0  0
   -8.6780    5.9260   40.5830 N   0  0  0  0  0
   -9.7380    6.9030   40.4100 C   0  0  0  0  0
  -11.1640    6.3690   40.5000 C   0  0  0  0  0
  -12.0770    6.9480   39.9120 O   0  0  0  0  0
   -9.5280    7.6630   39.0940 C   0  0  0  0  0
   -8.1680    8.3630   39.0360 C   0  0  0  0  0
   -7.8270    9.1320   39.9270 O   0  0  0  0  0
   -7.3980    8.0990   37.9950 N   0  0  0  0  0
  -11.3610    5.2740   41.2370 N   0  0  0  0  0
  -12.7050    4.7170   41.4280 C   0  0  0  0  0
  -13.2620    5.3070   42.7400 C   0  0  0  0  0
  -12.5040    5.5940   43.6630 O   0  0  0  0  0
  -12.6900    3.1790   41.5650 C   0  0  0  0  0
  -12.0340    2.4650   40.3900 C   0  0  0  0  0
  -12.3320    2.7300   39.2290 O   0  0  0  0  0
  -11.1570    1.5140   40.7000 N   0  0  0  0  0
  -14.5770    5.4850   42.8350 N   0  0  0  0  0
  -15.1400    6.0330   44.0640 C   0  0  0  0  0
  -15.1020    5.0340   45.2110 C   0  0  0  0  0
  -15.7150    3.9650   45.1500 O   0  0  0  0  0
  -16.5770    6.5120   43.8520 C   0  0  0  0  0
  -16.7200    7.8720   43.1680 C   0  0  0  0  0
  -18.1950    8.1980   42.9730 C   0  0  0  0  0
  -16.0500    8.9410   44.0200 C   0  0  0  0  0
   -2.2440    5.9600   52.0380 C   0  0  0  0  0
   -1.5500    6.8470   52.5770 O   0  0  0  0  0
   -1.5750    4.9090   51.3850 C   0  0  0  0  0
   -2.2920    3.9050   50.7090 C   0  0  0  0  0
   -1.5020    2.8640   50.0620 O   0  0  0  0  0
   -2.2260    1.8260   49.3640 C   0  0  0  0  0
   -1.4750    0.8030   48.7500 C   0  0  0  0  0
   -2.1240   -0.2460   48.0690 C   0  0  0  0  0
   -1.4860   -1.2280   47.6430 O   0  0  0  0  0
   -3.5400   -0.2500   47.9830 C   0  0  0  0  0
   -4.3000    0.7770   48.5930 C   0  0  0  0  0
   -3.6640    1.8280   49.2970 C   0  0  0  0  0
   -4.4000    2.8930   49.9580 C   0  0  0  0  0
   -3.7080    3.9290   50.6710 C   0  0  0  0  0
   -4.3890    5.0020   51.3430 C   0  0  0  0  0
   -3.6610    6.0030   52.0190 C   0  0  0  0  0
   -5.8330    2.9720   49.8900 C   0  0  0  0  0
   -6.5680    2.8420   51.0750 C   0  0  0  0  0
   -7.9570    2.9090   51.0560 C   0  0  0  0  0
   -8.6570    3.0990   49.8630 C   0  0  0  0  0
   -7.9390    3.2250   48.6660 C   0  0  0  0  0
   -6.5410    3.1700   48.6400 C   0  0  0  0  0
   -5.8860    3.3600   47.4020 C   0  0  0  0  0
   -4.7190    3.8150   47.2780 O   0  0  0  0  0
   -6.4300    3.0610   46.3050 O   0  0  0  0  0
   -9.9850    3.1470   49.8930 N   0  0  0  0  0
  -11.0270    3.8960   49.5590 C   0  0  0  0  0
  -10.9590    4.9420   48.9140 O   0  0  0  0  0
  -12.3590    3.3100   49.9190 C   0  0  0  0  0
  -12.8720    2.3210   48.5360 S   0  0  0  0  0
  -13.0320    3.6120   47.2590 C   0  0  0  0  0
  -14.2660    4.5080   47.4130 C   0  0  0  0  0
  -14.3800    5.3870   46.2670 N   0  0  0  0  0
  -13.2380    6.1240   48.8390 O   0  0  0  0  0
  -14.1670    5.3330   48.6740 C   0  0  0  0  0
  -15.1330    5.1560   49.5720 N   0  0  0  0  0
  -14.8122   10.3586   48.6608 H   0  0  0  0  0
  -16.2955   12.9756   47.3404 H   0  0  0  0  0
  -16.9094   11.5713   46.4337 H   0  0  0  0  0
  -16.5946   11.4345   48.1810 H   0  0  0  0  0
  -12.2711   10.9857   47.4377 H   0  0  0  0  0
  -13.2307    8.8242   49.3689 H   0  0  0  0  0
  -13.0382   11.0465   50.0851 H   0  0  0  0  0
  -10.3820    9.3103   48.4672 H   0  0  0  0  0
  -10.9058    8.2112   49.7668 H   0  0  0  0  0
  -11.3797    7.8867   48.0812 H   0  0  0  0  0
  -10.8292    9.5503   46.3116 H   0  0  0  0  0
  -12.2163    7.2823   44.9935 H   0  0  0  0  0
  -12.3726    9.2722   43.5289 H   0  0  0  0  0
  -11.3370    7.9301   42.8075 H   0  0  0  0  0
   -9.3717    9.1973   43.4660 H   0  0  0  0  0
  -10.4464   10.5374   44.0047 H   0  0  0  0  0
  -10.4770    9.3866   41.2146 H   0  0  0  0  0
   -9.4565   10.8180   41.7235 H   0  0  0  0  0
  -12.4411   10.7172   42.0124 H   0  0  0  0  0
  -11.5932   11.3349   40.5208 H   0  0  0  0  0
  -12.2163   13.1031   42.0137 H   0  0  0  0  0
  -11.3335   12.4211   43.2516 H   0  0  0  0  0
  -10.5587   12.9857   41.8886 H   0  0  0  0  0
  -10.9103    5.6529   44.0629 H   0  0  0  0  0
   -8.7317    4.9375   45.6500 H   0  0  0  0  0
   -8.2207    3.2092   43.8438 H   0  0  0  0  0
   -9.4780    4.0365   42.8228 H   0  0  0  0  0
   -9.5611    3.4259   46.0786 H   0  0  0  0  0
   -6.7551    3.9018   44.1923 H   0  0  0  0  0
   -5.0626    6.1754   43.3879 H   0  0  0  0  0
   -4.5798    3.1802   43.2872 H   0  0  0  0  0
   -3.3600    3.6915   45.2173 H   0  0  0  0  0
   -3.1434    4.4178   41.7306 H   0  0  0  0  0
   -2.6615    5.5243   43.0400 H   0  0  0  0  0
   -2.2036    3.8050   43.1134 H   0  0  0  0  0
   -7.3842    3.9665   42.1679 H   0  0  0  0  0
   -6.4382    4.2431   39.3399 H   0  0  0  0  0
   -7.9918    2.4257   38.8545 H   0  0  0  0  0
   -8.4615    2.3801   40.6049 H   0  0  0  0  0
   -6.0547   -0.0344   41.2540 H   0  0  0  0  0
   -7.6996    0.5726   41.4705 H   0  0  0  0  0
   -8.0983    5.9803   41.4205 H   0  0  0  0  0
   -9.6522    7.5693   41.2684 H   0  0  0  0  0
  -10.3034    8.4251   39.0169 H   0  0  0  0  0
   -9.5718    6.9424   38.2774 H   0  0  0  0  0
   -6.4828    8.5417   37.9122 H   0  0  0  0  0
   -7.7188    7.4525   37.2742 H   0  0  0  0  0
  -10.5623    4.8157   41.6757 H   0  0  0  0  0
  -13.3119    4.9685   40.5582 H   0  0  0  0  0
  -13.7269    2.8460   41.6106 H   0  0  0  0  0
  -12.1119    2.9372   42.4569 H   0  0  0  0  0
  -10.7060    0.9754   39.9604 H   0  0  0  0  0
  -10.9356    1.3234   41.6773 H   0  0  0  0  0
  -15.1866    5.2402   42.0547 H   0  0  0  0  0
  -14.5144    6.8841   44.3330 H   0  0  0  0  0
  -17.0209    6.6132   44.8423 H   0  0  0  0  0
  -17.0552    5.7827   43.1982 H   0  0  0  0  0
  -16.2369    7.8422   42.1913 H   0  0  0  0  0
  -18.6563    7.4306   42.3513 H   0  0  0  0  0
  -18.6906    8.2277   43.9434 H   0  0  0  0  0
  -18.2900    9.1681   42.4852 H   0  0  0  0  0
  -16.5264    8.9743   44.9998 H   0  0  0  0  0
  -14.9931    8.7013   44.1365 H   0  0  0  0  0
  -16.1525    9.9101   43.5316 H   0  0  0  0  0
   -2.1255    7.4990   52.9836 H   0  0  0  0  0
   -0.4858    4.8720   51.4030 H   0  0  0  0  0
   -0.3865    0.8237   48.8024 H   0  0  0  0  0
   -2.0890   -1.8364   47.2096 H   0  0  0  0  0
   -4.0468   -1.0499   47.4431 H   0  0  0  0  0
   -5.3874    0.7584   48.5198 H   0  0  0  0  0
   -4.1845    1.8324   50.0873 H   0  0  0  0  0
   -5.4782    5.0423   51.3299 H   0  0  0  0  0
   -4.1882    6.8104   52.5273 H   0  0  0  0  0
   -6.0472    2.6870   52.0199 H   0  0  0  0  0
   -8.5097    2.8113   51.9904 H   0  0  0  0  0
   -8.4829    3.3694   47.7325 H   0  0  0  0  0
   -7.3131    2.7220   46.4689 H   0  0  0  0  0
  -10.3288    2.2947   50.3354 H   0  0  0  0  0
  -13.0859    4.0955   50.1256 H   0  0  0  0  0
  -12.2858    2.7054   50.8230 H   0  0  0  0  0
  -13.1251    3.1025   46.2999 H   0  0  0  0  0
  -12.1570    4.2562   47.3450 H   0  0  0  0  0
  -15.1500    3.8735   47.4760 H   0  0  0  0  0
  -13.9001    6.2870   46.2719 H   0  0  0  0  0
  -15.1240    5.6879   50.4423 H   0  0  0  0  0
  -15.8824    4.4884   49.3900 H   0  0  0  0  0
  1  2  1  0  0  0
  5  1  1  0  0  0
  2  3  2  0  0  0
  2  4  1  0  0  0
  5  6  1  0  0  0
  9  5  1  0  0  0
  6  7  1  0  0  0
  6  8  1  0  0  0
  9 10  2  0  0  0
 11  9  1  0  0  0
 12 11  1  0  0  0
 13 12  1  0  0  0
 12 15  1  0  0  0
 13 14  2  0  0  0
 20 13  1  0  0  0
 15 16  1  0  0  0
 16 17  1  0  0  0
 17 18  1  0  0  0
 18 19  1  0  0  0
 21 20  1  0  0  0
 22 21  1  0  0  0
 21 24  1  0  0  0
 22 23  2  0  0  0
 28 22  1  0  0  0
 24 25  1  0  0  0
 25 26  1  0  0  0
 25 27  2  0  0  0
 29 28  1  0  0  0
 30 29  1  0  0  0
 29 32  1  0  0  0
 30 31  2  0  0  0
 35 30  1  0  0  0
 32 33  1  0  0  0
 32 34  1  0  0  0
 36 35  1  0  0  0
 37 36  1  0  0  0
 36 39  1  0  0  0
 37 38  2  0  0  0
 43 37  1  0  0  0
 39 40  1  0  0  0
 40 41  2  0  0  0
 40 42  1  0  0  0
 44 43  1  0  0  0
 45 44  1  0  0  0
 44 47  1  0  0  0
 45 46  2  0  0  0
 51 45  1  0  0  0
 47 48  1  0  0  0
 48 49  2  0  0  0
 48 50  1  0  0  0
 52 51  1  0  0  0
 53 52  1  0  0  0
 52 55  1  0  0  0
 53 54  2  0  0  0
 59 53  1  0  0  0
 55 56  1  0  0  0
 56 57  2  0  0  0
 56 58  1  0  0  0
 60 59  1  0  0  0
 61 60  1  0  0  0
 60 63  1  0  0  0
 61 62  2  0  0  0
 99 61  1  0  0  0
 63 64  1  0  0  0
 64 65  1  0  0  0
 64 66  1  0  0  0
 67 68  1  0  0  0
 69 67  4  0  0  0
 82 67  4  0  0  0
 70 69  4  0  0  0
 70 71  1  0  0  0
 80 70  4  0  0  0
 72 71  1  0  0  0
 72 73  4  0  0  0
 78 72  4  0  0  0
 73 74  4  0  0  0
 74 75  1  0  0  0
 76 74  4  0  0  0
 77 76  4  0  0  0
 78 77  4  0  0  0
 79 78  1  0  0  0
 79 80  1  0  0  0
 83 79  1  0  0  0
 80 81  4  0  0  0
 81 82  4  0  0  0
 84 83  4  0  0  0
 88 83  4  0  0  0
 85 84  4  0  0  0
 86 85  4  0  0  0
 86 87  4  0  0  0
 92 86  1  0  0  0
 87 88  4  0  0  0
 88 89  1  0  0  0
 89 90  2  0  0  0
 89 91  1  0  0  0
 93 92  1  0  0  0
 93 94  2  0  0  0
 95 93  1  0  0  0
 96 95  1  0  0  0
 97 96  1  0  0  0
 98 97  1  0  0  0
 98 99  1  0  0  0
 98101  1  0  0  0
101100  2  0  0  0
101102  1  0  0  0
  1103  1  0  0  0
  4104  1  0  0  0
  4105  1  0  0  0
  4106  1  0  0  0
  5107  1  0  0  0
  6108  1  0  0  0
  7109  1  0  0  0
  8110  1  0  0  0
  8111  1  0  0  0
  8112  1  0  0  0
 11113  1  0  0  0
 12114  1  0  0  0
 15115  1  0  0  0
 15116  1  0  0  0
 16117  1  0  0  0
 16118  1  0  0  0
 17119  1  0  0  0
 17120  1  0  0  0
 18121  1  0  0  0
 18122  1  0  0  0
 19123  1  0  0  0
 19124  1  0  0  0
 19125  1  0  0  0
 20126  1  0  0  0
 21127  1  0  0  0
 24128  1  0  0  0
 24129  1  0  0  0
 26130  1  0  0  0
 28131  1  0  0  0
 29132  1  0  0  0
 32133  1  0  0  0
 33134  1  0  0  0
 34135  1  0  0  0
 34136  1  0  0  0
 34137  1  0  0  0
 35138  1  0  0  0
 36139  1  0  0  0
 39140  1  0  0  0
 39141  1  0  0  0
 42142  1  0  0  0
 42143  1  0  0  0
 43144  1  0  0  0
 44145  1  0  0  0
 47146  1  0  0  0
 47147  1  0  0  0
 50148  1  0  0  0
 50149  1  0  0  0
 51150  1  0  0  0
 52151  1  0  0  0
 55152  1  0  0  0
 55153  1  0  0  0
 58154  1  0  0  0
 58155  1  0  0  0
 59156  1  0  0  0
 60157  1  0  0  0
 63158  1  0  0  0
 63159  1  0  0  0
 64160  1  0  0  0
 65161  1  0  0  0
 65162  1  0  0  0
 65163  1  0  0  0
 66164  1  0  0  0
 66165  1  0  0  0
 66166  1  0  0  0
 68167  1  0  0  0
 69168  1  0  0  0
 73169  1  0  0  0
 75170  1  0  0  0
 76171  1  0  0  0
 77172  1  0  0  0
 79173  1  0  0  0
 81174  1  0  0  0
 82175  1  0  0  0
 84176  1  0  0  0
 85177  1  0  0  0
 87178  1  0  0  0
 91179  1  0  0  0
 92180  1  0  0  0
 95181  1  0  0  0
 95182  1  0  0  0
 97183  1  0  0  0
 97184  1  0  0  0
 98185  1  0  0  0
 99186  1  0  0  0
102187  1  0  0  0
102188  1  0  0  0
M  END
$$$$
