### 
### Created by X-TOOL on Mon Sep 10 21:12:47 2018
### 

@<TRIPOS>MOLECULE
2mpa_ligand
  186   189     1     0     0
SMALL
GAST_HUCK


@<TRIPOS>ATOM
      1 N         -14.2710   10.6420   47.8440 N.am      1 THC        -0.2635
      2 CN        -14.8290   11.4530   46.9570 C.2       1 THC         0.1752
      3 ON        -14.2400   11.8470   45.9480 O.2       1 THC        -0.3972
      4 CM        -16.2600   11.8900   47.2490 C.3       1 THC         0.0258
      5 CA        -12.9110   10.1410   47.6930 C.3       1 THC         0.1564
      6 CB        -12.4530    9.5000   49.0130 C.3       1 THC         0.0924
      7 OG1       -12.2330   10.5350   49.9770 O.3       1 THC        -0.3874
      8 CG2       -11.1890    8.6670   48.8180 C.3       1 THC        -0.0346
      9 C         -12.8030    9.1140   46.5670 C.2       1 THC         0.2065
     10 O         -13.7880    8.4580   46.2250 O.2       1 THC        -0.3943
     11 N         -11.6090    8.9730   45.9970 N.am      1 LYS        -0.2637
     12 CA        -11.4020    8.0040   44.9290 C.3       1 LYS         0.1310
     13 C         -10.0950    7.2040   45.0850 C.2       1 LYS         0.2040
     14 O          -9.1410    7.6810   45.7030 O.2       1 LYS        -0.3944
     15 CB        -11.4400    8.7090   43.5630 C.3       1 LYS        -0.0122
     16 CG        -10.3260    9.7020   43.3150 C.3       1 LYS        -0.0440
     17 CD        -10.3700   10.2440   41.8790 C.3       1 LYS        -0.0124
     18 CE        -11.5460   11.1820   41.5990 C.3       1 LYS        -0.0354
     19 NZ        -11.4020   12.5320   42.2400 N.4       1 LYS         0.2185
     20 N         -10.0710    5.9850   44.5380 N.am      1 ASP        -0.2622
     21 CA         -8.8970    5.0940   44.5840 C.3       1 ASP         0.1423
     22 C          -7.6680    5.6870   43.9270 C.2       1 ASP         0.2057
     23 O          -7.6580    6.8450   43.5200 O.2       1 ASP        -0.3943
     24 CB         -9.1480    3.7820   43.8300 C.3       1 ASP         0.0406
     25 CG        -10.2090    2.9420   44.4560 C.2       1 ASP         0.0393
     26 OD1       -10.2480    2.8690   45.7050 O.co2     1 ASP        -0.5688
     27 OD2       -10.9860    2.3230   43.6980 O.co2     1 ASP        -0.5688
     28 N          -6.6510    4.8380   43.8010 N.am      1 THR        -0.2612
     29 CA         -5.3970    5.1690   43.1360 C.3       1 THR         0.1565
     30 C          -5.6980    4.9650   41.6520 C.2       1 THR         0.2066
     31 O          -4.9430    5.3770   40.7770 O.2       1 THR        -0.3943
     32 CB         -4.2750    4.1940   43.5470 C.3       1 THR         0.0924
     33 OG1        -4.0580    4.2970   44.9570 O.3       1 THR        -0.3874
     34 CG2        -2.9770    4.5080   42.8040 C.3       1 THR        -0.0346
     35 N          -6.8160    4.3040   41.3910 N.am      1 ASN        -0.2615
     36 CA         -7.2560    4.0460   40.0330 C.3       1 ASN         0.1476
     37 C          -8.4290    4.9670   39.7030 C.2       1 ASN         0.2064
     38 O          -9.0970    4.8050   38.6960 O.2       1 ASN        -0.3942
     39 CB         -7.6690    2.5810   39.8840 C.3       1 ASN         0.0773
     40 CG         -6.5330    1.6290   40.1640 C.2       1 ASN         0.1780
     41 OD1        -5.4390    1.7670   39.6000 O.2       1 ASN        -0.3970
     42 ND2        -6.7820    0.6450   41.0310 N.am      1 ASN        -0.3007
     43 N          -8.6780    5.9260   40.5830 N.am      1 ASN        -0.2615
     44 CA         -9.7380    6.9030   40.4100 C.3       1 ASN         0.1476
     45 C         -11.1640    6.3690   40.5000 C.2       1 ASN         0.2064
     46 O         -12.0770    6.9480   39.9120 O.2       1 ASN        -0.3942
     47 CB         -9.5280    7.6630   39.0940 C.3       1 ASN         0.0773
     48 CG         -8.1680    8.3630   39.0360 C.2       1 ASN         0.1780
     49 OD1        -7.8270    9.1320   39.9270 O.2       1 ASN        -0.3970
     50 ND2        -7.3980    8.0990   37.9950 N.am      1 ASN        -0.3007
     51 N         -11.3610    5.2740   41.2370 N.am      1 ASN        -0.2615
     52 CA        -12.7050    4.7170   41.4280 C.3       1 ASN         0.1476
     53 C         -13.2620    5.3070   42.7400 C.2       1 ASN         0.2063
     54 O         -12.5040    5.5940   43.6630 O.2       1 ASN        -0.3942
     55 CB        -12.6900    3.1790   41.5650 C.3       1 ASN         0.0773
     56 CG        -12.0340    2.4650   40.3900 C.2       1 ASN         0.1780
     57 OD1       -12.3320    2.7300   39.2290 O.2       1 ASN        -0.3970
     58 ND2       -11.1570    1.5140   40.7000 N.am      1 ASN        -0.3007
     59 N         -14.5770    5.4850   42.8350 N.am      1 LEU        -0.2636
     60 CA        -15.1400    6.0330   44.0640 C.3       1 LEU         0.1312
     61 C         -15.1020    5.0340   45.2110 C.2       1 LEU         0.2039
     62 O         -15.7150    3.9650   45.1500 O.2       1 LEU        -0.3944
     63 CB        -16.5770    6.5120   43.8520 C.3       1 LEU        -0.0101
     64 CG        -16.7200    7.8720   43.1680 C.3       1 LEU        -0.0425
     65 CD1       -18.1950    8.1980   42.9730 C.3       1 LEU        -0.0625
     66 CD2       -16.0500    8.9410   44.0200 C.3       1 LEU        -0.0625
     67 C1         -2.2440    5.9600   52.0380 C.ar      1 CYF         0.0731
     68 O1         -1.5500    6.8470   52.5770 O.3       1 CYF        -0.3398
     69 C2         -1.5750    4.9090   51.3850 C.ar      1 CYF        -0.0062
     70 C3         -2.2920    3.9050   50.7090 C.ar      1 CYF         0.1122
     71 O2         -1.5020    2.8640   50.0620 O.3       1 CYF        -0.2684
     72 C4         -2.2260    1.8260   49.3640 C.ar      1 CYF         0.1122
     73 C5         -1.4750    0.8030   48.7500 C.ar      1 CYF        -0.0062
     74 C6         -2.1240   -0.2460   48.0690 C.ar      1 CYF         0.0731
     75 O3         -1.4860   -1.2280   47.6430 O.3       1 CYF        -0.3398
     76 C7         -3.5400   -0.2500   47.9830 C.ar      1 CYF        -0.0502
     77 C8         -4.3000    0.7770   48.5930 C.ar      1 CYF        -0.0726
     78 C9         -3.6640    1.8280   49.2970 C.ar      1 CYF         0.0008
     79 C10        -4.4000    2.8930   49.9580 C.3       1 CYF         0.0424
     80 C11        -3.7080    3.9290   50.6710 C.ar      1 CYF         0.0008
     81 C12        -4.3890    5.0020   51.3430 C.ar      1 CYF        -0.0726
     82 C13        -3.6610    6.0030   52.0190 C.ar      1 CYF        -0.0502
     83 C14        -5.8330    2.9720   49.8900 C.ar      1 CYF        -0.0248
     84 C15        -6.5680    2.8420   51.0750 C.ar      1 CYF        -0.0664
     85 C16        -7.9570    2.9090   51.0560 C.ar      1 CYF        -0.0442
     86 C17        -8.6570    3.0990   49.8630 C.ar      1 CYF         0.0633
     87 C18        -7.9390    3.2250   48.6660 C.ar      1 CYF        -0.0329
     88 C19        -6.5410    3.1700   48.6400 C.ar      1 CYF         0.0017
     89 C20        -5.8860    3.3600   47.4020 C.2       1 CYF         0.0556
     90 O4         -4.7190    3.8150   47.2780 O.co2     1 CYF        -0.5630
     91 O5         -6.4300    3.0610   46.3050 O.co2     1 CYF        -0.5630
     92 NL         -9.9850    3.1470   49.8930 N.am      1 CYF        -0.2365
     93 CL        -11.0270    3.8960   49.5590 C.2       1 CYF         0.2118
     94 OL        -10.9590    4.9420   48.9140 O.2       1 CYF        -0.3849
     95 CAL       -12.3590    3.3100   49.9190 C.3       1 CYF         0.0890
     96 SG        -12.8720    2.3210   48.5360 S.3       1 CYF        -0.1339
     97 CB        -13.0320    3.6120   47.2590 C.3       1 CYF         0.0364
     98 CA        -14.2660    4.5080   47.4130 C.3       1 CYF         0.1397
     99 N         -14.3800    5.3870   46.2670 N.am      1 CYF        -0.2629
    100 O         -13.2380    6.1240   48.8390 O.2       1 CYF        -0.3947
    101 C         -14.1670    5.3330   48.6740 C.2       1 CYF         0.2000
    102 NT        -15.1330    5.1560   49.5720 N.am      1 CYF        -0.2989
    103 H1        -14.8016   10.3641   48.6448 H         1 THC         0.1883
    104 H2        -16.6108   12.5562   46.4471 H         1 THC         0.0467
    105 H3        -16.2913   12.4247   48.2098 H         1 THC         0.0467
    106 H4        -16.9105   11.0045   47.3008 H         1 THC         0.0467
    107 H5        -12.2505   10.9885   47.4576 H         1 THC         0.0826
    108 H6        -13.2511    8.8373   49.3790 H         1 THC         0.0639
    109 H7        -11.9494   10.1476   50.7967 H         1 THC         0.2101
    110 H8        -10.8898    8.2241   49.7794 H         1 THC         0.0257
    111 H9        -10.3797    9.3109   48.4433 H         1 THC         0.0257
    112 H10       -11.3865    7.8656   48.0908 H         1 THC         0.0257
    113 H11       -10.8445    9.5390   46.3054 H         1 LYS         0.1883
    114 H12       -12.2349    7.2865   44.9660 H         1 LYS         0.0800
    115 H13       -12.3969    9.2457   43.4844 H         1 LYS         0.0312
    116 H14       -11.3871    7.9372   42.7810 H         1 LYS         0.0312
    117 H15        -9.3591    9.2043   43.4804 H         1 LYS         0.0269
    118 H16       -10.4314   10.5414   44.0180 H         1 LYS         0.0269
    119 H17       -10.4384    9.3896   41.1896 H         1 LYS         0.0317
    120 H18        -9.4368   10.7945   41.6892 H         1 LYS         0.0317
    121 H19       -12.4645   10.7120   41.9802 H         1 LYS         0.0813
    122 H20       -11.6293   11.3205   40.5110 H         1 LYS         0.0813
    123 H21       -12.2062   13.0973   42.0170 H         1 LYS         0.1994
    124 H22       -10.5689   12.9814   41.8935 H         1 LYS         0.1994
    125 H23       -11.3343   12.4237   43.2399 H         1 LYS         0.1994
    126 H24       -10.8938    5.6594   44.0722 H         1 ASP         0.1884
    127 H25        -8.6768    4.8774   45.6397 H         1 ASP         0.0819
    128 H26        -8.2115    3.2053   43.8093 H         1 ASP         0.0478
    129 H27        -9.4534    4.0224   42.8010 H         1 ASP         0.0478
    130 H28        -6.7530    3.9202   44.1846 H         1 THR         0.1884
    131 H29        -5.0970    6.2054   43.3502 H         1 THR         0.0826
    132 H30        -4.5857    3.1676   43.3020 H         1 THR         0.0639
    133 H31        -4.8592    4.0749   45.4166 H         1 THR         0.2101
    134 H32        -2.1956    3.7992   43.1154 H         1 THR         0.0257
    135 H33        -2.6575    5.5335   43.0413 H         1 THR         0.0257
    136 H34        -3.1436    4.4173   41.7205 H         1 THR         0.0257
    137 H35        -7.3731    3.9731   42.1527 H         1 ASN         0.1885
    138 H36        -6.4282    4.2551   39.3394 H         1 ASN         0.0826
    139 H37        -8.0213    2.4167   38.8550 H         1 ASN         0.0551
    140 H38        -8.4867    2.3715   40.5894 H         1 ASN         0.0551
    141 H39        -6.0665   -0.0165   41.2555 H         1 ASN         0.1814
    142 H40        -7.6841    0.5694   41.4560 H         1 ASN         0.1814
    143 H41        -8.1096    5.9792   41.4041 H         1 ASN         0.1885
    144 H42        -9.6293    7.6273   41.2307 H         1 ASN         0.0826
    145 H43       -10.3196    8.4200   38.9928 H         1 ASN         0.0551
    146 H44        -9.5941    6.9495   38.2594 H         1 ASN         0.0551
    147 H45        -6.5007    8.5329   37.9140 H         1 ASN         0.1814
    148 H46        -7.7126    7.4654   37.2882 H         1 ASN         0.1814
    149 H47       -10.5780    4.8247   41.6671 H         1 ASN         0.1885
    150 H48       -13.3439    5.0008   40.5788 H         1 ASN         0.0826
    151 H49       -13.7291    2.8278   41.6483 H         1 ASN         0.0551
    152 H50       -12.1400    2.9174   42.4810 H         1 ASN         0.0551
    153 H51       -10.6914    1.0074   39.9743 H         1 ASN         0.1814
    154 H52       -10.9633    1.3057   41.6587 H         1 ASN         0.1814
    155 H53       -15.1747    5.2450   42.0700 H         1 LEU         0.1883
    156 H54       -14.5288    6.9014   44.3509 H         1 LEU         0.0800
    157 H55       -17.0628    6.5746   44.8369 H         1 LEU         0.0315
    158 H56       -17.0962    5.7649   43.2338 H         1 LEU         0.0315
    159 H57       -16.2281    7.8356   42.1848 H         1 LEU         0.0298
    160 H58       -18.2922    9.1769   42.4808 H         1 LEU         0.0232
    161 H59       -18.6963    8.2283   43.9516 H         1 LEU         0.0232
    162 H60       -18.6617    7.4243   42.3457 H         1 LEU         0.0232
    163 H61       -14.9867    8.6918   44.1516 H         1 LEU         0.0232
    164 H62       -16.5404    8.9866   45.0036 H         1 LEU         0.0232
    165 H63       -16.1387    9.9170   43.5204 H         1 LEU         0.0232
    166 H64        -2.1195    7.4922   52.9794 H         1 CYF         0.2458
    167 H65        -0.4918    4.8722   51.4029 H         1 CYF         0.0454
    168 H66        -0.3924    0.8235   48.8021 H         1 CYF         0.0454
    169 H67        -0.8308   -0.9332   47.0215 H         1 CYF         0.2458
    170 H68        -4.0440   -1.0455   47.4461 H         1 CYF         0.0436
    171 H69        -5.3814    0.7585   48.5202 H         1 CYF         0.0504
    172 H70        -4.4638    2.2838   50.8717 H         1 CYF         0.0671
    173 H71        -5.4722    5.0421   51.3300 H         1 CYF         0.0504
    174 H72        -4.1853    6.8059   52.5245 H         1 CYF         0.0436
    175 H73        -6.0500    2.6879   52.0147 H         1 CYF         0.0531
    176 H74        -8.5067    2.8118   51.9852 H         1 CYF         0.0510
    177 H75        -8.4799    3.3686   47.7376 H         1 CYF         0.0519
    178 H76       -10.3221    2.3114   50.3267 H         1 CYF         0.2235
    179 H77       -13.0889    4.1121   50.1029 H         1 CYF         0.0621
    180 H78       -12.2672    2.6844   50.8191 H         1 CYF         0.0621
    181 H79       -13.0855    3.1193   46.2770 H         1 CYF         0.0426
    182 H80       -12.1368    4.2498   47.3010 H         1 CYF         0.0426
    183 H81       -15.1625    3.8733   47.4706 H         1 CYF         0.0808
    184 H82       -13.9095    6.2694   46.2718 H         1 CYF         0.1884
    185 H83       -15.1218    5.6742   50.4272 H         1 CYF         0.1815
    186 H84       -15.8701    4.5048   49.3916 H         1 CYF         0.1815
@<TRIPOS>BOND
     1    1    2 am 
     2    5    1 1  
     3    2    3 2  
     4    2    4 1  
     5    5    6 1  
     6    9    5 1  
     7    6    7 1  
     8    6    8 1  
     9    9   10 2  
    10   11    9 am 
    11   12   11 1  
    12   13   12 1  
    13   12   15 1  
    14   13   14 2  
    15   20   13 am 
    16   15   16 1  
    17   16   17 1  
    18   17   18 1  
    19   18   19 1  
    20   21   20 1  
    21   22   21 1  
    22   21   24 1  
    23   22   23 2  
    24   28   22 am 
    25   24   25 1  
    26   25   26 ar 
    27   25   27 ar 
    28   29   28 1  
    29   30   29 1  
    30   29   32 1  
    31   30   31 2  
    32   35   30 am 
    33   32   33 1  
    34   32   34 1  
    35   36   35 1  
    36   37   36 1  
    37   36   39 1  
    38   37   38 2  
    39   43   37 am 
    40   39   40 1  
    41   40   41 2  
    42   40   42 am 
    43   44   43 1  
    44   45   44 1  
    45   44   47 1  
    46   45   46 2  
    47   51   45 am 
    48   47   48 1  
    49   48   49 2  
    50   48   50 am 
    51   52   51 1  
    52   53   52 1  
    53   52   55 1  
    54   53   54 2  
    55   59   53 am 
    56   55   56 1  
    57   56   57 2  
    58   56   58 am 
    59   60   59 1  
    60   61   60 1  
    61   60   63 1  
    62   61   62 2  
    63   99   61 am 
    64   63   64 1  
    65   64   65 1  
    66   64   66 1  
    67   67   68 1  
    68   69   67 ar 
    69   82   67 ar 
    70   70   69 ar 
    71   70   71 1  
    72   80   70 ar 
    73   72   71 1  
    74   72   73 ar 
    75   78   72 ar 
    76   73   74 ar 
    77   74   75 1  
    78   76   74 ar 
    79   77   76 ar 
    80   78   77 ar 
    81   79   78 1  
    82   79   80 1  
    83   83   79 1  
    84   80   81 ar 
    85   81   82 ar 
    86   84   83 ar 
    87   88   83 ar 
    88   85   84 ar 
    89   86   85 ar 
    90   86   87 ar 
    91   92   86 1  
    92   87   88 ar 
    93   88   89 1  
    94   89   90 ar 
    95   89   91 ar 
    96   93   92 am 
    97   93   94 2  
    98   95   93 1  
    99   96   95 1  
   100   97   96 1  
   101   98   97 1  
   102   98   99 1  
   103   98  101 1  
   104  101  100 2  
   105  101  102 am 
   106    1  103 1  
   107    4  104 1  
   108    4  105 1  
   109    4  106 1  
   110    5  107 1  
   111    6  108 1  
   112    7  109 1  
   113    8  110 1  
   114    8  111 1  
   115    8  112 1  
   116   11  113 1  
   117   12  114 1  
   118   15  115 1  
   119   15  116 1  
   120   16  117 1  
   121   16  118 1  
   122   17  119 1  
   123   17  120 1  
   124   18  121 1  
   125   18  122 1  
   126   19  123 1  
   127   19  124 1  
   128   19  125 1  
   129   20  126 1  
   130   21  127 1  
   131   24  128 1  
   132   24  129 1  
   133   28  130 1  
   134   29  131 1  
   135   32  132 1  
   136   33  133 1  
   137   34  134 1  
   138   34  135 1  
   139   34  136 1  
   140   35  137 1  
   141   36  138 1  
   142   39  139 1  
   143   39  140 1  
   144   42  141 1  
   145   42  142 1  
   146   43  143 1  
   147   44  144 1  
   148   47  145 1  
   149   47  146 1  
   150   50  147 1  
   151   50  148 1  
   152   51  149 1  
   153   52  150 1  
   154   55  151 1  
   155   55  152 1  
   156   58  153 1  
   157   58  154 1  
   158   59  155 1  
   159   60  156 1  
   160   63  157 1  
   161   63  158 1  
   162   64  159 1  
   163   65  160 1  
   164   65  161 1  
   165   65  162 1  
   166   66  163 1  
   167   66  164 1  
   168   66  165 1  
   169   68  166 1  
   170   69  167 1  
   171   73  168 1  
   172   75  169 1  
   173   76  170 1  
   174   77  171 1  
   175   79  172 1  
   176   81  173 1  
   177   82  174 1  
   178   84  175 1  
   179   85  176 1  
   180   87  177 1  
   181   92  178 1  
   182   95  179 1  
   183   95  180 1  
   184   97  181 1  
   185   97  182 1  
   186   98  183 1  
   187   99  184 1  
   188  102  185 1  
   189  102  186 1  
@<TRIPOS>SUBSTRUCTURE
     1 THC         1

