2uy3_ligand
  -I-interpret- 

 20 21  0  0  0  0  0  0  0  0999 V2000
   38.0740   20.5310   22.2120 N   0  0  0  0  0
   38.0800   20.3950   23.6110 C   0  0  0  0  0
   38.3160   21.5330   24.4230 C   0  0  0  0  0
   38.5410   22.7850   23.8480 C   0  0  0  0  0
   38.5160   22.9470   22.4450 N   0  0  0  0  0
   38.2900   21.8140   21.6190 C   0  0  0  0  0
   38.3750   21.7180   25.7600 N   0  0  0  0  0
   38.6340   23.0180   25.9920 C   0  0  0  0  0
   38.7210   23.6690   24.8450 N   0  0  0  0  0
   38.7420   24.2830   21.8250 C   0  0  0  0  0
   37.8330   19.3220   21.3800 C   0  0  0  0  0
   38.2790   21.9290   20.3930 O   0  0  0  0  0
   37.8800   19.2610   24.0680 O   0  0  0  0  0
   38.8080   23.6990   27.3560 Cl  0  0  0  0  0
   39.6232   24.2407   21.1848 H   0  0  0  0  0
   37.8715   24.5576   21.2293 H   0  0  0  0  0
   38.8961   25.0245   22.6089 H   0  0  0  0  0
   36.9385   19.4711   20.7752 H   0  0  0  0  0
   38.6903   19.1544   20.7280 H   0  0  0  0  0
   37.6942   18.4575   22.0292 H   0  0  0  0  0
  1  2  1  0  0  0
  1  6  1  0  0  0
  1 11  1  0  0  0
  2  3  1  0  0  0
  2 13  2  0  0  0
  3  4  4  0  0  0
  3  7  4  0  0  0
  4  5  1  0  0  0
  4  9  4  0  0  0
  5  6  1  0  0  0
  5 10  1  0  0  0
  6 12  2  0  0  0
  7  8  4  0  0  0
  8  9  4  0  0  0
  8 14  1  0  0  0
 10 15  1  0  0  0
 10 16  1  0  0  0
 10 17  1  0  0  0
 11 18  1  0  0  0
 11 19  1  0  0  0
 11 20  1  0  0  0
M  END
$$$$
