### 
### Created by X-TOOL on Mon Sep 10 21:13:20 2018
### 

@<TRIPOS>MOLECULE
5e1d_ligand
  113   114     1     0     0
SMALL
GAST_HUCK


@<TRIPOS>ATOM
      1 N           7.0150   34.5310  -15.8900 N.4       1 TYR         0.2392
      2 CA          6.2860   34.6710  -14.5950 C.3       1 TYR         0.0732
      3 C           5.1180   33.7210  -14.5700 C.2       1 TYR         0.2311
      4 O           4.6930   33.2660  -15.6230 O.2       1 TYR        -0.3903
      5 CB          5.8450   36.1340  -14.3910 C.3       1 TYR         0.0365
      6 CG          5.1570   36.7650  -15.5680 C.ar      1 TYR        -0.0460
      7 CD1         3.8200   36.5250  -15.8200 C.ar      1 TYR        -0.0684
      8 CD2         5.8580   37.5190  -16.4600 C.ar      1 TYR        -0.0684
      9 CE1         3.1990   37.0710  -16.9250 C.ar      1 TYR        -0.0398
     10 CE2         5.2590   38.0620  -17.5760 C.ar      1 TYR        -0.0398
     11 CZ          3.9280   37.8190  -17.7860 C.ar      1 TYR         0.0805
     12 OH          3.3220   38.3420  -18.9030 O.3       1 TYR        -0.3376
     13 N           4.5320   33.4370  -13.3970 N.am      1 PRO        -0.2470
     14 CA          3.3030   32.6480  -13.2990 C.3       1 PRO         0.1339
     15 C           2.2600   33.2710  -14.2250 C.2       1 PRO         0.2041
     16 O           2.0290   34.4650  -14.1660 O.2       1 PRO        -0.3944
     17 CB          2.8810   32.7950  -11.8260 C.3       1 PRO        -0.0104
     18 CG          4.1190   33.1370  -11.1430 C.3       1 PRO        -0.0281
     19 CD          4.9890   33.8970  -12.0700 C.3       1 PRO         0.0371
     20 N           1.6940   32.4480  -15.1000 N.am      1 LYS        -0.2637
     21 CA          0.9040   32.9650  -16.1950 C.3       1 LYS         0.1310
     22 C          -0.2900   32.0940  -16.5010 C.2       1 LYS         0.2039
     23 O          -0.1720   30.8910  -16.6340 O.2       1 LYS        -0.3944
     24 CB          1.8150   32.9860  -17.4490 C.3       1 LYS        -0.0122
     25 CG          1.2060   33.5320  -18.7070 C.3       1 LYS        -0.0440
     26 CD          2.2450   33.6040  -19.8090 C.3       1 LYS        -0.0124
     27 CE          3.2460   34.6760  -19.5810 C.3       1 LYS        -0.0354
     28 NZ          4.0270   34.9870  -20.8150 N.4       1 LYS         0.2185
     29 N          -1.4540   32.7190  -16.6940 N.am      1 ARG        -0.2637
     30 CA         -2.6610   31.9700  -17.0840 C.3       1 ARG         0.1311
     31 C          -2.4480   31.2210  -18.4040 C.2       1 ARG         0.2039
     32 O          -1.8950   31.7880  -19.3530 O.2       1 ARG        -0.3944
     33 CB         -3.8490   32.9230  -17.2200 C.3       1 ARG        -0.0092
     34 CG         -5.1850   32.2790  -17.5890 C.3       1 ARG        -0.0156
     35 CD         -6.2810   33.3300  -17.6550 C.3       1 ARG         0.0627
     36 NE         -6.6750   33.7400  -16.3200 N.pl3     1 ARG        -0.2723
     37 CZ         -7.5320   33.0570  -15.5670 C.cat     1 ARG         0.2882
     38 NH1        -8.0850   31.9520  -16.0350 N.pl3     1 ARG        -0.2849
     39 NH2        -7.8290   33.4820  -14.3590 N.pl3     1 ARG        -0.2849
     40 N          -2.8900   29.9740  -18.4600 N.am      1 ILE        -0.2635
     41 CA         -2.8350   29.1790  -19.7020 C.3       1 ILE         0.1335
     42 C          -3.6800   29.8890  -20.7480 C.2       1 ILE         0.2036
     43 O          -4.8630   30.1920  -20.5210 O.2       1 ILE        -0.3944
     44 CB         -3.2850   27.7350  -19.4970 C.3       1 ILE        -0.0037
     45 CG1        -2.3210   27.0050  -18.5430 C.3       1 ILE        -0.0491
     46 CG2        -3.3340   26.9950  -20.8290 C.3       1 ILE        -0.0582
     47 CD1        -2.7470   25.5930  -18.1900 C.3       1 ILE        -0.0648
     48 N          -3.0580   30.1990  -21.8920 N.am      1 ALA        -0.2697
     49 CA         -3.7660   30.8780  -22.9570 C.3       1 ALA         0.0916
     50 C          -4.6570   29.8900  -23.6820 C.2       1 ALA         0.0598
     51 O          -4.4490   28.6730  -23.6920 O.co2     1 ALA        -0.5666
     52 CB         -2.7790   31.4960  -23.9220 C.3       1 ALA        -0.0300
     53 OXT        -5.6440   30.3290  -24.2750 O.co2     1 ALA        -0.5666
     54 H1          7.7967   35.1672  -15.9060 H         1 TYR         0.2017
     55 H2          6.3910   34.7462  -16.6518 H         1 TYR         0.2017
     56 H3          7.3497   33.5851  -15.9867 H         1 TYR         0.2017
     57 H4          6.9684   34.4009  -13.7756 H         1 TYR         0.1120
     58 H5          6.7402   36.7302  -14.1604 H         1 TYR         0.0486
     59 H6          5.1536   36.1649  -13.5361 H         1 TYR         0.0486
     60 H7          3.2514   35.8998  -15.1411 H         1 TYR         0.0530
     61 H8          6.9134   37.6963  -16.2877 H         1 TYR         0.0530
     62 H9          2.1426   36.9032  -17.1009 H         1 TYR         0.0525
     63 H10         5.8285   38.6676  -18.2716 H         1 TYR         0.0525
     64 H11         3.7512   38.0064  -19.6812 H         1 TYR         0.2458
     65 H12         3.4716   31.5936  -13.5632 H         1 PRO         0.0802
     66 H13         2.4686   31.8510  -11.4404 H         1 PRO         0.0313
     67 H14         2.1354   33.5954  -11.7099 H         1 PRO         0.0313
     68 H15         4.6321   32.2167  -10.8273 H         1 PRO         0.0287
     69 H16         3.8946   33.7531  -10.2598 H         1 PRO         0.0287
     70 H17         4.8412   34.9808  -11.9535 H         1 PRO         0.0524
     71 H18         6.0492   33.6521  -11.9090 H         1 PRO         0.0524
     72 H19         1.8154   31.4604  -15.0006 H         1 LYS         0.1883
     73 H20         0.5614   33.9819  -15.9530 H         1 LYS         0.0800
     74 H21         2.1299   31.9516  -17.6513 H         1 LYS         0.0312
     75 H22         2.6975   33.5982  -17.2114 H         1 LYS         0.0312
     76 H23         0.8143   34.5412  -18.5117 H         1 LYS         0.0269
     77 H24         0.3837   32.8749  -19.0265 H         1 LYS         0.0269
     78 H25         1.7334   33.7971  -20.7634 H         1 LYS         0.0317
     79 H26         2.7691   32.6384  -19.8626 H         1 LYS         0.0317
     80 H27         3.9417   34.3501  -18.7937 H         1 LYS         0.0813
     81 H28         2.7225   35.5864  -19.2538 H         1 LYS         0.0813
     82 H29         4.6926   35.7174  -20.6162 H         1 LYS         0.1994
     83 H30         3.3992   35.2933  -21.5417 H         1 LYS         0.1994
     84 H31         4.5165   34.1604  -21.1201 H         1 LYS         0.1994
     85 H32        -1.5072   33.7101  -16.5720 H         1 ARG         0.1883
     86 H33        -2.8846   31.2351  -16.2967 H         1 ARG         0.0800
     87 H34        -3.6030   33.6585  -18.0001 H         1 ARG         0.0313
     88 H35        -3.9786   33.4390  -16.2572 H         1 ARG         0.0313
     89 H36        -5.4478   31.5289  -16.8286 H         1 ARG         0.0301
     90 H37        -5.0927   31.7899  -18.5699 H         1 ARG         0.0301
     91 H38        -7.1537   32.9103  -18.1768 H         1 ARG         0.0689
     92 H39        -5.9096   34.2057  -18.2074 H         1 ARG         0.0689
     93 H40        -6.2696   34.6053  -15.9356 H         1 ARG         0.2642
     94 H41        -8.7490   31.4219  -15.4528 H         1 ARG         0.2615
     95 H42        -7.8520   31.6207  -16.9820 H         1 ARG         0.2615
     96 H43        -7.3971   34.3436  -13.9955 H         1 ARG         0.2615
     97 H44        -8.4936   32.9534  -13.7760 H         1 ARG         0.2615
     98 H45        -3.2729   29.5582  -17.6351 H         1 ILE         0.1883
     99 H46        -1.7924   29.1555  -20.0520 H         1 ILE         0.0803
    100 H47        -4.2918   27.7385  -19.0540 H         1 ILE         0.0345
    101 H48        -2.2502   27.5869  -17.6122 H         1 ILE         0.0267
    102 H49        -1.3318   26.9574  -19.0218 H         1 ILE         0.0267
    103 H50        -4.0220   27.5147  -21.5120 H         1 ILE         0.0235
    104 H51        -3.6881   25.9666  -20.6644 H         1 ILE         0.0235
    105 H52        -2.3274   26.9698  -21.2717 H         1 ILE         0.0235
    106 H53        -2.0076   25.1464  -17.5089 H         1 ILE         0.0230
    107 H54        -2.8120   24.9894  -19.1073 H         1 ILE         0.0230
    108 H55        -3.7303   25.6189  -17.6977 H         1 ILE         0.0230
    109 H56        -2.0947   29.9592  -22.0123 H         1 ALA         0.1875
    110 H57        -4.3896   31.6742  -22.5245 H         1 ALA         0.0723
    111 H58        -3.3255   32.0092  -24.7269 H         1 ALA         0.0270
    112 H59        -2.1456   30.7072  -24.3539 H         1 ALA         0.0270
    113 H60        -2.1481   32.2211  -23.3871 H         1 ALA         0.0270
@<TRIPOS>BOND
     1    1    2 1  
     2    2    3 1  
     3    2    5 1  
     4    3    4 2  
     5    3   13 am 
     6    5    6 1  
     7    6    7 ar 
     8    6    8 ar 
     9    7    9 ar 
    10    8   10 ar 
    11    9   11 ar 
    12   10   11 ar 
    13   11   12 1  
    14   13   14 1  
    15   13   19 1  
    16   14   15 1  
    17   14   17 1  
    18   15   16 2  
    19   15   20 am 
    20   17   18 1  
    21   18   19 1  
    22   20   21 1  
    23   21   22 1  
    24   21   24 1  
    25   22   23 2  
    26   22   29 am 
    27   24   25 1  
    28   25   26 1  
    29   26   27 1  
    30   27   28 1  
    31   29   30 1  
    32   30   31 1  
    33   30   33 1  
    34   31   32 2  
    35   31   40 am 
    36   33   34 1  
    37   34   35 1  
    38   35   36 1  
    39   36   37 ar 
    40   37   38 ar 
    41   37   39 ar 
    42   40   41 1  
    43   41   42 1  
    44   41   44 1  
    45   42   43 2  
    46   42   48 am 
    47   44   45 1  
    48   44   46 1  
    49   45   47 1  
    50   48   49 1  
    51   49   50 1  
    52   49   52 1  
    53   50   51 ar 
    54   50   53 ar 
    55    1   54 1  
    56    1   55 1  
    57    1   56 1  
    58    2   57 1  
    59    5   58 1  
    60    5   59 1  
    61    7   60 1  
    62    8   61 1  
    63    9   62 1  
    64   10   63 1  
    65   12   64 1  
    66   14   65 1  
    67   17   66 1  
    68   17   67 1  
    69   18   68 1  
    70   18   69 1  
    71   19   70 1  
    72   19   71 1  
    73   20   72 1  
    74   21   73 1  
    75   24   74 1  
    76   24   75 1  
    77   25   76 1  
    78   25   77 1  
    79   26   78 1  
    80   26   79 1  
    81   27   80 1  
    82   27   81 1  
    83   28   82 1  
    84   28   83 1  
    85   28   84 1  
    86   29   85 1  
    87   30   86 1  
    88   33   87 1  
    89   33   88 1  
    90   34   89 1  
    91   34   90 1  
    92   35   91 1  
    93   35   92 1  
    94   36   93 1  
    95   38   94 1  
    96   38   95 1  
    97   39   96 1  
    98   39   97 1  
    99   40   98 1  
   100   41   99 1  
   101   44  100 1  
   102   45  101 1  
   103   45  102 1  
   104   46  103 1  
   105   46  104 1  
   106   46  105 1  
   107   47  106 1  
   108   47  107 1  
   109   47  108 1  
   110   48  109 1  
   111   49  110 1  
   112   52  111 1  
   113   52  112 1  
   114   52  113 1  
@<TRIPOS>SUBSTRUCTURE
     1 TYR         1

