5e1d_ligand
  -I-interpret- 

113114  0  0  0  0  0  0  0  0999 V2000
    7.0150   34.5310  -15.8900 N   0  3  0  0  0
    6.2860   34.6710  -14.5950 C   0  0  0  0  0
    5.1180   33.7210  -14.5700 C   0  0  0  0  0
    4.6930   33.2660  -15.6230 O   0  0  0  0  0
    5.8450   36.1340  -14.3910 C   0  0  0  0  0
    5.1570   36.7650  -15.5680 C   0  0  0  0  0
    3.8200   36.5250  -15.8200 C   0  0  0  0  0
    5.8580   37.5190  -16.4600 C   0  0  0  0  0
    3.1990   37.0710  -16.9250 C   0  0  0  0  0
    5.2590   38.0620  -17.5760 C   0  0  0  0  0
    3.9280   37.8190  -17.7860 C   0  0  0  0  0
    3.3220   38.3420  -18.9030 O   0  0  0  0  0
    4.5320   33.4370  -13.3970 N   0  0  0  0  0
    3.3030   32.6480  -13.2990 C   0  0  0  0  0
    2.2600   33.2710  -14.2250 C   0  0  0  0  0
    2.0290   34.4650  -14.1660 O   0  0  0  0  0
    2.8810   32.7950  -11.8260 C   0  0  0  0  0
    4.1190   33.1370  -11.1430 C   0  0  0  0  0
    4.9890   33.8970  -12.0700 C   0  0  0  0  0
    1.6940   32.4480  -15.1000 N   0  0  0  0  0
    0.9040   32.9650  -16.1950 C   0  0  0  0  0
   -0.2900   32.0940  -16.5010 C   0  0  0  0  0
   -0.1720   30.8910  -16.6340 O   0  0  0  0  0
    1.8150   32.9860  -17.4490 C   0  0  0  0  0
    1.2060   33.5320  -18.7070 C   0  0  0  0  0
    2.2450   33.6040  -19.8090 C   0  0  0  0  0
    3.2460   34.6760  -19.5810 C   0  0  0  0  0
    4.0270   34.9870  -20.8150 N   0  3  0  0  0
   -1.4540   32.7190  -16.6940 N   0  0  0  0  0
   -2.6610   31.9700  -17.0840 C   0  0  0  0  0
   -2.4480   31.2210  -18.4040 C   0  0  0  0  0
   -1.8950   31.7880  -19.3530 O   0  0  0  0  0
   -3.8490   32.9230  -17.2200 C   0  0  0  0  0
   -5.1850   32.2790  -17.5890 C   0  0  0  0  0
   -6.2810   33.3300  -17.6550 C   0  0  0  0  0
   -6.6750   33.7400  -16.3200 N   0  0  0  0  0
   -7.5320   33.0570  -15.5670 C   0  0  0  0  0
   -8.0850   31.9520  -16.0350 N   0  0  0  0  0
   -7.8290   33.4820  -14.3590 N   0  0  0  0  0
   -2.8900   29.9740  -18.4600 N   0  0  0  0  0
   -2.8350   29.1790  -19.7020 C   0  0  0  0  0
   -3.6800   29.8890  -20.7480 C   0  0  0  0  0
   -4.8630   30.1920  -20.5210 O   0  0  0  0  0
   -3.2850   27.7350  -19.4970 C   0  0  0  0  0
   -2.3210   27.0050  -18.5430 C   0  0  0  0  0
   -3.3340   26.9950  -20.8290 C   0  0  0  0  0
   -2.7470   25.5930  -18.1900 C   0  0  0  0  0
   -3.0580   30.1990  -21.8920 N   0  0  0  0  0
   -3.7660   30.8780  -22.9570 C   0  0  0  0  0
   -4.6570   29.8900  -23.6820 C   0  0  0  0  0
   -4.4490   28.6730  -23.6920 O   0  0  0  0  0
   -2.7790   31.4960  -23.9220 C   0  0  0  0  0
   -5.6440   30.3290  -24.2750 O   0  0  0  0  0
    7.3017   33.5600  -16.0142 H   0  0  0  0  0
    6.4004   34.8060  -16.6562 H   0  0  0  0  0
    7.8393   35.1317  -15.8814 H   0  0  0  0  0
    6.9464   34.4126  -13.7672 H   0  0  0  0  0
    6.7516   36.7120  -14.2118 H   0  0  0  0  0
    5.1258   36.1327  -13.5720 H   0  0  0  0  0
    3.2483   35.8964  -15.1373 H   0  0  0  0  0
    6.9193   37.6973  -16.2867 H   0  0  0  0  0
    2.1368   36.9023  -17.1018 H   0  0  0  0  0
    5.8317   38.6710  -18.2755 H   0  0  0  0  0
    3.9651   38.8437  -19.4093 H   0  0  0  0  0
    3.4207   31.6024  -13.5837 H   0  0  0  0  0
    2.4269   31.8860  -11.4317 H   0  0  0  0  0
    2.1087   33.5519  -11.6891 H   0  0  0  0  0
    4.6272   32.2261  -10.8265 H   0  0  0  0  0
    3.8982   33.7448  -10.2656 H   0  0  0  0  0
    4.9050   34.9763  -11.9425 H   0  0  0  0  0
    6.0505   33.7165  -11.9003 H   0  0  0  0  0
    1.8179   31.4406  -14.9986 H   0  0  0  0  0
    0.5358   33.9539  -15.9219 H   0  0  0  0  0
    2.0638   31.9459  -17.6598 H   0  0  0  0  0
    2.6492   33.6442  -17.2061 H   0  0  0  0  0
    0.8259   34.5347  -18.5113 H   0  0  0  0  0
    0.3968   32.8742  -19.0243 H   0  0  0  0  0
    1.7280   33.8213  -20.7436 H   0  0  0  0  0
    2.7739   32.6512  -19.8340 H   0  0  0  0  0
    3.9422   34.3338  -18.8153 H   0  0  0  0  0
    2.7148   35.5784  -19.2784 H   0  0  0  0  0
    4.7001   35.7261  -20.6126 H   0  0  0  0  0
    4.5218   34.1498  -21.1228 H   0  0  0  0  0
    3.3907   35.2967  -21.5496 H   0  0  0  0  0
   -1.5082   33.7299  -16.5696 H   0  0  0  0  0
   -2.8676   31.2378  -16.3034 H   0  0  0  0  0
   -3.6028   33.6052  -18.0336 H   0  0  0  0  0
   -3.9893   33.3794  -16.2401 H   0  0  0  0  0
   -5.4454   31.5424  -16.8289 H   0  0  0  0  0
   -5.0914   31.8026  -18.5649 H   0  0  0  0  0
   -7.1465   32.9068  -18.1648 H   0  0  0  0  0
   -5.9055   34.1990  -18.1954 H   0  0  0  0  0
   -6.2736   34.5969  -15.9393 H   0  0  0  0  0
   -8.7433   31.4276  -15.4588 H   0  0  0  0  0
   -7.8536   31.6234  -16.9725 H   0  0  0  0  0
   -7.4020   34.3357  -13.9994 H   0  0  0  0  0
   -3.2806   29.5498  -17.6186 H   0  0  0  0  0
   -1.8003   29.1095  -20.0377 H   0  0  0  0  0
   -4.2836   27.7499  -19.0603 H   0  0  0  0  0
   -2.2946   27.5748  -17.6142 H   0  0  0  0  0
   -1.3590   26.9335  -19.0504 H   0  0  0  0  0
   -4.0380   27.4941  -21.4948 H   0  0  0  0  0
   -2.3419   26.9960  -21.2804 H   0  0  0  0  0
   -3.6570   25.9676  -20.6608 H   0  0  0  0  0
   -3.7214   25.6201  -17.7023 H   0  0  0  0  0
   -2.8110   24.9960  -19.0997 H   0  0  0  0  0
   -2.0136   25.1516  -17.5151 H   0  0  0  0  0
   -2.0754   29.9544  -22.0147 H   0  0  0  0  0
   -4.3821   31.6709  -22.5329 H   0  0  0  0  0
   -3.6514   28.4817  -23.1932 H   0  0  0  0  0
   -2.1545   32.2142  -23.3907 H   0  0  0  0  0
   -2.1520   30.7135  -24.3492 H   0  0  0  0  0
   -3.3217   32.0042  -24.7191 H   0  0  0  0  0
  1  2  1  0  0  0
  2  3  1  0  0  0
  2  5  1  0  0  0
  3  4  2  0  0  0
  3 13  1  0  0  0
  5  6  1  0  0  0
  6  7  4  0  0  0
  6  8  4  0  0  0
  7  9  4  0  0  0
  8 10  4  0  0  0
  9 11  4  0  0  0
 10 11  4  0  0  0
 11 12  1  0  0  0
 13 14  1  0  0  0
 13 19  1  0  0  0
 14 15  1  0  0  0
 14 17  1  0  0  0
 15 16  2  0  0  0
 15 20  1  0  0  0
 17 18  1  0  0  0
 18 19  1  0  0  0
 20 21  1  0  0  0
 21 22  1  0  0  0
 21 24  1  0  0  0
 22 23  2  0  0  0
 22 29  1  0  0  0
 24 25  1  0  0  0
 25 26  1  0  0  0
 26 27  1  0  0  0
 27 28  1  0  0  0
 29 30  1  0  0  0
 30 31  1  0  0  0
 30 33  1  0  0  0
 31 32  2  0  0  0
 31 40  1  0  0  0
 33 34  1  0  0  0
 34 35  1  0  0  0
 35 36  1  0  0  0
 36 37  1  0  0  0
 37 38  1  0  0  0
 37 39  2  0  0  0
 40 41  1  0  0  0
 41 42  1  0  0  0
 41 44  1  0  0  0
 42 43  2  0  0  0
 42 48  1  0  0  0
 44 45  1  0  0  0
 44 46  1  0  0  0
 45 47  1  0  0  0
 48 49  1  0  0  0
 49 50  1  0  0  0
 49 52  1  0  0  0
 50 51  1  0  0  0
 50 53  2  0  0  0
  1 54  1  0  0  0
  1 55  1  0  0  0
  1 56  1  0  0  0
  2 57  1  0  0  0
  5 58  1  0  0  0
  5 59  1  0  0  0
  7 60  1  0  0  0
  8 61  1  0  0  0
  9 62  1  0  0  0
 10 63  1  0  0  0
 12 64  1  0  0  0
 14 65  1  0  0  0
 17 66  1  0  0  0
 17 67  1  0  0  0
 18 68  1  0  0  0
 18 69  1  0  0  0
 19 70  1  0  0  0
 19 71  1  0  0  0
 20 72  1  0  0  0
 21 73  1  0  0  0
 24 74  1  0  0  0
 24 75  1  0  0  0
 25 76  1  0  0  0
 25 77  1  0  0  0
 26 78  1  0  0  0
 26 79  1  0  0  0
 27 80  1  0  0  0
 27 81  1  0  0  0
 28 82  1  0  0  0
 28 83  1  0  0  0
 28 84  1  0  0  0
 29 85  1  0  0  0
 30 86  1  0  0  0
 33 87  1  0  0  0
 33 88  1  0  0  0
 34 89  1  0  0  0
 34 90  1  0  0  0
 35 91  1  0  0  0
 35 92  1  0  0  0
 36 93  1  0  0  0
 38 94  1  0  0  0
 38 95  1  0  0  0
 39 96  1  0  0  0
 40 97  1  0  0  0
 41 98  1  0  0  0
 44 99  1  0  0  0
 45100  1  0  0  0
 45101  1  0  0  0
 46102  1  0  0  0
 46103  1  0  0  0
 46104  1  0  0  0
 47105  1  0  0  0
 47106  1  0  0  0
 47107  1  0  0  0
 48108  1  0  0  0
 49109  1  0  0  0
 51110  1  0  0  0
 52111  1  0  0  0
 52112  1  0  0  0
 52113  1  0  0  0
M  END
$$$$
