4ggz_ligand
  -I-interpret- 

 32 33  0  0  0  0  0  0  0  0999 V2000
   38.0110  -12.6940    1.2720 C   0  0  0  0  0
   38.3050  -12.7470    0.0300 O   0  0  0  0  0
   38.2550  -13.6920    2.0090 O   0  0  0  0  0
   37.3540  -11.4810    1.8970 C   0  0  0  0  0
   37.7330  -10.1500    1.2310 C   0  0  0  0  0
   39.2310   -9.8740    1.4140 C   0  0  0  0  0
   39.6440   -8.5380    0.7550 C   0  0  0  0  0
   41.1490   -8.2780    0.9500 C   0  0  0  0  0
   41.5140   -7.4820    2.3980 S   0  0  0  0  0
   43.1970   -7.1960    1.7800 C   0  0  0  0  0
   43.0390   -6.8020    0.3110 C   0  0  0  0  0
   42.8080   -5.3790    0.1740 N   0  0  0  0  0
   41.5810   -5.1530   -0.3000 C   0  0  0  0  0
   41.1190   -3.8930   -0.5430 O   0  0  0  0  0
   40.8930   -6.2540   -0.4970 N   0  0  0  0  0
   41.7390   -7.4010   -0.1590 C   0  0  0  0  0
   38.0610  -11.9195   -0.3910 H   0  0  0  0  0
   37.6893  -11.4304    2.9329 H   0  0  0  0  0
   36.2768  -11.6032    1.7836 H   0  0  0  0  0
   37.1626   -9.3444    1.6933 H   0  0  0  0  0
   37.5081  -10.2070    0.1660 H   0  0  0  0  0
   39.7915  -10.6806    0.9413 H   0  0  0  0  0
   39.4436   -9.8134    2.4813 H   0  0  0  0  0
   39.0830   -7.7273    1.2199 H   0  0  0  0  0
   39.4308   -8.5908   -0.3126 H   0  0  0  0  0
   41.5804   -9.2790    0.9441 H   0  0  0  0  0
   43.8160   -8.0867    1.8876 H   0  0  0  0  0
   43.7011   -6.4144    2.3485 H   0  0  0  0  0
   43.9319   -7.1200   -0.2273 H   0  0  0  0  0
   43.4860   -4.6533    0.4065 H   0  0  0  0  0
   39.9301   -6.3024   -0.8299 H   0  0  0  0  0
   41.8463   -8.0548   -1.0245 H   0  0  0  0  0
  1  2  1  0  0  0
  1  3  2  0  0  0
  1  4  1  0  0  0
  4  5  1  0  0  0
  5  6  1  0  0  0
  6  7  1  0  0  0
  7  8  1  0  0  0
  8  9  1  0  0  0
  8 16  1  0  0  0
  9 10  1  0  0  0
 10 11  1  0  0  0
 11 12  1  0  0  0
 11 16  1  0  0  0
 12 13  1  0  0  0
 13 14  2  0  0  0
 13 15  1  0  0  0
 15 16  1  0  0  0
  2 17  1  0  0  0
  4 18  1  0  0  0
  4 19  1  0  0  0
  5 20  1  0  0  0
  5 21  1  0  0  0
  6 22  1  0  0  0
  6 23  1  0  0  0
  7 24  1  0  0  0
  7 25  1  0  0  0
  8 26  1  0  0  0
 10 27  1  0  0  0
 10 28  1  0  0  0
 11 29  1  0  0  0
 12 30  1  0  0  0
 15 31  1  0  0  0
 16 32  1  0  0  0
M  END
$$$$
