4k3m_ligand
  -I-interpret- 

 56 56  0  0  0  0  0  0  0  0999 V2000
    4.5050   -7.9690  -12.9220 N   0  3  0  0  0
    5.6810   -7.5810  -12.0950 C   0  0  0  0  0
    6.4020   -6.4190  -12.7850 C   0  0  0  0  0
    6.4230   -6.3440  -14.0210 O   0  0  0  0  0
    6.6250   -8.7780  -11.9310 C   0  0  0  0  0
    6.9250   -9.1070  -10.4640 C   0  0  0  0  0
    5.9670   -9.2900   -9.6770 O   0  0  0  0  0
    8.1200   -9.2100  -10.1020 O   0  0  0  0  0
    6.9830   -5.5160  -11.9900 N   0  0  0  0  0
    7.7360   -4.3640  -12.5160 C   0  0  0  0  0
    9.0830   -4.7740  -13.1170 C   0  0  0  0  0
    9.6850   -4.0200  -13.8830 O   0  0  0  0  0
    7.9710   -3.3160  -11.4160 C   0  0  0  0  0
    6.8370   -2.3740  -11.0020 C   0  0  0  0  0
    7.2140   -1.6070   -9.7430 C   0  0  0  0  0
    6.4870   -1.4020  -12.1190 C   0  0  0  0  0
    9.5430   -5.9700  -12.7510 N   0  0  0  0  0
   10.8580   -6.4770  -13.1450 C   0  0  0  0  0
   10.9180   -7.9920  -12.9480 C   0  0  0  0  0
   10.0060   -8.6010  -12.3900 O   0  0  0  0  0
   11.9750   -5.8020  -12.3290 C   0  0  0  0  0
   11.7880   -5.9090  -10.8380 C   0  0  0  0  0
   12.1670   -7.0640  -10.1500 C   0  0  0  0  0
   11.2220   -4.8590  -10.1230 C   0  0  0  0  0
   11.9880   -7.1640   -8.7770 C   0  0  0  0  0
   11.0380   -4.9530   -8.7540 C   0  0  0  0  0
   11.4250   -6.1040   -8.0800 C   0  0  0  0  0
   11.8910   -8.6430  -13.3210 O   0  0  0  0  0
    3.8837   -7.1666  -13.0251 H   0  0  0  0  0
    4.8235   -8.2743  -13.8417 H   0  0  0  0  0
    4.0051   -8.7309  -12.4637 H   0  0  0  0  0
    5.3537   -7.2691  -11.1032 H   0  0  0  0  0
    7.5687   -8.5256  -12.4146 H   0  0  0  0  0
    6.1391   -9.6474  -12.3738 H   0  0  0  0  0
    5.1395   -9.1645  -10.1473 H   0  0  0  0  0
    6.9021   -5.6285  -10.9795 H   0  0  0  0  0
    7.1264   -3.9339  -13.3106 H   0  0  0  0  0
    8.7367   -2.6574  -11.8259 H   0  0  0  0  0
    8.1791   -3.9021  -10.5209 H   0  0  0  0  0
    5.9583   -2.9855  -10.7967 H   0  0  0  0  0
    7.4035   -2.3114   -8.9330 H   0  0  0  0  0
    8.1121   -1.0191   -9.9325 H   0  0  0  0  0
    6.3955   -0.9431   -9.4648 H   0  0  0  0  0
    7.3633   -0.8023  -12.3649 H   0  0  0  0  0
    6.1692   -1.9611  -12.9991 H   0  0  0  0  0
    5.6786   -0.7488  -11.7905 H   0  0  0  0  0
    8.9498   -6.5606  -12.1681 H   0  0  0  0  0
   11.0097   -6.2433  -14.1988 H   0  0  0  0  0
    9.3109   -7.9840  -12.1495 H   0  0  0  0  0
   11.9675   -4.7419  -12.5824 H   0  0  0  0  0
   12.9089   -6.3067  -12.5766 H   0  0  0  0  0
   12.6085   -7.8966  -10.6976 H   0  0  0  0  0
   10.9198   -3.9518  -10.6463 H   0  0  0  0  0
   12.2878   -8.0695   -8.2495 H   0  0  0  0  0
   10.5898   -4.1244   -8.2057 H   0  0  0  0  0
   11.2863   -6.1750   -7.0012 H   0  0  0  0  0
  1  2  1  0  0  0
  2  3  1  0  0  0
  2  5  1  0  0  0
  3  4  2  0  0  0
  3  9  1  0  0  0
  5  6  1  0  0  0
  6  7  1  0  0  0
  6  8  2  0  0  0
  9 10  1  0  0  0
 10 11  1  0  0  0
 10 13  1  0  0  0
 11 12  2  0  0  0
 11 17  1  0  0  0
 13 14  1  0  0  0
 14 15  1  0  0  0
 14 16  1  0  0  0
 17 18  1  0  0  0
 18 19  1  0  0  0
 18 21  1  0  0  0
 19 20  1  0  0  0
 19 28  2  0  0  0
 21 22  1  0  0  0
 22 23  4  0  0  0
 22 24  4  0  0  0
 23 25  4  0  0  0
 24 26  4  0  0  0
 25 27  4  0  0  0
 26 27  4  0  0  0
  1 29  1  0  0  0
  1 30  1  0  0  0
  1 31  1  0  0  0
  2 32  1  0  0  0
  5 33  1  0  0  0
  5 34  1  0  0  0
  7 35  1  0  0  0
  9 36  1  0  0  0
 10 37  1  0  0  0
 13 38  1  0  0  0
 13 39  1  0  0  0
 14 40  1  0  0  0
 15 41  1  0  0  0
 15 42  1  0  0  0
 15 43  1  0  0  0
 16 44  1  0  0  0
 16 45  1  0  0  0
 16 46  1  0  0  0
 17 47  1  0  0  0
 18 48  1  0  0  0
 20 49  1  0  0  0
 21 50  1  0  0  0
 21 51  1  0  0  0
 23 52  1  0  0  0
 24 53  1  0  0  0
 25 54  1  0  0  0
 26 55  1  0  0  0
 27 56  1  0  0  0
M  END
$$$$
