4ep2_ligand
  -I-interpret- 

114115  0  0  0  0  0  0  0  0999 V2000
   24.8110   22.7870    7.9980 N   0  3  0  0  0
   25.2630   23.9370    7.1790 C   0  0  0  0  0
   24.3040   25.1130    7.4050 C   0  0  0  0  0
   24.4280   26.1860    6.7960 O   0  0  0  0  0
   25.3130   23.5420    5.7140 C   0  0  0  0  0
   23.3570   24.9140    8.3130 N   0  0  0  0  0
   22.4730   25.9890    8.6630 C   0  0  0  0  0
   22.5020   26.3250   10.1150 C   0  0  0  0  0
   22.4830   25.4630   11.0040 O   0  0  0  0  0
   21.0590   25.7250    8.2050 C   0  0  0  0  0
   20.7870   26.3240    6.8520 C   0  0  0  0  0
   20.9490   25.3120    5.7480 C   0  0  0  0  0
   21.3960   24.1820    6.0520 O   0  0  0  0  0
   20.6460   25.6510    4.5800 O   0  0  0  0  0
   22.5360   27.6210   10.3300 N   0  0  0  0  0
   22.9370   28.1740   11.5820 C   0  0  0  0  0
   21.9040   29.1970   11.9500 C   0  0  0  0  0
   21.9660   30.3640   11.5550 O   0  0  0  0  0
   24.3140   28.8260   11.4510 C   0  0  0  0  0
   25.2590   27.8390   11.0050 O   0  0  0  0  0
   24.7630   29.4300   12.7800 C   0  0  0  0  0
   20.8970   28.7480   12.6570 N   0  0  0  0  0
   19.9590   29.6890   13.1360 C   0  0  0  0  0
   20.4800   30.1660   14.5090 C   0  0  0  0  0
   21.5740   29.7950   14.9460 O   0  0  0  0  0
   18.5440   29.0920   13.0390 C   0  0  0  0  0
   18.3480   28.2600   11.7740 C   0  0  0  0  0
   18.2950   28.8620   10.5160 C   0  0  0  0  0
   18.3680   26.8740   11.8310 C   0  0  0  0  0
   18.1840   28.0950    9.3570 C   0  0  0  0  0
   18.2570   26.1060   10.6820 C   0  0  0  0  0
   18.1630   26.7140    9.4440 C   0  0  0  0  0
   19.7370   31.0460   15.1280 N   0  0  0  0  0
   20.2500   32.1680   15.9110 C   0  0  0  0  0
   19.4540   33.2950   15.3390 C   0  0  0  0  0
   19.5180   33.6110   14.1330 O   0  0  0  0  0
   21.7680   32.4800   15.8250 C   0  0  0  0  0
   22.1090   33.9010   16.3460 C   0  0  0  0  0
   22.0480   34.2090   17.7090 C   0  0  0  0  0
   22.4210   34.9390   15.4660 C   0  0  0  0  0
   22.2970   35.4980   18.1710 C   0  0  0  0  0
   22.6810   36.2300   15.9270 C   0  0  0  0  0
   22.6100   36.5060   17.2740 C   0  0  0  0  0
   22.8900   37.7840   17.7320 O   0  0  0  0  0
   18.5490   33.7580   16.1670 N   0  0  0  0  0
   17.9130   34.9800   15.9000 C   0  0  0  0  0
   18.0350   35.9030   17.0990 C   0  0  0  0  0
   17.8780   35.5270   18.2740 O   0  0  0  0  0
   16.4860   34.7830   15.3420 C   0  0  0  0  0
   16.0850   33.3110   15.3890 C   0  0  0  0  0
   15.4880   35.6880   16.0450 C   0  0  0  0  0
   18.5930   37.0420   16.7430 N   0  0  0  0  0
   18.5970   38.2510   17.5120 C   0  0  0  0  0
   17.1700   38.6350   17.8950 C   0  0  0  0  0
   16.4072   39.1618   17.0417 O   0  0  0  0  0
   19.1740   39.3130   16.5890 C   0  0  0  0  0
   20.2110   40.1600   17.2500 C   0  0  0  0  0
   21.0060   39.6140   18.0420 O   0  0  0  0  0
   20.2650   41.3670   16.9270 O   0  0  0  0  0
   16.7545   38.4248   19.0658 O   0  0  0  0  0
   24.7805   23.0615    8.9799 H   0  0  0  0  0
   23.8803   22.5002    7.6949 H   0  0  0  0  0
   25.4623   22.0108    7.8808 H   0  0  0  0  0
   26.2674   24.2387    7.4760 H   0  0  0  0  0
   24.3168   23.2470    5.3843 H   0  0  0  0  0
   25.6567   24.3901    5.1219 H   0  0  0  0  0
   26.0012   22.7063    5.5876 H   0  0  0  0  0
   23.2579   24.0023    8.7596 H   0  0  0  0  0
   22.8494   26.8619    8.1297 H   0  0  0  0  0
   20.3765   26.1790    8.9234 H   0  0  0  0  0
   20.9176   24.6464    8.1361 H   0  0  0  0  0
   21.5014   27.1301    6.6848 H   0  0  0  0  0
   19.7583   26.6842    6.8378 H   0  0  0  0  0
   20.3266   26.5563    4.5834 H   0  0  0  0  0
   22.2665   28.2528    9.5760 H   0  0  0  0  0
   23.0113   27.4036   12.3495 H   0  0  0  0  0
   24.2566   29.6352   10.7230 H   0  0  0  0  0
   26.1259   28.2427   10.9208 H   0  0  0  0  0
   24.0454   30.1880   13.0940 H   0  0  0  0  0
   24.8178   28.6451   13.5343 H   0  0  0  0  0
   25.7451   29.8865   12.6568 H   0  0  0  0  0
   20.7937   27.7527   12.8549 H   0  0  0  0  0
   19.8590   30.5976   12.5422 H   0  0  0  0  0
   17.8314   29.9164   13.0139 H   0  0  0  0  0
   18.3942   28.4387   13.8986 H   0  0  0  0  0
   18.3411   29.9483   10.4384 H   0  0  0  0  0
   18.4729   26.3797   12.7968 H   0  0  0  0  0
   18.1139   28.5821    8.3844 H   0  0  0  0  0
   18.2438   25.0185   10.7551 H   0  0  0  0  0
   18.0729   26.1092    8.5417 H   0  0  0  0  0
   18.7247   30.9416   15.0592 H   0  0  0  0  0
   20.1472   31.9627   16.9765 H   0  0  0  0  0
   22.0654   32.4239   14.7779 H   0  0  0  0  0
   22.2970   31.7568   16.4457 H   0  0  0  0  0
   21.8005   33.4239   18.4235 H   0  0  0  0  0
   22.4624   34.7365   14.3958 H   0  0  0  0  0
   22.2457   35.7142   19.2381 H   0  0  0  0  0
   22.9401   37.0193   15.2214 H   0  0  0  0  0
   23.0848   38.3548   16.9851 H   0  0  0  0  0
   18.3072   33.2298   17.0054 H   0  0  0  0  0
   18.4258   35.4931   15.0865 H   0  0  0  0  0
   16.4808   35.0792   14.2930 H   0  0  0  0  0
   16.7819   32.7265   14.7884 H   0  0  0  0  0
   16.1111   32.9614   16.4211 H   0  0  0  0  0
   15.0766   33.1976   14.9910 H   0  0  0  0  0
   15.4790   35.4583   17.1105 H   0  0  0  0  0
   15.7774   36.7287   15.8988 H   0  0  0  0  0
   14.4943   35.5239   15.6282 H   0  0  0  0  0
   19.0645   37.0654   15.8388 H   0  0  0  0  0
   19.1719   38.1417   18.4316 H   0  0  0  0  0
   18.3570   39.9666   16.2834 H   0  0  0  0  0
   19.6476   38.8023   15.7506 H   0  0  0  0  0
   19.5570   41.5638   16.3093 H   0  0  0  0  0
   17.4542   38.0217   19.5849 H   0  0  0  0  0
  1  2  1  0  0  0
  2  3  1  0  0  0
  2  5  1  0  0  0
  3  4  2  0  0  0
  3  6  1  0  0  0
  6  7  1  0  0  0
  7  8  1  0  0  0
  7 10  1  0  0  0
  8  9  2  0  0  0
  8 15  1  0  0  0
 10 11  1  0  0  0
 11 12  1  0  0  0
 12 13  2  0  0  0
 12 14  1  0  0  0
 15 16  1  0  0  0
 16 17  1  0  0  0
 16 19  1  0  0  0
 17 18  2  0  0  0
 17 22  1  0  0  0
 19 20  1  0  0  0
 19 21  1  0  0  0
 22 23  1  0  0  0
 23 24  1  0  0  0
 23 26  1  0  0  0
 24 25  2  0  0  0
 24 33  1  0  0  0
 26 27  1  0  0  0
 27 28  4  0  0  0
 27 29  4  0  0  0
 28 30  4  0  0  0
 29 31  4  0  0  0
 30 32  4  0  0  0
 31 32  4  0  0  0
 33 34  1  0  0  0
 34 35  1  0  0  0
 34 37  1  0  0  0
 35 36  2  0  0  0
 35 45  1  0  0  0
 37 38  1  0  0  0
 38 39  4  0  0  0
 38 40  4  0  0  0
 39 41  4  0  0  0
 40 42  4  0  0  0
 41 43  4  0  0  0
 42 43  4  0  0  0
 43 44  1  0  0  0
 45 46  1  0  0  0
 46 47  1  0  0  0
 46 49  1  0  0  0
 47 48  2  0  0  0
 47 52  1  0  0  0
 49 50  1  0  0  0
 49 51  1  0  0  0
 52 53  1  0  0  0
 53 54  1  0  0  0
 53 56  1  0  0  0
 54 55  2  0  0  0
 56 57  1  0  0  0
 57 58  2  0  0  0
 57 59  1  0  0  0
 54 60  1  0  0  0
  1 61  1  0  0  0
  1 62  1  0  0  0
  1 63  1  0  0  0
  2 64  1  0  0  0
  5 65  1  0  0  0
  5 66  1  0  0  0
  5 67  1  0  0  0
  6 68  1  0  0  0
  7 69  1  0  0  0
 10 70  1  0  0  0
 10 71  1  0  0  0
 11 72  1  0  0  0
 11 73  1  0  0  0
 14 74  1  0  0  0
 15 75  1  0  0  0
 16 76  1  0  0  0
 19 77  1  0  0  0
 20 78  1  0  0  0
 21 79  1  0  0  0
 21 80  1  0  0  0
 21 81  1  0  0  0
 22 82  1  0  0  0
 23 83  1  0  0  0
 26 84  1  0  0  0
 26 85  1  0  0  0
 28 86  1  0  0  0
 29 87  1  0  0  0
 30 88  1  0  0  0
 31 89  1  0  0  0
 32 90  1  0  0  0
 33 91  1  0  0  0
 34 92  1  0  0  0
 37 93  1  0  0  0
 37 94  1  0  0  0
 39 95  1  0  0  0
 40 96  1  0  0  0
 41 97  1  0  0  0
 42 98  1  0  0  0
 44 99  1  0  0  0
 45100  1  0  0  0
 46101  1  0  0  0
 49102  1  0  0  0
 50103  1  0  0  0
 50104  1  0  0  0
 50105  1  0  0  0
 51106  1  0  0  0
 51107  1  0  0  0
 51108  1  0  0  0
 52109  1  0  0  0
 53110  1  0  0  0
 56111  1  0  0  0
 56112  1  0  0  0
 59113  1  0  0  0
 60114  1  0  0  0
M  END
$$$$
