### 
### Created by X-TOOL on Mon Sep 10 21:13:11 2018
### 

@<TRIPOS>MOLECULE
4ep2_ligand
  111   112     1     0     0
SMALL
GAST_HUCK


@<TRIPOS>ATOM
      1 N          24.8110   22.7870    7.9980 N.4       1 ALA         0.2377
      2 CA         25.2630   23.9370    7.1790 C.3       1 ALA         0.0621
      3 C          24.3040   25.1130    7.4050 C.2       1 ALA         0.2264
      4 O          24.4280   26.1860    6.7960 O.2       1 ALA        -0.3907
      5 CB         25.3130   23.5420    5.7140 C.3       1 ALA        -0.0040
      6 N          23.3570   24.9140    8.3130 N.am      1 GLU        -0.2609
      7 CA         22.4730   25.9890    8.6630 C.3       1 GLU         0.1326
      8 C          22.5020   26.3250   10.1150 C.2       1 GLU         0.2041
      9 O          22.4830   25.4630   11.0040 O.2       1 GLU        -0.3944
     10 CB         21.0590   25.7250    8.2050 C.3       1 GLU        -0.0008
     11 CG         20.7870   26.3240    6.8520 C.3       1 GLU         0.0044
     12 CD         20.9490   25.3120    5.7480 C.2       1 GLU         0.0350
     13 OE1        21.3960   24.1820    6.0520 O.co2     1 GLU        -0.5690
     14 OE2        20.6460   25.6510    4.5800 O.co2     1 GLU        -0.5690
     15 N          22.5360   27.6210   10.3300 N.am      1 THR        -0.2613
     16 CA         22.9370   28.1740   11.5820 C.3       1 THR         0.1565
     17 C          21.9040   29.1970   11.9500 C.2       1 THR         0.2066
     18 O          21.9660   30.3640   11.5550 O.2       1 THR        -0.3943
     19 CB         24.3140   28.8260   11.4510 C.3       1 THR         0.0924
     20 OG1        25.2590   27.8390   11.0050 O.3       1 THR        -0.3874
     21 CG2        24.7630   29.4300   12.7800 C.3       1 THR        -0.0346
     22 N          20.8970   28.7480   12.6570 N.am      1 PHE        -0.2619
     23 CA         19.9590   29.6890   13.1360 C.3       1 PHE         0.1404
     24 C          20.4800   30.1660   14.5090 C.2       1 PHE         0.2061
     25 O          21.5740   29.7950   14.9460 O.2       1 PHE        -0.3942
     26 CB         18.5440   29.0920   13.0390 C.3       1 PHE         0.0214
     27 CG         18.3480   28.2600   11.7740 C.ar      1 PHE        -0.0386
     28 CD1        18.2950   28.8620   10.5160 C.ar      1 PHE        -0.0601
     29 CD2        18.3680   26.8740   11.8310 C.ar      1 PHE        -0.0601
     30 CE1        18.1840   28.0950    9.3570 C.ar      1 PHE        -0.0686
     31 CE2        18.2570   26.1060   10.6820 C.ar      1 PHE        -0.0686
     32 CZ         18.1630   26.7140    9.4440 C.ar      1 PHE        -0.0687
     33 N          19.7370   31.0460   15.1280 N.am      1 TYR        -0.2620
     34 CA         20.2500   32.1680   15.9110 C.3       1 TYR         0.1390
     35 C          19.4540   33.2950   15.3390 C.2       1 TYR         0.2057
     36 O          19.5180   33.6110   14.1330 O.2       1 TYR        -0.3942
     37 CB         21.7680   32.4800   15.8250 C.3       1 TYR         0.0163
     38 CG         22.1090   33.9010   16.3460 C.ar      1 TYR        -0.0493
     39 CD1        22.0480   34.2090   17.7090 C.ar      1 TYR        -0.0685
     40 CD2        22.4210   34.9390   15.4660 C.ar      1 TYR        -0.0685
     41 CE1        22.2970   35.4980   18.1710 C.ar      1 TYR        -0.0398
     42 CE2        22.6810   36.2300   15.9270 C.ar      1 TYR        -0.0398
     43 CZ         22.6100   36.5060   17.2740 C.ar      1 TYR         0.0805
     44 OH         22.8900   37.7840   17.7320 O.3       1 TYR        -0.3376
     45 N          18.5490   33.7580   16.1670 N.am      1 VAL        -0.2633
     46 CA         17.9130   34.9800   15.9000 C.3       1 VAL         0.1332
     47 C          18.0350   35.9030   17.0990 C.2       1 VAL         0.2037
     48 O          17.8780   35.5270   18.2740 O.2       1 VAL        -0.3944
     49 CB         16.4860   34.7830   15.3420 C.3       1 VAL        -0.0063
     50 CG1        16.0850   33.3110   15.3890 C.3       1 VAL        -0.0584
     51 CG2        15.4880   35.6880   16.0450 C.3       1 VAL        -0.0584
     52 N          18.5930   37.0420   16.7430 N.am      1 ASP        -0.2679
     53 CA         18.5970   38.2510   17.5120 C.3       1 ASP         0.1057
     54 C          17.1700   38.6350   17.8950 C.2       1 ASP         0.0618
     55 O          16.4072   39.1618   17.0417 O.co2     1 ASP        -0.5665
     56 CB         19.1740   39.3130   16.5890 C.3       1 ASP         0.0351
     57 CG         20.2110   40.1600   17.2500 C.2       1 ASP         0.0387
     58 OD1        21.0060   39.6140   18.0420 O.co2     1 ASP        -0.5688
     59 OD2        20.2650   41.3670   16.9270 O.co2     1 ASP        -0.5688
     60 O          16.7545   38.4248   19.0658 O.co2     1 ASP        -0.5665
     61 H1         25.4350   22.0080    7.8567 H         1 ALA         0.2015
     62 H2         23.8778   22.5242    7.7222 H         1 ALA         0.2015
     63 H3         24.8130   23.0467    8.9720 H         1 ALA         0.2015
     64 H4         26.2728   24.2337    7.4988 H         1 ALA         0.1095
     65 H5         25.6491   24.4005    5.1141 H         1 ALA         0.0310
     66 H6         24.3104   23.2334    5.3830 H         1 ALA         0.0310
     67 H7         26.0158   22.7059    5.5834 H         1 ALA         0.0310
     68 H8         23.2599   24.0202    8.7508 H         1 GLU         0.1885
     69 H9         22.8285   26.8784    8.1221 H         1 GLU         0.0801
     70 H10        20.3613   26.1623    8.9344 H         1 GLU         0.0330
     71 H11        20.8996   24.6380    8.1513 H         1 GLU         0.0330
     72 H12        21.4906   27.1522    6.6815 H         1 GLU         0.0433
     73 H13        19.7566   26.7086    6.8337 H         1 GLU         0.0433
     74 H14        22.2718   28.2404    9.5907 H         1 THR         0.1884
     75 H15        22.9777   27.3862   12.3486 H         1 THR         0.0826
     76 H16        24.2566   29.6300   10.7025 H         1 THR         0.0639
     77 H17        26.1169   28.2385   10.9217 H         1 THR         0.2101
     78 H18        25.7541   29.8911   12.6570 H         1 THR         0.0257
     79 H19        24.8188   28.6388   13.5421 H         1 THR         0.0257
     80 H20        24.0396   30.1952   13.0981 H         1 THR         0.0257
     81 H21        20.7958   27.7722   12.8510 H         1 PHE         0.1885
     82 H22        19.9680   30.5659   12.4719 H         1 PHE         0.0823
     83 H23        17.8132   29.9141   13.0376 H         1 PHE         0.0474
     84 H24        18.3711   28.4492   13.9147 H         1 PHE         0.0474
     85 H25        18.3408   29.9423   10.4388 H         1 PHE         0.0557
     86 H26        18.4723   26.3824   12.7915 H         1 PHE         0.0557
     87 H27        18.1143   28.5794    8.3898 H         1 PHE         0.0599
     88 H28        18.2439   25.0245   10.7547 H         1 PHE         0.0599
     89 H29        18.0734   26.1125    8.5466 H         1 PHE         0.0559
     90 H30        18.7445   30.9436   15.0606 H         1 TYR         0.1885
     91 H31        20.0042   32.0131   16.9719 H         1 TYR         0.0821
     92 H32        22.0858   32.4030   14.7747 H         1 TYR         0.0453
     93 H33        22.3155   31.7414   16.4289 H         1 TYR         0.0453
     94 H34        21.8019   33.4282   18.4196 H         1 TYR         0.0530
     95 H35        22.4621   34.7376   14.4017 H         1 TYR         0.0530
     96 H36        22.2460   35.7130   19.2322 H         1 TYR         0.0525
     97 H37        22.9387   37.0150   15.2252 H         1 TYR         0.0525
     98 H38        22.2846   38.4004   17.3371 H         1 TYR         0.2458
     99 H39        18.3119   33.2402   16.9890 H         1 VAL         0.1883
    100 H40        18.4814   35.4610   15.0904 H         1 VAL         0.0802
    101 H41        16.5017   35.0813   14.2834 H         1 VAL         0.0343
    102 H42        15.0674   33.1952   14.9876 H         1 VAL         0.0234
    103 H43        16.1109   32.9570   16.4301 H         1 VAL         0.0234
    104 H44        16.7876   32.7200   14.7831 H         1 VAL         0.0234
    105 H45        15.8291   36.7316   15.9783 H         1 VAL         0.0234
    106 H46        15.4088   35.3951   17.1023 H         1 VAL         0.0234
    107 H47        14.5037   35.5925   15.5633 H         1 VAL         0.0234
    108 H48        19.0553   37.0649   15.8565 H         1 ASP         0.1876
    109 H49        19.2128   38.1377   18.4164 H         1 ASP         0.0745
    110 H50        18.3551   39.9637   16.2483 H         1 ASP         0.0471
    111 H51        19.6303   38.8133   15.7218 H         1 ASP         0.0471
@<TRIPOS>BOND
     1    1    2 1  
     2    2    3 1  
     3    2    5 1  
     4    3    4 2  
     5    3    6 am 
     6    6    7 1  
     7    7    8 1  
     8    7   10 1  
     9    8    9 2  
    10    8   15 am 
    11   10   11 1  
    12   11   12 1  
    13   12   13 ar 
    14   12   14 ar 
    15   15   16 1  
    16   16   17 1  
    17   16   19 1  
    18   17   18 2  
    19   17   22 am 
    20   19   20 1  
    21   19   21 1  
    22   22   23 1  
    23   23   24 1  
    24   23   26 1  
    25   24   25 2  
    26   24   33 am 
    27   26   27 1  
    28   27   28 ar 
    29   27   29 ar 
    30   28   30 ar 
    31   29   31 ar 
    32   30   32 ar 
    33   31   32 ar 
    34   33   34 1  
    35   34   35 1  
    36   34   37 1  
    37   35   36 2  
    38   35   45 am 
    39   37   38 1  
    40   38   39 ar 
    41   38   40 ar 
    42   39   41 ar 
    43   40   42 ar 
    44   41   43 ar 
    45   42   43 ar 
    46   43   44 1  
    47   45   46 1  
    48   46   47 1  
    49   46   49 1  
    50   47   48 2  
    51   47   52 am 
    52   49   50 1  
    53   49   51 1  
    54   52   53 1  
    55   53   54 1  
    56   53   56 1  
    57   54   55 ar 
    58   56   57 1  
    59   57   58 ar 
    60   57   59 ar 
    61   54   60 ar 
    62    1   61 1  
    63    1   62 1  
    64    1   63 1  
    65    2   64 1  
    66    5   65 1  
    67    5   66 1  
    68    5   67 1  
    69    6   68 1  
    70    7   69 1  
    71   10   70 1  
    72   10   71 1  
    73   11   72 1  
    74   11   73 1  
    75   15   74 1  
    76   16   75 1  
    77   19   76 1  
    78   20   77 1  
    79   21   78 1  
    80   21   79 1  
    81   21   80 1  
    82   22   81 1  
    83   23   82 1  
    84   26   83 1  
    85   26   84 1  
    86   28   85 1  
    87   29   86 1  
    88   30   87 1  
    89   31   88 1  
    90   32   89 1  
    91   33   90 1  
    92   34   91 1  
    93   37   92 1  
    94   37   93 1  
    95   39   94 1  
    96   40   95 1  
    97   41   96 1  
    98   42   97 1  
    99   44   98 1  
   100   45   99 1  
   101   46  100 1  
   102   49  101 1  
   103   50  102 1  
   104   50  103 1  
   105   50  104 1  
   106   51  105 1  
   107   51  106 1  
   108   51  107 1  
   109   52  108 1  
   110   53  109 1  
   111   56  110 1  
   112   56  111 1  
@<TRIPOS>SUBSTRUCTURE
     1 ALA         1

