6g36_ligand
  -I-interpret- 

 33 35  0  0  0  0  0  0  0  0999 V2000
   10.3470   12.2700   10.3370 Cl  0  0  0  0  0
   11.4030   11.7860   11.6240 C   0  0  0  0  0
   11.4660   12.3940   12.9020 C   0  0  0  0  0
   10.8270   13.4350   13.6160 C   0  0  0  0  0
    9.8200   14.1500   13.0950 N   0  0  0  0  0
   12.2980   10.7800   11.5550 C   0  0  0  0  0
   12.9750   10.7140   12.7540 N   0  0  0  0  0
   12.4760   11.6850   13.5850 C   0  0  0  0  0
   12.8580   11.9290   14.8420 N   0  0  0  0  0
   12.1970   12.9460   15.4060 C   0  0  0  0  0
   11.2260   13.6980   14.8810 N   0  0  0  0  0
   14.0440    9.7850   13.1050 C   0  0  0  0  0
   14.6330    9.3100   11.9140 O   0  0  0  0  0
   14.4560    7.8860   11.7990 C   0  0  0  0  0
   14.2460    7.5130   10.3620 C   0  0  0  0  0
   13.0330    8.0330    9.8160 O   0  0  0  0  0
   13.3030    7.5790   12.7400 C   0  0  0  0  0
   13.3470    6.2060   13.1410 O   0  0  0  0  0
   13.5550    8.5590   13.8700 C   0  0  0  0  0
   14.6110    8.1730   14.7540 O   0  0  0  0  0
    9.4884   13.9513   12.1511 H   0  0  0  0  0
    9.3853   14.8928   13.6424 H   0  0  0  0  0
   12.4591   10.1287   10.6960 H   0  0  0  0  0
   12.4887   13.1932   16.4267 H   0  0  0  0  0
   14.7377   10.3345   13.7413 H   0  0  0  0  0
   15.3196    7.2867   12.0876 H   0  0  0  0  0
   14.1926    6.4257   10.3079 H   0  0  0  0  0
   15.0724    7.9323    9.7882 H   0  0  0  0  0
   12.9546    7.7623    8.8983 H   0  0  0  0  0
   12.3055    7.6952   12.3163 H   0  0  0  0  0
   12.6149    6.0235   13.7346 H   0  0  0  0  0
   12.6683    8.6706   14.4941 H   0  0  0  0  0
   14.3404    7.4006   15.2559 H   0  0  0  0  0
  1  2  1  0  0  0
  2  3  4  0  0  0
  2  6  4  0  0  0
  3  4  4  0  0  0
  3  8  4  0  0  0
  4  5  1  0  0  0
  4 11  4  0  0  0
  6  7  4  0  0  0
  7  8  4  0  0  0
  7 12  1  0  0  0
  8  9  4  0  0  0
  9 10  4  0  0  0
 10 11  4  0  0  0
 12 13  1  0  0  0
 12 19  1  0  0  0
 13 14  1  0  0  0
 14 15  1  0  0  0
 14 17  1  0  0  0
 15 16  1  0  0  0
 17 18  1  0  0  0
 17 19  1  0  0  0
 19 20  1  0  0  0
  5 21  1  0  0  0
  5 22  1  0  0  0
  6 23  1  0  0  0
 10 24  1  0  0  0
 12 25  1  0  0  0
 14 26  1  0  0  0
 15 27  1  0  0  0
 15 28  1  0  0  0
 16 29  1  0  0  0
 17 30  1  0  0  0
 18 31  1  0  0  0
 19 32  1  0  0  0
 20 33  1  0  0  0
M  END
$$$$
