3m3x_ligand
  -I-interpret- 

 39 40  0  0  0  0  0  0  0  0999 V2000
   -0.7120   10.1540   14.9950 N   0  0  0  0  0
   -0.7280    8.9310   15.5160 C   0  0  0  0  0
   -1.1920    7.9020   14.8360 N   0  0  0  0  0
   -1.6710    8.0640   13.6040 C   0  0  0  0  0
   -1.6890    9.3580   12.9920 C   0  0  0  0  0
   -1.1700   10.4470   13.7680 C   0  0  0  0  0
   -2.1270    6.9080   12.9360 N   0  0  0  0  0
   -4.3780    4.5920   14.5080 C   0  0  0  0  0
   -5.7130    4.4520   14.8720 C   0  0  0  0  0
   -6.1380    3.2970   15.5750 C   0  0  0  0  0
   -5.2930    2.2540   15.9100 C   0  0  0  0  0
   -3.9380    2.3950   15.5170 C   0  0  0  0  0
   -3.4610    3.5540   14.8180 C   0  0  0  0  0
   -5.9160    0.7670   16.7910 S   0  0  0  0  0
   -5.3680    0.8370   18.1760 O   0  0  0  0  0
   -7.4790    0.8650   16.6180 O   0  0  0  0  0
   -5.2700   -0.4930   15.9290 N   0  0  0  0  0
   -2.2660    9.4620   11.5730 N   0  0  0  0  0
   -3.1780   10.1770   11.3220 O   0  0  0  0  0
   -1.7310    8.7330   10.5760 O   0  0  0  0  0
   -1.0600   11.9020   13.4260 O   0  0  0  0  0
    0.1580   12.5640   13.3400 C   0  0  0  0  0
   -2.4770    5.7870   13.7050 C   0  0  0  0  0
   -3.9960    5.8410   13.7760 C   0  0  0  0  0
   -0.3495    8.7762   16.5264 H   0  0  0  0  0
   -2.2006    6.8873   11.9189 H   0  0  0  0  0
   -6.4322    5.2303   14.6167 H   0  0  0  0  0
   -7.1858    3.2268   15.8671 H   0  0  0  0  0
   -3.2351    1.5963   15.7537 H   0  0  0  0  0
   -2.4129    3.6357   14.5302 H   0  0  0  0  0
   -4.5815   -1.1079   16.3630 H   0  0  0  0  0
   -5.5610   -0.6534   14.9646 H   0  0  0  0  0
    0.6693   12.5078   14.3010 H   0  0  0  0  0
    0.7723   12.0937   12.5722 H   0  0  0  0  0
   -0.0150   13.6082   13.0795 H   0  0  0  0  0
   -2.0185    5.8076   14.6937 H   0  0  0  0  0
   -2.1192    4.8573   13.2626 H   0  0  0  0  0
   -4.3510    6.7382   14.2831 H   0  0  0  0  0
   -4.4510    5.8918   12.7868 H   0  0  0  0  0
  2  1  4  0  0  0
  6  1  4  0  0  0
  3  2  4  0  0  0
  4  3  4  0  0  0
  4  5  4  0  0  0
  7  4  1  0  0  0
  5  6  4  0  0  0
  5 18  1  0  0  0
  6 21  1  0  0  0
 23  7  1  0  0  0
  8  9  4  0  0  0
  8 13  4  0  0  0
 24  8  1  0  0  0
  9 10  4  0  0  0
 10 11  4  0  0  0
 12 11  4  0  0  0
 11 14  1  0  0  0
 13 12  4  0  0  0
 14 15  2  0  0  0
 14 16  2  0  0  0
 14 17  1  0  0  0
 18 19  2  0  0  0
 18 20  2  0  0  0
 21 22  1  0  0  0
 23 24  1  0  0  0
  2 25  1  0  0  0
  7 26  1  0  0  0
  9 27  1  0  0  0
 10 28  1  0  0  0
 12 29  1  0  0  0
 13 30  1  0  0  0
 17 31  1  0  0  0
 17 32  1  0  0  0
 22 33  1  0  0  0
 22 34  1  0  0  0
 22 35  1  0  0  0
 23 36  1  0  0  0
 23 37  1  0  0  0
 24 38  1  0  0  0
 24 39  1  0  0  0
M  END
$$$$
