4gu9_ligand
  -I-interpret- 

 24 26  0  0  0  0  0  0  0  0999 V2000
   13.0880   26.8810  -42.1700 C   0  0  0  0  0
   14.1250   26.7320  -41.2250 C   0  0  0  0  0
   15.2630   25.9740  -41.5990 C   0  0  0  0  0
   11.9620   27.6310  -41.8390 N   0  0  0  0  0
   15.4800   26.7190  -39.5100 N   0  0  0  0  0
   13.2770   26.3110  -43.3740 N   0  0  0  0  0
   15.3320   25.4330  -42.8070 N   0  0  0  0  0
   16.1000   25.9810  -40.5370 N   0  0  0  0  0
   10.7110   27.5960  -42.4880 C   0  0  0  0  0
   14.3570   25.5930  -43.6670 C   0  0  0  0  0
   14.3240   27.1820  -39.9060 C   0  0  0  0  0
    9.7610   28.5700  -42.1360 C   0  0  0  0  0
   10.0690   29.5120  -41.2270 F   0  0  0  0  0
   10.3550   26.6140  -43.4350 C   0  0  0  0  0
    8.4870   28.5630  -42.7060 C   0  0  0  0  0
    9.0850   26.6180  -44.0140 C   0  0  0  0  0
    8.1500   27.5900  -43.6530 C   0  0  0  0  0
   12.0514   28.2691  -41.0483 H   0  0  0  0  0
   14.4331   25.1252  -44.6486 H   0  0  0  0  0
   13.6413   27.8010  -39.3238 H   0  0  0  0  0
   11.0762   25.8468  -43.7168 H   0  0  0  0  0
    7.7548   29.3155  -42.4133 H   0  0  0  0  0
    8.8221   25.8592  -44.7510 H   0  0  0  0  0
    7.1595   27.5907  -44.1081 H   0  0  0  0  0
  1  2  4  0  0  0
  1  4  1  0  0  0
  1  6  4  0  0  0
  2  3  4  0  0  0
  2 11  4  0  0  0
  3  7  4  0  0  0
  3  8  4  0  0  0
  4  9  1  0  0  0
  8  5  4  0  0  0
  5 11  4  0  0  0
  6 10  4  0  0  0
  7 10  4  0  0  0
  9 12  4  0  0  0
  9 14  4  0  0  0
 12 13  1  0  0  0
 12 15  4  0  0  0
 14 16  4  0  0  0
 15 17  4  0  0  0
 16 17  4  0  0  0
  4 18  1  0  0  0
 10 19  1  0  0  0
 11 20  1  0  0  0
 14 21  1  0  0  0
 15 22  1  0  0  0
 16 23  1  0  0  0
 17 24  1  0  0  0
M  END
$$$$
