4orx_ligand
  -I-interpret- 

178177  0  0  0  0  0  0  0  0999 V2000
   19.8700  -53.3530   -2.9070 O   0  0  0  0  0
   19.4300  -53.9490   -4.1310 C   0  0  0  0  0
   19.9230  -55.3890   -4.1590 C   0  0  0  0  0
   21.1350  -55.4070   -3.4070 O   0  0  0  0  0
   21.8620  -56.6320   -3.4510 C   0  0  0  0  0
   23.1730  -56.3930   -2.7160 C   0  0  0  0  0
   23.8150  -55.2460   -3.2640 O   0  0  0  0  0
   24.2700  -54.3460   -2.2580 C   0  0  0  0  0
   25.1850  -53.2940   -2.8730 C   0  0  0  0  0
   25.5620  -52.3310   -1.8880 O   0  0  0  0  0
   24.4800  -51.4700   -1.5350 C   0  0  0  0  0
   23.9360  -50.8430   -2.8120 C   0  0  0  0  0
   25.0140  -50.1810   -3.4720 O   0  0  0  0  0
   24.8950  -50.1680   -4.8970 C   0  0  0  0  0
   23.8630  -49.1550   -5.3970 C   0  0  0  0  0
   23.3870  -48.2950   -4.3600 O   0  0  0  0  0
   24.3200  -47.3100   -3.9180 C   0  0  0  0  0
   24.2420  -47.2590   -2.3940 C   0  0  0  0  0
   24.3450  -45.9140   -1.9310 O   0  0  0  0  0
   23.2470  -45.1050   -2.3500 C   0  0  0  0  0
   21.9270  -45.6500   -1.8200 C   0  0  0  0  0
   20.8730  -44.8310   -2.3190 O   0  0  0  0  0
   19.7540  -45.5840   -2.7750 C   0  0  0  0  0
   19.0440  -46.2090   -1.5870 C   0  0  0  0  0
   18.0450  -47.1150   -2.0380 O   0  0  0  0  0
   17.9760  -48.2750   -1.2180 C   0  0  0  0  0
   18.3250  -49.4980   -2.0510 C   0  0  0  0  0
   17.3090  -50.4890   -1.8840 O   0  0  0  0  0
   17.8440  -51.6880   -1.3320 C   0  0  0  0  0
   16.8190  -52.4030   -0.4760 C   0  0  0  0  0
   17.4560  -53.4570    0.2360 O   0  0  0  0  0
   16.5190  -54.0930    1.0860 C   0  0  0  0  0
   17.1390  -55.2140    1.8990 C   0  0  0  0  0
   16.1090  -56.1040    2.3470 O   0  0  0  0  0
   15.0860  -55.4820    3.1260 C   0  0  0  0  0
   15.6730  -54.9170    4.4060 C   0  0  0  0  0
   14.7630  -55.0290    5.4990 O   0  0  0  0  0
   15.4080  -55.6350    6.6200 C   0  0  0  0  0
   15.4920  -54.6930    7.8160 C   0  0  0  0  0
   14.3120  -54.7980    8.6160 O   0  0  0  0  0
   14.0410  -56.1510    8.9770 C   0  0  0  0  0
   12.8900  -56.2440    9.9750 C   0  0  0  0  0
   11.6350  -56.1840    9.2930 O   0  0  0  0  0
   11.3610  -57.3770    8.5670 C   0  0  0  0  0
   11.1310  -57.0530    7.0980 C   0  0  0  0  0
   10.9730  -58.2630    6.3580 O   0  0  0  0  0
   10.3290  -58.0260    5.1080 C   0  0  0  0  0
    8.8790  -57.6290    5.3540 C   0  0  0  0  0
    7.9950  -58.6970    4.9960 O   0  0  0  0  0
    8.0660  -59.8180    5.8760 C   0  0  0  0  0
    7.1190  -60.8980    5.3740 C   0  0  0  0  0
    7.5910  -62.1910    5.7480 O   0  0  0  0  0
    6.6150  -63.2050    5.4960 C   0  0  0  0  0
    7.2140  -64.5950    5.6870 C   0  0  0  0  0
    7.4470  -64.8730    7.0670 O   0  0  0  0  0
    6.6400  -65.9530    7.5310 C   0  0  0  0  0
    7.3200  -66.6530    8.7000 C   0  0  0  0  0
    6.5740  -67.8020    9.1040 O   0  0  0  0  0
    5.2590  -67.4890    9.5460 C   0  0  0  0  0
    4.7030  -68.5980   10.4330 C   0  0  0  0  0
    3.4520  -68.1880   10.9810 O   0  0  0  0  0
    2.5260  -67.7910    9.9760 C   0  0  0  0  0
    1.3040  -67.1400   10.6130 C   0  0  0  0  0
    0.7920  -66.1350    9.7360 O   0  0  0  0  0
    1.4740  -64.8920    9.8990 C   0  0  0  0  0
    0.5610  -63.7390    9.4970 C   0  0  0  0  0
    0.5150  -63.6360    8.0750 O   0  0  0  0  0
    0.3020  -62.2990    7.6260 C   0  0  0  0  0
    0.3410  -62.2490    6.0990 C   0  0  0  0  0
    0.4320  -60.8970    5.6400 O   0  0  0  0  0
   -0.1950  -60.6860    4.3740 C   0  0  0  0  0
    0.8040  -60.1780    3.3380 C   0  0  0  0  0
    1.2170  -61.2300    2.4600 O   0  0  0  0  0
    2.6160  -61.5180    2.5560 C   0  0  0  0  0
    3.0860  -62.3140    1.3420 C   0  0  0  0  0
    4.3690  -62.8870    1.5860 O   0  0  0  0  0
   19.5687  -52.4423   -2.8694 H   0  0  0  0  0
   19.8298  -53.3981   -4.9824 H   0  0  0  0  0
   18.3420  -53.9229   -4.1921 H   0  0  0  0  0
   20.0888  -55.7287   -5.1814 H   0  0  0  0  0
   19.1841  -56.0666   -3.7313 H   0  0  0  0  0
   22.0457  -56.9364   -4.4814 H   0  0  0  0  0
   21.2954  -57.4356   -2.9807 H   0  0  0  0  0
   23.8197  -57.2631   -2.8293 H   0  0  0  0  0
   22.9739  -56.2296   -1.6569 H   0  0  0  0  0
   24.8229  -54.9037   -1.5021 H   0  0  0  0  0
   23.4108  -53.8521   -1.8042 H   0  0  0  0  0
   24.6554  -52.7892   -3.6810 H   0  0  0  0  0
   26.0813  -53.7813   -3.2567 H   0  0  0  0  0
   24.8260  -50.6929   -0.8535 H   0  0  0  0  0
   23.6969  -52.0382   -1.0330 H   0  0  0  0  0
   23.1455  -50.1310   -2.5748 H   0  0  0  0  0
   23.5137  -51.6120   -3.4589 H   0  0  0  0  0
   24.5703  -51.1591   -5.2138 H   0  0  0  0  0
   25.8642  -49.8886   -5.3102 H   0  0  0  0  0
   23.0109  -49.7108   -5.7883 H   0  0  0  0  0
   24.3431  -48.5336   -6.1530 H   0  0  0  0  0
   24.0795  -46.3367   -4.3457 H   0  0  0  0  0
   25.3289  -47.5673   -4.2406 H   0  0  0  0  0
   25.0656  -47.8397   -1.9785 H   0  0  0  0  0
   23.2840  -47.6699   -2.0754 H   0  0  0  0  0
   23.2109  -45.1049   -3.4394 H   0  0  0  0  0
   23.3888  -44.0971   -1.9600 H   0  0  0  0  0
   21.9273  -45.6366   -0.7301 H   0  0  0  0  0
   21.7884  -46.6799   -2.1490 H   0  0  0  0  0
   20.0959  -46.3704   -3.4479 H   0  0  0  0  0
   19.0650  -44.9255   -3.3039 H   0  0  0  0  0
   18.5742  -45.4227   -0.9961 H   0  0  0  0  0
   19.7699  -46.7494   -0.9795 H   0  0  0  0  0
   16.9675  -48.3806   -0.8181 H   0  0  0  0  0
   18.6814  -48.1816   -0.3923 H   0  0  0  0  0
   19.2841  -49.9002   -1.7246 H   0  0  0  0  0
   18.3911  -49.2168   -3.1020 H   0  0  0  0  0
   18.7001  -51.4316   -0.7079 H   0  0  0  0  0
   18.1349  -52.3475   -2.1496 H   0  0  0  0  0
   16.0344  -52.8134   -1.1117 H   0  0  0  0  0
   16.3779  -51.6994    0.2301 H   0  0  0  0  0
   15.7366  -54.5238    0.4612 H   0  0  0  0  0
   16.1347  -53.3464    1.7810 H   0  0  0  0  0
   17.6574  -54.7943    2.7611 H   0  0  0  0  0
   17.8495  -55.7621    1.2802 H   0  0  0  0  0
   14.3284  -56.2240    3.3779 H   0  0  0  0  0
   14.6413  -54.6712    2.5490 H   0  0  0  0  0
   15.8901  -53.8607    4.2470 H   0  0  0  0  0
   16.5729  -55.4818    4.6494 H   0  0  0  0  0
   16.4235  -55.8989    6.3247 H   0  0  0  0  0
   14.8247  -56.5070    6.9159 H   0  0  0  0  0
   15.5868  -53.6687    7.4555 H   0  0  0  0  0
   16.3570  -54.9638    8.4215 H   0  0  0  0  0
   14.9342  -56.5702    9.4401 H   0  0  0  0  0
   13.7627  -56.6993    8.0770 H   0  0  0  0  0
   12.9559  -55.4091   10.6726 H   0  0  0  0  0
   12.9590  -57.1911   10.5101 H   0  0  0  0  0
   10.4657  -57.8465    8.9745 H   0  0  0  0  0
   12.2112  -58.0533    8.6556 H   0  0  0  0  0
   11.9880  -56.5019    6.7109 H   0  0  0  0  0
   10.2299  -56.4479    6.9981 H   0  0  0  0  0
   10.3609  -58.9328    4.5041 H   0  0  0  0  0
   10.8423  -57.2221    4.5804 H   0  0  0  0  0
    8.6437  -56.7569    4.7439 H   0  0  0  0  0
    8.7497  -57.4040    6.4127 H   0  0  0  0  0
    7.7794  -59.5151    6.8831 H   0  0  0  0  0
    9.0852  -60.2035    5.9008 H   0  0  0  0  0
    7.0636  -60.8425    4.2868 H   0  0  0  0  0
    6.1353  -60.7391    5.8158 H   0  0  0  0  0
    6.2685  -63.1106    4.4669 H   0  0  0  0  0
    5.7895  -63.0793    6.1966 H   0  0  0  0  0
    8.1662  -64.6385    5.1583 H   0  0  0  0  0
    6.5118  -65.3323    5.2979 H   0  0  0  0  0
    6.4995  -66.6676    6.7200 H   0  0  0  0  0
    5.6768  -65.5630    7.8600 H   0  0  0  0  0
    7.3806  -65.9596    9.5388 H   0  0  0  0  0
    8.3154  -66.9706    8.3896 H   0  0  0  0  0
    4.6133  -67.3810    8.6745 H   0  0  0  0  0
    5.2943  -66.5645   10.1223 H   0  0  0  0  0
    5.4044  -68.8014   11.2422 H   0  0  0  0  0
    4.5605  -69.5007    9.8389 H   0  0  0  0  0
    2.2098  -68.6704    9.4150 H   0  0  0  0  0
    3.0069  -67.0731    9.3116 H   0  0  0  0  0
    1.5865  -66.6856   11.5626 H   0  0  0  0  0
    0.5381  -67.8956   10.7880 H   0  0  0  0  0
    2.3612  -64.8842    9.2658 H   0  0  0  0  0
    1.7604  -64.7747   10.9441 H   0  0  0  0  0
    0.9477  -62.8093    9.9144 H   0  0  0  0  0
   -0.4432  -63.9231    9.8788 H   0  0  0  0  0
    1.0864  -61.6567    8.0263 H   0  0  0  0  0
   -0.6729  -61.9553    7.9716 H   0  0  0  0  0
   -0.5745  -62.6931    5.7082 H   0  0  0  0  0
    1.2150  -62.7992    5.7504 H   0  0  0  0  0
   -0.9791  -59.9386    4.4955 H   0  0  0  0  0
   -0.6028  -61.6352    4.0264 H   0  0  0  0  0
    1.6813  -59.7942    3.8588 H   0  0  0  0  0
    0.3256  -59.3977    2.7460 H   0  0  0  0  0
    2.7939  -62.1079    3.4551 H   0  0  0  0  0
    3.1676  -60.5788    2.5972 H   0  0  0  0  0
    3.1547  -61.6444    0.4847 H   0  0  0  0  0
    2.3725  -63.1143    1.1456 H   0  0  0  0  0
    4.6487  -63.3833    0.8133 H   0  0  0  0  0
  1  2  1  0  0  0
  2  3  1  0  0  0
  3  4  1  0  0  0
  4  5  1  0  0  0
  5  6  1  0  0  0
  6  7  1  0  0  0
  7  8  1  0  0  0
  8  9  1  0  0  0
  9 10  1  0  0  0
 10 11  1  0  0  0
 11 12  1  0  0  0
 12 13  1  0  0  0
 13 14  1  0  0  0
 14 15  1  0  0  0
 15 16  1  0  0  0
 16 17  1  0  0  0
 17 18  1  0  0  0
 18 19  1  0  0  0
 19 20  1  0  0  0
 20 21  1  0  0  0
 21 22  1  0  0  0
 22 23  1  0  0  0
 23 24  1  0  0  0
 24 25  1  0  0  0
 25 26  1  0  0  0
 26 27  1  0  0  0
 27 28  1  0  0  0
 28 29  1  0  0  0
 29 30  1  0  0  0
 30 31  1  0  0  0
 31 32  1  0  0  0
 32 33  1  0  0  0
 33 34  1  0  0  0
 34 35  1  0  0  0
 35 36  1  0  0  0
 36 37  1  0  0  0
 37 38  1  0  0  0
 38 39  1  0  0  0
 39 40  1  0  0  0
 40 41  1  0  0  0
 41 42  1  0  0  0
 42 43  1  0  0  0
 43 44  1  0  0  0
 44 45  1  0  0  0
 45 46  1  0  0  0
 46 47  1  0  0  0
 47 48  1  0  0  0
 48 49  1  0  0  0
 49 50  1  0  0  0
 50 51  1  0  0  0
 51 52  1  0  0  0
 52 53  1  0  0  0
 53 54  1  0  0  0
 54 55  1  0  0  0
 55 56  1  0  0  0
 56 57  1  0  0  0
 57 58  1  0  0  0
 58 59  1  0  0  0
 59 60  1  0  0  0
 60 61  1  0  0  0
 61 62  1  0  0  0
 62 63  1  0  0  0
 63 64  1  0  0  0
 64 65  1  0  0  0
 65 66  1  0  0  0
 66 67  1  0  0  0
 67 68  1  0  0  0
 68 69  1  0  0  0
 69 70  1  0  0  0
 70 71  1  0  0  0
 71 72  1  0  0  0
 72 73  1  0  0  0
 73 74  1  0  0  0
 74 75  1  0  0  0
 75 76  1  0  0  0
  1 77  1  0  0  0
  2 78  1  0  0  0
  2 79  1  0  0  0
  3 80  1  0  0  0
  3 81  1  0  0  0
  5 82  1  0  0  0
  5 83  1  0  0  0
  6 84  1  0  0  0
  6 85  1  0  0  0
  8 86  1  0  0  0
  8 87  1  0  0  0
  9 88  1  0  0  0
  9 89  1  0  0  0
 11 90  1  0  0  0
 11 91  1  0  0  0
 12 92  1  0  0  0
 12 93  1  0  0  0
 14 94  1  0  0  0
 14 95  1  0  0  0
 15 96  1  0  0  0
 15 97  1  0  0  0
 17 98  1  0  0  0
 17 99  1  0  0  0
 18100  1  0  0  0
 18101  1  0  0  0
 20102  1  0  0  0
 20103  1  0  0  0
 21104  1  0  0  0
 21105  1  0  0  0
 23106  1  0  0  0
 23107  1  0  0  0
 24108  1  0  0  0
 24109  1  0  0  0
 26110  1  0  0  0
 26111  1  0  0  0
 27112  1  0  0  0
 27113  1  0  0  0
 29114  1  0  0  0
 29115  1  0  0  0
 30116  1  0  0  0
 30117  1  0  0  0
 32118  1  0  0  0
 32119  1  0  0  0
 33120  1  0  0  0
 33121  1  0  0  0
 35122  1  0  0  0
 35123  1  0  0  0
 36124  1  0  0  0
 36125  1  0  0  0
 38126  1  0  0  0
 38127  1  0  0  0
 39128  1  0  0  0
 39129  1  0  0  0
 41130  1  0  0  0
 41131  1  0  0  0
 42132  1  0  0  0
 42133  1  0  0  0
 44134  1  0  0  0
 44135  1  0  0  0
 45136  1  0  0  0
 45137  1  0  0  0
 47138  1  0  0  0
 47139  1  0  0  0
 48140  1  0  0  0
 48141  1  0  0  0
 50142  1  0  0  0
 50143  1  0  0  0
 51144  1  0  0  0
 51145  1  0  0  0
 53146  1  0  0  0
 53147  1  0  0  0
 54148  1  0  0  0
 54149  1  0  0  0
 56150  1  0  0  0
 56151  1  0  0  0
 57152  1  0  0  0
 57153  1  0  0  0
 59154  1  0  0  0
 59155  1  0  0  0
 60156  1  0  0  0
 60157  1  0  0  0
 62158  1  0  0  0
 62159  1  0  0  0
 63160  1  0  0  0
 63161  1  0  0  0
 65162  1  0  0  0
 65163  1  0  0  0
 66164  1  0  0  0
 66165  1  0  0  0
 68166  1  0  0  0
 68167  1  0  0  0
 69168  1  0  0  0
 69169  1  0  0  0
 71170  1  0  0  0
 71171  1  0  0  0
 72172  1  0  0  0
 72173  1  0  0  0
 74174  1  0  0  0
 74175  1  0  0  0
 75176  1  0  0  0
 75177  1  0  0  0
 76178  1  0  0  0
M  END
$$$$
