### 
### Created by X-TOOL on Mon Sep 10 21:13:18 2018
### 

@<TRIPOS>MOLECULE
4orx_ligand
  178   177     1     0     0
SMALL
GAST_HUCK


@<TRIPOS>ATOM
      1 OAB        19.8700  -53.3530   -2.9070 O.3       1 PEU        -0.3927
      2 CAC        19.4300  -53.9490   -4.1310 C.3       1 PEU         0.0676
      3 CAD        19.9230  -55.3890   -4.1590 C.3       1 PEU         0.0708
      4 OAE        21.1350  -55.4070   -3.4070 O.3       1 PEU        -0.3752
      5 CAF        21.8620  -56.6320   -3.4510 C.3       1 PEU         0.0711
      6 CAG        23.1730  -56.3930   -2.7160 C.3       1 PEU         0.0711
      7 OAH        23.8150  -55.2460   -3.2640 O.3       1 PEU        -0.3752
      8 CAI        24.2700  -54.3460   -2.2580 C.3       1 PEU         0.0711
      9 CAJ        25.1850  -53.2940   -2.8730 C.3       1 PEU         0.0711
     10 OAK        25.5620  -52.3310   -1.8880 O.3       1 PEU        -0.3752
     11 CAL        24.4800  -51.4700   -1.5350 C.3       1 PEU         0.0711
     12 CAM        23.9360  -50.8430   -2.8120 C.3       1 PEU         0.0711
     13 OAN        25.0140  -50.1810   -3.4720 O.3       1 PEU        -0.3752
     14 CAO        24.8950  -50.1680   -4.8970 C.3       1 PEU         0.0711
     15 CAP        23.8630  -49.1550   -5.3970 C.3       1 PEU         0.0711
     16 OAQ        23.3870  -48.2950   -4.3600 O.3       1 PEU        -0.3752
     17 CAR        24.3200  -47.3100   -3.9180 C.3       1 PEU         0.0711
     18 CAS        24.2420  -47.2590   -2.3940 C.3       1 PEU         0.0711
     19 OAT        24.3450  -45.9140   -1.9310 O.3       1 PEU        -0.3752
     20 CAU        23.2470  -45.1050   -2.3500 C.3       1 PEU         0.0711
     21 CAV        21.9270  -45.6500   -1.8200 C.3       1 PEU         0.0711
     22 OAW        20.8730  -44.8310   -2.3190 O.3       1 PEU        -0.3752
     23 CAX        19.7540  -45.5840   -2.7750 C.3       1 PEU         0.0711
     24 CAY        19.0440  -46.2090   -1.5870 C.3       1 PEU         0.0711
     25 OAZ        18.0450  -47.1150   -2.0380 O.3       1 PEU        -0.3752
     26 CBA        17.9760  -48.2750   -1.2180 C.3       1 PEU         0.0711
     27 CBB        18.3250  -49.4980   -2.0510 C.3       1 PEU         0.0711
     28 OBC        17.3090  -50.4890   -1.8840 O.3       1 PEU        -0.3752
     29 CCG        17.8440  -51.6880   -1.3320 C.3       1 PEU         0.0711
     30 CCF        16.8190  -52.4030   -0.4760 C.3       1 PEU         0.0711
     31 OCE        17.4560  -53.4570    0.2360 O.3       1 PEU        -0.3752
     32 CCD        16.5190  -54.0930    1.0860 C.3       1 PEU         0.0711
     33 CCC        17.1390  -55.2140    1.8990 C.3       1 PEU         0.0711
     34 OCB        16.1090  -56.1040    2.3470 O.3       1 PEU        -0.3752
     35 CCA        15.0860  -55.4820    3.1260 C.3       1 PEU         0.0711
     36 CBZ        15.6730  -54.9170    4.4060 C.3       1 PEU         0.0711
     37 OBY        14.7630  -55.0290    5.4990 O.3       1 PEU        -0.3752
     38 CBX        15.4080  -55.6350    6.6200 C.3       1 PEU         0.0711
     39 CBW        15.4920  -54.6930    7.8160 C.3       1 PEU         0.0711
     40 OBV        14.3120  -54.7980    8.6160 O.3       1 PEU        -0.3752
     41 CBU        14.0410  -56.1510    8.9770 C.3       1 PEU         0.0711
     42 CBT        12.8900  -56.2440    9.9750 C.3       1 PEU         0.0711
     43 OBS        11.6350  -56.1840    9.2930 O.3       1 PEU        -0.3752
     44 CBR        11.3610  -57.3770    8.5670 C.3       1 PEU         0.0711
     45 CBQ        11.1310  -57.0530    7.0980 C.3       1 PEU         0.0711
     46 OBP        10.9730  -58.2630    6.3580 O.3       1 PEU        -0.3752
     47 CBO        10.3290  -58.0260    5.1080 C.3       1 PEU         0.0711
     48 CBN         8.8790  -57.6290    5.3540 C.3       1 PEU         0.0711
     49 OBM         7.9950  -58.6970    4.9960 O.3       1 PEU        -0.3752
     50 CBL         8.0660  -59.8180    5.8760 C.3       1 PEU         0.0711
     51 CBK         7.1190  -60.8980    5.3740 C.3       1 PEU         0.0711
     52 OBJ         7.5910  -62.1910    5.7480 O.3       1 PEU        -0.3752
     53 CBI         6.6150  -63.2050    5.4960 C.3       1 PEU         0.0711
     54 CBH         7.2140  -64.5950    5.6870 C.3       1 PEU         0.0711
     55 OBG         7.4470  -64.8730    7.0670 O.3       1 PEU        -0.3752
     56 CBF         6.6400  -65.9530    7.5310 C.3       1 PEU         0.0711
     57 CBE         7.3200  -66.6530    8.7000 C.3       1 PEU         0.0711
     58 OBD         6.5740  -67.8020    9.1040 O.3       1 PEU        -0.3752
     59 CCH         5.2590  -67.4890    9.5460 C.3       1 PEU         0.0711
     60 CCI         4.7030  -68.5980   10.4330 C.3       1 PEU         0.0711
     61 OCJ         3.4520  -68.1880   10.9810 O.3       1 PEU        -0.3752
     62 CCK         2.5260  -67.7910    9.9760 C.3       1 PEU         0.0711
     63 CCL         1.3040  -67.1400   10.6130 C.3       1 PEU         0.0711
     64 OCM         0.7920  -66.1350    9.7360 O.3       1 PEU        -0.3752
     65 CCN         1.4740  -64.8920    9.8990 C.3       1 PEU         0.0711
     66 CCO         0.5610  -63.7390    9.4970 C.3       1 PEU         0.0711
     67 OCP         0.5150  -63.6360    8.0750 O.3       1 PEU        -0.3752
     68 CCQ         0.3020  -62.2990    7.6260 C.3       1 PEU         0.0711
     69 CCR         0.3410  -62.2490    6.0990 C.3       1 PEU         0.0711
     70 OCS         0.4320  -60.8970    5.6400 O.3       1 PEU        -0.3752
     71 CCT        -0.1950  -60.6860    4.3740 C.3       1 PEU         0.0711
     72 CCU         0.8040  -60.1780    3.3380 C.3       1 PEU         0.0711
     73 OCV         1.2170  -61.2300    2.4600 O.3       1 PEU        -0.3752
     74 CCW         2.6160  -61.5180    2.5560 C.3       1 PEU         0.0708
     75 CCX         3.0860  -62.3140    1.3420 C.3       1 PEU         0.0676
     76 OCY         4.3690  -62.8870    1.5860 O.3       1 PEU        -0.3927
     77 H          20.8190  -53.3757   -2.8682 H         1 PEU         0.2095
     78 H          19.8459  -53.3957   -4.9859 H         1 PEU         0.0580
     79 H          18.3313  -53.9299   -4.1813 H         1 PEU         0.0580
     80 H          20.1117  -55.7078   -5.1947 H         1 PEU         0.0583
     81 H          19.1789  -56.0563   -3.6997 H         1 PEU         0.0583
     82 H          22.0599  -56.9175   -4.4947 H         1 PEU         0.0583
     83 H          21.2899  -57.4298   -2.9548 H         1 PEU         0.0583
     84 H          23.8256  -57.2708   -2.8328 H         1 PEU         0.0583
     85 H          22.9707  -56.2261   -1.6477 H         1 PEU         0.0583
     86 H          24.8243  -54.9071   -1.4913 H         1 PEU         0.0583
     87 H          23.4044  -53.8497   -1.7951 H         1 PEU         0.0583
     88 H          24.6556  -52.7867   -3.6930 H         1 PEU         0.0583
     89 H          26.0880  -53.7834   -3.2668 H         1 PEU         0.0583
     90 H          24.8373  -50.6818   -0.8560 H         1 PEU         0.0583
     91 H          23.6885  -52.0506   -1.0386 H         1 PEU         0.0583
     92 H          23.1474  -50.1170   -2.5649 H         1 PEU         0.0583
     93 H          23.5225  -51.6254   -3.4653 H         1 PEU         0.0583
     94 H          24.5944  -51.1711   -5.2337 H         1 PEU         0.0583
     95 H          25.8742  -49.9143   -5.3291 H         1 PEU         0.0583
     96 H          23.0081  -49.7031   -5.8197 H         1 PEU         0.0583
     97 H          24.3267  -48.5379   -6.1807 H         1 PEU         0.0583
     98 H          24.0593  -46.3286   -4.3409 H         1 PEU         0.0583
     99 H          25.3368  -47.5868   -4.2334 H         1 PEU         0.0583
    100 H          25.0660  -47.8514   -1.9698 H         1 PEU         0.0583
    101 H          23.2804  -47.6813   -2.0668 H         1 PEU         0.0583
    102 H          23.2126  -45.0883   -3.4493 H         1 PEU         0.0583
    103 H          23.3903  -44.0820   -1.9720 H         1 PEU         0.0583
    104 H          21.9288  -45.6250   -0.7203 H         1 PEU         0.0583
    105 H          21.7875  -46.6858   -2.1630 H         1 PEU         0.0583
    106 H          20.0987  -46.3773   -3.4546 H         1 PEU         0.0583
    107 H          19.0587  -44.9199   -3.3093 H         1 PEU         0.0583
    108 H          18.5728  -45.4170   -0.9864 H         1 PEU         0.0583
    109 H          19.7754  -46.7513   -0.9697 H         1 PEU         0.0583
    110 H          16.9574  -48.3818   -0.8167 H         1 PEU         0.0583
    111 H          18.6897  -48.1806   -0.3863 H         1 PEU         0.0583
    112 H          19.2922  -49.9041   -1.7201 H         1 PEU         0.0583
    113 H          18.3901  -49.2138   -3.1116 H         1 PEU         0.0583
    114 H          18.7178  -51.4387   -0.7121 H         1 PEU         0.0583
    115 H          18.1536  -52.3532   -2.1515 H         1 PEU         0.0583
    116 H          16.0288  -52.8185   -1.1186 H         1 PEU         0.0583
    117 H          16.3759  -51.6927    0.2375 H         1 PEU         0.0583
    118 H          15.7098  -54.5107    0.4690 H         1 PEU         0.0583
    119 H          16.1043  -53.3441    1.7767 H         1 PEU         0.0583
    120 H          17.6617  -54.7903    2.7692 H         1 PEU         0.0583
    121 H          17.8557  -55.7673    1.2743 H         1 PEU         0.0583
    122 H          14.3167  -56.2271    3.3770 H         1 PEU         0.0583
    123 H          14.6311  -54.6669    2.5441 H         1 PEU         0.0583
    124 H          15.9130  -53.8550    4.2496 H         1 PEU         0.0583
    125 H          16.5928  -55.4687    4.6502 H         1 PEU         0.0583
    126 H          16.4273  -55.9268    6.3269 H         1 PEU         0.0583
    127 H          14.8404  -56.5303    6.9137 H         1 PEU         0.0583
    128 H          15.5953  -53.6586    7.4563 H         1 PEU         0.0583
    129 H          16.3682  -54.9584    8.4258 H         1 PEU         0.0583
    130 H          14.9432  -56.5876    9.4303 H         1 PEU         0.0583
    131 H          13.7754  -56.7162    8.0715 H         1 PEU         0.0583
    132 H          12.9572  -55.4068   10.6853 H         1 PEU         0.0583
    133 H          12.9603  -57.1956   10.5222 H         1 PEU         0.0583
    134 H          10.4605  -57.8554    8.9795 H         1 PEU         0.0583
    135 H          12.2156  -58.0634    8.6588 H         1 PEU         0.0583
    136 H          11.9947  -56.4953    6.7069 H         1 PEU         0.0583
    137 H          10.2227  -56.4409    6.9963 H         1 PEU         0.0583
    138 H          10.3607  -58.9416    4.4992 H         1 PEU         0.0583
    139 H          10.8468  -57.2141    4.5763 H         1 PEU         0.0583
    140 H           8.6392  -56.7430    4.7478 H         1 PEU         0.0583
    141 H           8.7453  -57.3913    6.4196 H         1 PEU         0.0583
    142 H           7.7714  -59.5107    6.8903 H         1 PEU         0.0583
    143 H           9.0943  -60.2081    5.8951 H         1 PEU         0.0583
    144 H           7.0530  -60.8402    4.2775 H         1 PEU         0.0583
    145 H           6.1223  -60.7366    5.8104 H         1 PEU         0.0583
    146 H           6.2530  -63.1077    4.4619 H         1 PEU         0.0583
    147 H           5.7736  -63.0764    6.1927 H         1 PEU         0.0583
    148 H           8.1688  -64.6517    5.1438 H         1 PEU         0.0583
    149 H           6.5172  -65.3442    5.2831 H         1 PEU         0.0583
    150 H           6.4914  -66.6732    6.7129 H         1 PEU         0.0583
    151 H           5.6648  -65.5634    7.8583 H         1 PEU         0.0583
    152 H           7.3930  -65.9541    9.5463 H         1 PEU         0.0583
    153 H           8.3293  -66.9667    8.3953 H         1 PEU         0.0583
    154 H           4.6046  -67.3665    8.6704 H         1 PEU         0.0583
    155 H           5.2856  -66.5499   10.1182 H         1 PEU         0.0583
    156 H           5.4108  -68.8037   11.2495 H         1 PEU         0.0583
    157 H           4.5595  -69.5092    9.8338 H         1 PEU         0.0583
    158 H           2.2095  -68.6755    9.4038 H         1 PEU         0.0583
    159 H           3.0102  -67.0709    9.3000 H         1 PEU         0.0583
    160 H           1.5899  -66.6806   11.5707 H         1 PEU         0.0583
    161 H           0.5310  -67.9027   10.7884 H         1 PEU         0.0583
    162 H           2.3723  -64.8835    9.2642 H         1 PEU         0.0583
    163 H           1.7681  -64.7734   10.9523 H         1 PEU         0.0583
    164 H           0.9495  -62.8005    9.9192 H         1 PEU         0.0583
    165 H          -0.4524  -63.9231    9.8833 H         1 PEU         0.0583
    166 H           1.0903  -61.6482    8.0322 H         1 PEU         0.0583
    167 H          -0.6798  -61.9487    7.9771 H         1 PEU         0.0583
    168 H          -0.5766  -62.7052    5.6991 H         1 PEU         0.0583
    169 H           1.2161  -62.8115    5.7414 H         1 PEU         0.0583
    170 H          -0.9982  -59.9436    4.4912 H         1 PEU         0.0583
    171 H          -0.6227  -61.6367    4.0231 H         1 PEU         0.0583
    172 H           1.6867  -59.7763    3.8571 H         1 PEU         0.0583
    173 H           0.3324  -59.3802    2.7455 H         1 PEU         0.0583
    174 H           2.8023  -62.1052    3.4673 H         1 PEU         0.0583
    175 H           3.1767  -60.5731    2.6076 H         1 PEU         0.0583
    176 H           3.1485  -61.6439    0.4719 H         1 PEU         0.0580
    177 H           2.3642  -63.1178    1.1347 H         1 PEU         0.0580
    178 H           4.6458  -63.3781    0.8214 H         1 PEU         0.2095
@<TRIPOS>BOND
     1    1    2 1  
     2    2    3 1  
     3    3    4 1  
     4    4    5 1  
     5    5    6 1  
     6    6    7 1  
     7    7    8 1  
     8    8    9 1  
     9    9   10 1  
    10   10   11 1  
    11   11   12 1  
    12   12   13 1  
    13   13   14 1  
    14   14   15 1  
    15   15   16 1  
    16   16   17 1  
    17   17   18 1  
    18   18   19 1  
    19   19   20 1  
    20   20   21 1  
    21   21   22 1  
    22   22   23 1  
    23   23   24 1  
    24   24   25 1  
    25   25   26 1  
    26   26   27 1  
    27   27   28 1  
    28   28   29 1  
    29   29   30 1  
    30   30   31 1  
    31   31   32 1  
    32   32   33 1  
    33   33   34 1  
    34   34   35 1  
    35   35   36 1  
    36   36   37 1  
    37   37   38 1  
    38   38   39 1  
    39   39   40 1  
    40   40   41 1  
    41   41   42 1  
    42   42   43 1  
    43   43   44 1  
    44   44   45 1  
    45   45   46 1  
    46   46   47 1  
    47   47   48 1  
    48   48   49 1  
    49   49   50 1  
    50   50   51 1  
    51   51   52 1  
    52   52   53 1  
    53   53   54 1  
    54   54   55 1  
    55   55   56 1  
    56   56   57 1  
    57   57   58 1  
    58   58   59 1  
    59   59   60 1  
    60   60   61 1  
    61   61   62 1  
    62   62   63 1  
    63   63   64 1  
    64   64   65 1  
    65   65   66 1  
    66   66   67 1  
    67   67   68 1  
    68   68   69 1  
    69   69   70 1  
    70   70   71 1  
    71   71   72 1  
    72   72   73 1  
    73   73   74 1  
    74   74   75 1  
    75   75   76 1  
    76    1   77 1  
    77    2   78 1  
    78    2   79 1  
    79    3   80 1  
    80    3   81 1  
    81    5   82 1  
    82    5   83 1  
    83    6   84 1  
    84    6   85 1  
    85    8   86 1  
    86    8   87 1  
    87    9   88 1  
    88    9   89 1  
    89   11   90 1  
    90   11   91 1  
    91   12   92 1  
    92   12   93 1  
    93   14   94 1  
    94   14   95 1  
    95   15   96 1  
    96   15   97 1  
    97   17   98 1  
    98   17   99 1  
    99   18  100 1  
   100   18  101 1  
   101   20  102 1  
   102   20  103 1  
   103   21  104 1  
   104   21  105 1  
   105   23  106 1  
   106   23  107 1  
   107   24  108 1  
   108   24  109 1  
   109   26  110 1  
   110   26  111 1  
   111   27  112 1  
   112   27  113 1  
   113   29  114 1  
   114   29  115 1  
   115   30  116 1  
   116   30  117 1  
   117   32  118 1  
   118   32  119 1  
   119   33  120 1  
   120   33  121 1  
   121   35  122 1  
   122   35  123 1  
   123   36  124 1  
   124   36  125 1  
   125   38  126 1  
   126   38  127 1  
   127   39  128 1  
   128   39  129 1  
   129   41  130 1  
   130   41  131 1  
   131   42  132 1  
   132   42  133 1  
   133   44  134 1  
   134   44  135 1  
   135   45  136 1  
   136   45  137 1  
   137   47  138 1  
   138   47  139 1  
   139   48  140 1  
   140   48  141 1  
   141   50  142 1  
   142   50  143 1  
   143   51  144 1  
   144   51  145 1  
   145   53  146 1  
   146   53  147 1  
   147   54  148 1  
   148   54  149 1  
   149   56  150 1  
   150   56  151 1  
   151   57  152 1  
   152   57  153 1  
   153   59  154 1  
   154   59  155 1  
   155   60  156 1  
   156   60  157 1  
   157   62  158 1  
   158   62  159 1  
   159   63  160 1  
   160   63  161 1  
   161   65  162 1  
   162   65  163 1  
   163   66  164 1  
   164   66  165 1  
   165   68  166 1  
   166   68  167 1  
   167   69  168 1  
   168   69  169 1  
   169   71  170 1  
   170   71  171 1  
   171   72  172 1  
   172   72  173 1  
   173   74  174 1  
   174   74  175 1  
   175   75  176 1  
   176   75  177 1  
   177   76  178 1  
@<TRIPOS>SUBSTRUCTURE
     1 PEU         1

