5ii2_ligand
  -I-interpret- 

 31 33  0  0  0  0  0  0  0  0999 V2000
   10.8850   -9.8260  -27.8380 C   0  0  0  0  0
   10.1470   -7.9540  -26.5670 O   0  0  0  0  0
   10.2630   -8.5800  -27.7670 C   0  0  0  0  0
    9.4050   -7.9920  -31.3400 O   0  0  0  0  0
    9.7660   -7.9800  -28.9310 C   0  0  0  0  0
   10.1300  -10.0990  -32.5400 O   0  0  0  0  0
    9.8810   -8.6110  -30.1930 C   0  0  0  0  0
   11.6290  -11.6720  -29.1010 O   0  0  0  0  0
   10.5040   -9.8660  -30.2680 C   0  0  0  0  0
   12.9650  -16.6850  -32.2740 O   0  0  0  0  0
   10.9970  -10.4650  -29.0830 C   0  0  0  0  0
   13.8970  -17.4770  -29.8070 O   0  0  0  0  0
   10.6270  -10.5530  -31.4950 C   0  0  0  0  0
   11.2000  -11.8290  -31.4880 C   0  0  0  0  0
   11.7190  -12.3700  -30.2910 C   0  0  0  0  0
   12.2880  -13.6640  -30.2250 C   0  0  0  0  0
   12.3370  -14.5420  -31.3360 C   0  0  0  0  0
   12.8870  -15.8240  -31.2050 C   0  0  0  0  0
   13.3690  -16.2400  -29.9530 C   0  0  0  0  0
   13.3460  -15.3790  -28.8480 C   0  0  0  0  0
   12.7710  -14.1340  -28.9910 C   0  0  0  0  0
   11.2793  -10.2980  -26.9381 H   0  0  0  0  0
    9.6990   -7.1136  -26.6878 H   0  0  0  0  0
    9.5654   -8.5587  -32.0981 H   0  0  0  0  0
    9.2803   -7.0065  -28.8637 H   0  0  0  0  0
   13.3685  -17.5089  -31.9911 H   0  0  0  0  0
   14.1759  -17.5992  -28.8966 H   0  0  0  0  0
   11.2462  -12.4083  -32.4102 H   0  0  0  0  0
   11.9440  -14.2178  -32.2996 H   0  0  0  0  0
   13.7742  -15.6872  -27.8942 H   0  0  0  0  0
   12.6878  -13.4905  -28.1152 H   0  0  0  0  0
  1  3  4  0  0  0
 11  1  4  0  0  0
  3  2  1  0  0  0
  3  5  4  0  0  0
  7  4  1  0  0  0
  7  5  4  0  0  0
 13  6  2  0  0  0
  9  7  4  0  0  0
  8 11  1  0  0  0
 15  8  1  0  0  0
 11  9  4  0  0  0
 13  9  1  0  0  0
 18 10  1  0  0  0
 19 12  1  0  0  0
 14 13  1  0  0  0
 15 14  2  0  0  0
 16 15  1  0  0  0
 17 16  4  0  0  0
 16 21  4  0  0  0
 18 17  4  0  0  0
 18 19  4  0  0  0
 19 20  4  0  0  0
 20 21  4  0  0  0
  1 22  1  0  0  0
  2 23  1  0  0  0
  4 24  1  0  0  0
  5 25  1  0  0  0
 10 26  1  0  0  0
 12 27  1  0  0  0
 14 28  1  0  0  0
 17 29  1  0  0  0
 20 30  1  0  0  0
 21 31  1  0  0  0
M  END
$$$$
