1z1r_ligand
  -I-interpret- 

 81 83  0  0  0  0  0  0  0  0999 V2000
    5.6850   -0.2960   14.4600 C   0  0  0  0  0
    7.1250    0.2420   14.3620 C   0  0  0  0  0
    7.4020    0.9190   13.0430 C   0  0  0  0  0
    7.7330    0.7960   10.6500 C   0  0  0  0  0
    7.5870    0.1730   11.8780 C   0  0  0  0  0
    6.5490    2.8780    8.7310 C   0  0  0  0  0
    5.7610    4.0910    9.2080 C   0  0  0  0  0
    4.3070    3.7750    9.3580 C   0  0  0  0  0
    3.9320    3.3170   10.7640 C   0  0  0  0  0
    3.1990    1.4620   12.2020 C   0  0  0  0  0
    4.0640    0.3480   12.7220 C   0  0  0  0  0
    6.2170   -2.8610   15.9850 N   0  0  0  0  0
    5.2270   -3.6060   16.7740 C   0  0  0  0  0
    1.6910   -4.4470   15.4200 C   0  0  0  0  0
    3.0420   -5.5150   17.2380 C   0  0  0  0  0
    8.2900   -4.5910   15.9910 C   0  0  0  0  0
    7.3740    2.3070   12.9430 C   0  0  0  0  0
    7.5200    2.9430   11.7220 C   0  0  0  0  0
    7.6920    2.1800   10.5770 C   0  0  0  0  0
    7.8190    2.8080    9.3610 O   0  0  0  0  0
    3.9510    4.1070   11.7290 O   0  0  0  0  0
    3.6480    2.0210   10.9110 N   0  0  0  0  0
    1.7660    0.9750   12.0350 C   0  0  0  0  0
    0.8690    2.0680   11.5360 C   0  0  0  0  0
    0.4180    2.9210   12.3060 O   0  0  0  0  0
    0.8040    2.1970   10.2320 N   0  0  0  0  0
    4.0400   -0.7810   12.2170 O   0  0  0  0  0
    4.7750    0.6520   13.7970 N   0  0  0  0  0
    5.3000   -0.5290   15.9290 C   0  0  0  0  0
    5.3350    0.7120   16.6410 O   0  0  0  0  0
    6.2590   -1.5220   16.5990 C   0  0  0  0  0
    4.0360   -3.7100   15.8310 C   0  0  0  0  0
    2.7570   -4.2270   16.4850 C   0  0  0  0  0
    7.3120   -3.6550   15.0540 S   0  0  0  0  0
    8.1270   -2.6700   14.3560 O   0  0  0  0  0
    6.6060   -4.4850   14.0820 O   0  0  0  0  0
    9.3220   -4.0080   16.7210 C   0  0  0  0  0
   10.1600   -4.7870   17.5150 C   0  0  0  0  0
    9.9680   -6.1650   17.5780 C   0  0  0  0  0
    8.9390   -6.7590   16.8530 C   0  0  0  0  0
    8.1050   -5.9700   16.0630 C   0  0  0  0  0
    5.6095   -1.2587   13.9544 H   0  0  0  0  0
    7.8063   -0.6037   14.4548 H   0  0  0  0  0
    7.2625    0.9792   15.1531 H   0  0  0  0  0
    7.8791    0.2027    9.7473 H   0  0  0  0  0
    7.6170   -0.9151   11.9356 H   0  0  0  0  0
    6.6997    2.9633    7.6548 H   0  0  0  0  0
    5.9870    1.9784    8.9820 H   0  0  0  0  0
    5.8675    4.8847    8.4686 H   0  0  0  0  0
    6.1503    4.3957   10.1795 H   0  0  0  0  0
    4.0742    2.9600    8.6726 H   0  0  0  0  0
    3.7480    4.6869    9.1481 H   0  0  0  0  0
    3.2707    2.2565   12.9448 H   0  0  0  0  0
    4.9780   -3.1099   17.7121 H   0  0  0  0  0
    5.5939   -4.5804   17.0964 H   0  0  0  0  0
    2.0370   -5.1995   14.7114 H   0  0  0  0  0
    0.7707   -4.7883   15.8940 H   0  0  0  0  0
    1.5049   -3.5101   14.8950 H   0  0  0  0  0
    2.1285   -5.8617   17.7211 H   0  0  0  0  0
    3.3948   -6.2729   16.5385 H   0  0  0  0  0
    3.8066   -5.3315   17.9929 H   0  0  0  0  0
    7.2344    2.9049   13.8436 H   0  0  0  0  0
    7.5000    4.0311   11.6614 H   0  0  0  0  0
    3.7439    1.3988   10.1084 H   0  0  0  0  0
    1.3987    0.6431   13.0061 H   0  0  0  0  0
    1.7596    0.1637   11.3071 H   0  0  0  0  0
    0.3694    3.0239    9.8223 H   0  0  0  0  0
    1.1880    1.4704    9.6279 H   0  0  0  0  0
    4.6876    1.5911   14.1854 H   0  0  0  0  0
    4.2928   -0.9449   15.9536 H   0  0  0  0  0
    4.7359    1.3357   16.2243 H   0  0  0  0  0
    7.2718   -1.1351   16.4863 H   0  0  0  0  0
    5.9585   -1.6238   17.6418 H   0  0  0  0  0
    4.3067   -4.4217   15.0511 H   0  0  0  0  0
    3.8259   -2.7036   15.4689 H   0  0  0  0  0
    2.3898   -3.4891   17.1983 H   0  0  0  0  0
    9.4759   -2.9301   16.6706 H   0  0  0  0  0
   10.9632   -4.3200   18.0850 H   0  0  0  0  0
   10.6240   -6.7787   18.1954 H   0  0  0  0  0
    8.7861   -7.8371   16.9029 H   0  0  0  0  0
    7.2997   -6.4366   15.4956 H   0  0  0  0  0
  1  2  1  0  0  0
  1 28  1  0  0  0
 29  1  1  0  0  0
  2  3  1  0  0  0
  3  5  4  0  0  0
  3 17  4  0  0  0
  5  4  4  0  0  0
  4 19  4  0  0  0
  7  6  1  0  0  0
 20  6  1  0  0  0
  8  7  1  0  0  0
  9  8  1  0  0  0
  9 21  2  0  0  0
 22  9  1  0  0  0
 11 10  1  0  0  0
 10 22  1  0  0  0
 10 23  1  0  0  0
 11 27  2  0  0  0
 28 11  1  0  0  0
 13 12  1  0  0  0
 12 31  1  0  0  0
 12 34  1  0  0  0
 32 13  1  0  0  0
 33 14  1  0  0  0
 33 15  1  0  0  0
 34 16  1  0  0  0
 16 37  4  0  0  0
 16 41  4  0  0  0
 17 18  4  0  0  0
 18 19  4  0  0  0
 19 20  1  0  0  0
 23 24  1  0  0  0
 24 25  2  0  0  0
 24 26  1  0  0  0
 29 30  1  0  0  0
 31 29  1  0  0  0
 32 33  1  0  0  0
 34 35  2  0  0  0
 34 36  2  0  0  0
 37 38  4  0  0  0
 38 39  4  0  0  0
 39 40  4  0  0  0
 40 41  4  0  0  0
  1 42  1  0  0  0
  2 43  1  0  0  0
  2 44  1  0  0  0
  4 45  1  0  0  0
  5 46  1  0  0  0
  6 47  1  0  0  0
  6 48  1  0  0  0
  7 49  1  0  0  0
  7 50  1  0  0  0
  8 51  1  0  0  0
  8 52  1  0  0  0
 10 53  1  0  0  0
 13 54  1  0  0  0
 13 55  1  0  0  0
 14 56  1  0  0  0
 14 57  1  0  0  0
 14 58  1  0  0  0
 15 59  1  0  0  0
 15 60  1  0  0  0
 15 61  1  0  0  0
 17 62  1  0  0  0
 18 63  1  0  0  0
 22 64  1  0  0  0
 23 65  1  0  0  0
 23 66  1  0  0  0
 26 67  1  0  0  0
 26 68  1  0  0  0
 28 69  1  0  0  0
 29 70  1  0  0  0
 30 71  1  0  0  0
 31 72  1  0  0  0
 31 73  1  0  0  0
 32 74  1  0  0  0
 32 75  1  0  0  0
 33 76  1  0  0  0
 37 77  1  0  0  0
 38 78  1  0  0  0
 39 79  1  0  0  0
 40 80  1  0  0  0
 41 81  1  0  0  0
M  END
$$$$
