3d51_ligand
  -I-interpret- 

 25 25  0  0  0  0  0  0  0  0999 V2000
   30.8330   65.8530    9.7600 C   0  0  0  0  0
   30.7250   65.8020   11.0680 N   0  0  0  0  0
   31.9830   65.2300    9.0090 C   0  0  0  0  0
   29.8530   66.4580    9.0170 N   0  0  0  0  0
   29.6260   66.4080   11.6110 O   0  0  0  0  0
   33.0870   64.8900    9.8330 O   0  0  0  0  0
   32.4080   66.1970    7.9130 C   0  0  0  0  0
   33.5370   65.5880    7.2760 O   0  0  0  0  0
   31.2630   66.2720    6.9030 C   0  0  0  0  0
   31.5320   67.2240    5.8920 O   0  0  0  0  0
   29.9020   66.6560    7.5430 C   0  0  0  0  0
   28.7560   65.9480    6.8330 C   0  0  0  0  0
   27.5330   66.3900    7.4590 O   0  0  0  0  0
   31.6385   64.2847    8.5898 H   0  0  0  0  0
   29.0282   66.7980    9.5115 H   0  0  0  0  0
   29.6476   66.3110   12.5658 H   0  0  0  0  0
   32.7990   64.2806   10.5166 H   0  0  0  0  0
   32.6439   67.1914    8.2920 H   0  0  0  0  0
   34.2647   65.5345    7.8999 H   0  0  0  0  0
   31.1910   65.2661    6.4894 H   0  0  0  0  0
   30.7978   67.2490    5.2740 H   0  0  0  0  0
   29.7860   67.7304    7.4007 H   0  0  0  0  0
   28.8616   64.8662    6.9150 H   0  0  0  0  0
   28.7537   66.1891    5.7700 H   0  0  0  0  0
   26.7852   65.9623    7.0353 H   0  0  0  0  0
  1  2  2  0  0  0
  1  3  1  0  0  0
  1  4  1  0  0  0
  2  5  1  0  0  0
  3  6  1  0  0  0
  3  7  1  0  0  0
  4 11  1  0  0  0
  7  8  1  0  0  0
  7  9  1  0  0  0
  9 10  1  0  0  0
  9 11  1  0  0  0
 11 12  1  0  0  0
 12 13  1  0  0  0
  3 14  1  0  0  0
  4 15  1  0  0  0
  5 16  1  0  0  0
  6 17  1  0  0  0
  7 18  1  0  0  0
  8 19  1  0  0  0
  9 20  1  0  0  0
 10 21  1  0  0  0
 11 22  1  0  0  0
 12 23  1  0  0  0
 12 24  1  0  0  0
 13 25  1  0  0  0
M  END
$$$$
