2dbl_ligand
  -I-interpret- 

 68 71  0  0  0  0  0  0  0  0999 V2000
  -19.6090   43.2120  -15.0920 C   0  0  0  0  0
  -18.2840   42.9280  -15.8780 C   0  0  0  0  0
  -17.0210   43.6270  -15.3230 C   0  0  0  0  0
  -15.8150   43.1030  -15.9000 O   0  0  0  0  0
  -17.0020   43.4450  -13.7690 C   0  0  0  0  0
  -18.1920   44.1920  -13.1820 C   0  0  0  0  0
  -18.0910   44.3490  -11.6990 C   0  0  0  0  0
  -19.2540   45.1550  -11.1500 C   0  0  0  0  0
  -20.6460   44.6780  -11.6080 C   0  0  0  0  0
  -20.6780   44.4100  -13.1300 C   0  0  0  0  0
  -19.5160   43.4610  -13.5270 C   0  0  0  0  0
  -22.0670   43.9550  -13.5650 C   0  0  0  0  0
  -23.2140   44.8570  -13.0210 C   0  0  0  0  0
  -23.0010   45.2830  -11.5450 C   0  0  0  0  0
  -21.6360   45.7790  -11.3530 C   0  0  0  0  0
  -21.6730   46.4880  -10.0120 C   0  0  0  0  0
  -23.1430   46.9640   -9.8590 C   0  0  0  0  0
  -23.9250   46.3880  -11.0620 C   0  0  0  0  0
  -23.1810   44.0340  -10.6790 C   0  0  0  0  0
  -19.6290   42.1340  -12.7500 C   0  0  0  0  0
  -25.3060   45.9000  -10.7100 C   0  0  0  0  0
  -25.5100   45.1730   -9.7510 O   0  0  0  0  0
  -26.4650   46.2830  -11.5540 C   0  0  0  0  0
  -15.7850   42.3040  -16.8680 C   0  0  0  0  0
  -16.1250   42.6330  -18.0320 O   0  0  0  0  0
  -15.2480   40.8890  -16.6710 C   0  0  0  0  0
  -13.7450   40.8590  -16.6750 C   0  0  0  0  0
  -13.1960   41.4700  -15.4050 C   0  0  0  0  0
  -13.9720   41.4280  -14.3970 O   0  0  0  0  0
  -12.0220   41.9830  -15.4060 O   0  0  0  0  0
  -20.2082   42.3083  -15.2036 H   0  0  0  0  0
  -19.9956   44.1423  -15.5081 H   0  0  0  0  0
  -18.4330   43.3102  -16.8878 H   0  0  0  0  0
  -18.1032   41.8555  -15.8062 H   0  0  0  0  0
  -17.0610   44.6840  -15.5863 H   0  0  0  0  0
  -16.0735   43.8421  -13.3587 H   0  0  0  0  0
  -17.0654   42.3864  -13.5170 H   0  0  0  0  0
  -18.1868   45.1865  -13.6281 H   0  0  0  0  0
  -17.1645   44.8745  -11.4678 H   0  0  0  0  0
  -18.1086   43.3591  -11.2430 H   0  0  0  0  0
  -19.1329   46.1744  -11.5165 H   0  0  0  0  0
  -19.2258   45.0519  -10.0653 H   0  0  0  0  0
  -20.8813   43.7637  -11.0632 H   0  0  0  0  0
  -20.5011   45.3313  -13.6849 H   0  0  0  0  0
  -22.2226   42.9518  -13.1682 H   0  0  0  0  0
  -22.1014   44.0017  -14.6535 H   0  0  0  0  0
  -24.1397   44.2837  -13.0711 H   0  0  0  0  0
  -23.2408   45.7623  -13.6275 H   0  0  0  0  0
  -21.2722   46.5184  -12.0665 H   0  0  0  0  0
  -20.9697   47.3198   -9.9720 H   0  0  0  0  0
  -21.3709   45.8314   -9.1961 H   0  0  0  0  0
  -23.1990   48.0525   -9.8450 H   0  0  0  0  0
  -23.5677   46.6158   -8.9175 H   0  0  0  0  0
  -24.1420   47.1350  -11.8256 H   0  0  0  0  0
  -24.1859   43.6364  -10.8214 H   0  0  0  0  0
  -22.4470   43.2827  -10.9702 H   0  0  0  0  0
  -23.0379   44.2965   -9.6308 H   0  0  0  0  0
  -19.5783   42.3355  -11.6800 H   0  0  0  0  0
  -20.5796   41.6559  -12.9863 H   0  0  0  0  0
  -18.8087   41.4758  -13.0364 H   0  0  0  0  0
  -26.9217   45.3853  -11.9708 H   0  0  0  0  0
  -27.1961   46.8151  -10.9453 H   0  0  0  0  0
  -26.1255   46.9289  -12.3637 H   0  0  0  0  0
  -15.6060   40.2684  -17.4924 H   0  0  0  0  0
  -15.5962   40.5208  -15.7060 H   0  0  0  0  0
  -13.3829   41.4331  -17.5279 H   0  0  0  0  0
  -13.4130   39.8229  -16.7402 H   0  0  0  0  0
  -11.6358   41.8940  -16.2804 H   0  0  0  0  0
  1  2  1  0  0  0
  1 11  1  0  0  0
  2  3  1  0  0  0
  3  4  1  0  0  0
  3  5  1  0  0  0
  4 24  1  0  0  0
  5  6  1  0  0  0
  6  7  1  0  0  0
  6 11  1  0  0  0
  7  8  1  0  0  0
  8  9  1  0  0  0
  9 10  1  0  0  0
  9 15  1  0  0  0
 10 11  1  0  0  0
 10 12  1  0  0  0
 11 20  1  0  0  0
 12 13  1  0  0  0
 13 14  1  0  0  0
 14 15  1  0  0  0
 14 18  1  0  0  0
 14 19  1  0  0  0
 15 16  1  0  0  0
 16 17  1  0  0  0
 17 18  1  0  0  0
 18 21  1  0  0  0
 21 22  2  0  0  0
 21 23  1  0  0  0
 24 25  2  0  0  0
 24 26  1  0  0  0
 26 27  1  0  0  0
 27 28  1  0  0  0
 28 29  2  0  0  0
 28 30  1  0  0  0
  1 31  1  0  0  0
  1 32  1  0  0  0
  2 33  1  0  0  0
  2 34  1  0  0  0
  3 35  1  0  0  0
  5 36  1  0  0  0
  5 37  1  0  0  0
  6 38  1  0  0  0
  7 39  1  0  0  0
  7 40  1  0  0  0
  8 41  1  0  0  0
  8 42  1  0  0  0
  9 43  1  0  0  0
 10 44  1  0  0  0
 12 45  1  0  0  0
 12 46  1  0  0  0
 13 47  1  0  0  0
 13 48  1  0  0  0
 15 49  1  0  0  0
 16 50  1  0  0  0
 16 51  1  0  0  0
 17 52  1  0  0  0
 17 53  1  0  0  0
 18 54  1  0  0  0
 19 55  1  0  0  0
 19 56  1  0  0  0
 19 57  1  0  0  0
 20 58  1  0  0  0
 20 59  1  0  0  0
 20 60  1  0  0  0
 23 61  1  0  0  0
 23 62  1  0  0  0
 23 63  1  0  0  0
 26 64  1  0  0  0
 26 65  1  0  0  0
 27 66  1  0  0  0
 27 67  1  0  0  0
 30 68  1  0  0  0
M  END
$$$$
