5qac_ligand
  -I-interpret- 

 29 30  0  0  0  0  0  0  0  0999 V2000
  -12.3160  -18.0590   25.6420 C   0  0  0  0  0
  -11.9080  -17.5330   26.7050 O   0  0  0  0  0
  -12.0590  -19.5330   25.4430 C   0  0  0  0  0
  -12.3910  -23.9050   27.5540 C   0  0  0  0  0
  -11.5520  -22.2470   25.1340 C   0  0  0  0  0
  -10.9610  -21.3280   24.2840 C   0  0  0  0  0
  -11.2150  -19.9770   24.4340 C   0  0  0  0  0
  -12.6530  -20.4640   26.2870 C   0  0  0  0  0
  -12.4140  -21.8290   26.1470 C   0  0  0  0  0
  -13.0790  -22.8060   27.0450 C   0  0  0  0  0
  -14.4100  -22.6450   27.4200 C   0  0  0  0  0
  -15.0310  -23.5360   28.2740 C   0  0  0  0  0
  -14.3240  -24.6160   28.7740 C   0  0  0  0  0
  -16.1960  -25.2910   30.1220 C   0  0  0  0  0
  -13.0010  -24.8040   28.4080 C   0  0  0  0  0
  -14.8610  -25.5060   29.6680 O   0  0  0  0  0
  -12.9180  -17.4440   24.7310 O   0  0  0  0  0
  -11.4789  -18.1996   27.2464 H   0  0  0  0  0
  -11.3493  -24.0592   27.2727 H   0  0  0  0  0
  -11.3411  -23.3092   25.0100 H   0  0  0  0  0
  -10.2931  -21.6705   23.4937 H   0  0  0  0  0
  -10.7512  -19.2586   23.7581 H   0  0  0  0  0
  -13.3208  -20.1181   27.0760 H   0  0  0  0  0
  -14.9745  -21.7974   27.0313 H   0  0  0  0  0
  -16.0743  -23.3890   28.5532 H   0  0  0  0  0
  -16.2577  -24.3232   30.6196 H   0  0  0  0  0
  -16.8752  -25.3067   29.2696 H   0  0  0  0  0
  -16.4716  -26.0794   30.8224 H   0  0  0  0  0
  -12.4433  -25.6580   28.7923 H   0  0  0  0  0
  1  2  1  0  0  0
  3  1  1  0  0  0
  1 17  2  0  0  0
  3  7  4  0  0  0
  8  3  4  0  0  0
 10  4  4  0  0  0
  4 15  4  0  0  0
  5  6  4  0  0  0
  9  5  4  0  0  0
  6  7  4  0  0  0
  9  8  4  0  0  0
  9 10  1  0  0  0
 10 11  4  0  0  0
 11 12  4  0  0  0
 12 13  4  0  0  0
 13 15  4  0  0  0
 13 16  1  0  0  0
 16 14  1  0  0  0
  2 18  1  0  0  0
  4 19  1  0  0  0
  5 20  1  0  0  0
  6 21  1  0  0  0
  7 22  1  0  0  0
  8 23  1  0  0  0
 11 24  1  0  0  0
 12 25  1  0  0  0
 14 26  1  0  0  0
 14 27  1  0  0  0
 14 28  1  0  0  0
 15 29  1  0  0  0
M  END
$$$$
