3lxk_ligand
  -I-interpret- 

 42 44  0  0  0  0  0  0  0  0999 V2000
    0.7260   15.7350    5.4100 C   0  0  0  0  0
    1.7900   16.8120    5.5120 C   0  0  0  0  0
    2.8080   15.6940    7.4290 C   0  0  0  0  0
    1.7000   14.6620    7.4460 C   0  0  0  0  0
    0.4230   15.1790    6.8080 C   0  0  0  0  0
    2.9870   16.2430    6.1130 N   0  0  0  0  0
    4.2210   16.5720    4.2380 O   0  0  0  0  0
    4.1440   16.1520    5.3790 C   0  0  0  0  0
    5.3220   15.5240    6.0770 C   0  0  0  0  0
    6.4300   15.3090    5.1680 C   0  0  0  0  0
    7.2990   15.0780    4.4380 N   0  0  0  0  0
   -0.2050   16.2060    7.7500 C   0  0  0  0  0
   -0.5650   16.2350    4.9240 N   0  0  0  0  0
   -0.7470   17.6270    4.6020 C   0  0  0  0  0
   -1.3940   15.3750    4.1710 C   0  0  0  0  0
   -1.2690   13.9880    4.0410 C   0  0  0  0  0
   -0.3750   12.9580    4.4740 C   0  0  0  0  0
   -0.8250   11.7580    3.9870 C   0  0  0  0  0
   -1.9660   12.0070    3.2910 N   0  0  0  0  0
   -2.2400   13.3380    3.3070 C   0  0  0  0  0
   -3.2950   13.8650    2.6890 N   0  0  0  0  0
   -3.2980   15.1830    2.8830 C   0  0  0  0  0
   -2.4480   15.9530    3.5690 N   0  0  0  0  0
    1.1292   14.9971    4.7164 H   0  0  0  0  0
    1.4238   17.6321    6.1297 H   0  0  0  0  0
    2.0240   17.1918    4.5175 H   0  0  0  0  0
    3.7369   15.2121    7.7342 H   0  0  0  0  0
    2.5409   16.5023    8.1097 H   0  0  0  0  0
    1.4833   14.4149    8.4853 H   0  0  0  0  0
    2.0359   13.7951    6.8770 H   0  0  0  0  0
   -0.3019   14.3780    6.6630 H   0  0  0  0  0
    5.0111   14.5579    6.4747 H   0  0  0  0  0
    5.6519   16.1974    6.8681 H   0  0  0  0  0
   -0.4301   15.7313    8.7050 H   0  0  0  0  0
    0.4935   17.0279    7.9071 H   0  0  0  0  0
   -1.1246   16.5886    7.3073 H   0  0  0  0  0
   -0.5177   17.7879    3.5486 H   0  0  0  0  0
   -1.7808   17.9117    4.7978 H   0  0  0  0  0
   -0.0798   18.2311    5.2168 H   0  0  0  0  0
    0.5141   13.1030    5.0877 H   0  0  0  0  0
   -0.3552   10.7850    4.1311 H   0  0  0  0  0
   -4.1218   15.7162    2.4085 H   0  0  0  0  0
  2  1  1  0  0  0
  1  5  1  0  0  0
  1 13  1  0  0  0
  6  2  1  0  0  0
  3  4  1  0  0  0
  3  6  1  0  0  0
  4  5  1  0  0  0
  5 12  1  0  0  0
  6  8  1  0  0  0
  8  7  2  0  0  0
  8  9  1  0  0  0
  9 10  1  0  0  0
 10 11  3  0  0  0
 13 14  1  0  0  0
 13 15  1  0  0  0
 15 16  4  0  0  0
 15 23  4  0  0  0
 16 17  4  0  0  0
 16 20  4  0  0  0
 17 18  4  0  0  0
 18 19  4  0  0  0
 19 20  4  0  0  0
 20 21  4  0  0  0
 21 22  4  0  0  0
 22 23  4  0  0  0
  1 24  1  0  0  0
  2 25  1  0  0  0
  2 26  1  0  0  0
  3 27  1  0  0  0
  3 28  1  0  0  0
  4 29  1  0  0  0
  4 30  1  0  0  0
  5 31  1  0  0  0
  9 32  1  0  0  0
  9 33  1  0  0  0
 12 34  1  0  0  0
 12 35  1  0  0  0
 12 36  1  0  0  0
 14 37  1  0  0  0
 14 38  1  0  0  0
 14 39  1  0  0  0
 17 40  1  0  0  0
 18 41  1  0  0  0
 22 42  1  0  0  0
M  END
$$$$
