5sz6_ligand
  -I-interpret- 

 29 30  0  0  0  0  0  0  0  0999 V2000
   21.6020    8.2900   12.5010 O   0  0  0  0  0
   20.7970    7.4150   12.5550 C   0  0  0  0  0
   19.4540    7.4770   13.3010 C   0  0  0  0  0
   18.8800    6.3090   13.7900 C   0  0  0  0  0
   18.7990    8.6440   13.5440 C   0  0  0  0  0
   17.6170    8.6950   14.1710 C   0  0  0  0  0
   17.0580    7.5250   14.6400 C   0  0  0  0  0
   17.6570    6.3370   14.4230 C   0  0  0  0  0
   17.0210    5.0570   14.9760 C   0  0  0  0  0
   17.8300    4.0900   15.2670 C   0  0  0  0  0
   17.3320    2.8390   15.8710 C   0  0  0  0  0
   16.0160    2.6570   16.1150 C   0  0  0  0  0
   15.3680    1.1810   16.8860 S   0  0  0  0  0
   15.8850    1.2760   18.2700 O   0  0  0  0  0
   13.9030    1.2040   16.7890 O   0  0  0  0  0
   15.9730   -0.0820   16.0700 N   0  0  0  0  0
   15.1050    3.7940   15.7820 C   0  0  0  0  0
   15.5800    4.9140   15.2810 C   0  0  0  0  0
   21.0323    6.4892   12.0300 H   0  0  0  0  0
   19.4037    5.3605   13.6711 H   0  0  0  0  0
   19.2556    9.5772   13.2144 H   0  0  0  0  0
   17.1044    9.6470   14.3086 H   0  0  0  0  0
   16.1196    7.5612   15.1934 H   0  0  0  0  0
   18.8950    4.2010   15.0630 H   0  0  0  0  0
   18.0382    2.0484   16.1246 H   0  0  0  0  0
   16.6382   -0.7096   16.5216 H   0  0  0  0  0
   15.6885   -0.2492   15.1048 H   0  0  0  0  0
   14.0337    3.6941   15.9564 H   0  0  0  0  0
   14.9038    5.7469   15.0882 H   0  0  0  0  0
  1  2  2  0  0  0
  2  3  1  0  0  0
  3  4  4  0  0  0
  3  5  4  0  0  0
  4  8  4  0  0  0
  5  6  4  0  0  0
  6  7  4  0  0  0
  7  8  4  0  0  0
  8  9  1  0  0  0
  9 10  4  0  0  0
  9 18  4  0  0  0
 10 11  4  0  0  0
 11 12  4  0  0  0
 12 13  1  0  0  0
 12 17  4  0  0  0
 13 14  2  0  0  0
 13 15  2  0  0  0
 13 16  1  0  0  0
 17 18  4  0  0  0
  2 19  1  0  0  0
  4 20  1  0  0  0
  5 21  1  0  0  0
  6 22  1  0  0  0
  7 23  1  0  0  0
 10 24  1  0  0  0
 11 25  1  0  0  0
 16 26  1  0  0  0
 16 27  1  0  0  0
 17 28  1  0  0  0
 18 29  1  0  0  0
M  END
$$$$
