4mg7_ligand
  -I-interpret- 

 56 58  0  0  0  0  0  0  0  0999 V2000
   -5.0500   -6.3700   21.8030 C   0  0  0  0  0
   -5.5930   -4.9670   21.7600 C   0  0  0  0  0
   -6.3730   -4.7840   20.4550 C   0  0  0  0  0
   -6.3560   -4.5740   23.0870 C   0  0  0  0  0
   -7.0780   -3.2040   22.8780 C   0  0  0  0  0
   -5.4740   -4.5760   24.1970 O   0  0  0  0  0
   -7.4870   -5.4710   23.3910 C   0  0  0  0  0
   -8.6860   -4.5960   23.5240 C   0  0  0  0  0
   -8.2230   -3.2550   23.8700 C   0  0  0  0  0
   -7.8330   -3.3350   25.3910 C   0  0  0  0  0
   -9.2520   -2.1530   23.5950 C   0  0  0  0  0
   -8.8020   -0.9240   24.0090 C   0  0  0  0  0
   -7.7200   -0.2360   23.5430 C   0  0  0  0  0
   -7.4260    0.9430   24.1540 C   0  0  0  0  0
   -6.8820   -0.6990   22.5410 C   0  0  0  0  0
   -6.1700   -1.9830   22.9260 C   0  0  0  0  0
   -5.1870   -2.1490   21.9990 O   0  0  0  0  0
   -3.9180   -2.1890   22.3510 C   0  0  0  0  0
   -3.5830   -2.1140   23.5120 O   0  0  0  0  0
   -2.9890   -2.5250   21.3370 C   0  0  0  0  0
   -1.6720   -2.7370   21.6620 C   0  0  0  0  0
   -0.7490   -3.1020   20.7200 C   0  0  0  0  0
   -1.1000   -3.2680   19.4090 C   0  0  0  0  0
   -0.2030   -3.6170   18.5140 O   0  0  0  0  0
   -2.4120   -3.0650   19.0330 C   0  0  0  0  0
   -3.3190   -2.6970   20.0070 C   0  0  0  0  0
   -4.3503   -6.4621   22.6337 H   0  0  0  0  0
   -5.8723   -7.0724   21.9393 H   0  0  0  0  0
   -4.5356   -6.5880   20.8671 H   0  0  0  0  0
   -4.7803   -4.2410   21.7394 H   0  0  0  0  0
   -7.2717   -5.4003   20.4809 H   0  0  0  0  0
   -6.6525   -3.7363   20.3441 H   0  0  0  0  0
   -5.7481   -5.0856   19.6144 H   0  0  0  0  0
   -7.4532   -3.0699   21.8634 H   0  0  0  0  0
   -4.7310   -3.9959   24.0150 H   0  0  0  0  0
   -7.3074   -6.0340   24.3069 H   0  0  0  0  0
   -7.6254   -6.2107   22.6025 H   0  0  0  0  0
   -9.3501   -4.9789   24.2988 H   0  0  0  0  0
   -9.2444   -4.5741   22.5882 H   0  0  0  0  0
   -8.7081   -3.6208   25.9746 H   0  0  0  0  0
   -7.0470   -4.0783   25.5246 H   0  0  0  0  0
   -7.4745   -2.3612   25.7245 H   0  0  0  0  0
  -10.1630   -2.3885   24.1452 H   0  0  0  0  0
   -9.4301   -2.1096   22.5205 H   0  0  0  0  0
   -9.3751   -0.4424   24.8012 H   0  0  0  0  0
   -8.2714    1.6236   24.0534 H   0  0  0  0  0
   -7.2262    0.7634   25.2104 H   0  0  0  0  0
   -6.5456    1.3836   23.6862 H   0  0  0  0  0
   -6.1249    0.0632   22.3568 H   0  0  0  0  0
   -7.4913   -0.9033   21.6606 H   0  0  0  0  0
   -5.8060   -1.9003   23.9501 H   0  0  0  0  0
   -1.3535   -2.6114   22.6968 H   0  0  0  0  0
    0.2862   -3.2636   21.0206 H   0  0  0  0  0
   -0.6220   -3.6869   17.6531 H   0  0  0  0  0
   -2.7237   -3.1916   17.9962 H   0  0  0  0  0
   -4.3546   -2.5329   19.7091 H   0  0  0  0  0
  1  2  1  0  0  0
  2  3  1  0  0  0
  2  4  1  0  0  0
  4  5  1  0  0  0
  4  6  1  0  0  0
  4  7  1  0  0  0
  5  9  1  0  0  0
  5 16  1  0  0  0
  7  8  1  0  0  0
  8  9  1  0  0  0
  9 10  1  0  0  0
  9 11  1  0  0  0
 11 12  1  0  0  0
 12 13  2  0  0  0
 13 14  1  0  0  0
 13 15  1  0  0  0
 15 16  1  0  0  0
 16 17  1  0  0  0
 17 18  1  0  0  0
 18 19  2  0  0  0
 18 20  1  0  0  0
 20 21  4  0  0  0
 20 26  4  0  0  0
 21 22  4  0  0  0
 22 23  4  0  0  0
 23 24  1  0  0  0
 23 25  4  0  0  0
 25 26  4  0  0  0
  1 27  1  0  0  0
  1 28  1  0  0  0
  1 29  1  0  0  0
  2 30  1  0  0  0
  3 31  1  0  0  0
  3 32  1  0  0  0
  3 33  1  0  0  0
  5 34  1  0  0  0
  6 35  1  0  0  0
  7 36  1  0  0  0
  7 37  1  0  0  0
  8 38  1  0  0  0
  8 39  1  0  0  0
 10 40  1  0  0  0
 10 41  1  0  0  0
 10 42  1  0  0  0
 11 43  1  0  0  0
 11 44  1  0  0  0
 12 45  1  0  0  0
 14 46  1  0  0  0
 14 47  1  0  0  0
 14 48  1  0  0  0
 15 49  1  0  0  0
 15 50  1  0  0  0
 16 51  1  0  0  0
 21 52  1  0  0  0
 22 53  1  0  0  0
 24 54  1  0  0  0
 25 55  1  0  0  0
 26 56  1  0  0  0
M  END
$$$$
