2xzq_ligand
  -I-interpret- 

143144  0  0  0  0  0  0  0  0999 V2000
  -18.7460   14.2550   -6.4130 N   0  3  0  0  0
  -19.6160   14.7100   -5.2930 C   0  0  0  0  0
  -20.7260   13.6680   -5.1660 C   0  0  0  0  0
  -21.3420   13.5060   -4.1070 O   0  0  0  0  0
  -20.2200   16.0770   -5.6340 C   0  0  0  0  0
  -19.3530   16.9090   -6.5570 C   0  0  0  0  0
  -18.2550   17.6140   -6.0750 C   0  0  0  0  0
  -19.6140   16.9570   -7.9190 C   0  0  0  0  0
  -17.4430   18.3420   -6.9330 C   0  0  0  0  0
  -18.8150   17.6730   -8.7740 C   0  0  0  0  0
  -17.7310   18.3650   -8.2820 C   0  0  0  0  0
  -16.9180   19.0790   -9.1370 O   0  0  0  0  0
  -20.9490   12.9610   -6.2730 N   0  0  0  0  0
  -21.9670   11.9210   -6.4070 C   0  0  0  0  0
  -21.8700   10.7930   -5.3290 C   0  0  0  0  0
  -22.4340   10.9770   -4.2480 O   0  0  0  0  0
  -21.8950   11.4020   -7.8470 C   0  0  0  0  0
  -20.8310   12.1140   -8.7700 C   0  0  0  0  0
  -21.2060   13.5250   -9.2590 C   0  0  0  0  0
  -22.3690   13.8170   -9.5390 O   0  0  0  0  0
  -20.2000   14.3890   -9.3950 N   0  0  0  0  0
  -21.2300    9.6400   -5.6070 N   0  0  0  0  0
  -21.0030    8.5440   -4.5960 C   0  0  0  0  0
  -21.7510    7.1850   -4.3810 C   0  0  0  0  0
  -21.8660    6.3540   -5.2770 O   0  0  0  0  0
  -20.7950    9.1910   -3.2050 C   0  0  0  0  0
  -22.1350    6.9620   -3.1160 N   0  0  0  0  0
  -22.9120    5.8210   -2.5600 C   0  0  0  0  0
  -23.3890    4.5980   -3.3840 C   0  0  0  0  0
  -22.7740    4.2300   -4.3780 O   0  0  0  0  0
  -24.1400    6.4770   -1.9520 C   0  0  0  0  0
  -24.8210    7.3370   -2.9760 C   0  0  0  0  0
  -26.0740    7.9850   -2.4840 C   0  0  0  0  0
  -26.3000    9.2010   -3.2530 N   0  0  0  0  0
  -27.4870    9.7610   -3.4500 C   0  0  0  0  0
  -28.5780    9.2100   -2.9350 N   0  0  0  0  0
  -27.5790   10.8770   -4.1620 N   0  0  0  0  0
  -24.4590    3.9040   -2.9090 N   0  0  0  0  0
  -25.0140    2.7400   -3.6220 C   0  0  0  0  0
  -26.2970    3.2210   -4.3180 C   0  0  0  0  0
  -26.2500    4.1230   -5.1630 O   0  0  0  0  0
  -25.3440    1.7410   -2.4990 C   0  0  0  0  0
  -24.7490    2.3440   -1.2390 C   0  0  0  0  0
  -24.8340    3.8150   -1.4840 C   0  0  0  0  0
  -27.4220    2.6140   -3.9190 N   0  0  0  0  0
  -28.7930    2.9040   -4.3880 C   0  0  0  0  0
  -29.5280    1.6510   -4.8740 C   0  0  0  0  0
  -29.2240    0.5320   -4.4450 O   0  0  0  0  0
  -28.8220    3.9600   -5.5040 C   0  0  0  0  0
  -29.9380    4.9790   -5.3080 C   0  0  0  0  0
  -29.8630    5.8320   -4.4200 O   0  0  0  0  0
  -30.9830    4.8880   -6.1270 N   0  0  0  0  0
  -30.5090    1.8480   -5.7540 N   0  0  0  0  0
  -31.2800    0.7400   -6.3120 C   0  0  0  0  0
  -30.8850    0.5810   -7.7800 C   0  0  0  0  0
  -31.5380   -0.1350   -8.5460 O   0  0  0  0  0
  -32.7780    1.0170   -6.1810 C   0  0  0  0  0
  -29.8030    1.2630   -8.1510 N   0  0  0  0  0
  -29.2670    1.2240   -9.5080 C   0  0  0  0  0
  -27.8310    0.6830   -9.4180 C   0  0  0  0  0
  -27.4610   -0.2460  -10.1380 O   0  0  0  0  0
  -29.2750    2.6350  -10.1120 C   0  0  0  0  0
  -29.3490    2.6750  -11.6350 C   0  0  0  0  0
  -28.2720    3.5480  -12.2480 C   0  0  0  0  0
  -27.3530    3.9580  -11.5090 O   0  0  0  0  0
  -28.3350    3.8230  -13.4640 O   0  0  0  0  0
  -27.0450    1.2730   -8.5140 N   0  0  0  0  0
  -25.6450    0.9050   -8.2390 C   0  0  0  0  0
  -24.8050    0.3340   -9.3830 C   0  0  0  0  0
  -23.9710   -0.5620   -9.1020 O   0  0  0  0  0
  -25.5630   -0.1000   -7.0760 C   0  0  0  0  0
  -26.3350   -1.2650   -7.3940 O   0  0  0  0  0
  -26.0960    0.5180   -5.8030 C   0  0  0  0  0
  -24.9449    0.7478  -10.5649 O   0  0  0  0  0
  -18.3457   13.3454   -6.1831 H   0  0  0  0  0
  -19.3024   14.1776   -7.2643 H   0  0  0  0  0
  -17.9961   14.9315   -6.5559 H   0  0  0  0  0
  -19.0563   14.8099   -4.3630 H   0  0  0  0  0
  -20.3277   16.6292   -4.7004 H   0  0  0  0  0
  -21.1655   15.8984   -6.1461 H   0  0  0  0  0
  -18.0294   17.5943   -5.0088 H   0  0  0  0  0
  -20.4714   16.4147   -8.3177 H   0  0  0  0  0
  -16.5851   18.8909   -6.5445 H   0  0  0  0  0
  -19.0379   17.6940   -9.8408 H   0  0  0  0  0
  -17.2486   18.9966  -10.0345 H   0  0  0  0  0
  -20.3667   13.1601   -7.0864 H   0  0  0  0  0
  -22.9514   12.3470   -6.2134 H   0  0  0  0  0
  -22.8709   11.5894   -8.2948 H   0  0  0  0  0
  -21.6027   10.3537   -7.7860 H   0  0  0  0  0
  -20.7335   11.4948   -9.6618 H   0  0  0  0  0
  -19.9282   12.2260   -8.1695 H   0  0  0  0  0
  -20.3802   15.3310   -9.7421 H   0  0  0  0  0
  -19.2501   14.1081   -9.1519 H   0  0  0  0  0
  -20.8793    9.5007   -6.5546 H   0  0  0  0  0
  -20.2042    8.0962   -5.1872 H   0  0  0  0  0
  -19.9283    9.8511   -3.2387 H   0  0  0  0  0
  -21.6812    9.7662   -2.9371 H   0  0  0  0  0
  -20.6296    8.4096   -2.4633 H   0  0  0  0  0
  -21.8557    7.6735   -2.4406 H   0  0  0  0  0
  -22.1768    5.3142   -1.9349 H   0  0  0  0  0
  -23.8356    7.0962   -1.1082 H   0  0  0  0  0
  -24.8308    5.7038   -1.6158 H   0  0  0  0  0
  -25.0953    6.6921   -3.8108 H   0  0  0  0  0
  -24.1271    8.1338   -3.2439 H   0  0  0  0  0
  -25.9760    8.2275   -1.4258 H   0  0  0  0  0
  -26.9170    7.3052   -2.6077 H   0  0  0  0  0
  -25.4875    9.6550   -3.6702 H   0  0  0  0  0
  -28.5062    8.3535   -2.3858 H   0  0  0  0  0
  -28.4892   11.3117   -4.3136 H   0  0  0  0  0
  -26.7395   11.3001   -4.5577 H   0  0  0  0  0
  -24.3548    2.2953   -4.3676 H   0  0  0  0  0
  -24.9302    0.7540   -2.7056 H   0  0  0  0  0
  -26.4187    1.5875   -2.4015 H   0  0  0  0  0
  -23.7280    2.0087   -1.0568 H   0  0  0  0  0
  -25.2808    2.0387   -0.3379 H   0  0  0  0  0
  -25.8158    4.2355   -1.2663 H   0  0  0  0  0
  -24.1911    4.4023   -0.8283 H   0  0  0  0  0
  -27.3225    1.8771   -3.2208 H   0  0  0  0  0
  -29.3100    3.2981   -3.5131 H   0  0  0  0  0
  -28.9950    3.4471   -6.4501 H   0  0  0  0  0
  -27.8713    4.4930   -5.4897 H   0  0  0  0  0
  -31.7625    5.5392   -6.0335 H   0  0  0  0  0
  -31.0045    4.1671   -6.8482 H   0  0  0  0  0
  -30.7279    2.8003   -6.0465 H   0  0  0  0  0
  -31.0669   -0.1808   -5.7691 H   0  0  0  0  0
  -33.0337    1.1346   -5.1280 H   0  0  0  0  0
  -33.0257    1.9311   -6.7206 H   0  0  0  0  0
  -33.3387    0.1821   -6.6014 H   0  0  0  0  0
  -29.3276    1.8383   -7.4557 H   0  0  0  0  0
  -29.8726    0.5835  -10.1492 H   0  0  0  0  0
  -28.3350    3.1077   -9.8272 H   0  0  0  0  0
  -30.1678    3.1357   -9.7374 H   0  0  0  0  0
  -30.3171    3.0916  -11.9130 H   0  0  0  0  0
  -29.2082    1.6593  -12.0045 H   0  0  0  0  0
  -27.4931    3.6340  -10.6163 H   0  0  0  0  0
  -27.4451    2.0384   -7.9713 H   0  0  0  0  0
  -25.2089    1.8785   -8.0147 H   0  0  0  0  0
  -24.5190   -0.3750   -6.9261 H   0  0  0  0  0
  -26.2825   -1.8904   -6.6675 H   0  0  0  0  0
  -25.5046    1.3988   -5.5529 H   0  0  0  0  0
  -27.1368    0.8071   -5.9491 H   0  0  0  0  0
  -26.0295   -0.2080   -4.9927 H   0  0  0  0  0
  -25.6223    1.4277  -10.5866 H   0  0  0  0  0
  1  2  1  0  0  0
  2  3  1  0  0  0
  2  5  1  0  0  0
  3  4  2  0  0  0
  3 13  1  0  0  0
  5  6  1  0  0  0
  6  7  4  0  0  0
  6  8  4  0  0  0
  7  9  4  0  0  0
  8 10  4  0  0  0
  9 11  4  0  0  0
 10 11  4  0  0  0
 11 12  1  0  0  0
 13 14  1  0  0  0
 14 15  1  0  0  0
 14 17  1  0  0  0
 15 16  2  0  0  0
 15 22  1  0  0  0
 17 18  1  0  0  0
 18 19  1  0  0  0
 19 20  2  0  0  0
 19 21  1  0  0  0
 22 23  1  0  0  0
 23 24  1  0  0  0
 23 26  1  0  0  0
 24 25  2  0  0  0
 24 27  1  0  0  0
 27 28  1  0  0  0
 28 29  1  0  0  0
 28 31  1  0  0  0
 29 30  2  0  0  0
 29 38  1  0  0  0
 31 32  1  0  0  0
 32 33  1  0  0  0
 33 34  1  0  0  0
 34 35  1  0  0  0
 35 36  2  0  0  0
 35 37  1  0  0  0
 38 39  1  0  0  0
 38 44  1  0  0  0
 39 40  1  0  0  0
 39 42  1  0  0  0
 40 41  2  0  0  0
 40 45  1  0  0  0
 42 43  1  0  0  0
 43 44  1  0  0  0
 45 46  1  0  0  0
 46 47  1  0  0  0
 46 49  1  0  0  0
 47 48  2  0  0  0
 47 53  1  0  0  0
 49 50  1  0  0  0
 50 51  2  0  0  0
 50 52  1  0  0  0
 53 54  1  0  0  0
 54 55  1  0  0  0
 54 57  1  0  0  0
 55 56  2  0  0  0
 55 58  1  0  0  0
 58 59  1  0  0  0
 59 60  1  0  0  0
 59 62  1  0  0  0
 60 61  2  0  0  0
 60 67  1  0  0  0
 62 63  1  0  0  0
 63 64  1  0  0  0
 64 65  1  0  0  0
 64 66  2  0  0  0
 67 68  1  0  0  0
 68 69  1  0  0  0
 68 71  1  0  0  0
 69 70  2  0  0  0
 71 72  1  0  0  0
 71 73  1  0  0  0
 69 74  1  0  0  0
  1 75  1  0  0  0
  1 76  1  0  0  0
  1 77  1  0  0  0
  2 78  1  0  0  0
  5 79  1  0  0  0
  5 80  1  0  0  0
  7 81  1  0  0  0
  8 82  1  0  0  0
  9 83  1  0  0  0
 10 84  1  0  0  0
 12 85  1  0  0  0
 13 86  1  0  0  0
 14 87  1  0  0  0
 17 88  1  0  0  0
 17 89  1  0  0  0
 18 90  1  0  0  0
 18 91  1  0  0  0
 21 92  1  0  0  0
 21 93  1  0  0  0
 22 94  1  0  0  0
 23 95  1  0  0  0
 26 96  1  0  0  0
 26 97  1  0  0  0
 26 98  1  0  0  0
 27 99  1  0  0  0
 28100  1  0  0  0
 31101  1  0  0  0
 31102  1  0  0  0
 32103  1  0  0  0
 32104  1  0  0  0
 33105  1  0  0  0
 33106  1  0  0  0
 34107  1  0  0  0
 36108  1  0  0  0
 37109  1  0  0  0
 37110  1  0  0  0
 39111  1  0  0  0
 42112  1  0  0  0
 42113  1  0  0  0
 43114  1  0  0  0
 43115  1  0  0  0
 44116  1  0  0  0
 44117  1  0  0  0
 45118  1  0  0  0
 46119  1  0  0  0
 49120  1  0  0  0
 49121  1  0  0  0
 52122  1  0  0  0
 52123  1  0  0  0
 53124  1  0  0  0
 54125  1  0  0  0
 57126  1  0  0  0
 57127  1  0  0  0
 57128  1  0  0  0
 58129  1  0  0  0
 59130  1  0  0  0
 62131  1  0  0  0
 62132  1  0  0  0
 63133  1  0  0  0
 63134  1  0  0  0
 65135  1  0  0  0
 67136  1  0  0  0
 68137  1  0  0  0
 71138  1  0  0  0
 72139  1  0  0  0
 73140  1  0  0  0
 73141  1  0  0  0
 73142  1  0  0  0
 74143  1  0  0  0
M  END
$$$$
