### 
### Created by X-TOOL on Mon Sep 10 21:13:08 2018
### 

@<TRIPOS>MOLECULE
2xzq_ligand
  142   143     1     0     0
SMALL
GAST_HUCK


@<TRIPOS>ATOM
      1 N         -18.7460   14.2550   -6.4130 N.4       1 TYR         0.2392
      2 CA        -19.6160   14.7100   -5.2930 C.3       1 TYR         0.0730
      3 C         -20.7260   13.6680   -5.1660 C.2       1 TYR         0.2286
      4 O         -21.3420   13.5060   -4.1070 O.2       1 TYR        -0.3905
      5 CB        -20.2200   16.0770   -5.6340 C.3       1 TYR         0.0365
      6 CG        -19.3530   16.9090   -6.5570 C.ar      1 TYR        -0.0460
      7 CD1       -18.2550   17.6140   -6.0750 C.ar      1 TYR        -0.0684
      8 CD2       -19.6140   16.9570   -7.9190 C.ar      1 TYR        -0.0684
      9 CE1       -17.4430   18.3420   -6.9330 C.ar      1 TYR        -0.0398
     10 CE2       -18.8150   17.6730   -8.7740 C.ar      1 TYR        -0.0398
     11 CZ        -17.7310   18.3650   -8.2820 C.ar      1 TYR         0.0805
     12 OH        -16.9180   19.0790   -9.1370 O.3       1 TYR        -0.3376
     13 N         -20.9490   12.9610   -6.2730 N.am      1 GLN        -0.2607
     14 CA        -21.9670   11.9210   -6.4070 C.3       1 GLN         0.1331
     15 C         -21.8700   10.7930   -5.3290 C.2       1 GLN         0.2040
     16 O         -22.4340   10.9770   -4.2480 O.2       1 GLN        -0.3944
     17 CB        -21.8950   11.4020   -7.8470 C.3       1 GLN         0.0045
     18 CG        -20.8310   12.1140   -8.7700 C.3       1 GLN         0.0412
     19 CD        -21.2060   13.5250   -9.2590 C.2       1 GLN         0.1737
     20 OE1       -22.3690   13.8170   -9.5390 O.2       1 GLN        -0.3973
     21 NE2       -20.2000   14.3890   -9.3950 N.am      1 GLN        -0.3009
     22 N         -21.2300    9.6400   -5.6070 N.am      1 LEU        -0.2640
     23 CA        -21.0030    8.5440   -4.5960 C.3       1 LEU         0.1282
     24 C         -21.7510    7.1850   -4.3810 C.2       1 LEU         0.2036
     25 O         -21.8660    6.3540   -5.2770 O.2       1 LEU        -0.3944
     26 CB        -20.7950    9.1910   -3.2050 C.3       1 LEU        -0.0244
     27 N         -22.1350    6.9620   -3.1160 N.am      1 ARG        -0.2637
     28 CA        -22.9120    5.8210   -2.5600 C.3       1 ARG         0.1313
     29 C         -23.3890    4.5980   -3.3840 C.2       1 ARG         0.2064
     30 O         -22.7740    4.2300   -4.3780 O.2       1 ARG        -0.3942
     31 CB        -24.1400    6.4770   -1.9520 C.3       1 ARG        -0.0092
     32 CG        -24.8210    7.3370   -2.9760 C.3       1 ARG        -0.0156
     33 CD        -26.0740    7.9850   -2.4840 C.3       1 ARG         0.0627
     34 NE        -26.3000    9.2010   -3.2530 N.pl3     1 ARG        -0.2723
     35 CZ        -27.4870    9.7610   -3.4500 C.cat     1 ARG         0.2882
     36 NH1       -28.5780    9.2100   -2.9350 N.pl3     1 ARG        -0.2849
     37 NH2       -27.5790   10.8770   -4.1620 N.pl3     1 ARG        -0.2849
     38 N         -24.4590    3.9040   -2.9090 N.am      1 PRO        -0.2498
     39 CA        -25.0140    2.7400   -3.6220 C.3       1 PRO         0.1338
     40 C         -26.2970    3.2210   -4.3180 C.2       1 PRO         0.2042
     41 O         -26.2500    4.1230   -5.1630 O.2       1 PRO        -0.3944
     42 CB        -25.3440    1.7410   -2.4990 C.3       1 PRO        -0.0104
     43 CG        -24.7490    2.3440   -1.2390 C.3       1 PRO        -0.0281
     44 CD        -24.8340    3.8150   -1.4840 C.3       1 PRO         0.0369
     45 N         -27.4220    2.6140   -3.9190 N.am      1 ASN        -0.2616
     46 CA        -28.7930    2.9040   -4.3880 C.3       1 ASN         0.1476
     47 C         -29.5280    1.6510   -4.8740 C.2       1 ASN         0.2062
     48 O         -29.2240    0.5320   -4.4450 O.2       1 ASN        -0.3942
     49 CB        -28.8220    3.9600   -5.5040 C.3       1 ASN         0.0773
     50 CG        -29.9380    4.9790   -5.3080 C.2       1 ASN         0.1780
     51 OD1       -29.8630    5.8320   -4.4200 O.2       1 ASN        -0.3970
     52 ND2       -30.9830    4.8880   -6.1270 N.am      1 ASN        -0.3007
     53 N         -30.5090    1.8480   -5.7540 N.am      1 ALA        -0.2639
     54 CA        -31.2800    0.7400   -6.3120 C.3       1 ALA         0.1282
     55 C         -30.8850    0.5810   -7.7800 C.2       1 ALA         0.2036
     56 O         -31.5380   -0.1350   -8.5460 O.2       1 ALA        -0.3944
     57 CB        -32.7780    1.0170   -6.1810 C.3       1 ALA        -0.0244
     58 N         -29.8030    1.2630   -8.1510 N.am      1 GLU        -0.2636
     59 CA        -29.2670    1.2240   -9.5080 C.3       1 GLU         0.1324
     60 C         -27.8310    0.6830   -9.4180 C.2       1 GLU         0.2035
     61 O         -27.4610   -0.2460  -10.1380 O.2       1 GLU        -0.3944
     62 CB        -29.2750    2.6350  -10.1120 C.3       1 GLU        -0.0008
     63 CG        -29.3490    2.6750  -11.6350 C.3       1 GLU         0.0044
     64 CD        -28.2720    3.5480  -12.2480 C.2       1 GLU         0.0350
     65 OE1       -27.3530    3.9580  -11.5090 O.co2     1 GLU        -0.5690
     66 OE2       -28.3350    3.8230  -13.4640 O.co2     1 GLU        -0.5690
     67 N         -27.0450    1.2730   -8.5140 N.am      1 THR        -0.2670
     68 CA        -25.6450    0.9050   -8.2390 C.3       1 THR         0.1198
     69 C         -24.8050    0.3340   -9.3830 C.2       1 THR         0.0626
     70 O         -23.9710   -0.5620   -9.1020 O.co2     1 THR        -0.5665
     71 CB        -25.5630   -0.1000   -7.0760 C.3       1 THR         0.0869
     72 OG1       -26.3350   -1.2650   -7.3940 O.3       1 THR        -0.3880
     73 CG2       -26.0960    0.5180   -5.8030 C.3       1 THR        -0.0352
     74 H         -18.3457   13.3454   -6.1831 H         1 TYR         0.2017
     75 H         -19.3024   14.1776   -7.2643 H         1 TYR         0.2017
     76 H         -17.9961   14.9315   -6.5559 H         1 TYR         0.2017
     77 H         -19.0563   14.8099   -4.3630 H         1 TYR         0.1120
     78 H         -20.3277   16.6292   -4.7004 H         1 TYR         0.0486
     79 H         -21.1655   15.8984   -6.1461 H         1 TYR         0.0486
     80 H         -18.0294   17.5943   -5.0088 H         1 TYR         0.0530
     81 H         -20.4714   16.4147   -8.3177 H         1 TYR         0.0530
     82 H         -16.5851   18.8909   -6.5445 H         1 TYR         0.0525
     83 H         -19.0379   17.6940   -9.8408 H         1 TYR         0.0525
     84 H         -16.2158   19.4979   -8.6339 H         1 TYR         0.2458
     85 H         -20.3667   13.1601   -7.0864 H         1 GLN         0.1885
     86 H         -22.9514   12.3470   -6.2134 H         1 GLN         0.0801
     87 H         -22.8709   11.5894   -8.2948 H         1 GLN         0.0337
     88 H         -21.6027   10.3537   -7.7860 H         1 GLN         0.0337
     89 H         -20.7335   11.4948   -9.6618 H         1 GLN         0.0504
     90 H         -19.9282   12.2260   -8.1695 H         1 GLN         0.0504
     91 H         -20.3802   15.3310   -9.7421 H         1 GLN         0.1814
     92 H         -19.2501   14.1081   -9.1519 H         1 GLN         0.1814
     93 H         -20.8793    9.5007   -6.5546 H         1 LEU         0.1883
     94 H         -20.2042    8.0962   -5.1872 H         1 LEU         0.0797
     95 H         -19.9283    9.8511   -3.2387 H         1 LEU         0.0277
     96 H         -21.6812    9.7662   -2.9371 H         1 LEU         0.0277
     97 H         -20.6296    8.4096   -2.4633 H         1 LEU         0.0277
     98 H         -21.8557    7.6735   -2.4406 H         1 ARG         0.1883
     99 H         -22.1768    5.3142   -1.9349 H         1 ARG         0.0800
    100 H         -23.8356    7.0962   -1.1082 H         1 ARG         0.0313
    101 H         -24.8308    5.7038   -1.6158 H         1 ARG         0.0313
    102 H         -25.0953    6.6921   -3.8108 H         1 ARG         0.0301
    103 H         -24.1271    8.1338   -3.2439 H         1 ARG         0.0301
    104 H         -25.9760    8.2275   -1.4258 H         1 ARG         0.0689
    105 H         -26.9170    7.3052   -2.6077 H         1 ARG         0.0689
    106 H         -25.4875    9.6550   -3.6702 H         1 ARG         0.2642
    107 H         -28.5062    8.3535   -2.3858 H         1 ARG         0.2615
    108 H         -29.4889    9.6428   -3.0882 H         1 ARG         0.2615
    109 H         -26.7392   11.3015   -4.5557 H         1 ARG         0.2615
    110 H         -28.4895   11.3104   -4.3156 H         1 ARG         0.2615
    111 H         -24.3548    2.2953   -4.3676 H         1 PRO         0.0802
    112 H         -24.9302    0.7540   -2.7056 H         1 PRO         0.0313
    113 H         -26.4187    1.5875   -2.4015 H         1 PRO         0.0313
    114 H         -23.7280    2.0087   -1.0568 H         1 PRO         0.0287
    115 H         -25.2808    2.0387   -0.3379 H         1 PRO         0.0287
    116 H         -25.8158    4.2355   -1.2663 H         1 PRO         0.0524
    117 H         -24.1911    4.4023   -0.8283 H         1 PRO         0.0524
    118 H         -27.3225    1.8771   -3.2208 H         1 ASN         0.1885
    119 H         -29.3100    3.2981   -3.5131 H         1 ASN         0.0826
    120 H         -28.9950    3.4471   -6.4501 H         1 ASN         0.0551
    121 H         -27.8713    4.4930   -5.4897 H         1 ASN         0.0551
    122 H         -31.7625    5.5392   -6.0335 H         1 ASN         0.1814
    123 H         -31.0045    4.1671   -6.8482 H         1 ASN         0.1814
    124 H         -30.7279    2.8003   -6.0465 H         1 ALA         0.1883
    125 H         -31.0669   -0.1808   -5.7691 H         1 ALA         0.0797
    126 H         -33.0337    1.1346   -5.1280 H         1 ALA         0.0277
    127 H         -33.0257    1.9311   -6.7206 H         1 ALA         0.0277
    128 H         -33.3387    0.1821   -6.6014 H         1 ALA         0.0277
    129 H         -29.3276    1.8383   -7.4557 H         1 GLU         0.1883
    130 H         -29.8726    0.5835  -10.1492 H         1 GLU         0.0801
    131 H         -28.3350    3.1077   -9.8272 H         1 GLU         0.0330
    132 H         -30.1678    3.1357   -9.7374 H         1 GLU         0.0330
    133 H         -30.3171    3.0916  -11.9130 H         1 GLU         0.0433
    134 H         -29.2082    1.6593  -12.0045 H         1 GLU         0.0433
    135 H         -27.4451    2.0384   -7.9713 H         1 THR         0.1876
    136 H         -25.2089    1.8785   -8.0147 H         1 THR         0.0752
    137 O1        -24.9449    0.7478  -10.5649 O.co2     1 THR        -0.5665
    138 H         -24.5190   -0.3750   -6.9261 H         1 THR         0.0632
    139 H         -25.9873   -1.6699   -8.1920 H         1 THR         0.2100
    140 H         -25.5046    1.3988   -5.5529 H         1 THR         0.0256
    141 H         -27.1368    0.8071   -5.9491 H         1 THR         0.0256
    142 H         -26.0295   -0.2080   -4.9927 H         1 THR         0.0256
@<TRIPOS>BOND
     1    1    2 1  
     2    2    3 1  
     3    2    5 1  
     4    3    4 2  
     5    3   13 am 
     6    5    6 1  
     7    6    7 ar 
     8    6    8 ar 
     9    7    9 ar 
    10    8   10 ar 
    11    9   11 ar 
    12   10   11 ar 
    13   11   12 1  
    14   13   14 1  
    15   14   15 1  
    16   14   17 1  
    17   15   16 2  
    18   15   22 am 
    19   17   18 1  
    20   18   19 1  
    21   19   20 2  
    22   19   21 am 
    23   22   23 1  
    24   23   24 1  
    25   23   26 1  
    26   24   25 2  
    27   24   27 am 
    28   27   28 1  
    29   28   29 1  
    30   28   31 1  
    31   29   30 2  
    32   29   38 am 
    33   31   32 1  
    34   32   33 1  
    35   33   34 1  
    36   34   35 ar 
    37   35   36 ar 
    38   35   37 ar 
    39   38   39 1  
    40   38   44 1  
    41   39   40 1  
    42   39   42 1  
    43   40   41 2  
    44   40   45 am 
    45   42   43 1  
    46   43   44 1  
    47   45   46 1  
    48   46   47 1  
    49   46   49 1  
    50   47   48 2  
    51   47   53 am 
    52   49   50 1  
    53   50   51 2  
    54   50   52 am 
    55   53   54 1  
    56   54   55 1  
    57   54   57 1  
    58   55   56 2  
    59   55   58 am 
    60   58   59 1  
    61   59   60 1  
    62   59   62 1  
    63   60   61 2  
    64   60   67 am 
    65   62   63 1  
    66   63   64 1  
    67   64   65 ar 
    68   64   66 ar 
    69   67   68 1  
    70   68   69 1  
    71   68   71 1  
    72   69   70 ar 
    73   71   72 1  
    74   71   73 1  
    75    1   74 1  
    76    1   75 1  
    77    1   76 1  
    78    2   77 1  
    79    5   78 1  
    80    5   79 1  
    81    7   80 1  
    82    8   81 1  
    83    9   82 1  
    84   10   83 1  
    85   12   84 1  
    86   13   85 1  
    87   14   86 1  
    88   17   87 1  
    89   17   88 1  
    90   18   89 1  
    91   18   90 1  
    92   21   91 1  
    93   21   92 1  
    94   22   93 1  
    95   23   94 1  
    96   26   95 1  
    97   26   96 1  
    98   26   97 1  
    99   27   98 1  
   100   28   99 1  
   101   31  100 1  
   102   31  101 1  
   103   32  102 1  
   104   32  103 1  
   105   33  104 1  
   106   33  105 1  
   107   34  106 1  
   108   36  107 1  
   109   36  108 1  
   110   37  109 1  
   111   37  110 1  
   112   39  111 1  
   113   42  112 1  
   114   42  113 1  
   115   43  114 1  
   116   43  115 1  
   117   44  116 1  
   118   44  117 1  
   119   45  118 1  
   120   46  119 1  
   121   49  120 1  
   122   49  121 1  
   123   52  122 1  
   124   52  123 1  
   125   53  124 1  
   126   54  125 1  
   127   57  126 1  
   128   57  127 1  
   129   57  128 1  
   130   58  129 1  
   131   59  130 1  
   132   62  131 1  
   133   62  132 1  
   134   63  133 1  
   135   63  134 1  
   136   67  135 1  
   137   68  136 1  
   138   69  137 ar 
   139   71  138 1  
   140   72  139 1  
   141   73  140 1  
   142   73  141 1  
   143   73  142 1  
@<TRIPOS>SUBSTRUCTURE
     1 TYR         1

