1w0x_ligand
  -I-interpret- 

 40 42  0  0  0  0  0  0  0  0999 V2000
  107.0840  100.2570   81.1410 N   0  0  0  0  0
  108.0000  100.9480   80.3360 C   0  0  0  0  0
  107.4580  101.3740   79.1990 N   0  0  0  0  0
  106.1350  100.9110   79.2460 C   0  0  0  0  0
  105.8950  100.2660   80.4270 C   0  0  0  0  0
  105.0440  100.9680   78.3580 C   0  0  0  0  0
  103.9470  100.3120   78.6750 N   0  0  0  0  0
  103.7070   99.7520   79.8650 C   0  0  0  0  0
  104.6740   99.7320   80.8190 N   0  0  0  0  0
  107.3030   99.5740   82.4900 C   0  0  0  0  0
  102.4930   99.0410   80.0920 N   0  0  0  0  0
  101.5880   98.7140   78.9120 C   0  0  0  0  0
  100.8840   97.3220   78.7590 C   0  0  0  0  0
   99.4610   97.6010   78.7240 O   0  0  0  0  0
  105.0290  101.6760   77.2000 N   0  0  0  0  0
  104.0080  101.3500   76.1800 C   0  0  0  0  0
  101.6240  101.7240   76.5510 C   0  0  0  0  0
  100.4600  102.5470   76.5070 C   0  0  0  0  0
  100.6270  103.8740   76.1430 C   0  0  0  0  0
  101.9520  104.3680   75.8390 C   0  0  0  0  0
  103.0670  103.5270   75.8960 C   0  0  0  0  0
  102.8890  102.2430   76.2340 C   0  0  0  0  0
  109.0409  101.1173   80.6114 H   0  0  0  0  0
  108.0551   98.7925   82.3823 H   0  0  0  0  0
  107.6441  100.3105   83.2176 H   0  0  0  0  0
  106.3655   99.1335   82.8292 H   0  0  0  0  0
  102.2329   98.7540   81.0356 H   0  0  0  0  0
  102.2618   98.7537   78.0561 H   0  0  0  0  0
  100.7560   99.4082   79.0296 H   0  0  0  0  0
  101.1375   96.6564   79.5841 H   0  0  0  0  0
  101.2102   96.8099   77.8538 H   0  0  0  0  0
   98.9768   96.7773   78.6306 H   0  0  0  0  0
  105.7087  102.4187   77.0361 H   0  0  0  0  0
  103.6465  100.3396   76.3712 H   0  0  0  0  0
  104.4686  101.4408   75.1963 H   0  0  0  0  0
  101.5298  100.6759   76.8352 H   0  0  0  0  0
   99.4756  102.1473   76.7506 H   0  0  0  0  0
   99.7662  104.5403   76.0863 H   0  0  0  0  0
  102.0832  105.4137   75.5608 H   0  0  0  0  0
  104.0626  103.9087   75.6697 H   0  0  0  0  0
  1  2  4  0  0  0
  5  1  4  0  0  0
  1 10  1  0  0  0
  3  2  4  0  0  0
  4  3  4  0  0  0
  4  5  4  0  0  0
  6  4  4  0  0  0
  5  9  4  0  0  0
  6  7  4  0  0  0
 15  6  1  0  0  0
  7  8  4  0  0  0
  8  9  4  0  0  0
  8 11  1  0  0  0
 11 12  1  0  0  0
 12 13  1  0  0  0
 13 14  1  0  0  0
 16 15  1  0  0  0
 22 16  1  0  0  0
 17 18  4  0  0  0
 17 22  4  0  0  0
 18 19  4  0  0  0
 19 20  4  0  0  0
 20 21  4  0  0  0
 21 22  4  0  0  0
  2 23  1  0  0  0
 10 24  1  0  0  0
 10 25  1  0  0  0
 10 26  1  0  0  0
 11 27  1  0  0  0
 12 28  1  0  0  0
 12 29  1  0  0  0
 13 30  1  0  0  0
 13 31  1  0  0  0
 14 32  1  0  0  0
 15 33  1  0  0  0
 16 34  1  0  0  0
 16 35  1  0  0  0
 17 36  1  0  0  0
 18 37  1  0  0  0
 19 38  1  0  0  0
 20 39  1  0  0  0
 21 40  1  0  0  0
M  END
$$$$
