### 
### Created by X-TOOL on Mon Sep 10 21:13:20 2018
### 

@<TRIPOS>MOLECULE
4k8o_ligand
   43    45     1     0     0
SMALL
GAST_HUCK


@<TRIPOS>ATOM
      1 PG         -8.5520   14.9540   93.9790 P.3       1 ATP         0.1879
      2 O1G        -8.5260   16.4020   93.5540 O.co2     1 ATP        -0.6091
      3 O2G        -9.3000   14.6920   95.2620 O.co2     1 ATP        -0.6091
      4 O3G        -7.2270   14.2380   93.8830 O.co2     1 ATP        -0.6091
      5 PB         -9.0110   14.0730   91.3360 P.3       1 ATP         0.3553
      6 O1B        -9.2470   15.3760   90.6090 O.co2     1 ATP        -0.5652
      7 O2B        -7.6570   13.4090   91.2820 O.co2     1 ATP        -0.5652
      8 O3B        -9.4720   14.2440   92.8690 O.3       1 ATP        -0.1546
      9 PA         -9.7650   11.6550   90.1040 P.3       1 ATP         0.3266
     10 O1A        -8.8040   10.8580   90.9540 O.co2     1 ATP        -0.5692
     11 O2A        -9.4160   12.0010   88.6780 O.co2     1 ATP        -0.5692
     12 O3A       -10.1290   13.0200   90.8700 O.3       1 ATP        -0.1171
     13 O5'       -11.2000   10.9330   90.1590 O.3       1 ATP        -0.2441
     14 C5'       -12.2940   11.3870   89.3650 C.3       1 ATP         0.1131
     15 C4'       -13.4970   10.5180   89.6970 C.3       1 ATP         0.1189
     16 O4'       -13.3180    9.2320   89.1050 O.3       1 ATP        -0.3364
     17 C3'       -13.6370   10.3170   91.1990 C.3       1 ATP         0.1149
     18 O3'       -14.8930   10.8370   91.6450 O.3       1 ATP        -0.3864
     19 C2'       -13.5830    8.8200   91.4340 C.3       1 ATP         0.1385
     20 O2'       -14.7380    8.3850   92.1570 O.3       1 ATP        -0.3836
     21 C1'       -13.5550    8.1900   90.0510 C.3       1 ATP         0.2010
     22 N9        -12.4560    7.2000   89.9580 N.pl3     1 ATP        -0.1919
     23 C8        -11.1500    7.4560   90.1610 C.2       1 ATP         0.1123
     24 N7        -10.4000    6.3370   89.9980 N.2       1 ATP        -0.2958
     25 C5        -11.2390    5.3330   89.6830 C.ar      1 ATP         0.1045
     26 C6        -11.1090    3.8900   89.3790 C.ar      1 ATP         0.1298
     27 N6         -9.8980    3.2820   89.3810 N.pl3     1 ATP        -0.3152
     28 N1        -12.2390    3.2020   89.1000 N.ar      1 ATP        -0.2698
     29 C2        -13.4470    3.7960   89.0960 C.ar      1 ATP         0.0533
     30 N3        -13.6390    5.1000   89.3620 N.ar      1 ATP        -0.2714
     31 C4        -12.5930    5.9060   89.6600 C.ar      1 ATP         0.1613
     32 H         -12.0468   11.2927   88.2973 H         1 ATP         0.0648
     33 H         -12.5156   12.4388   89.5986 H         1 ATP         0.0648
     34 H         -14.4078   10.9917   89.3020 H         1 ATP         0.0651
     35 H         -12.8167   10.8195   91.7324 H         1 ATP         0.0648
     36 H         -14.9729   10.7079   92.5828 H         1 ATP         0.2100
     37 H         -12.6763    8.5523   91.9963 H         1 ATP         0.0676
     38 H         -15.5193    8.5918   91.6576 H         1 ATP         0.2101
     39 H         -14.5165    7.6979   89.8430 H         1 ATP         0.0996
     40 H         -10.7478    8.4338   90.4220 H         1 ATP         0.1349
     41 H          -9.8260    2.2770   89.1672 H         1 ATP         0.1820
     42 H          -9.0495    3.8248   89.5963 H         1 ATP         0.1820
     43 H         -14.3145    3.1884   88.8652 H         1 ATP         0.0996
@<TRIPOS>BOND
     1    1    2 ar 
     2    1    3 ar 
     3    1    4 ar 
     4    8    1 1  
     5    5    6 ar 
     6    5    7 ar 
     7    5    8 1  
     8   12    5 1  
     9    9   10 ar 
    10    9   11 ar 
    11    9   12 1  
    12    9   13 1  
    13   13   14 1  
    14   14   15 1  
    15   15   16 1  
    16   15   17 1  
    17   16   21 1  
    18   17   18 1  
    19   17   19 1  
    20   19   20 1  
    21   19   21 1  
    22   21   22 1  
    23   22   23 1  
    24   22   31 1  
    25   23   24 2  
    26   24   25 1  
    27   25   26 ar 
    28   25   31 ar 
    29   26   27 1  
    30   26   28 ar 
    31   28   29 ar 
    32   29   30 ar 
    33   30   31 ar 
    34   14   32 1  
    35   14   33 1  
    36   15   34 1  
    37   17   35 1  
    38   18   36 1  
    39   19   37 1  
    40   20   38 1  
    41   21   39 1  
    42   23   40 1  
    43   27   41 1  
    44   27   42 1  
    45   29   43 1  
@<TRIPOS>SUBSTRUCTURE
     1 ATP         1

