4k8o_ligand
  -I-interpret- 

 47 49  0  0  0  0  0  0  0  0999 V2000
   -8.5520   14.9540   93.9790 P   0  0  0  0  0
   -8.5260   16.4020   93.5540 O   0  0  0  0  0
   -9.3000   14.6920   95.2620 O   0  0  0  0  0
   -7.2270   14.2380   93.8830 O   0  0  0  0  0
   -9.0110   14.0730   91.3360 P   0  0  0  0  0
   -9.2470   15.3760   90.6090 O   0  0  0  0  0
   -7.6570   13.4090   91.2820 O   0  0  0  0  0
   -9.4720   14.2440   92.8690 O   0  0  0  0  0
   -9.7650   11.6550   90.1040 P   0  0  0  0  0
   -8.8040   10.8580   90.9540 O   0  0  0  0  0
   -9.4160   12.0010   88.6780 O   0  0  0  0  0
  -10.1290   13.0200   90.8700 O   0  0  0  0  0
  -11.2000   10.9330   90.1590 O   0  0  0  0  0
  -12.2940   11.3870   89.3650 C   0  0  0  0  0
  -13.4970   10.5180   89.6970 C   0  0  0  0  0
  -13.3180    9.2320   89.1050 O   0  0  0  0  0
  -13.6370   10.3170   91.1990 C   0  0  0  0  0
  -14.8930   10.8370   91.6450 O   0  0  0  0  0
  -13.5830    8.8200   91.4340 C   0  0  0  0  0
  -14.7380    8.3850   92.1570 O   0  0  0  0  0
  -13.5550    8.1900   90.0510 C   0  0  0  0  0
  -12.4560    7.2000   89.9580 N   0  0  0  0  0
  -11.1500    7.4560   90.1610 C   0  0  0  0  0
  -10.4000    6.3370   89.9980 N   0  0  0  0  0
  -11.2390    5.3330   89.6830 C   0  0  0  0  0
  -11.1090    3.8900   89.3790 C   0  0  0  0  0
   -9.8980    3.2820   89.3810 N   0  0  0  0  0
  -12.2390    3.2020   89.1000 N   0  0  0  0  0
  -13.4470    3.7960   89.0960 C   0  0  0  0  0
  -13.6390    5.1000   89.3620 N   0  0  0  0  0
  -12.5930    5.9060   89.6600 C   0  0  0  0  0
   -8.0340   16.4848   92.7338 H   0  0  0  0  0
   -6.8097   14.4505   93.0449 H   0  0  0  0  0
  -10.1543   15.6580   90.7463 H   0  0  0  0  0
   -9.1819   10.7292   91.8270 H   0  0  0  0  0
  -12.0513   11.3105   88.3051 H   0  0  0  0  0
  -12.5106   12.4334   89.5800 H   0  0  0  0  0
  -14.3876   11.0169   89.3149 H   0  0  0  0  0
  -12.8484   10.8339   91.7458 H   0  0  0  0  0
  -14.9737   10.7065   92.5927 H   0  0  0  0  0
  -12.7121    8.5362   92.0248 H   0  0  0  0  0
  -14.6880    7.4366   92.2971 H   0  0  0  0  0
  -14.5001    7.6834   89.8551 H   0  0  0  0  0
  -10.7475    8.4347   90.4223 H   0  0  0  0  0
   -9.0578    3.8196   89.5942 H   0  0  0  0  0
   -9.8266    2.2868   89.1693 H   0  0  0  0  0
  -14.3193    3.1850   88.8639 H   0  0  0  0  0
  1  2  1  0  0  0
  1  3  2  0  0  0
  1  4  1  0  0  0
  8  1  1  0  0  0
  5  6  1  0  0  0
  5  7  2  0  0  0
  5  8  1  0  0  0
 12  5  1  0  0  0
  9 10  1  0  0  0
  9 11  2  0  0  0
  9 12  1  0  0  0
  9 13  1  0  0  0
 13 14  1  0  0  0
 14 15  1  0  0  0
 15 16  1  0  0  0
 15 17  1  0  0  0
 16 21  1  0  0  0
 17 18  1  0  0  0
 17 19  1  0  0  0
 19 20  1  0  0  0
 19 21  1  0  0  0
 21 22  1  0  0  0
 22 23  4  0  0  0
 22 31  4  0  0  0
 23 24  4  0  0  0
 24 25  4  0  0  0
 25 26  4  0  0  0
 25 31  4  0  0  0
 26 27  1  0  0  0
 26 28  4  0  0  0
 28 29  4  0  0  0
 29 30  4  0  0  0
 30 31  4  0  0  0
  2 32  1  0  0  0
  4 33  1  0  0  0
  6 34  1  0  0  0
 10 35  1  0  0  0
 14 36  1  0  0  0
 14 37  1  0  0  0
 15 38  1  0  0  0
 17 39  1  0  0  0
 18 40  1  0  0  0
 19 41  1  0  0  0
 20 42  1  0  0  0
 21 43  1  0  0  0
 23 44  1  0  0  0
 27 45  1  0  0  0
 27 46  1  0  0  0
 29 47  1  0  0  0
M  END
$$$$
