6qr3_ligand
  -I-interpret- 

 47 50  0  0  0  0  0  0  0  0999 V2000
  -23.4060   21.0110  -11.0170 C   0  0  0  0  0
  -20.6540   18.7060  -12.1670 C   0  0  0  0  0
  -20.8450   16.0430  -12.3940 C   0  0  0  0  0
  -18.7960   17.5580  -12.5900 C   0  0  0  0  0
  -23.0840   18.2490  -11.5830 C   0  0  0  0  0
  -24.3210   18.7040  -11.1280 C   0  0  0  0  0
  -25.5980   20.9090  -10.3740 C   0  0  0  0  0
  -22.2370   24.3320   -6.1460 C   0  0  0  0  0
  -21.6530   24.0760   -7.1790 N   0  3  0  0  0
  -22.5940   23.7420   -8.2070 C   0  0  0  0  0
  -20.7310   25.1340   -7.4850 C   0  0  0  0  0
  -20.2130   25.1510   -8.9040 C   0  0  0  0  0
  -21.1870   24.8170   -9.9070 C   0  0  0  0  0
  -21.9700   23.6610   -9.5940 C   0  0  0  0  0
  -23.0300   23.4990  -10.7440 C   0  0  0  0  0
  -23.8470   22.2890  -10.6640 N   0  0  0  0  0
  -22.1420   20.5460  -11.4730 C   0  0  0  0  0
  -22.0090   19.1740  -11.7780 C   0  0  0  0  0
  -20.1510   17.4190  -12.3430 C   0  0  0  0  0
  -21.2970   14.9830  -12.4450 N   0  0  0  0  0
  -17.8550   16.5280  -12.8620 N   0  0  0  0  0
  -18.4840   18.8650  -12.5070 N   0  0  0  0  0
  -19.6200   19.5580  -12.2240 N   0  0  0  0  0
  -24.4870   20.1070  -10.8490 C   0  0  0  0  0
  -25.1430   22.2520  -10.2950 C   0  0  0  0  0
  -22.9356   17.1892  -11.7902 H   0  0  0  0  0
  -25.1487   18.0092  -10.9858 H   0  0  0  0  0
  -26.5958   20.5484  -10.1243 H   0  0  0  0  0
  -22.9057   25.1774   -6.3081 H   0  0  0  0  0
  -22.8165   23.4635   -5.8329 H   0  0  0  0  0
  -21.5113   24.5842   -5.3728 H   0  0  0  0  0
  -21.0739   23.2415   -7.0862 H   0  0  0  0  0
  -23.3479   24.5289   -8.2310 H   0  0  0  0  0
  -23.0024   22.7590   -7.9722 H   0  0  0  0  0
  -19.8651   24.9891   -6.8390 H   0  0  0  0  0
  -21.2710   26.0696   -7.3393 H   0  0  0  0  0
  -19.4279   24.3971   -8.9627 H   0  0  0  0  0
  -19.8858   26.1704   -9.1086 H   0  0  0  0  0
  -20.6435   24.6006  -10.8268 H   0  0  0  0  0
  -21.8726   25.6607   -9.9863 H   0  0  0  0  0
  -21.3408   22.7722   -9.5477 H   0  0  0  0  0
  -22.4736   23.4422  -11.6796 H   0  0  0  0  0
  -23.7121   24.3455  -10.6653 H   0  0  0  0  0
  -21.3000   21.2292  -11.5839 H   0  0  0  0  0
  -18.1584   15.5546  -12.8907 H   0  0  0  0  0
  -16.8763   16.7623  -13.0285 H   0  0  0  0  0
  -25.7416   23.1094   -9.9874 H   0  0  0  0  0
 16  1  4  0  0  0
  1 17  4  0  0  0
  1 24  4  0  0  0
 18  2  1  0  0  0
  2 19  4  0  0  0
  2 23  4  0  0  0
 19  3  1  0  0  0
  3 20  3  0  0  0
 19  4  4  0  0  0
  4 21  1  0  0  0
  4 22  4  0  0  0
  6  5  4  0  0  0
  5 18  4  0  0  0
 24  6  4  0  0  0
 24  7  4  0  0  0
  7 25  4  0  0  0
  9  8  1  0  0  0
 10  9  1  0  0  0
  9 11  1  0  0  0
 14 10  1  0  0  0
 12 11  1  0  0  0
 13 12  1  0  0  0
 14 13  1  0  0  0
 15 14  1  0  0  0
 15 16  1  0  0  0
 16 25  4  0  0  0
 17 18  4  0  0  0
 22 23  4  0  0  0
  5 26  1  0  0  0
  6 27  1  0  0  0
  7 28  1  0  0  0
  8 29  1  0  0  0
  8 30  1  0  0  0
  8 31  1  0  0  0
  9 32  1  0  0  0
 10 33  1  0  0  0
 10 34  1  0  0  0
 11 35  1  0  0  0
 11 36  1  0  0  0
 12 37  1  0  0  0
 12 38  1  0  0  0
 13 39  1  0  0  0
 13 40  1  0  0  0
 14 41  1  0  0  0
 15 42  1  0  0  0
 15 43  1  0  0  0
 17 44  1  0  0  0
 21 45  1  0  0  0
 21 46  1  0  0  0
 25 47  1  0  0  0
M  END
$$$$
