### 
### Created by X-TOOL on Mon Sep 10 21:13:03 2018
### 

@<TRIPOS>MOLECULE
3kwb_ligand
   53    55     1     0     0
SMALL
GAST_HUCK


@<TRIPOS>ATOM
      1 C1         -8.4810   13.5700   37.0730 C.3       1 ORH        -0.1109
      2 F1         -9.4890    2.1950   38.3040 F         1 ORH        -0.2209
      3 N1         -7.1750   13.6770   37.5980 N.4       1 ORH         0.4029
      4 O1         -7.8260   10.5380   34.4440 O.2       1 ORH        -0.3924
      5 C2         -8.5990   12.0840   36.7660 C.3       1 ORH        -0.0470
      6 F2         -9.3770    3.1330   40.1590 F         1 ORH        -0.2209
      7 N2         -9.5870   10.0920   35.9970 N.am      1 ORH        -0.1684
      8 O2        -11.2300    9.4610   37.4740 O.2       1 ORH        -0.3801
      9 C3         -9.8900   11.5030   36.1700 C.3       1 ORH         0.0564
     10 F3         -7.8840    3.5520   38.6430 F         1 ORH        -0.2209
     11 N3         -9.8650    7.7090   36.6700 N.am      1 ORH        -0.0986
     12 C4        -10.2880    9.1220   36.7660 C.2       1 ORH         0.3430
     13 N4         -8.7530    7.3760   35.8440 N.pl3     1 ORH        -0.2112
     14 C5         -8.4650    9.6830   35.1470 C.2       1 ORH         0.2296
     15 C6         -8.0590    8.3310   35.0970 C.2       1 ORH         0.1315
     16 C7         -9.5590    5.5390   37.7950 C.ar      1 ORH        -0.0103
     17 C8        -10.0470    4.3750   38.4440 C.ar      1 ORH         0.0334
     18 C9        -10.4680    6.5730   37.3600 C.ar      1 ORH         0.1238
     19 C10       -11.4590    4.2210   38.6580 C.ar      1 ORH        -0.0452
     20 C11       -11.9080    6.4120   37.5780 C.ar      1 ORH        -0.0090
     21 C12       -12.3840    5.2270   38.2400 C.ar      1 ORH        -0.0434
     22 C13        -9.1620    3.2970   38.8940 C.3       1 ORH         0.3726
     23 C14        -6.8130    7.9150   34.5420 C.2       1 ORH         0.0217
     24 C15        -6.5090   14.9120   37.1660 C.3       1 ORH        -0.1130
     25 N15        -6.1250    8.8220   33.7590 N.pl3     1 ORH        -0.3482
     26 C17        -5.1200   15.0630   37.7450 C.3       1 ORH        -0.0718
     27 C18        -7.2110   13.4990   39.0770 C.3       1 ORH        -0.1130
     28 C19        -5.2870   14.9490   39.2680 C.3       1 ORH        -0.0567
     29 C20        -5.8430   13.5810   39.7010 C.3       1 ORH        -0.0718
     30 H          -8.6393   14.1986   36.1967 H         1 ORH         0.0018
     31 H          -9.2467   13.9230   37.7638 H         1 ORH         0.0018
     32 H          -8.5173   11.6040   37.7412 H         1 ORH         0.0268
     33 H          -7.8491   11.9120   35.9938 H         1 ORH         0.0268
     34 H         -10.1688   11.9857   35.2333 H         1 ORH         0.0572
     35 H         -10.7545   11.6662   36.8135 H         1 ORH         0.0572
     36 H          -8.4519    6.4026   35.7962 H         1 ORH         0.1997
     37 H          -8.4887    5.6534   37.6235 H         1 ORH         0.0710
     38 H         -11.8314    3.3212   39.1477 H         1 ORH         0.0740
     39 H         -12.6075    7.1782   37.2438 H         1 ORH         0.0759
     40 H         -13.4506    5.0963   38.4229 H         1 ORH         0.0664
     41 H          -6.4173    6.9167   34.7289 H         1 ORH         0.0790
     42 H          -7.1085   15.7534   37.5135 H         1 ORH         0.0017
     43 H          -6.4161   14.8787   36.0805 H         1 ORH         0.0017
     44 H          -6.5119    9.7515   33.5958 H         1 ORH         0.1717
     45 H          -5.2302    8.5620   33.3442 H         1 ORH         0.1717
     46 H          -4.6753   16.0180   37.4652 H         1 ORH         0.0246
     47 H          -4.4451   14.2977   37.3616 H         1 ORH         0.0246
     48 H          -7.6177   12.5097   39.2869 H         1 ORH         0.0017
     49 H          -7.8209   14.2987   39.4973 H         1 ORH         0.0017
     50 H          -5.9943   15.7148   39.5863 H         1 ORH         0.0264
     51 H          -4.3043   15.0713   39.7235 H         1 ORH         0.0264
     52 H          -5.2010   12.7630   39.3742 H         1 ORH         0.0246
     53 H          -5.8886   13.4894   40.7862 H         1 ORH         0.0246
@<TRIPOS>BOND
     1    1    3 1  
     2    5    1 1  
     3   22    2 1  
     4    3   24 1  
     5    3   27 1  
     6   14    4 2  
     7    9    5 1  
     8   22    6 1  
     9    7    9 1  
    10   12    7 am 
    11    7   14 am 
    12   12    8 2  
    13   22   10 1  
    14   11   12 am 
    15   11   13 1  
    16   18   11 1  
    17   13   15 1  
    18   15   14 1  
    19   15   23 2  
    20   17   16 ar 
    21   16   18 ar 
    22   17   19 ar 
    23   17   22 1  
    24   18   20 ar 
    25   19   21 ar 
    26   20   21 ar 
    27   23   25 1  
    28   24   26 1  
    29   26   28 1  
    30   27   29 1  
    31   28   29 1  
    32    1   30 1  
    33    1   31 1  
    34    5   32 1  
    35    5   33 1  
    36    9   34 1  
    37    9   35 1  
    38   13   36 1  
    39   16   37 1  
    40   19   38 1  
    41   20   39 1  
    42   21   40 1  
    43   23   41 1  
    44   24   42 1  
    45   24   43 1  
    46   25   44 1  
    47   25   45 1  
    48   26   46 1  
    49   26   47 1  
    50   27   48 1  
    51   27   49 1  
    52   28   50 1  
    53   28   51 1  
    54   29   52 1  
    55   29   53 1  
@<TRIPOS>SUBSTRUCTURE
     1 ORH         1

