3kwb_ligand
  -I-interpret- 

 54 56  0  0  0  0  0  0  0  0999 V2000
   -8.4810   13.5700   37.0730 C   0  0  0  0  0
   -9.4890    2.1950   38.3040 F   0  0  0  0  0
   -7.1750   13.6770   37.5980 N   0  3  0  0  0
   -7.8260   10.5380   34.4440 O   0  0  0  0  0
   -8.5990   12.0840   36.7660 C   0  0  0  0  0
   -9.3770    3.1330   40.1590 F   0  0  0  0  0
   -9.5870   10.0920   35.9970 N   0  0  0  0  0
  -11.2300    9.4610   37.4740 O   0  0  0  0  0
   -9.8900   11.5030   36.1700 C   0  0  0  0  0
   -7.8840    3.5520   38.6430 F   0  0  0  0  0
   -9.8650    7.7090   36.6700 N   0  0  0  0  0
  -10.2880    9.1220   36.7660 C   0  0  0  0  0
   -8.7530    7.3760   35.8440 N   0  0  0  0  0
   -8.4650    9.6830   35.1470 C   0  0  0  0  0
   -8.0590    8.3310   35.0970 C   0  0  0  0  0
   -9.5590    5.5390   37.7950 C   0  0  0  0  0
  -10.0470    4.3750   38.4440 C   0  0  0  0  0
  -10.4680    6.5730   37.3600 C   0  0  0  0  0
  -11.4590    4.2210   38.6580 C   0  0  0  0  0
  -11.9080    6.4120   37.5780 C   0  0  0  0  0
  -12.3840    5.2270   38.2400 C   0  0  0  0  0
   -9.1620    3.2970   38.8940 C   0  0  0  0  0
   -6.8130    7.9150   34.5420 C   0  0  0  0  0
   -6.5090   14.9120   37.1660 C   0  0  0  0  0
   -6.1250    8.8220   33.7590 N   0  0  0  0  0
   -5.1200   15.0630   37.7450 C   0  0  0  0  0
   -7.2110   13.4990   39.0770 C   0  0  0  0  0
   -5.2870   14.9490   39.2680 C   0  0  0  0  0
   -5.8430   13.5810   39.7010 C   0  0  0  0  0
   -8.6393   14.1986   36.1967 H   0  0  0  0  0
   -9.2467   13.9230   37.7638 H   0  0  0  0  0
   -6.5986   12.9259   37.2185 H   0  0  0  0  0
   -8.5173   11.6040   37.7412 H   0  0  0  0  0
   -7.8491   11.9120   35.9938 H   0  0  0  0  0
  -10.1688   11.9857   35.2333 H   0  0  0  0  0
  -10.7545   11.6662   36.8135 H   0  0  0  0  0
   -8.4519    6.4026   35.7962 H   0  0  0  0  0
   -8.4887    5.6534   37.6235 H   0  0  0  0  0
  -11.8314    3.3212   39.1477 H   0  0  0  0  0
  -12.6075    7.1782   37.2438 H   0  0  0  0  0
  -13.4506    5.0963   38.4229 H   0  0  0  0  0
   -6.4173    6.9167   34.7289 H   0  0  0  0  0
   -7.1085   15.7534   37.5135 H   0  0  0  0  0
   -6.4161   14.8787   36.0805 H   0  0  0  0  0
   -6.5119    9.7515   33.5958 H   0  0  0  0  0
   -5.2302    8.5620   33.3442 H   0  0  0  0  0
   -4.6753   16.0180   37.4652 H   0  0  0  0  0
   -4.4451   14.2977   37.3616 H   0  0  0  0  0
   -7.6177   12.5097   39.2869 H   0  0  0  0  0
   -7.8209   14.2987   39.4973 H   0  0  0  0  0
   -5.9943   15.7148   39.5863 H   0  0  0  0  0
   -4.3043   15.0713   39.7235 H   0  0  0  0  0
   -5.2010   12.7630   39.3742 H   0  0  0  0  0
   -5.8886   13.4894   40.7862 H   0  0  0  0  0
  1  3  1  0  0  0
  5  1  1  0  0  0
 22  2  1  0  0  0
  3 24  1  0  0  0
  3 27  1  0  0  0
 14  4  2  0  0  0
  9  5  1  0  0  0
 22  6  1  0  0  0
  7  9  1  0  0  0
 12  7  1  0  0  0
  7 14  1  0  0  0
 12  8  2  0  0  0
 22 10  1  0  0  0
 11 12  1  0  0  0
 11 13  1  0  0  0
 18 11  1  0  0  0
 13 15  1  0  0  0
 15 14  1  0  0  0
 15 23  2  0  0  0
 17 16  4  0  0  0
 16 18  4  0  0  0
 17 19  4  0  0  0
 17 22  1  0  0  0
 18 20  4  0  0  0
 19 21  4  0  0  0
 20 21  4  0  0  0
 23 25  1  0  0  0
 24 26  1  0  0  0
 26 28  1  0  0  0
 27 29  1  0  0  0
 28 29  1  0  0  0
  1 30  1  0  0  0
  1 31  1  0  0  0
  3 32  1  0  0  0
  5 33  1  0  0  0
  5 34  1  0  0  0
  9 35  1  0  0  0
  9 36  1  0  0  0
 13 37  1  0  0  0
 16 38  1  0  0  0
 19 39  1  0  0  0
 20 40  1  0  0  0
 21 41  1  0  0  0
 23 42  1  0  0  0
 24 43  1  0  0  0
 24 44  1  0  0  0
 25 45  1  0  0  0
 25 46  1  0  0  0
 26 47  1  0  0  0
 26 48  1  0  0  0
 27 49  1  0  0  0
 27 50  1  0  0  0
 28 51  1  0  0  0
 28 52  1  0  0  0
 29 53  1  0  0  0
 29 54  1  0  0  0
M  END
$$$$
