6hoq_ligand
  -I-interpret- 

 24 24  0  0  0  0  0  0  0  0999 V2000
  -23.1290   17.7350  -11.1370 C   0  0  0  0  0
  -23.2410   16.5840  -10.3710 C   0  0  0  0  0
  -23.1240   15.3670  -11.0080 C   0  0  0  0  0
  -22.8900   17.6790  -12.5000 C   0  0  0  0  0
  -22.7680   16.4530  -13.1320 C   0  0  0  0  0
  -22.9020   15.2950  -12.3670 C   0  0  0  0  0
  -22.7320   18.7490  -14.6300 C   0  0  0  0  0
  -22.7510   13.9200  -12.9500 C   0  0  0  0  0
  -22.4700   13.6980  -14.2330 C   0  0  0  0  0
  -22.2930   12.2570  -14.6130 C   0  0  0  0  0
  -22.2500   11.9480  -15.8230 O   0  0  0  0  0
  -22.1160   11.3960  -13.6960 O   0  0  0  0  0
  -23.2420   18.9750  -10.4980 O   0  0  0  0  0
  -22.7840   18.8850  -13.2230 O   0  0  0  0  0
  -23.4164   16.6401   -9.2967 H   0  0  0  0  0
  -23.2083   14.4476  -10.4285 H   0  0  0  0  0
  -22.5718   16.3945  -14.2026 H   0  0  0  0  0
  -21.8646   18.1483  -14.9039 H   0  0  0  0  0
  -23.6403   18.2587  -14.9802 H   0  0  0  0  0
  -22.6511   19.7356  -15.0864 H   0  0  0  0  0
  -22.8775   13.0610  -12.2911 H   0  0  0  0  0
  -22.3751   14.5072  -14.9570 H   0  0  0  0  0
  -22.1864   11.8235  -12.8393 H   0  0  0  0  0
  -23.1450   19.6773  -11.1453 H   0  0  0  0  0
  1  2  4  0  0  0
  1  4  4  0  0  0
  1 13  1  0  0  0
  2  3  4  0  0  0
  3  6  4  0  0  0
  4  5  4  0  0  0
  4 14  1  0  0  0
  5  6  4  0  0  0
  6  8  1  0  0  0
 14  7  1  0  0  0
  8  9  2  0  0  0
  9 10  1  0  0  0
 10 11  2  0  0  0
 10 12  1  0  0  0
  2 15  1  0  0  0
  3 16  1  0  0  0
  5 17  1  0  0  0
  7 18  1  0  0  0
  7 19  1  0  0  0
  7 20  1  0  0  0
  8 21  1  0  0  0
  9 22  1  0  0  0
 12 23  1  0  0  0
 13 24  1  0  0  0
M  END
$$$$
