6hsh_ligand
  -I-interpret- 

 56 59  0  0  0  0  0  0  0  0999 V2000
   46.5350   30.8240   85.0260 N   0  0  0  0  0
   46.7280   31.9360   86.9740 O   0  0  0  0  0
   43.2900   34.3860   84.3150 C   0  0  0  0  0
   45.2900   32.8550   85.3080 C   0  0  0  0  0
   44.2690   33.3720   86.0940 C   0  0  0  0  0
   40.9530   35.1810   84.5570 C   0  0  0  0  0
   42.1720   34.9450   83.7790 N   0  0  0  0  0
   42.0470   35.3430   82.3740 C   0  0  0  0  0
   40.4440   43.1660   83.4450 C   0  0  0  0  0
   46.2680   31.8480   85.8360 C   0  0  0  0  0
   47.2620   29.7120   85.4590 O   0  0  0  0  0
   44.2470   34.0050   83.4580 N   0  0  0  0  0
   45.2250   33.2470   83.9750 C   0  0  0  0  0
   43.2640   34.1260   85.6280 N   0  0  0  0  0
   40.5160   36.6360   84.4740 C   0  0  0  0  0
   41.6080   36.7970   82.2520 C   0  0  0  0  0
   40.3300   37.0870   83.0340 C   0  0  0  0  0
   39.9980   38.5670   82.9910 C   0  0  0  0  0
   39.8840   39.0980   81.6300 N   0  3  0  0  0
   39.0460   40.2880   81.5070 C   0  0  0  0  0
   39.4130   41.3780   82.4760 C   0  0  0  0  0
   39.4740   42.6860   84.2970 N   0  0  0  0  0
   38.8610   41.6160   83.6960 C   0  0  0  0  0
   40.4300   42.3740   82.2910 C   0  0  0  0  0
   41.3190   42.6770   81.2620 C   0  0  0  0  0
   42.1960   43.7420   81.3990 C   0  0  0  0  0
   42.1970   44.5120   82.5530 C   0  0  0  0  0
   41.3200   44.2330   83.5900 C   0  0  0  0  0
   39.1600   43.2160   85.6180 C   0  0  0  0  0
   46.1994   30.8528   84.0632 H   0  0  0  0  0
   44.2860   33.1498   87.1610 H   0  0  0  0  0
   41.1554   34.9388   85.6003 H   0  0  0  0  0
   40.1569   34.5563   84.1519 H   0  0  0  0  0
   41.2969   34.7113   81.8982 H   0  0  0  0  0
   43.0182   35.2305   81.8921 H   0  0  0  0  0
   47.3490   29.0866   84.7359 H   0  0  0  0  0
   46.0207   32.9166   83.3073 H   0  0  0  0  0
   41.2903   37.2533   84.9296 H   0  0  0  0  0
   39.5620   36.7377   84.9913 H   0  0  0  0  0
   41.4132   37.0031   81.1995 H   0  0  0  0  0
   42.4015   37.4239   82.6587 H   0  0  0  0  0
   39.5027   36.5413   82.5803 H   0  0  0  0  0
   40.8099   39.1006   83.4851 H   0  0  0  0  0
   39.0324   38.7016   83.4784 H   0  0  0  0  0
   39.4503   38.3697   81.0626 H   0  0  0  0  0
   40.8235   39.3649   81.3359 H   0  0  0  0  0
   38.0191   39.9907   81.7196 H   0  0  0  0  0
   39.1816   40.6833   80.5003 H   0  0  0  0  0
   38.0470   41.0385   84.1341 H   0  0  0  0  0
   41.3250   42.0781   80.3513 H   0  0  0  0  0
   42.8910   43.9764   80.5927 H   0  0  0  0  0
   42.8943   45.3447   82.6454 H   0  0  0  0  0
   41.3184   44.8370   84.4973 H   0  0  0  0  0
   40.0426   43.1490   86.2542 H   0  0  0  0  0
   38.8546   44.2584   85.5267 H   0  0  0  0  0
   38.3488   42.6356   86.0575 H   0  0  0  0  0
 10  1  1  0  0  0
  1 11  1  0  0  0
 10  2  2  0  0  0
  7  3  1  0  0  0
  3 12  4  0  0  0
  3 14  4  0  0  0
  5  4  4  0  0  0
  4 10  1  0  0  0
 13  4  4  0  0  0
 14  5  4  0  0  0
  6  7  1  0  0  0
 15  6  1  0  0  0
  8  7  1  0  0  0
 16  8  1  0  0  0
  9 22  4  0  0  0
 24  9  4  0  0  0
  9 28  4  0  0  0
 12 13  4  0  0  0
 17 15  1  0  0  0
 17 16  1  0  0  0
 18 17  1  0  0  0
 19 18  1  0  0  0
 20 19  1  0  0  0
 21 20  1  0  0  0
 21 23  4  0  0  0
 21 24  4  0  0  0
 22 23  4  0  0  0
 22 29  1  0  0  0
 24 25  4  0  0  0
 25 26  4  0  0  0
 26 27  4  0  0  0
 27 28  4  0  0  0
  1 30  1  0  0  0
  5 31  1  0  0  0
  6 32  1  0  0  0
  6 33  1  0  0  0
  8 34  1  0  0  0
  8 35  1  0  0  0
 11 36  1  0  0  0
 13 37  1  0  0  0
 15 38  1  0  0  0
 15 39  1  0  0  0
 16 40  1  0  0  0
 16 41  1  0  0  0
 17 42  1  0  0  0
 18 43  1  0  0  0
 18 44  1  0  0  0
 19 45  1  0  0  0
 19 46  1  0  0  0
 20 47  1  0  0  0
 20 48  1  0  0  0
 23 49  1  0  0  0
 25 50  1  0  0  0
 26 51  1  0  0  0
 27 52  1  0  0  0
 28 53  1  0  0  0
 29 54  1  0  0  0
 29 55  1  0  0  0
 29 56  1  0  0  0
M  END
$$$$
