### 
### Created by X-TOOL on Fri Nov  2 10:14:00 2018
### 

@<TRIPOS>MOLECULE
5tyk_ligand
   29    30     1     0     0
SMALL
GAST_HUCK


@<TRIPOS>ATOM
      1 B02        18.3870    8.9150  -22.5870 B         1 7N4         2.0000
      2 O03        19.3210    7.8950  -22.9080 O.3       1 7N4        -0.4105
      3 C04        17.1930    8.6020  -21.4650 C.ar      1 7N4        -0.0723
      4 C05        16.5180    7.3820  -21.4940 C.ar      1 7N4        -0.0704
      5 C06        15.5470    7.1320  -20.5670 C.ar      1 7N4        -0.0322
      6 C07        15.2350    8.0870  -19.6000 C.ar      1 7N4         0.1081
      7 O08        14.1770    7.7780  -18.6240 O.3       1 7N4        -0.3053
      8 C09        14.0220    6.3630  -18.3160 C.3       1 7N4         0.1053
      9 C10        12.9870    5.7090  -19.2630 C.ar      1 7N4         0.0210
     10 C11        13.1790    4.4520  -19.6790 C.ar      1 7N4        -0.0594
     11 C12        12.2460    3.8560  -20.5450 C.ar      1 7N4        -0.0725
     12 C13        11.1120    4.5750  -20.9720 C.ar      1 7N4        -0.0706
     13 C14        10.9160    5.8390  -20.5550 C.ar      1 7N4        -0.0348
     14 C15        11.8290    6.4300  -19.7050 C.ar      1 7N4         0.1356
     15 F16        11.6200    7.6910  -19.2930 F         1 7N4        -0.1890
     16 C17        15.9420    9.3170  -19.5870 C.ar      1 7N4         0.0680
     17 CL         15.6390   10.6140  -18.4100 Cl        1 7N4        -0.0788
     18 C19        16.9050    9.5660  -20.5020 C.ar      1 7N4        -0.0566
     19 H1         19.9338    8.2210  -23.5566 H         1 7N4         0.2052
     20 H3         17.9571    8.8040  -22.2069 H         1 7N4         0.0523
     21 H4         16.7618    6.6394  -22.2451 H         1 7N4         0.0591
     22 H5         15.0163    6.1869  -20.5829 H         1 7N4         0.0542
     23 H6         13.6795    6.2548  -17.2763 H         1 7N4         0.0771
     24 H7         14.9919    5.8584  -18.4369 H         1 7N4         0.0771
     25 H8         14.0495    3.8961  -19.3499 H         1 7N4         0.0546
     26 H9         12.3996    2.8385  -20.8859 H         1 7N4         0.0565
     27 H10        10.3955    4.1084  -21.6383 H         1 7N4         0.0549
     28 H11        10.0439    6.3915  -20.8855 H         1 7N4         0.0585
     29 H12        17.4467   10.5048  -20.4865 H         1 7N4         0.0595
@<TRIPOS>BOND
     1    1    2 1  
     2    1    3 1  
     3    3    4 ar 
     4    3   18 ar 
     5    4    5 ar 
     6    5    6 ar 
     7    6    7 1  
     8    6   16 ar 
     9    7    8 1  
    10    8    9 1  
    11    9   10 ar 
    12    9   14 ar 
    13   10   11 ar 
    14   11   12 ar 
    15   12   13 ar 
    16   13   14 ar 
    17   14   15 1  
    18   16   17 1  
    19   16   18 ar 
    20    2   19 1  
    21    3   20 1  
    22    4   21 1  
    23    5   22 1  
    24    8   23 1  
    25    8   24 1  
    26   10   25 1  
    27   11   26 1  
    28   12   27 1  
    29   13   28 1  
    30   18   29 1  
@<TRIPOS>SUBSTRUCTURE
     1 7N4         1

