5tyk_ligand
  -I-interpret- 

 28 29  0  0  0  0  0  0  0  0999 V2000
   18.3870    8.9150  -22.5870 B   0  0  0  0  0
   19.3210    7.8950  -22.9080 O   0  0  0  0  0
   17.1930    8.6020  -21.4650 C   0  0  0  0  0
   16.5180    7.3820  -21.4940 C   0  0  0  0  0
   15.5470    7.1320  -20.5670 C   0  0  0  0  0
   15.2350    8.0870  -19.6000 C   0  0  0  0  0
   14.1770    7.7780  -18.6240 O   0  0  0  0  0
   14.0220    6.3630  -18.3160 C   0  0  0  0  0
   12.9870    5.7090  -19.2630 C   0  0  0  0  0
   13.1790    4.4520  -19.6790 C   0  0  0  0  0
   12.2460    3.8560  -20.5450 C   0  0  0  0  0
   11.1120    4.5750  -20.9720 C   0  0  0  0  0
   10.9160    5.8390  -20.5550 C   0  0  0  0  0
   11.8290    6.4300  -19.7050 C   0  0  0  0  0
   11.6200    7.6910  -19.2930 F   0  0  0  0  0
   15.9420    9.3170  -19.5870 C   0  0  0  0  0
   15.6390   10.6140  -18.4100 Cl  0  0  0  0  0
   16.9050    9.5660  -20.5020 C   0  0  0  0  0
   19.9402    8.2244  -23.5634 H   0  0  0  0  0
   16.7631    6.6353  -22.2493 H   0  0  0  0  0
   15.0134    6.1817  -20.5830 H   0  0  0  0  0
   13.6736    6.2616  -17.2882 H   0  0  0  0  0
   14.9833    5.8660  -18.4464 H   0  0  0  0  0
   14.0543    3.8930  -19.3481 H   0  0  0  0  0
   12.4005    2.8329  -20.8878 H   0  0  0  0  0
   10.3915    4.1058  -21.6420 H   0  0  0  0  0
   10.0391    6.3946  -20.8873 H   0  0  0  0  0
   17.4497   10.5100  -20.4864 H   0  0  0  0  0
  1  2  1  0  0  0
  1  3  1  0  0  0
  3  4  4  0  0  0
  3 18  4  0  0  0
  4  5  4  0  0  0
  5  6  4  0  0  0
  6  7  1  0  0  0
  6 16  4  0  0  0
  7  8  1  0  0  0
  8  9  1  0  0  0
  9 10  4  0  0  0
  9 14  4  0  0  0
 10 11  4  0  0  0
 11 12  4  0  0  0
 12 13  4  0  0  0
 13 14  4  0  0  0
 14 15  1  0  0  0
 16 17  1  0  0  0
 16 18  4  0  0  0
  2 19  1  0  0  0
  4 20  1  0  0  0
  5 21  1  0  0  0
  8 22  1  0  0  0
  8 23  1  0  0  0
 10 24  1  0  0  0
 11 25  1  0  0  0
 12 26  1  0  0  0
 13 27  1  0  0  0
 18 28  1  0  0  0
M  END
$$$$
