1w1v_ligand
  -I-interpret- 

 37 38  0  0  0  0  0  0  0  0999 V2000
   20.6420   43.3440  103.2610 O   0  0  0  0  0
   19.4840   43.3420  102.8460 C   0  0  0  0  0
   18.8080   44.5540  102.6470 N   0  0  0  0  0
   19.2500   45.9640  102.7540 C   0  0  0  0  0
   17.9660   46.7650  102.5220 C   0  0  0  0  0
   17.2690   45.9010  101.4720 C   0  0  0  0  0
   17.4170   44.5460  102.1640 C   0  0  0  0  0
   17.2000   43.3920  101.1860 C   0  0  0  0  0
   16.4410   43.5260  100.2240 O   0  0  0  0  0
   17.8660   42.1790  101.4100 N   0  0  0  0  0
   18.7590   42.0240  102.5690 C   0  0  0  0  0
   19.7510   40.8810  102.3340 C   0  0  0  0  0
   18.9880   39.5690  102.5280 C   0  0  0  0  0
   19.9020   38.3410  102.5180 C   0  0  0  0  0
   19.0000   37.1890  102.6760 N   0  0  0  0  0
   18.7420   36.3840  101.6480 C   0  0  0  0  0
   19.3650   36.5540  100.4850 N   0  0  0  0  0
   17.8990   35.3640  101.8000 N   0  0  0  0  0
   20.0302   46.2111  102.0341 H   0  0  0  0  0
   19.7091   46.1840  103.7178 H   0  0  0  0  0
   18.1390   47.7929  102.2031 H   0  0  0  0  0
   17.3761   46.9237  103.4247 H   0  0  0  0  0
   17.6891   45.9592  100.4679 H   0  0  0  0  0
   16.2461   46.1927  101.2337 H   0  0  0  0  0
   16.6840   44.4041  102.9581 H   0  0  0  0  0
   17.7308   41.3996  100.7660 H   0  0  0  0  0
   18.1647   41.7691  103.4465 H   0  0  0  0  0
   20.5838   40.9468  103.0342 H   0  0  0  0  0
   20.1678   40.9364  101.3284 H   0  0  0  0  0
   18.2850   39.4674  101.7012 H   0  0  0  0  0
   18.4967   39.6103  103.5001 H   0  0  0  0  0
   20.6433   38.3843  103.3160 H   0  0  0  0  0
   20.4796   38.2766  101.5959 H   0  0  0  0  0
   18.5685   37.0057  103.5819 H   0  0  0  0  0
   20.0460   37.3055  100.3763 H   0  0  0  0  0
   17.7344   34.7189  101.0272 H   0  0  0  0  0
   17.4181   35.2280  102.6892 H   0  0  0  0  0
  1  2  2  0  0  0
  2  3  1  0  0  0
  2 11  1  0  0  0
  3  4  1  0  0  0
  3  7  1  0  0  0
  4  5  1  0  0  0
  5  6  1  0  0  0
  6  7  1  0  0  0
  7  8  1  0  0  0
  8  9  2  0  0  0
  8 10  1  0  0  0
 10 11  1  0  0  0
 11 12  1  0  0  0
 12 13  1  0  0  0
 13 14  1  0  0  0
 14 15  1  0  0  0
 15 16  1  0  0  0
 16 17  2  0  0  0
 16 18  1  0  0  0
  4 19  1  0  0  0
  4 20  1  0  0  0
  5 21  1  0  0  0
  5 22  1  0  0  0
  6 23  1  0  0  0
  6 24  1  0  0  0
  7 25  1  0  0  0
 10 26  1  0  0  0
 11 27  1  0  0  0
 12 28  1  0  0  0
 12 29  1  0  0  0
 13 30  1  0  0  0
 13 31  1  0  0  0
 14 32  1  0  0  0
 14 33  1  0  0  0
 15 34  1  0  0  0
 17 35  1  0  0  0
 18 36  1  0  0  0
 18 37  1  0  0  0
M  END
$$$$
