2wej_ligand
  -I-interpret- 

 17 17  0  0  0  0  0  0  0  0999 V2000
   16.9660    6.1980   14.5640 C   0  0  0  0  0
   15.6260    6.1370   14.9650 C   0  0  0  0  0
   15.1200    5.0450   15.7050 C   0  0  0  0  0
   15.9460    3.9510   16.0720 C   0  0  0  0  0
   17.2910    4.0420   15.6500 C   0  0  0  0  0
   17.8090    5.1360   14.9090 C   0  0  0  0  0
   15.3720    2.6770   16.9350 S   0  0  0  0  0
   13.9220    2.7460   16.8880 O   0  0  0  0  0
   15.9570    2.8350   18.2300 O   0  0  0  0  0
   15.8610    1.2980   16.3110 N   0  0  0  0  0
   17.3425    7.0501   13.9981 H   0  0  0  0  0
   14.9551    6.9539   14.6992 H   0  0  0  0  0
   14.0709    5.0428   16.0009 H   0  0  0  0  0
   17.9680    3.2275   15.9075 H   0  0  0  0  0
   18.8572    5.1488   14.6105 H   0  0  0  0  0
   15.1784    0.6278   15.9572 H   0  0  0  0  0
   16.8572    1.0840   16.2646 H   0  0  0  0  0
  1  2  4  0  0  0
  1  6  4  0  0  0
  2  3  4  0  0  0
  3  4  4  0  0  0
  4  5  4  0  0  0
  4  7  1  0  0  0
  5  6  4  0  0  0
  7  8  2  0  0  0
  7  9  2  0  0  0
  7 10  1  0  0  0
  1 11  1  0  0  0
  2 12  1  0  0  0
  3 13  1  0  0  0
  5 14  1  0  0  0
  6 15  1  0  0  0
 10 16  1  0  0  0
 10 17  1  0  0  0
M  END
$$$$
