4bcn_ligand
  -I-interpret- 

 40 42  0  0  0  0  0  0  0  0999 V2000
   37.1100  -13.5320   35.1220 C   0  0  0  0  0
   36.6680  -14.6160   34.2980 N   0  0  0  0  0
   35.3480  -14.3510   33.7910 C   0  0  0  0  0
   34.8090  -13.1600   33.4920 N   0  0  0  0  0
   33.9220  -13.1350   32.4070 C   0  0  0  0  0
   33.0520  -11.9640   32.0690 C   0  0  0  0  0
   33.7740  -14.4630   31.8270 C   0  0  0  0  0
   33.6880  -14.9000   30.3930 C   0  0  0  0  0
   33.3940  -16.2160   30.1570 N   0  0  0  0  0
   33.2530  -16.8610   28.9670 C   0  0  0  0  0
   32.9960  -18.2680   28.8450 N   0  0  0  0  0
   33.5240  -19.2020   29.8160 C   0  0  0  0  0
   34.3600  -18.7930   30.8030 C   0  0  0  0  0
   34.8900  -19.7860   31.8180 C   0  0  0  0  0
   35.7400  -19.3750   32.8180 O   0  0  0  0  0
   34.5270  -21.0950   31.7380 C   0  0  0  0  0
   33.6120  -21.5480   30.6610 C   0  0  0  0  0
   33.1290  -20.6500   29.7370 C   0  0  0  0  0
   33.4350  -16.0460   27.9460 N   0  0  0  0  0
   33.7260  -14.7360   28.0490 C   0  0  0  0  0
   33.8800  -14.0570   29.2780 C   0  0  0  0  0
   34.2320  -12.6110   29.3420 C   0  0  0  0  0
   34.4970  -11.5030   29.3690 N   0  0  0  0  0
   34.2900  -15.5370   33.1260 S   0  0  0  0  0
   37.1315  -12.6150   34.5331 H   0  0  0  0  0
   36.4236  -13.4111   35.9601 H   0  0  0  0  0
   38.1102  -13.7475   35.4980 H   0  0  0  0  0
   37.2112  -15.4560   34.0989 H   0  0  0  0  0
   34.1727  -12.3917   31.6502 H   0  0  0  0  0
   33.1320  -11.7491   31.0034 H   0  0  0  0  0
   32.0168  -12.1985   32.3169 H   0  0  0  0  0
   33.3761  -11.0949   32.6415 H   0  0  0  0  0
   32.8131  -14.4954   31.3135 H   0  0  0  0  0
   32.4354  -18.6130   28.0658 H   0  0  0  0  0
   34.6521  -17.7448   30.8664 H   0  0  0  0  0
   35.9751  -20.1274   33.3660 H   0  0  0  0  0
   34.9086  -21.8114   32.4655 H   0  0  0  0  0
   33.3212  -22.5968   30.6016 H   0  0  0  0  0
   32.4591  -20.9892   28.9468 H   0  0  0  0  0
   33.8503  -14.1648   27.1290 H   0  0  0  0  0
  1  2  1  0  0  0
  2  3  1  0  0  0
  3  4  2  0  0  0
  3 24  1  0  0  0
  4  5  1  0  0  0
  5  6  1  0  0  0
  5  7  1  0  0  0
  7  8  1  0  0  0
  7 24  1  0  0  0
  8  9  4  0  0  0
  8 21  4  0  0  0
  9 10  4  0  0  0
 10 11  1  0  0  0
 10 19  4  0  0  0
 11 12  1  0  0  0
 12 13  4  0  0  0
 12 18  4  0  0  0
 13 14  4  0  0  0
 14 15  1  0  0  0
 14 16  4  0  0  0
 16 17  4  0  0  0
 17 18  4  0  0  0
 19 20  4  0  0  0
 20 21  4  0  0  0
 21 22  1  0  0  0
 22 23  3  0  0  0
  1 25  1  0  0  0
  1 26  1  0  0  0
  1 27  1  0  0  0
  2 28  1  0  0  0
  5 29  1  0  0  0
  6 30  1  0  0  0
  6 31  1  0  0  0
  6 32  1  0  0  0
  7 33  1  0  0  0
 11 34  1  0  0  0
 13 35  1  0  0  0
 15 36  1  0  0  0
 16 37  1  0  0  0
 17 38  1  0  0  0
 18 39  1  0  0  0
 20 40  1  0  0  0
M  END
$$$$
