6rna_ligand
  -I-interpret- 

 53 56  0  0  0  0  0  0  0  0999 V2000
  -41.3720   42.6350   -4.0510 C   0  0  0  0  0
  -40.2430   42.4790   -3.0740 C   0  0  0  0  0
  -40.8130   41.9660   -1.7660 C   0  0  0  0  0
  -39.5900   43.8310   -2.8600 C   0  0  0  0  0
  -38.9750   41.3440   -3.7440 S   0  0  0  0  0
  -37.9860   41.1140   -2.7170 O   0  0  0  0  0
  -38.5360   41.8120   -5.0400 O   0  0  0  0  0
  -39.7150   39.7410   -3.9870 C   0  0  0  0  0
  -39.5790   38.8680   -2.9410 C   0  0  0  0  0
  -40.0580   37.5400   -3.0590 C   0  0  0  0  0
  -39.9830   36.5170   -2.0420 C   0  0  0  0  0
  -39.3610   36.8040   -0.8620 N   0  0  0  0  0
  -39.1030   35.8870    0.1590 C   0  0  0  0  0
  -38.3000   34.7880   -0.0840 C   0  0  0  0  0
  -38.1060   33.8510    0.8970 C   0  0  0  0  0
  -38.7100   34.0560    2.1160 C   0  0  0  0  0
  -38.6080   33.0400    3.5150 S   0  0  0  0  0
  -39.6600   34.1280    4.3290 C   0  0  0  0  0
  -40.0290   35.1720    3.6730 N   0  0  0  0  0
  -39.4990   35.1690    2.4010 C   0  0  0  0  0
  -39.7050   36.0880    1.3860 C   0  0  0  0  0
  -40.5120   35.2940   -2.2390 N   0  0  0  0  0
  -41.0800   35.0600   -3.4250 C   0  0  0  0  0
  -41.1910   35.8890   -4.4650 N   0  0  0  0  0
  -40.6910   37.1450   -4.2720 C   0  0  0  0  0
  -40.8330   38.0880   -5.3090 C   0  0  0  0  0
  -40.3300   39.3670   -5.1860 C   0  0  0  0  0
  -40.4150   40.3030   -6.2050 O   0  0  0  0  0
  -40.5230   39.9160   -7.5700 C   0  0  0  0  0
  -41.6000   40.7600   -8.1930 C   0  0  0  0  0
  -41.2580   42.1230   -7.9840 O   0  0  0  0  0
  -40.9878   43.0423   -4.9862 H   0  0  0  0  0
  -41.8271   41.6621   -4.2367 H   0  0  0  0  0
  -42.1179   43.3135   -3.6370 H   0  0  0  0  0
  -41.2732   40.9915   -1.9291 H   0  0  0  0  0
  -40.0112   41.8726   -1.0335 H   0  0  0  0  0
  -41.5629   42.6664   -1.3984 H   0  0  0  0  0
  -38.7649   43.7271   -2.1554 H   0  0  0  0  0
  -39.2120   44.2052   -3.8114 H   0  0  0  0  0
  -40.3254   44.5290   -2.4599 H   0  0  0  0  0
  -39.1020   39.1950   -2.0171 H   0  0  0  0  0
  -39.0598   37.7672   -0.7135 H   0  0  0  0  0
  -37.8213   34.6669   -1.0557 H   0  0  0  0  0
  -37.4912   32.9692    0.7168 H   0  0  0  0  0
  -39.9975   33.9434    5.3488 H   0  0  0  0  0
  -40.3357   36.9611    1.5534 H   0  0  0  0  0
  -41.5069   34.0663   -3.5606 H   0  0  0  0  0
  -41.3496   37.8020   -6.2252 H   0  0  0  0  0
  -40.7735   38.8581   -7.6484 H   0  0  0  0  0
  -39.5744   40.0656   -8.0856 H   0  0  0  0  0
  -42.5655   40.5379   -7.7386 H   0  0  0  0  0
  -41.6777   40.5483   -9.2594 H   0  0  0  0  0
  -41.9322   42.6843   -8.3738 H   0  0  0  0  0
  1  2  1  0  0  0
  2  3  1  0  0  0
  2  4  1  0  0  0
  2  5  1  0  0  0
  5  6  2  0  0  0
  5  7  2  0  0  0
  5  8  1  0  0  0
  8  9  4  0  0  0
  8 27  4  0  0  0
  9 10  4  0  0  0
 10 11  4  0  0  0
 10 25  4  0  0  0
 11 12  1  0  0  0
 11 22  4  0  0  0
 12 13  1  0  0  0
 13 14  4  0  0  0
 13 21  4  0  0  0
 14 15  4  0  0  0
 15 16  4  0  0  0
 16 17  4  0  0  0
 16 20  4  0  0  0
 17 18  4  0  0  0
 18 19  4  0  0  0
 19 20  4  0  0  0
 20 21  4  0  0  0
 22 23  4  0  0  0
 23 24  4  0  0  0
 24 25  4  0  0  0
 25 26  4  0  0  0
 26 27  4  0  0  0
 27 28  1  0  0  0
 28 29  1  0  0  0
 29 30  1  0  0  0
 30 31  1  0  0  0
  1 32  1  0  0  0
  1 33  1  0  0  0
  1 34  1  0  0  0
  3 35  1  0  0  0
  3 36  1  0  0  0
  3 37  1  0  0  0
  4 38  1  0  0  0
  4 39  1  0  0  0
  4 40  1  0  0  0
  9 41  1  0  0  0
 12 42  1  0  0  0
 14 43  1  0  0  0
 15 44  1  0  0  0
 18 45  1  0  0  0
 21 46  1  0  0  0
 23 47  1  0  0  0
 26 48  1  0  0  0
 29 49  1  0  0  0
 29 50  1  0  0  0
 30 51  1  0  0  0
 30 52  1  0  0  0
 31 53  1  0  0  0
M  END
$$$$
