4lpf_ligand
  -I-interpret- 

  9  9  0  0  0  0  0  0  0  0999 V2000
  -18.3020   -7.7910   39.6310 N   0  0  0  0  0
  -19.6900   -8.0090   39.7300 N   0  0  0  0  0
  -20.1880   -7.1180   38.8660 C   0  0  0  0  0
  -19.2730   -6.3640   38.2360 N   0  0  0  0  0
  -18.0850   -6.7940   38.7300 C   0  0  0  0  0
  -21.5170   -6.9950   38.6450 N   0  0  0  0  0
  -17.1077   -6.4017   38.4489 H   0  0  0  0  0
  -22.1747   -7.5932   39.1450 H   0  0  0  0  0
  -21.8613   -6.3040   37.9784 H   0  0  0  0  0
  1  2  4  0  0  0
  1  5  4  0  0  0
  2  3  4  0  0  0
  3  4  4  0  0  0
  3  6  1  0  0  0
  4  5  4  0  0  0
  5  7  1  0  0  0
  6  8  1  0  0  0
  6  9  1  0  0  0
M  END
$$$$
