4myq_ligand
  -I-interpret- 

 44 46  0  0  0  0  0  0  0  0999 V2000
  -17.7070   32.6790   -7.6990 C   0  0  0  0  0
  -16.9960   30.5010   -7.3390 C   0  0  0  0  0
  -15.7960   31.0330   -6.8280 C   0  0  0  0  0
  -19.8550   35.5620   -8.9820 C   0  0  0  0  0
  -15.3430   38.8990   -3.7860 O   0  0  0  0  0
  -14.7370   39.1950   -4.8370 C   0  0  0  0  0
  -15.0800   40.1180   -5.5630 O   0  0  0  0  0
  -13.4800   38.4800   -5.2500 C   0  0  0  0  0
  -13.7920   37.0090   -5.5720 C   0  0  0  0  0
  -14.5480   36.6580   -6.7060 C   0  0  0  0  0
  -14.7710   35.2800   -7.0210 C   0  0  0  0  0
  -13.2520   36.0210   -4.7830 C   0  0  0  0  0
  -13.4460   34.6950   -5.0770 C   0  0  0  0  0
  -14.2120   34.2950   -6.1650 C   0  0  0  0  0
  -14.4410   32.9480   -6.3630 N   0  0  0  0  0
  -15.5980   32.4320   -6.8220 C   0  0  0  0  0
  -14.7000   30.1180   -6.3430 C   0  0  0  0  0
  -13.6440   29.9980   -7.4360 C   0  0  0  0  0
  -17.2150   28.9930   -7.4070 C   0  0  0  0  0
  -17.9370   31.3340   -7.7830 N   0  0  0  0  0
  -16.5420   33.1910   -7.2460 N   0  0  0  0  0
  -18.6340   33.6030   -8.2230 C   0  0  0  0  0
  -19.8080   33.2590   -8.8600 C   0  0  0  0  0
  -20.5170   34.4050   -9.2950 C   0  0  0  0  0
  -18.4040   35.2560   -8.1820 S   0  0  0  0  0
  -20.4560   37.2330   -9.3890 Cl  0  0  0  0  0
  -14.9120   38.1489   -3.3699 H   0  0  0  0  0
  -12.7588   38.5229   -4.4338 H   0  0  0  0  0
  -13.0690   38.9616   -6.1373 H   0  0  0  0  0
  -14.9642   37.4367   -7.3451 H   0  0  0  0  0
  -15.3551   34.9940   -7.8957 H   0  0  0  0  0
  -12.6602   36.2956   -3.9098 H   0  0  0  0  0
  -12.9881   33.9369   -4.4416 H   0  0  0  0  0
  -13.6835   32.2999   -6.1473 H   0  0  0  0  0
  -15.1119   29.1346   -6.1165 H   0  0  0  0  0
  -14.2509   30.5258   -5.4374 H   0  0  0  0  0
  -14.0999   29.5859   -8.3362 H   0  0  0  0  0
  -13.2344   30.9844   -7.6536 H   0  0  0  0  0
  -12.8453   29.3382   -7.0969 H   0  0  0  0  0
  -16.4469   28.5436   -8.0364 H   0  0  0  0  0
  -17.1555   28.5729   -6.4030 H   0  0  0  0  0
  -18.1986   28.7887   -7.8300 H   0  0  0  0  0
  -20.1473   32.2340   -9.0097 H   0  0  0  0  0
  -21.4738   34.3703   -9.8159 H   0  0  0  0  0
  1 20  4  0  0  0
  1 21  4  0  0  0
 22  1  1  0  0  0
  2  3  4  0  0  0
  2 19  1  0  0  0
 20  2  4  0  0  0
 16  3  4  0  0  0
  3 17  1  0  0  0
  4 24  4  0  0  0
 25  4  4  0  0  0
  4 26  1  0  0  0
  6  5  1  0  0  0
  6  7  2  0  0  0
  8  6  1  0  0  0
  9  8  1  0  0  0
 10  9  4  0  0  0
 12  9  4  0  0  0
 11 10  4  0  0  0
 14 11  4  0  0  0
 13 12  4  0  0  0
 14 13  4  0  0  0
 15 14  1  0  0  0
 16 15  1  0  0  0
 21 16  4  0  0  0
 17 18  1  0  0  0
 22 23  4  0  0  0
 22 25  4  0  0  0
 23 24  4  0  0  0
  5 27  1  0  0  0
  8 28  1  0  0  0
  8 29  1  0  0  0
 10 30  1  0  0  0
 11 31  1  0  0  0
 12 32  1  0  0  0
 13 33  1  0  0  0
 15 34  1  0  0  0
 17 35  1  0  0  0
 17 36  1  0  0  0
 18 37  1  0  0  0
 18 38  1  0  0  0
 18 39  1  0  0  0
 19 40  1  0  0  0
 19 41  1  0  0  0
 19 42  1  0  0  0
 23 43  1  0  0  0
 24 44  1  0  0  0
M  END
$$$$
