3tws_ligand
  -I-interpret- 

210211  0  0  0  0  0  0  0  0999 V2000
  -26.0040  -24.4780   37.4150 N   0  3  0  0  0
  -25.6940  -23.0870   37.1100 C   0  0  0  0  0
  -26.6400  -22.5140   36.0590 C   0  0  0  0  0
  -26.2450  -22.3010   34.9160 O   0  0  0  0  0
  -24.2430  -22.9510   36.6360 C   0  0  0  0  0
  -23.2320  -23.1940   37.7120 C   0  0  0  0  0
  -23.1310  -22.3930   38.8300 N   0  0  0  0  0
  -22.2870  -24.1530   37.8460 C   0  0  0  0  0
  -22.1630  -22.8470   39.6060 C   0  0  0  0  0
  -21.6360  -23.9150   39.0330 N   0  0  0  0  0
  -27.8880  -22.2540   36.4490 N   0  0  0  0  0
  -28.8860  -21.7850   35.4870 C   0  0  0  0  0
  -28.5150  -20.4590   34.8200 C   0  0  0  0  0
  -28.7490  -20.2740   33.6270 O   0  0  0  0  0
  -30.2780  -21.7110   36.1210 C   0  0  0  0  0
  -30.8520  -23.0940   36.4210 C   0  0  0  0  0
  -32.2610  -23.0030   36.9960 C   0  0  0  0  0
  -30.8300  -23.9450   35.1530 C   0  0  0  0  0
  -27.9350  -19.5480   35.5930 N   0  0  0  0  0
  -27.4980  -18.2580   35.0680 C   0  0  0  0  0
  -26.4570  -18.4270   33.9660 C   0  0  0  0  0
  -26.3740  -17.6080   33.0440 O   0  0  0  0  0
  -26.9370  -17.3890   36.2010 C   0  0  0  0  0
  -26.4670  -16.0110   35.7580 C   0  0  0  0  0
  -27.6080  -15.1240   35.2970 C   0  0  0  0  0
  -28.5550  -14.8730   36.0430 O   0  0  0  0  0
  -27.5230  -14.6460   34.0620 N   0  0  0  0  0
  -25.6700  -19.4970   34.0510 N   0  0  0  0  0
  -24.6320  -19.7720   33.0500 C   0  0  0  0  0
  -25.2190  -20.0480   31.6580 C   0  0  0  0  0
  -24.6490  -19.6620   30.6240 O   0  0  0  0  0
  -23.7440  -20.9390   33.5120 C   0  0  0  0  0
  -22.6590  -21.3330   32.5080 C   0  0  0  0  0
  -21.5460  -22.1810   33.1280 C   0  0  0  0  0
  -20.4820  -22.3910   32.1470 N   0  0  0  0  0
  -20.4470  -23.4010   31.2840 C   0  0  0  0  0
  -19.4610  -23.4830   30.4080 N   0  0  0  0  0
  -21.4020  -24.3250   31.2890 N   0  0  0  0  0
  -26.3630  -20.7170   31.6340 N   0  0  0  0  0
  -27.0250  -21.0280   30.3830 C   0  0  0  0  0
  -26.2230  -21.9780   29.5220 C   0  0  0  0  0
  -25.4370  -22.7840   30.0210 O   0  0  0  0  0
  -26.3940  -21.8910   28.2110 N   0  0  0  0  0
  -25.5810  -22.7360   27.3560 C   0  0  0  0  0
  -25.0990  -22.0240   26.1020 C   0  0  0  0  0
  -25.7150  -21.0560   25.6410 O   0  0  0  0  0
  -26.2680  -24.0610   27.0270 C   0  0  0  0  0
  -27.5360  -23.9690   25.7780 S   0  0  0  0  0
  -23.9780  -22.5090   25.5910 N   0  0  0  0  0
  -23.3490  -21.9390   24.4140 C   0  0  0  0  0
  -24.3150  -21.9680   23.2440 C   0  0  0  0  0
  -25.0640  -22.9310   23.0810 O   0  0  0  0  0
  -22.1040  -22.7200   24.0700 C   0  0  0  0  0
  -24.2900  -20.9210   22.4210 N   0  0  0  0  0
  -25.0380  -20.9580   21.1720 C   0  0  0  0  0
  -24.4270  -22.0330   20.2810 C   0  0  0  0  0
  -23.2080  -22.0910   20.1160 O   0  0  0  0  0
  -25.0300  -19.6030   20.4660 C   0  0  0  0  0
  -26.0080  -18.6110   21.0780 C   0  0  0  0  0
  -27.1340  -19.0290   21.4290 O   0  0  0  0  0
  -25.6540  -17.4210   21.2050 O   0  0  0  0  0
  -25.2840  -22.8920   19.7350 N   0  0  0  0  0
  -24.8390  -23.9690   18.8810 C   0  0  0  0  0
  -25.6420  -25.2300   19.1120 C   0  0  0  0  0
  -26.6080  -25.2400   19.8830 O   0  0  0  0  0
  -25.2420  -26.2960   18.4280 N   0  0  0  0  0
  -25.8320  -27.6220   18.6220 C   0  0  0  0  0
  -24.9220  -28.6450   17.9670 C   0  0  0  0  0
  -24.1070  -28.2980   17.1080 O   0  0  0  0  0
  -27.2460  -27.7120   18.0450 C   0  0  0  0  0
  -27.3210  -27.6040   16.5290 C   0  0  0  0  0
  -28.7490  -27.4240   16.0390 C   0  0  0  0  0
  -29.5100  -26.6220   16.5870 O   0  0  0  0  0
  -29.1240  -28.1760   15.0060 N   0  0  0  0  0
  -25.0560  -29.9060   18.3660 N   0  0  0  0  0
  -24.0990  -30.9350   17.9520 C   0  0  0  0  0
  -24.3720  -31.5390   16.5720 C   0  0  0  0  0
  -23.4390  -31.9080   15.8490 O   0  0  0  0  0
  -24.0390  -32.0570   18.9910 C   0  0  0  0  0
  -22.9770  -32.9490   18.7000 O   0  0  0  0  0
  -25.6490  -31.6610   16.2220 N   0  0  0  0  0
  -26.0430  -32.2610   14.9530 C   0  0  0  0  0
  -26.6420  -31.2030   14.0390 C   0  0  0  0  0
  -27.5450  -30.4530   14.4470 O   0  0  0  0  0
  -27.0760  -33.3760   15.1810 C   0  0  0  0  0
  -26.4800  -34.7480   15.4340 C   0  0  0  0  0
  -25.1240  -34.9190   15.6460 C   0  0  0  0  0
  -27.2970  -35.8670   15.4430 C   0  0  0  0  0
  -24.5990  -36.1850   15.8730 C   0  0  0  0  0
  -26.7780  -37.1330   15.6650 C   0  0  0  0  0
  -25.4270  -37.2870   15.8800 C   0  0  0  0  0
  -26.1420  -31.1470   12.8060 N   0  0  0  0  0
  -26.6620  -30.2320   11.7960 C   0  0  0  0  0
  -28.0730  -30.6280   11.4010 C   0  0  0  0  0
  -28.8630  -29.7780   10.9780 O   0  0  0  0  0
  -25.7500  -30.1900   10.5510 C   0  0  0  0  0
  -24.5870  -29.1980   10.6480 C   0  0  0  0  0
  -23.4760  -29.5250    9.6430 C   0  0  0  0  0
  -22.7010  -30.6560   10.1380 N   0  0  0  0  0
  -21.9690  -31.4670    9.3890 C   0  0  0  0  0
  -21.3140  -32.4690    9.9670 N   0  0  0  0  0
  -21.9050  -31.2890    8.0760 N   0  0  0  0  0
  -28.3860  -31.9140   11.5460 N   0  0  0  0  0
  -29.7270  -32.4170   11.1970 C   0  0  0  0  0
  -29.7360  -33.9300   10.9040 C   0  0  0  0  0
  -29.4170  -34.6720   12.0860 O   0  0  0  0  0
  -30.2560  -31.4720   13.3760 N   0  0  0  0  0
  -30.7430  -32.0940   12.3060 C   0  0  0  0  0
  -31.9260  -32.4210   12.1870 O   0  0  0  0  0
  -26.9721  -24.5485   37.7282 H   0  0  0  0  0
  -25.8742  -25.0456   36.5775 H   0  0  0  0  0
  -25.3819  -24.8100   38.1520 H   0  0  0  0  0
  -25.8269  -22.5160   38.0289 H   0  0  0  0  0
  -24.1088  -21.9266   36.2887 H   0  0  0  0  0
  -24.0817  -23.7017   35.8623 H   0  0  0  0  0
  -22.0808  -24.9618   37.1449 H   0  0  0  0  0
  -21.8519  -22.4144   40.5569 H   0  0  0  0  0
  -28.1495  -22.3831   37.4264 H   0  0  0  0  0
  -28.9054  -22.5296   34.6912 H   0  0  0  0  0
  -30.9446  -21.2136   35.4165 H   0  0  0  0  0
  -30.1925  -21.1686   37.0626 H   0  0  0  0  0
  -30.2293  -23.5699   37.1785 H   0  0  0  0  0
  -32.2373  -22.4306   37.9233 H   0  0  0  0  0
  -32.9138  -22.5068   36.2778 H   0  0  0  0  0
  -32.6357  -24.0067   37.1965 H   0  0  0  0  0
  -31.4313  -23.4623   34.3825 H   0  0  0  0  0
  -29.8027  -24.0470   34.8032 H   0  0  0  0  0
  -31.2404  -24.9309   35.3715 H   0  0  0  0  0
  -27.7909  -19.7556   36.5812 H   0  0  0  0  0
  -28.3655  -17.7620   34.6327 H   0  0  0  0  0
  -26.0690  -17.9097   36.6053 H   0  0  0  0  0
  -27.7431  -17.2379   36.9190 H   0  0  0  0  0
  -25.7855  -16.1438   34.9177 H   0  0  0  0  0
  -25.9920  -15.5286   36.6122 H   0  0  0  0  0
  -28.2610  -14.0445   33.6960 H   0  0  0  0  0
  -26.7197  -14.8801   33.4787 H   0  0  0  0  0
  -25.7912  -20.1424   34.8315 H   0  0  0  0  0
  -24.0206  -18.8742   32.9593 H   0  0  0  0  0
  -24.3922  -21.8054   33.6432 H   0  0  0  0  0
  -23.2393  -20.6192   34.4236 H   0  0  0  0  0
  -22.2060  -20.4153   32.1330 H   0  0  0  0  0
  -23.1316  -21.9275   31.7261 H   0  0  0  0  0
  -21.9531  -23.1455   33.4316 H   0  0  0  0  0
  -21.1393  -21.6640   33.9971 H   0  0  0  0  0
  -19.7161  -21.7178   32.1236 H   0  0  0  0  0
  -18.7295  -22.7723   30.3955 H   0  0  0  0  0
  -21.3719  -25.0932   30.6186 H   0  0  0  0  0
  -22.1651  -24.2661   31.9632 H   0  0  0  0  0
  -26.7852  -21.0185   32.5122 H   0  0  0  0  0
  -27.1504  -20.0976   29.8292 H   0  0  0  0  0
  -27.9756  -21.5076   30.6164 H   0  0  0  0  0
  -27.0784  -21.2476   27.8135 H   0  0  0  0  0
  -24.6892  -22.9724   27.9364 H   0  0  0  0  0
  -26.7546  -24.3970   27.9427 H   0  0  0  0  0
  -25.4959  -24.7263   26.6406 H   0  0  0  0  0
  -28.0534  -25.1787   25.5838 H   0  0  0  0  0
  -23.5404  -23.3129   26.0412 H   0  0  0  0  0
  -23.0761  -20.9046   24.6231 H   0  0  0  0  0
  -21.4074  -22.6782   24.9074 H   0  0  0  0  0
  -22.3713  -23.7575   23.8696 H   0  0  0  0  0
  -21.6374  -22.2863   23.1855 H   0  0  0  0  0
  -23.7468  -20.0931   22.6656 H   0  0  0  0  0
  -26.0807  -21.1925   21.3863 H   0  0  0  0  0
  -25.3256  -19.7658   19.4295 H   0  0  0  0  0
  -24.0281  -19.1842   20.5604 H   0  0  0  0  0
  -27.1974  -19.9687   21.2433 H   0  0  0  0  0
  -26.2808  -22.7874   19.9243 H   0  0  0  0  0
  -23.7939  -24.1795   19.1080 H   0  0  0  0  0
  -24.9698  -23.6624   17.8432 H   0  0  0  0  0
  -24.4955  -26.1868   17.7415 H   0  0  0  0  0
  -25.9208  -27.8181   19.6905 H   0  0  0  0  0
  -27.8091  -26.8719   18.4516 H   0  0  0  0  0
  -27.6367  -28.6936   18.3133 H   0  0  0  0  0
  -26.9287  -28.5271   16.1023 H   0  0  0  0  0
  -26.7432  -26.7325   16.2210 H   0  0  0  0  0
  -30.0726  -28.1013   14.6385 H   0  0  0  0  0
  -28.4627  -28.8268   14.5822 H   0  0  0  0  0
  -25.8374  -30.1611   18.9699 H   0  0  0  0  0
  -23.1407  -30.4207   17.8793 H   0  0  0  0  0
  -24.9792  -32.6082   18.9707 H   0  0  0  0  0
  -23.8730  -31.6189   19.9752 H   0  0  0  0  0
  -22.9549  -33.6449   19.3610 H   0  0  0  0  0
  -26.3723  -31.3258   16.8584 H   0  0  0  0  0
  -25.1548  -32.6871   14.4865 H   0  0  0  0  0
  -27.6697  -33.4504   14.2699 H   0  0  0  0  0
  -27.6431  -33.1066   16.0720 H   0  0  0  0  0
  -24.4618  -34.0533   15.6349 H   0  0  0  0  0
  -28.3672  -35.7497   15.2724 H   0  0  0  0  0
  -23.5298  -36.3072   16.0460 H   0  0  0  0  0
  -27.4361  -38.0019   15.6693 H   0  0  0  0  0
  -25.0124  -38.2796   16.0556 H   0  0  0  0  0
  -25.3690  -31.7651   12.5594 H   0  0  0  0  0
  -26.6824  -29.2325   12.2304 H   0  0  0  0  0
  -26.3700  -29.8734    9.7122 H   0  0  0  0  0
  -25.3138  -31.1829   10.4417 H   0  0  0  0  0
  -24.1688  -29.2568   11.6529 H   0  0  0  0  0
  -24.9673  -28.2008   10.4266 H   0  0  0  0  0
  -22.8246  -28.6594    9.5227 H   0  0  0  0  0
  -23.9171  -29.7774    8.6787 H   0  0  0  0  0
  -22.7242  -30.8374   11.1415 H   0  0  0  0  0
  -20.7567  -33.1082    9.4002 H   0  0  0  0  0
  -21.3687  -32.5986   10.9773 H   0  0  0  0  0
  -22.4208  -30.5251    7.6392 H   0  0  0  0  0
  -27.6854  -32.5627   11.9049 H   0  0  0  0  0
  -30.0175  -31.9030   10.2808 H   0  0  0  0  0
  -28.9911  -34.1467   10.1383 H   0  0  0  0  0
  -30.7301  -34.2185   10.5625 H   0  0  0  0  0
  -29.4271  -35.6108   11.8856 H   0  0  0  0  0
  -30.8717  -31.2405   14.1556 H   0  0  0  0  0
  -29.2668  -31.2265   13.4170 H   0  0  0  0  0
  1  2  1  0  0  0
  2  3  1  0  0  0
  2  5  1  0  0  0
  3  4  2  0  0  0
  3 11  1  0  0  0
  5  6  1  0  0  0
  6  7  4  0  0  0
  6  8  4  0  0  0
  7  9  4  0  0  0
  8 10  4  0  0  0
  9 10  4  0  0  0
 11 12  1  0  0  0
 12 13  1  0  0  0
 12 15  1  0  0  0
 13 14  2  0  0  0
 13 19  1  0  0  0
 15 16  1  0  0  0
 16 17  1  0  0  0
 16 18  1  0  0  0
 19 20  1  0  0  0
 20 21  1  0  0  0
 20 23  1  0  0  0
 21 22  2  0  0  0
 21 28  1  0  0  0
 23 24  1  0  0  0
 24 25  1  0  0  0
 25 26  2  0  0  0
 25 27  1  0  0  0
 28 29  1  0  0  0
 29 30  1  0  0  0
 29 32  1  0  0  0
 30 31  2  0  0  0
 30 39  1  0  0  0
 32 33  1  0  0  0
 33 34  1  0  0  0
 34 35  1  0  0  0
 35 36  1  0  0  0
 36 37  2  0  0  0
 36 38  1  0  0  0
 39 40  1  0  0  0
 40 41  1  0  0  0
 41 42  2  0  0  0
 41 43  1  0  0  0
 43 44  1  0  0  0
 44 45  1  0  0  0
 44 47  1  0  0  0
 45 46  2  0  0  0
 45 49  1  0  0  0
 47 48  1  0  0  0
 49 50  1  0  0  0
 50 51  1  0  0  0
 50 53  1  0  0  0
 51 52  2  0  0  0
 51 54  1  0  0  0
 54 55  1  0  0  0
 55 56  1  0  0  0
 55 58  1  0  0  0
 56 57  2  0  0  0
 56 62  1  0  0  0
 58 59  1  0  0  0
 59 60  1  0  0  0
 59 61  2  0  0  0
 62 63  1  0  0  0
 63 64  1  0  0  0
 64 65  2  0  0  0
 64 66  1  0  0  0
 66 67  1  0  0  0
 67 68  1  0  0  0
 67 70  1  0  0  0
 68 69  2  0  0  0
 68 75  1  0  0  0
 70 71  1  0  0  0
 71 72  1  0  0  0
 72 73  2  0  0  0
 72 74  1  0  0  0
 75 76  1  0  0  0
 76 77  1  0  0  0
 76 79  1  0  0  0
 77 78  2  0  0  0
 77 81  1  0  0  0
 79 80  1  0  0  0
 81 82  1  0  0  0
 82 83  1  0  0  0
 82 85  1  0  0  0
 83 84  2  0  0  0
 83 92  1  0  0  0
 85 86  1  0  0  0
 86 87  4  0  0  0
 86 88  4  0  0  0
 87 89  4  0  0  0
 88 90  4  0  0  0
 89 91  4  0  0  0
 90 91  4  0  0  0
 92 93  1  0  0  0
 93 94  1  0  0  0
 93 96  1  0  0  0
 94 95  2  0  0  0
 94103  1  0  0  0
 96 97  1  0  0  0
 97 98  1  0  0  0
 98 99  1  0  0  0
 99100  1  0  0  0
100101  1  0  0  0
100102  2  0  0  0
103104  1  0  0  0
104105  1  0  0  0
104108  1  0  0  0
105106  1  0  0  0
108107  1  0  0  0
108109  2  0  0  0
  1110  1  0  0  0
  1111  1  0  0  0
  1112  1  0  0  0
  2113  1  0  0  0
  5114  1  0  0  0
  5115  1  0  0  0
  8116  1  0  0  0
  9117  1  0  0  0
 11118  1  0  0  0
 12119  1  0  0  0
 15120  1  0  0  0
 15121  1  0  0  0
 16122  1  0  0  0
 17123  1  0  0  0
 17124  1  0  0  0
 17125  1  0  0  0
 18126  1  0  0  0
 18127  1  0  0  0
 18128  1  0  0  0
 19129  1  0  0  0
 20130  1  0  0  0
 23131  1  0  0  0
 23132  1  0  0  0
 24133  1  0  0  0
 24134  1  0  0  0
 27135  1  0  0  0
 27136  1  0  0  0
 28137  1  0  0  0
 29138  1  0  0  0
 32139  1  0  0  0
 32140  1  0  0  0
 33141  1  0  0  0
 33142  1  0  0  0
 34143  1  0  0  0
 34144  1  0  0  0
 35145  1  0  0  0
 37146  1  0  0  0
 38147  1  0  0  0
 38148  1  0  0  0
 39149  1  0  0  0
 40150  1  0  0  0
 40151  1  0  0  0
 43152  1  0  0  0
 44153  1  0  0  0
 47154  1  0  0  0
 47155  1  0  0  0
 48156  1  0  0  0
 49157  1  0  0  0
 50158  1  0  0  0
 53159  1  0  0  0
 53160  1  0  0  0
 53161  1  0  0  0
 54162  1  0  0  0
 55163  1  0  0  0
 58164  1  0  0  0
 58165  1  0  0  0
 60166  1  0  0  0
 62167  1  0  0  0
 63168  1  0  0  0
 63169  1  0  0  0
 66170  1  0  0  0
 67171  1  0  0  0
 70172  1  0  0  0
 70173  1  0  0  0
 71174  1  0  0  0
 71175  1  0  0  0
 74176  1  0  0  0
 74177  1  0  0  0
 75178  1  0  0  0
 76179  1  0  0  0
 79180  1  0  0  0
 79181  1  0  0  0
 80182  1  0  0  0
 81183  1  0  0  0
 82184  1  0  0  0
 85185  1  0  0  0
 85186  1  0  0  0
 87187  1  0  0  0
 88188  1  0  0  0
 89189  1  0  0  0
 90190  1  0  0  0
 91191  1  0  0  0
 92192  1  0  0  0
 93193  1  0  0  0
 96194  1  0  0  0
 96195  1  0  0  0
 97196  1  0  0  0
 97197  1  0  0  0
 98198  1  0  0  0
 98199  1  0  0  0
 99200  1  0  0  0
101201  1  0  0  0
101202  1  0  0  0
102203  1  0  0  0
103204  1  0  0  0
104205  1  0  0  0
105206  1  0  0  0
105207  1  0  0  0
106208  1  0  0  0
107209  1  0  0  0
107210  1  0  0  0
M  END
$$$$
