3wiy_ligand
  -I-interpret- 

110116  0  0  0  0  0  0  0  0999 V2000
  -20.9120    6.4200   16.7790 C   0  0  0  0  0
  -14.6830   -4.3420   22.8960 C   0  0  0  0  0
  -14.4100   -3.4350   23.8930 C   0  0  0  0  0
  -21.7520    6.9690   17.7230 C   0  0  0  0  0
  -21.4240    6.0550   15.5520 C   0  0  0  0  0
  -13.6370   -1.0630   19.6030 C   0  0  0  0  0
  -14.5600   -3.9840   21.5740 C   0  0  0  0  0
  -14.0100   -2.1550   23.5880 C   0  0  0  0  0
  -14.0380   -2.3350   19.9330 C   0  0  0  0  0
  -17.9720    6.2740   20.5820 C   0  0  0  0  0
  -18.4530    7.4670   20.1140 C   0  0  0  0  0
  -22.7610   10.3820   16.7560 C   0  0  0  0  0
  -13.3670   -0.1500   20.6030 C   0  0  0  0  0
  -23.0930    7.1420   17.4460 C   0  0  0  0  0
  -22.7620    6.2280   15.2720 C   0  0  0  0  0
  -21.9150   10.7800   17.7750 C   0  0  0  0  0
  -18.9580    8.1690   22.3790 C   0  0  0  0  0
  -23.7800   11.0300   19.2560 C   0  0  0  0  0
  -14.1540   -2.7070   21.2560 C   0  0  0  0  0
  -13.8820   -1.8010   22.2600 C   0  0  0  0  0
  -17.9790    6.0140   21.9410 C   0  0  0  0  0
  -18.9330    8.3990   21.0090 C   0  0  0  0  0
  -18.4700    6.9510   22.8410 C   0  0  0  0  0
  -14.5360    3.6960   24.0680 C   0  0  0  0  0
  -24.1260   10.2890   16.9600 C   0  0  0  0  0
  -24.5950   10.6310   18.2160 C   0  0  0  0  0
  -13.4900   -0.5290   21.9250 C   0  0  0  0  0
  -23.6070    6.7740   16.2190 C   0  0  0  0  0
  -22.4250   11.0930   19.0180 C   0  0  0  0  0
  -15.6980    3.4240   23.3690 C   0  0  0  0  0
  -14.4610    5.1090   24.0970 C   0  0  0  0  0
  -16.3730    2.2390   22.9850 C   0  0  0  0  0
  -17.5130    2.3290   22.2850 C   0  0  0  0  0
  -18.0670    3.6080   21.9220 C   0  0  0  0  0
  -17.4330    4.7210   22.3110 C   0  0  0  0  0
  -19.4210    9.6360   20.3790 C   0  0  0  0  0
  -13.4510    5.9560   24.7080 C   0  0  0  0  0
  -18.4980    6.6710   24.3050 C   0  0  0  0  0
  -23.8580   11.7570   10.7650 C   0  0  0  0  0
  -23.9210   13.4590   12.3560 C   0  0  0  0  0
  -13.5950    2.7250   24.6650 C   0  0  0  0  0
  -12.4320    2.3910   23.7640 C   0  0  0  0  0
  -25.0960   10.4100   13.6460 C   0  0  0  0  0
  -23.9530   11.2070   13.0610 C   0  0  0  0  0
  -12.8250    1.6030   22.5370 C   0  0  0  0  0
  -25.1420    8.0740   14.3990 C   0  0  0  0  0
  -24.5830    9.4590   14.7000 C   0  0  0  0  0
  -15.5100    5.6470   23.4590 N   0  0  0  0  0
  -16.2580    4.6220   23.0130 N   0  0  0  0  0
  -25.0760    9.8780   15.9960 N   0  0  0  0  0
  -20.6650   10.1100   20.8580 N   0  0  0  0  0
  -24.4430   12.1290   12.0450 N   0  3  0  0  0
  -26.0190   10.5330   18.4530 N   0  0  0  0  0
  -26.7560   10.4450   17.4670 O   0  0  0  0  0
  -18.7910   10.1640   19.4770 O   0  0  0  0  0
  -12.6310    5.5430   25.5070 O   0  0  0  0  0
  -26.4090   10.5310   19.6200 O   0  0  0  0  0
  -20.3130   12.4140   19.6840 O   0  0  0  0  0
  -22.1130   12.0970   21.4360 O   0  0  0  0  0
  -13.4940    7.2660   24.3410 O   0  0  0  0  0
  -13.2390    0.3200   22.9830 O   0  0  0  0  0
  -25.3290    7.0010   15.8610 S   0  0  0  0  0
  -21.3170   11.5980   20.3320 S   0  0  0  0  0
  -19.8544    6.2758   16.9997 H   0  0  0  0  0
  -14.9993   -5.3523   23.1556 H   0  0  0  0  0
  -14.5117   -3.7338   24.9363 H   0  0  0  0  0
  -21.3556    7.2682   18.6933 H   0  0  0  0  0
  -20.7649    5.6260   14.7972 H   0  0  0  0  0
  -13.5325   -0.7760   18.5567 H   0  0  0  0  0
  -14.7816   -4.7036   20.7858 H   0  0  0  0  0
  -13.7984   -1.4350   24.3785 H   0  0  0  0  0
  -14.2655   -3.0535   19.1455 H   0  0  0  0  0
  -17.5843    5.5304   19.8856 H   0  0  0  0  0
  -18.4564    7.6778   19.0446 H   0  0  0  0  0
  -22.3462   10.1381   15.7780 H   0  0  0  0  0
  -13.0584    0.8644   20.3502 H   0  0  0  0  0
  -23.7506    7.5722   18.2014 H   0  0  0  0  0
  -23.1555    5.9329   14.2993 H   0  0  0  0  0
  -20.8419   10.8466   17.5955 H   0  0  0  0  0
  -19.3470    8.9180   23.0688 H   0  0  0  0  0
  -24.1942   11.2862   20.2312 H   0  0  0  0  0
  -15.9694    1.2634   23.2561 H   0  0  0  0  0
  -18.0300    1.4175   21.9851 H   0  0  0  0  0
  -18.9869    3.6686   21.3404 H   0  0  0  0  0
  -17.9048    7.4208   24.8284 H   0  0  0  0  0
  -19.5276    6.7071   24.6609 H   0  0  0  0  0
  -18.0820    5.6811   24.4923 H   0  0  0  0  0
  -24.1528   12.4832   10.0075 H   0  0  0  0  0
  -22.7717   11.7433   10.8537 H   0  0  0  0  0
  -24.2130   10.7670   10.4787 H   0  0  0  0  0
  -22.8336   13.4159   12.4172 H   0  0  0  0  0
  -24.2147   14.1559   11.5710 H   0  0  0  0  0
  -24.3270   13.7931   13.3108 H   0  0  0  0  0
  -14.1456    1.8023   24.8485 H   0  0  0  0  0
  -13.1908    3.1729   25.5728 H   0  0  0  0  0
  -11.7389    1.7768   24.3389 H   0  0  0  0  0
  -12.0011    3.3326   23.4237 H   0  0  0  0  0
  -25.5749    9.8375   12.8517 H   0  0  0  0  0
  -25.8119   11.0944   14.1011 H   0  0  0  0  0
  -23.2402   10.5211   12.6033 H   0  0  0  0  0
  -23.4748   11.7779   13.8570 H   0  0  0  0  0
  -11.9854    1.5192   21.8470 H   0  0  0  0  0
  -13.6305    2.1029   21.9991 H   0  0  0  0  0
  -24.4349    7.5826   13.7307 H   0  0  0  0  0
  -26.1373    8.2160   13.9778 H   0  0  0  0  0
  -23.4931    9.4483   14.7012 H   0  0  0  0  0
  -26.0741    9.8767   16.2062 H   0  0  0  0  0
  -21.1847    9.5497   21.5335 H   0  0  0  0  0
  -25.4624   12.1093   12.0164 H   0  0  0  0  0
  -14.2031    7.3965   23.7072 H   0  0  0  0  0
  4  1  4  0  0  0
  5  1  4  0  0  0
  3  2  4  0  0  0
  7  2  4  0  0  0
  8  3  4  0  0  0
 14  4  4  0  0  0
 15  5  4  0  0  0
  6  9  4  0  0  0
 13  6  4  0  0  0
 19  7  4  0  0  0
 20  8  4  0  0  0
 19  9  4  0  0  0
 11 10  4  0  0  0
 10 21  4  0  0  0
 22 11  4  0  0  0
 16 12  4  0  0  0
 12 25  4  0  0  0
 27 13  4  0  0  0
 28 14  4  0  0  0
 28 15  4  0  0  0
 29 16  4  0  0  0
 22 17  4  0  0  0
 17 23  4  0  0  0
 18 26  4  0  0  0
 29 18  4  0  0  0
 20 19  4  0  0  0
 27 20  4  0  0  0
 23 21  4  0  0  0
 21 35  1  0  0  0
 36 22  1  0  0  0
 23 38  1  0  0  0
 30 24  4  0  0  0
 31 24  4  0  0  0
 24 41  1  0  0  0
 26 25  4  0  0  0
 25 50  1  0  0  0
 26 53  1  0  0  0
 61 27  1  0  0  0
 62 28  1  0  0  0
 63 29  1  0  0  0
 30 32  4  0  0  0
 49 30  4  0  0  0
 31 37  1  0  0  0
 48 31  4  0  0  0
 33 32  4  0  0  0
 34 33  4  0  0  0
 35 34  4  0  0  0
 35 49  4  0  0  0
 51 36  1  0  0  0
 36 55  2  0  0  0
 37 56  2  0  0  0
 37 60  1  0  0  0
 52 39  1  0  0  0
 52 40  1  0  0  0
 41 42  1  0  0  0
 42 45  1  0  0  0
 43 44  1  0  0  0
 47 43  1  0  0  0
 44 52  1  0  0  0
 45 61  1  0  0  0
 47 46  1  0  0  0
 46 62  1  0  0  0
 50 47  1  0  0  0
 49 48  4  0  0  0
 51 63  1  0  0  0
 53 54  2  0  0  0
 53 57  2  0  0  0
 63 58  2  0  0  0
 63 59  2  0  0  0
  1 64  1  0  0  0
  2 65  1  0  0  0
  3 66  1  0  0  0
  4 67  1  0  0  0
  5 68  1  0  0  0
  6 69  1  0  0  0
  7 70  1  0  0  0
  8 71  1  0  0  0
  9 72  1  0  0  0
 10 73  1  0  0  0
 11 74  1  0  0  0
 12 75  1  0  0  0
 13 76  1  0  0  0
 14 77  1  0  0  0
 15 78  1  0  0  0
 16 79  1  0  0  0
 17 80  1  0  0  0
 18 81  1  0  0  0
 32 82  1  0  0  0
 33 83  1  0  0  0
 34 84  1  0  0  0
 38 85  1  0  0  0
 38 86  1  0  0  0
 38 87  1  0  0  0
 39 88  1  0  0  0
 39 89  1  0  0  0
 39 90  1  0  0  0
 40 91  1  0  0  0
 40 92  1  0  0  0
 40 93  1  0  0  0
 41 94  1  0  0  0
 41 95  1  0  0  0
 42 96  1  0  0  0
 42 97  1  0  0  0
 43 98  1  0  0  0
 43 99  1  0  0  0
 44100  1  0  0  0
 44101  1  0  0  0
 45102  1  0  0  0
 45103  1  0  0  0
 46104  1  0  0  0
 46105  1  0  0  0
 47106  1  0  0  0
 50107  1  0  0  0
 51108  1  0  0  0
 52109  1  0  0  0
 60110  1  0  0  0
M  END
$$$$
