5h09_ligand
  -I-interpret- 

 80 84  0  0  0  0  0  0  0  0999 V2000
    5.8530    3.6970    4.2850 O   0  0  0  0  0
    4.1100   -3.4470   -1.8340 C   0  0  0  0  0
    4.3680   -4.5910   -2.5300 C   0  0  0  0  0
    5.5700   -5.1480   -2.4820 N   0  0  0  0  0
    6.5140   -4.5440   -1.7300 C   0  0  0  0  0
    6.4060   -3.4210   -0.9990 N   0  0  0  0  0
    4.7200   -1.8800   -0.5450 N   0  0  0  0  0
    3.5580   -1.5310   -0.7300 C   0  0  0  0  0
    3.0120   -2.4770   -1.5850 C   0  0  0  0  0
    3.3380   -5.2100   -3.3370 N   0  0  0  0  0
    1.5650   -2.5020   -2.0830 C   0  0  0  0  0
    5.5960   -1.0510    0.3030 C   0  0  0  0  0
    5.3050    0.4320    0.0590 C   0  0  0  0  0
    6.3010    1.3300    0.7960 C   0  0  0  0  0
    6.3790    1.0640    2.3030 C   0  0  0  0  0
    6.5240   -0.4410    2.5660 C   0  0  0  0  0
    5.4890   -1.2910    1.8080 C   0  0  0  0  0
    0.9420   -1.3820   -2.6260 C   0  0  0  0  0
   -0.3850   -1.4400   -3.0470 C   0  0  0  0  0
   -1.1070   -2.6160   -2.9270 C   0  0  0  0  0
   -0.4990   -3.7180   -2.3520 C   0  0  0  0  0
    0.8240   -3.6650   -1.9350 C   0  0  0  0  0
   -2.4650   -2.7420   -3.2830 O   0  0  0  0  0
    7.5220    1.8140    2.8170 N   0  3  0  0  0
    6.3940    2.5590    4.8890 C   0  0  0  0  0
    7.5920    1.8350    4.2730 C   0  0  0  0  0
    8.8530    2.5770    4.7200 C   0  0  0  0  0
   10.0950    1.7370    4.4360 C   0  0  0  0  0
   11.3400    2.6200    4.5090 C   0  0  0  0  0
   10.1950    0.6080    5.4610 C   0  0  0  0  0
   -2.9470   -2.2320   -4.4900 C   0  0  0  0  0
   -4.1930   -1.6170   -4.4750 C   0  0  0  0  0
   -4.7390   -1.1200   -5.6470 C   0  0  0  0  0
   -4.0430   -1.2370   -6.8350 C   0  0  0  0  0
   -2.8050   -1.8630   -6.8520 C   0  0  0  0  0
   -2.2560   -2.3700   -5.6840 C   0  0  0  0  0
    5.9220    2.1610    5.9010 O   0  0  0  0  0
    4.5190    3.9420    4.6350 C   0  0  0  0  0
    4.3430    5.4130    5.0140 C   0  0  0  0  0
    5.1860   -2.9110   -1.0860 C   0  0  0  0  0
    7.4898   -5.0293   -1.7132 H   0  0  0  0  0
    3.0584   -0.6583   -0.3095 H   0  0  0  0  0
    2.4097   -4.7906   -3.3886 H   0  0  0  0  0
    3.5405   -6.0656   -3.8540 H   0  0  0  0  0
    6.6032   -1.3450    0.0076 H   0  0  0  0  0
    4.3036    0.6520    0.4291 H   0  0  0  0  0
    5.3897    0.6283   -1.0098 H   0  0  0  0  0
    5.9678    2.3595    0.6652 H   0  0  0  0  0
    7.2882    1.1293    0.3797 H   0  0  0  0  0
    5.4696    1.3871    2.8096 H   0  0  0  0  0
    6.3702   -0.6064    3.6323 H   0  0  0  0  0
    7.5138   -0.7425    2.2233 H   0  0  0  0  0
    5.6790   -2.3447    2.0124 H   0  0  0  0  0
    4.4895   -1.0106    2.1405 H   0  0  0  0  0
    1.4981   -0.4496   -2.7229 H   0  0  0  0  0
   -0.8576   -0.5550   -3.4731 H   0  0  0  0  0
   -1.0664   -4.6399   -2.2248 H   0  0  0  0  0
    1.2847   -4.5455   -1.4871 H   0  0  0  0  0
    7.4252    2.7785    2.4995 H   0  0  0  0  0
    8.3681    1.3586    2.4747 H   0  0  0  0  0
    7.5998    0.7974    4.6069 H   0  0  0  0  0
    8.7912    2.7675    5.7914 H   0  0  0  0  0
    8.9261    3.5152    4.1699 H   0  0  0  0  0
   10.0218    1.3069    3.4371 H   0  0  0  0  0
   11.2634    3.4158    3.7681 H   0  0  0  0  0
   11.4170    3.0556    5.5052 H   0  0  0  0  0
   12.2245    2.0163    4.3056 H   0  0  0  0  0
   10.2654    1.0331    6.4622 H   0  0  0  0  0
    9.3078   -0.0216    5.3938 H   0  0  0  0  0
   11.0829    0.0100    5.2555 H   0  0  0  0  0
   -4.7424   -1.5254   -3.5381 H   0  0  0  0  0
   -5.7162   -0.6373   -5.6322 H   0  0  0  0  0
   -4.4659   -0.8382   -7.7571 H   0  0  0  0  0
   -2.2596   -1.9570   -7.7910 H   0  0  0  0  0
   -1.2892   -2.8729   -5.7044 H   0  0  0  0  0
    4.2496    3.3165    5.4860 H   0  0  0  0  0
    3.8758    3.7097    3.7862 H   0  0  0  0  0
    4.9870    5.6481    5.8614 H   0  0  0  0  0
    4.6140    6.0406    4.1650 H   0  0  0  0  0
    3.3030    5.5952    5.2848 H   0  0  0  0  0
 25  1  1  0  0  0
  1 38  1  0  0  0
  2  3  4  0  0  0
  2  9  4  0  0  0
 40  2  4  0  0  0
  3  4  4  0  0  0
  3 10  1  0  0  0
  5  4  4  0  0  0
  6  5  4  0  0  0
 40  6  4  0  0  0
  7  8  4  0  0  0
 12  7  1  0  0  0
  7 40  4  0  0  0
  8  9  4  0  0  0
  9 11  1  0  0  0
 11 18  4  0  0  0
 11 22  4  0  0  0
 13 12  1  0  0  0
 17 12  1  0  0  0
 14 13  1  0  0  0
 15 14  1  0  0  0
 15 16  1  0  0  0
 24 15  1  0  0  0
 16 17  1  0  0  0
 18 19  4  0  0  0
 19 20  4  0  0  0
 21 20  4  0  0  0
 20 23  1  0  0  0
 22 21  4  0  0  0
 23 31  1  0  0  0
 26 24  1  0  0  0
 25 26  1  0  0  0
 25 37  2  0  0  0
 26 27  1  0  0  0
 27 28  1  0  0  0
 28 29  1  0  0  0
 28 30  1  0  0  0
 31 32  4  0  0  0
 31 36  4  0  0  0
 32 33  4  0  0  0
 33 34  4  0  0  0
 34 35  4  0  0  0
 35 36  4  0  0  0
 38 39  1  0  0  0
  5 41  1  0  0  0
  8 42  1  0  0  0
 10 43  1  0  0  0
 10 44  1  0  0  0
 12 45  1  0  0  0
 13 46  1  0  0  0
 13 47  1  0  0  0
 14 48  1  0  0  0
 14 49  1  0  0  0
 15 50  1  0  0  0
 16 51  1  0  0  0
 16 52  1  0  0  0
 17 53  1  0  0  0
 17 54  1  0  0  0
 18 55  1  0  0  0
 19 56  1  0  0  0
 21 57  1  0  0  0
 22 58  1  0  0  0
 24 59  1  0  0  0
 24 60  1  0  0  0
 26 61  1  0  0  0
 27 62  1  0  0  0
 27 63  1  0  0  0
 28 64  1  0  0  0
 29 65  1  0  0  0
 29 66  1  0  0  0
 29 67  1  0  0  0
 30 68  1  0  0  0
 30 69  1  0  0  0
 30 70  1  0  0  0
 32 71  1  0  0  0
 33 72  1  0  0  0
 34 73  1  0  0  0
 35 74  1  0  0  0
 36 75  1  0  0  0
 38 76  1  0  0  0
 38 77  1  0  0  0
 39 78  1  0  0  0
 39 79  1  0  0  0
 39 80  1  0  0  0
M  END
$$$$
