### 
### Created by X-TOOL on Mon Sep 10 21:13:03 2018
### 

@<TRIPOS>MOLECULE
3hdk_ligand
  123   122     1     0     0
SMALL
GAST_HUCK


@<TRIPOS>ATOM
      1 C           4.4900   -8.8850   16.2480 C.2       1 2NC         0.1752
      2 O           3.5460   -8.2910   16.7750 O.2       1 2NC        -0.3972
      3 CH3         4.2600   -9.6940   14.9990 C.3       1 2NC         0.0258
      4 N           5.7670   -8.5860   16.5290 N.am      1 2NC        -0.2635
      5 CA          6.2250   -7.9400   17.7590 C.3       1 2NC         0.1564
      6 C1          6.8150   -6.5250   17.5800 C.2       1 2NC         0.2065
      7 O1          7.1550   -5.8710   18.5820 O.2       1 2NC        -0.3943
      8 CB          7.2600   -8.7630   18.4920 C.3       1 2NC         0.0924
      9 OG1         8.4680   -8.8230   17.7450 O.3       1 2NC        -0.3874
     10 CG2         6.7440  -10.2140   18.7610 C.3       1 2NC        -0.0346
     11 N1          6.9310   -6.0510   16.3410 N.am      1 2NC        -0.2634
     12 CA1         7.5330   -4.7650   16.1180 C.3       1 2NC         0.1334
     13 C2          6.4870   -3.8390   15.4560 C.2       1 2NC         0.2023
     14 O2          6.4560   -3.6650   14.2620 O.2       1 2NC        -0.3945
     15 CB1         8.8590   -4.8730   15.2790 C.3       1 2NC        -0.0037
     16 CG1         9.8300   -5.9260   15.8460 C.3       1 2NC        -0.0491
     17 CG21        9.5280   -3.4950   15.1270 C.3       1 2NC        -0.0582
     18 CD1        10.2480   -5.7430   17.3260 C.3       1 2NC        -0.0648
     19 N2          5.6140   -3.2610   16.2550 N.am      1 2NC        -0.2769
     20 CA2         4.4820   -2.5200   15.6720 C.3       1 2NC         0.0817
     21 C3          4.7180   -1.0000   15.5370 C.3       1 2NC        -0.0081
     22 CB2         3.2070   -2.8670   16.4710 C.3       1 2NC        -0.0249
     23 CG          2.9540   -4.4020   16.6540 C.3       1 2NC        -0.0510
     24 CD          2.8490   -5.1190   15.3030 C.3       1 2NC        -0.0558
     25 CE          1.6890   -4.5760   14.5070 C.3       1 2NC        -0.0653
     26 N3          5.8510   -0.6350   14.8780 N.4       1 2NC         0.2477
     27 CA3         5.8940    0.5660   14.0390 C.3       1 2NC         0.0668
     28 C4          4.8340    0.4460   12.9050 C.2       1 2NC         0.2268
     29 O3          4.6100   -0.6210   12.2970 O.2       1 2NC        -0.3907
     30 CB3         7.2980    0.7230   13.4270 C.3       1 2NC         0.0079
     31 CG3         7.5450    1.9620   12.5480 C.3       1 2NC        -0.0460
     32 CD2         7.6010    1.6170   11.0690 C.3       1 2NC        -0.0556
     33 CE1         8.8190    0.7460   10.7250 C.3       1 2NC        -0.0653
     34 N4          4.2200    1.5600   12.5700 N.am      1 2NC        -0.2609
     35 CA4         3.1950    1.5380   11.5140 C.3       1 2NC         0.1331
     36 C5          3.2140    2.9320   10.8780 C.2       1 2NC         0.2040
     37 O4          3.2730    3.9230   11.5920 O.2       1 2NC        -0.3944
     38 CB4         1.8240    1.2760   12.0900 C.3       1 2NC         0.0045
     39 CG4         0.7160    1.3750   10.9910 C.3       1 2NC         0.0412
     40 CD3         0.1100    2.8020   10.8990 C.2       1 2NC         0.1737
     41 OE1         0.1450    3.5310   11.8580 O.2       1 2NC        -0.3973
     42 NE2        -0.4900    3.1490    9.7690 N.am      1 2NC        -0.3009
     43 N5          3.1410    2.9830    9.5550 N.am      1 2NC        -0.2637
     44 CA5         3.2850    4.2220    8.7980 C.3       1 2NC         0.1307
     45 C6          2.0890    4.4380    7.9140 C.2       1 2NC         0.1992
     46 O5          1.6310    3.4980    7.2300 O.2       1 2NC        -0.3947
     47 CB5         4.5500    4.1590    7.9430 C.3       1 2NC        -0.0092
     48 CG5         5.7680    4.7190    8.6860 C.3       1 2NC        -0.0156
     49 CD4         6.1580    6.1720    8.2460 C.3       1 2NC         0.0627
     50 NE          5.2960    7.2550    8.7520 N.pl3     1 2NC        -0.2723
     51 CZ          5.7410    8.4470    9.1430 C.cat     1 2NC         0.2882
     52 NH1         7.0470    8.7250    9.1290 N.pl3     1 2NC        -0.2849
     53 NH2         4.8900    9.3730    9.5680 N.pl3     1 2NC        -0.2849
     54 N6          1.4480    5.6010    8.0000 N.am      1 2NC        -0.2990
     55 H           3.5325  -10.4791   15.2050 H         1 2NC         0.0467
     56 H           3.8810   -9.0434   14.2109 H         1 2NC         0.0467
     57 H           5.2006  -10.1431   14.6802 H         1 2NC         0.0467
     58 H           6.4720   -8.8273   15.8325 H         1 2NC         0.1883
     59 H           5.3040   -7.8554   18.3357 H         1 2NC         0.0826
     60 H           7.4483   -8.2766   19.4491 H         1 2NC         0.0639
     61 H           8.2952   -9.2265   16.8912 H         1 2NC         0.2101
     62 H           6.5607  -10.7151   17.8105 H         1 2NC         0.0257
     63 H           7.4950  -10.7665   19.3256 H         1 2NC         0.0257
     64 H           5.8177  -10.1685   19.3338 H         1 2NC         0.0257
     65 H           6.5929   -6.6002   15.5507 H         1 2NC         0.1883
     66 H           7.8319   -4.3334   17.0732 H         1 2NC         0.0802
     67 H           8.5838   -5.2207   14.2833 H         1 2NC         0.0345
     68 H          10.7447   -5.8444   15.2588 H         1 2NC         0.0267
     69 H           9.3082   -6.8815   15.7928 H         1 2NC         0.0267
     70 H           8.8451   -2.8152   14.6174 H         1 2NC         0.0235
     71 H           9.7686   -3.0985   16.1134 H         1 2NC         0.0235
     72 H          10.4424   -3.5989   14.5429 H         1 2NC         0.0235
     73 H          10.7441   -4.7798   17.4457 H         1 2NC         0.0230
     74 H           9.3617   -5.7779   17.9595 H         1 2NC         0.0230
     75 H          10.9314   -6.5430   17.6108 H         1 2NC         0.0230
     76 H           5.7206   -3.3258   17.2673 H         1 2NC         0.1857
     77 H           4.3623   -2.8416   14.6374 H         1 2NC         0.0609
     78 H           4.8118   -0.6110   16.5509 H         1 2NC         0.0837
     79 H           3.8832   -0.6085   14.9558 H         1 2NC         0.0837
     80 H           2.3609   -2.4684   15.9112 H         1 2NC         0.0289
     81 H           3.3291   -2.4424   17.4675 H         1 2NC         0.0289
     82 H           2.0142   -4.5356   17.1898 H         1 2NC         0.0266
     83 H           3.7924   -4.8267   17.2061 H         1 2NC         0.0266
     84 H           2.6918   -6.1834   15.4778 H         1 2NC         0.0263
     85 H           3.7700   -4.9569   14.7431 H         1 2NC         0.0263
     86 H           0.7645   -4.7298   15.0635 H         1 2NC         0.0230
     87 H           1.8367   -3.5102   14.3329 H         1 2NC         0.0230
     88 H           1.6303   -5.0969   13.5513 H         1 2NC         0.0230
     89 H           6.0070   -1.3983   14.2196 H         1 2NC         0.2036
     90 H           6.5144   -0.4339   15.6262 H         1 2NC         0.2036
     91 H           5.6717    1.4416   14.6489 H         1 2NC         0.1099
     92 H           7.4341   -0.1375   12.7719 H         1 2NC         0.0346
     93 H           7.9809    0.8172   14.2713 H         1 2NC         0.0346
     94 H           8.5054    2.3923   12.8318 H         1 2NC         0.0269
     95 H           6.7193    2.6566   12.7025 H         1 2NC         0.0269
     96 H           7.6777    2.5469   10.5054 H         1 2NC         0.0263
     97 H           6.7004    1.0576   10.8158 H         1 2NC         0.0263
     98 H           9.7321    1.2818   10.9843 H         1 2NC         0.0230
     99 H           8.7696   -0.1849   11.2900 H         1 2NC         0.0230
    100 H           8.8164    0.5253    9.6576 H         1 2NC         0.0230
    101 H           4.4531    2.4349   13.0398 H         1 2NC         0.1885
    102 H           3.4047    0.7471   10.7939 H         1 2NC         0.0801
    103 H           1.6208    2.0250   12.8553 H         1 2NC         0.0337
    104 H           1.8099    0.2688   12.5065 H         1 2NC         0.0337
    105 H          -0.0841    0.6821   11.2515 H         1 2NC         0.0504
    106 H           1.1690    1.1354   10.0290 H         1 2NC         0.0504
    107 H          -0.9425    4.0598    9.6906 H         1 2NC         0.1814
    108 H          -0.4992    2.5052    8.9779 H         1 2NC         0.1814
    109 H           2.9766    2.1163    9.0430 H         1 2NC         0.1883
    110 H           3.3593    5.0537    9.4986 H         1 2NC         0.0800
    111 H           4.3887    4.7598    7.0480 H         1 2NC         0.0313
    112 H           4.7474    3.1150    7.6998 H         1 2NC         0.0313
    113 H           6.6148    4.0708    8.4605 H         1 2NC         0.0301
    114 H           5.5162    4.7550    9.7459 H         1 2NC         0.0301
    115 H           6.0725    6.1956    7.1596 H         1 2NC         0.0689
    116 H           7.1523    6.3578    8.6522 H         1 2NC         0.0689
    117 H           4.2926    7.0796    8.8061 H         1 2NC         0.2642
    118 H           7.7151    8.0205    8.8164 H         1 2NC         0.2615
    119 H           7.3765    9.6419    9.4309 H         1 2NC         0.2615
    120 H           3.8903    9.1726    9.5960 H         1 2NC         0.2615
    121 H           5.2359   10.2849    9.8666 H         1 2NC         0.2615
    122 H           0.5677    5.7362    7.5027 H         1 2NC         0.1815
    123 H           1.8369    6.3573    8.5632 H         1 2NC         0.1815
@<TRIPOS>BOND
     1    1    2 2  
     2    1    3 1  
     3    1    4 am 
     4    4    5 1  
     5    5    6 1  
     6    5    8 1  
     7    6    7 2  
     8    6   11 am 
     9    8    9 1  
    10    8   10 1  
    11   11   12 1  
    12   12   13 1  
    13   12   15 1  
    14   13   14 2  
    15   13   19 am 
    16   15   16 1  
    17   15   17 1  
    18   16   18 1  
    19   19   20 1  
    20   20   21 1  
    21   20   22 1  
    22   21   26 1  
    23   22   23 1  
    24   23   24 1  
    25   24   25 1  
    26   26   27 1  
    27   27   28 1  
    28   27   30 1  
    29   28   29 2  
    30   28   34 am 
    31   30   31 1  
    32   31   32 1  
    33   32   33 1  
    34   34   35 1  
    35   35   36 1  
    36   35   38 1  
    37   36   37 2  
    38   36   43 am 
    39   38   39 1  
    40   39   40 1  
    41   40   41 2  
    42   40   42 am 
    43   43   44 1  
    44   44   45 1  
    45   44   47 1  
    46   45   46 2  
    47   45   54 am 
    48   47   48 1  
    49   48   49 1  
    50   49   50 1  
    51   50   51 ar 
    52   51   52 ar 
    53   51   53 ar 
    54    3   55 1  
    55    3   56 1  
    56    3   57 1  
    57    4   58 1  
    58    5   59 1  
    59    8   60 1  
    60    9   61 1  
    61   10   62 1  
    62   10   63 1  
    63   10   64 1  
    64   11   65 1  
    65   12   66 1  
    66   15   67 1  
    67   16   68 1  
    68   16   69 1  
    69   17   70 1  
    70   17   71 1  
    71   17   72 1  
    72   18   73 1  
    73   18   74 1  
    74   18   75 1  
    75   19   76 1  
    76   20   77 1  
    77   21   78 1  
    78   21   79 1  
    79   22   80 1  
    80   22   81 1  
    81   23   82 1  
    82   23   83 1  
    83   24   84 1  
    84   24   85 1  
    85   25   86 1  
    86   25   87 1  
    87   25   88 1  
    88   26   89 1  
    89   26   90 1  
    90   27   91 1  
    91   30   92 1  
    92   30   93 1  
    93   31   94 1  
    94   31   95 1  
    95   32   96 1  
    96   32   97 1  
    97   33   98 1  
    98   33   99 1  
    99   33  100 1  
   100   34  101 1  
   101   35  102 1  
   102   38  103 1  
   103   38  104 1  
   104   39  105 1  
   105   39  106 1  
   106   42  107 1  
   107   42  108 1  
   108   43  109 1  
   109   44  110 1  
   110   47  111 1  
   111   47  112 1  
   112   48  113 1  
   113   48  114 1  
   114   49  115 1  
   115   49  116 1  
   116   50  117 1  
   117   52  118 1  
   118   52  119 1  
   119   53  120 1  
   120   53  121 1  
   121   54  122 1  
   122   54  123 1  
@<TRIPOS>SUBSTRUCTURE
     1 2NC         1

