3hdk_ligand
  -I-interpret- 

122121  0  0  0  0  0  0  0  0999 V2000
    4.4900   -8.8850   16.2480 C   0  0  0  0  0
    3.5460   -8.2910   16.7750 O   0  0  0  0  0
    4.2600   -9.6940   14.9990 C   0  0  0  0  0
    5.7670   -8.5860   16.5290 N   0  0  0  0  0
    6.2250   -7.9400   17.7590 C   0  0  0  0  0
    6.8150   -6.5250   17.5800 C   0  0  0  0  0
    7.1550   -5.8710   18.5820 O   0  0  0  0  0
    7.2600   -8.7630   18.4920 C   0  0  0  0  0
    8.4680   -8.8230   17.7450 O   0  0  0  0  0
    6.7440  -10.2140   18.7610 C   0  0  0  0  0
    6.9310   -6.0510   16.3410 N   0  0  0  0  0
    7.5330   -4.7650   16.1180 C   0  0  0  0  0
    6.4870   -3.8390   15.4560 C   0  0  0  0  0
    6.4560   -3.6650   14.2620 O   0  0  0  0  0
    8.8590   -4.8730   15.2790 C   0  0  0  0  0
    9.8300   -5.9260   15.8460 C   0  0  0  0  0
    9.5280   -3.4950   15.1270 C   0  0  0  0  0
   10.2480   -5.7430   17.3260 C   0  0  0  0  0
    5.6140   -3.2610   16.2550 N   0  0  0  0  0
    4.4820   -2.5200   15.6720 C   0  0  0  0  0
    4.7180   -1.0000   15.5370 C   0  0  0  0  0
    3.2070   -2.8670   16.4710 C   0  0  0  0  0
    2.9540   -4.4020   16.6540 C   0  0  0  0  0
    2.8490   -5.1190   15.3030 C   0  0  0  0  0
    1.6890   -4.5760   14.5070 C   0  0  0  0  0
    5.8510   -0.6350   14.8780 N   0  3  0  0  0
    5.8940    0.5660   14.0390 C   0  0  0  0  0
    4.8340    0.4460   12.9050 C   0  0  0  0  0
    4.6100   -0.6210   12.2970 O   0  0  0  0  0
    7.2980    0.7230   13.4270 C   0  0  0  0  0
    7.5450    1.9620   12.5480 C   0  0  0  0  0
    7.6010    1.6170   11.0690 C   0  0  0  0  0
    8.8190    0.7460   10.7250 C   0  0  0  0  0
    4.2200    1.5600   12.5700 N   0  0  0  0  0
    3.1950    1.5380   11.5140 C   0  0  0  0  0
    3.2140    2.9320   10.8780 C   0  0  0  0  0
    3.2730    3.9230   11.5920 O   0  0  0  0  0
    1.8240    1.2760   12.0900 C   0  0  0  0  0
    0.7160    1.3750   10.9910 C   0  0  0  0  0
    0.1100    2.8020   10.8990 C   0  0  0  0  0
    0.1450    3.5310   11.8580 O   0  0  0  0  0
   -0.4900    3.1490    9.7690 N   0  0  0  0  0
    3.1410    2.9830    9.5550 N   0  0  0  0  0
    3.2850    4.2220    8.7980 C   0  0  0  0  0
    2.0890    4.4380    7.9140 C   0  0  0  0  0
    1.6310    3.4980    7.2300 O   0  0  0  0  0
    4.5500    4.1590    7.9430 C   0  0  0  0  0
    5.7680    4.7190    8.6860 C   0  0  0  0  0
    6.1580    6.1720    8.2460 C   0  0  0  0  0
    5.2960    7.2550    8.7520 N   0  0  0  0  0
    5.7410    8.4470    9.1430 C   0  0  0  0  0
    7.0470    8.7250    9.1290 N   0  0  0  0  0
    4.8900    9.3730    9.5680 N   0  0  0  0  0
    1.4480    5.6010    8.0000 N   0  0  0  0  0
    3.5325  -10.4791   15.2050 H   0  0  0  0  0
    3.8810   -9.0434   14.2109 H   0  0  0  0  0
    5.2006  -10.1431   14.6802 H   0  0  0  0  0
    6.4720   -8.8273   15.8325 H   0  0  0  0  0
    5.3040   -7.8554   18.3357 H   0  0  0  0  0
    7.4483   -8.2766   19.4491 H   0  0  0  0  0
    8.7852   -7.9321   17.5796 H   0  0  0  0  0
    6.5607  -10.7151   17.8105 H   0  0  0  0  0
    7.4950  -10.7665   19.3256 H   0  0  0  0  0
    5.8177  -10.1685   19.3338 H   0  0  0  0  0
    6.5929   -6.6002   15.5507 H   0  0  0  0  0
    7.8319   -4.3334   17.0732 H   0  0  0  0  0
    8.5838   -5.2207   14.2833 H   0  0  0  0  0
   10.7447   -5.8444   15.2588 H   0  0  0  0  0
    9.3082   -6.8815   15.7928 H   0  0  0  0  0
    8.8451   -2.8152   14.6174 H   0  0  0  0  0
    9.7686   -3.0985   16.1134 H   0  0  0  0  0
   10.4424   -3.5989   14.5429 H   0  0  0  0  0
   10.7441   -4.7798   17.4457 H   0  0  0  0  0
    9.3617   -5.7779   17.9595 H   0  0  0  0  0
   10.9314   -6.5430   17.6108 H   0  0  0  0  0
    5.7206   -3.3258   17.2673 H   0  0  0  0  0
    4.3623   -2.8416   14.6374 H   0  0  0  0  0
    4.8118   -0.6110   16.5509 H   0  0  0  0  0
    3.8832   -0.6085   14.9558 H   0  0  0  0  0
    2.3609   -2.4684   15.9112 H   0  0  0  0  0
    3.3291   -2.4424   17.4675 H   0  0  0  0  0
    2.0142   -4.5356   17.1898 H   0  0  0  0  0
    3.7924   -4.8267   17.2061 H   0  0  0  0  0
    2.6918   -6.1834   15.4778 H   0  0  0  0  0
    3.7700   -4.9569   14.7431 H   0  0  0  0  0
    0.7645   -4.7298   15.0635 H   0  0  0  0  0
    1.8367   -3.5102   14.3329 H   0  0  0  0  0
    1.6303   -5.0969   13.5513 H   0  0  0  0  0
    6.0070   -1.3983   14.2196 H   0  0  0  0  0
    6.5144   -0.4339   15.6262 H   0  0  0  0  0
    5.6717    1.4416   14.6489 H   0  0  0  0  0
    7.4341   -0.1375   12.7719 H   0  0  0  0  0
    7.9809    0.8172   14.2713 H   0  0  0  0  0
    8.5054    2.3923   12.8318 H   0  0  0  0  0
    6.7193    2.6566   12.7025 H   0  0  0  0  0
    7.6777    2.5469   10.5054 H   0  0  0  0  0
    6.7004    1.0576   10.8158 H   0  0  0  0  0
    9.7321    1.2818   10.9843 H   0  0  0  0  0
    8.7696   -0.1849   11.2900 H   0  0  0  0  0
    8.8164    0.5253    9.6576 H   0  0  0  0  0
    4.4531    2.4349   13.0398 H   0  0  0  0  0
    3.4047    0.7471   10.7939 H   0  0  0  0  0
    1.6208    2.0250   12.8553 H   0  0  0  0  0
    1.8099    0.2688   12.5065 H   0  0  0  0  0
   -0.0841    0.6821   11.2515 H   0  0  0  0  0
    1.1690    1.1354   10.0290 H   0  0  0  0  0
   -0.9425    4.0598    9.6906 H   0  0  0  0  0
   -0.4992    2.5052    8.9779 H   0  0  0  0  0
    2.9766    2.1163    9.0430 H   0  0  0  0  0
    3.3593    5.0537    9.4986 H   0  0  0  0  0
    4.3887    4.7598    7.0480 H   0  0  0  0  0
    4.7474    3.1150    7.6998 H   0  0  0  0  0
    6.6148    4.0708    8.4605 H   0  0  0  0  0
    5.5162    4.7550    9.7459 H   0  0  0  0  0
    6.0725    6.1956    7.1596 H   0  0  0  0  0
    7.1523    6.3578    8.6522 H   0  0  0  0  0
    4.2926    7.0796    8.8061 H   0  0  0  0  0
    7.3775    9.6378    9.4419 H   0  0  0  0  0
    7.7141    8.0245    8.8054 H   0  0  0  0  0
    3.8903    9.1726    9.5960 H   0  0  0  0  0
    0.5677    5.7362    7.5027 H   0  0  0  0  0
    1.8369    6.3573    8.5632 H   0  0  0  0  0
  1  2  2  0  0  0
  1  3  1  0  0  0
  1  4  1  0  0  0
  4  5  1  0  0  0
  5  6  1  0  0  0
  5  8  1  0  0  0
  6  7  2  0  0  0
  6 11  1  0  0  0
  8  9  1  0  0  0
  8 10  1  0  0  0
 11 12  1  0  0  0
 12 13  1  0  0  0
 12 15  1  0  0  0
 13 14  2  0  0  0
 13 19  1  0  0  0
 15 16  1  0  0  0
 15 17  1  0  0  0
 16 18  1  0  0  0
 19 20  1  0  0  0
 20 21  1  0  0  0
 20 22  1  0  0  0
 21 26  1  0  0  0
 22 23  1  0  0  0
 23 24  1  0  0  0
 24 25  1  0  0  0
 26 27  1  0  0  0
 27 28  1  0  0  0
 27 30  1  0  0  0
 28 29  2  0  0  0
 28 34  1  0  0  0
 30 31  1  0  0  0
 31 32  1  0  0  0
 32 33  1  0  0  0
 34 35  1  0  0  0
 35 36  1  0  0  0
 35 38  1  0  0  0
 36 37  2  0  0  0
 36 43  1  0  0  0
 38 39  1  0  0  0
 39 40  1  0  0  0
 40 41  2  0  0  0
 40 42  1  0  0  0
 43 44  1  0  0  0
 44 45  1  0  0  0
 44 47  1  0  0  0
 45 46  2  0  0  0
 45 54  1  0  0  0
 47 48  1  0  0  0
 48 49  1  0  0  0
 49 50  1  0  0  0
 50 51  1  0  0  0
 51 52  1  0  0  0
 51 53  2  0  0  0
  3 55  1  0  0  0
  3 56  1  0  0  0
  3 57  1  0  0  0
  4 58  1  0  0  0
  5 59  1  0  0  0
  8 60  1  0  0  0
  9 61  1  0  0  0
 10 62  1  0  0  0
 10 63  1  0  0  0
 10 64  1  0  0  0
 11 65  1  0  0  0
 12 66  1  0  0  0
 15 67  1  0  0  0
 16 68  1  0  0  0
 16 69  1  0  0  0
 17 70  1  0  0  0
 17 71  1  0  0  0
 17 72  1  0  0  0
 18 73  1  0  0  0
 18 74  1  0  0  0
 18 75  1  0  0  0
 19 76  1  0  0  0
 20 77  1  0  0  0
 21 78  1  0  0  0
 21 79  1  0  0  0
 22 80  1  0  0  0
 22 81  1  0  0  0
 23 82  1  0  0  0
 23 83  1  0  0  0
 24 84  1  0  0  0
 24 85  1  0  0  0
 25 86  1  0  0  0
 25 87  1  0  0  0
 25 88  1  0  0  0
 26 89  1  0  0  0
 26 90  1  0  0  0
 27 91  1  0  0  0
 30 92  1  0  0  0
 30 93  1  0  0  0
 31 94  1  0  0  0
 31 95  1  0  0  0
 32 96  1  0  0  0
 32 97  1  0  0  0
 33 98  1  0  0  0
 33 99  1  0  0  0
 33100  1  0  0  0
 34101  1  0  0  0
 35102  1  0  0  0
 38103  1  0  0  0
 38104  1  0  0  0
 39105  1  0  0  0
 39106  1  0  0  0
 42107  1  0  0  0
 42108  1  0  0  0
 43109  1  0  0  0
 44110  1  0  0  0
 47111  1  0  0  0
 47112  1  0  0  0
 48113  1  0  0  0
 48114  1  0  0  0
 49115  1  0  0  0
 49116  1  0  0  0
 50117  1  0  0  0
 52118  1  0  0  0
 52119  1  0  0  0
 53120  1  0  0  0
 54121  1  0  0  0
 54122  1  0  0  0
M  END
$$$$
