5n93_ligand
  -I-interpret- 

 44 45  0  0  0  0  0  0  0  0999 V2000
    1.6480   36.4300   49.3510 C   0  0  0  0  0
    1.4070   34.0820   48.9950 C   0  0  0  0  0
    1.0740   34.3040   47.6690 C   0  0  0  0  0
    1.0700   35.5940   47.1730 C   0  0  0  0  0
   -0.0660   33.1430   45.8270 C   0  0  0  0  0
   -1.7490   32.9020   43.6300 C   0  0  0  0  0
   -1.3940   34.2210   44.2260 C   0  0  0  0  0
   -2.5750   32.7750   42.6790 C   0  0  0  0  0
   -3.3700   32.6020   41.8420 N   0  0  0  0  0
   -1.1910   31.7110   44.2710 C   0  0  0  0  0
   -1.4950   30.3580   43.7740 N   0  0  0  0  0
   -0.3510   31.8830   45.3490 C   0  0  0  0  0
   -1.9300   35.3290   43.6180 N   0  0  0  0  0
   -1.4420   36.6700   43.8990 C   0  0  0  0  0
   -1.9450   37.0830   45.2750 C   0  0  0  0  0
   -2.1590   37.4530   42.8000 C   0  0  0  0  0
    0.0490   36.8140   43.7860 C   0  0  0  0  0
   -0.5660   34.2650   45.2570 N   0  0  0  0  0
    0.8030   33.1390   46.9130 N   0  0  0  0  0
    1.6820   35.1400   49.8420 C   0  0  0  0  0
    1.3400   36.6570   48.0120 C   0  0  0  0  0
    1.9760   37.5770   50.2600 C   0  0  0  0  0
    1.8860   37.4740   51.4710 O   0  0  0  0  0
    2.4180   38.7760   49.6650 N   0  0  0  0  0
    1.4528   33.0615   49.3753 H   0  0  0  0  0
    0.8537   35.7723   46.1196 H   0  0  0  0  0
   -2.1063   30.2367   42.9665 H   0  0  0  0  0
   -1.0942   29.5425   44.2373 H   0  0  0  0  0
    0.0936   31.0115   45.8296 H   0  0  0  0  0
   -2.6918   35.2084   42.9505 H   0  0  0  0  0
   -3.0349   37.0725   45.2802 H   0  0  0  0  0
   -1.5700   36.3838   46.0224 H   0  0  0  0  0
   -1.5890   38.0874   45.5042 H   0  0  0  0  0
   -1.8579   37.0679   41.8258 H   0  0  0  0  0
   -3.2366   37.3404   42.9194 H   0  0  0  0  0
   -1.8922   38.5073   42.8736 H   0  0  0  0  0
    0.5325   36.1403   44.4935 H   0  0  0  0  0
    0.3611   36.5633   42.7722 H   0  0  0  0  0
    0.3315   37.8425   44.0107 H   0  0  0  0  0
    1.2610   32.2656   47.1736 H   0  0  0  0  0
    1.9237   34.9570   50.8890 H   0  0  0  0  0
    1.3120   37.6758   47.6255 H   0  0  0  0  0
    2.6680   39.5735   50.2496 H   0  0  0  0  0
    2.4878   38.8461   48.6498 H   0  0  0  0  0
 20  1  4  0  0  0
 21  1  4  0  0  0
  1 22  1  0  0  0
  3  2  4  0  0  0
  2 20  4  0  0  0
  3  4  4  0  0  0
 19  3  1  0  0  0
  4 21  4  0  0  0
  5 12  4  0  0  0
 18  5  4  0  0  0
  5 19  1  0  0  0
  7  6  4  0  0  0
  6  8  1  0  0  0
  6 10  4  0  0  0
  7 13  1  0  0  0
  7 18  4  0  0  0
  8  9  3  0  0  0
 10 11  1  0  0  0
 10 12  4  0  0  0
 13 14  1  0  0  0
 14 15  1  0  0  0
 14 16  1  0  0  0
 14 17  1  0  0  0
 22 23  2  0  0  0
 22 24  1  0  0  0
  2 25  1  0  0  0
  4 26  1  0  0  0
 11 27  1  0  0  0
 11 28  1  0  0  0
 12 29  1  0  0  0
 13 30  1  0  0  0
 15 31  1  0  0  0
 15 32  1  0  0  0
 15 33  1  0  0  0
 16 34  1  0  0  0
 16 35  1  0  0  0
 16 36  1  0  0  0
 17 37  1  0  0  0
 17 38  1  0  0  0
 17 39  1  0  0  0
 19 40  1  0  0  0
 20 41  1  0  0  0
 21 42  1  0  0  0
 24 43  1  0  0  0
 24 44  1  0  0  0
M  END
$$$$
