1w82_ligand
  -I-interpret- 

 47 49  0  0  0  0  0  0  0  0999 V2000
    4.8900    9.7710   30.9510 Cl  0  0  0  0  0
    5.5580   10.8320   32.1200 C   0  0  0  0  0
    6.9220   11.0560   32.1070 C   0  0  0  0  0
    7.4560   11.9210   33.0210 C   0  0  0  0  0
    4.7180   11.4490   33.0300 C   0  0  0  0  0
    5.2550   12.3190   33.9510 C   0  0  0  0  0
    6.6280   12.5620   33.9570 C   0  0  0  0  0
    7.2840   13.4230   34.8490 N   0  0  0  0  0
    6.8910   13.8890   36.0640 C   0  0  0  0  0
    5.9870   13.3850   36.7030 O   0  0  0  0  0
    7.6240   14.9260   36.5540 N   0  0  0  0  0
    7.6090   15.4520   37.8440 C   0  0  0  0  0
    7.3800   14.7730   38.9880 C   0  0  0  0  0
    7.8820   16.7540   38.1660 N   0  0  0  0  0
    7.7840   16.8430   39.5490 N   0  0  0  0  0
    7.4760   15.6710   40.0350 C   0  0  0  0  0
    7.2910   15.3140   41.4890 C   0  0  0  0  0
    7.0550   16.5960   42.2890 C   0  0  0  0  0
    8.5890   14.6270   41.9220 C   0  0  0  0  0
    6.1220   14.3520   41.7140 C   0  0  0  0  0
    8.1960   17.8280   37.2860 C   0  0  0  0  0
    7.4820   18.0470   36.1060 C   0  0  0  0  0
    7.7980   19.0840   35.2530 C   0  0  0  0  0
    8.8340   19.9350   35.5660 C   0  0  0  0  0
    9.5520   19.7470   36.7290 C   0  0  0  0  0
    9.2360   18.7020   37.5710 C   0  0  0  0  0
    7.5602   10.5521   31.3811 H   0  0  0  0  0
    8.5288   12.1140   33.0234 H   0  0  0  0  0
    3.6466   11.2489   33.0175 H   0  0  0  0  0
    4.6088   12.8169   34.6739 H   0  0  0  0  0
    8.1984   13.7505   34.5375 H   0  0  0  0  0
    8.2626   15.3728   35.8960 H   0  0  0  0  0
    7.1592   13.7088   39.0713 H   0  0  0  0  0
    7.9156   17.2556   42.1780 H   0  0  0  0  0
    6.1615   17.0964   41.9157 H   0  0  0  0  0
    6.9203   16.3464   43.3414 H   0  0  0  0  0
    8.7475   13.7364   41.3139 H   0  0  0  0  0
    9.4245   15.3139   41.7874 H   0  0  0  0  0
    8.5157   14.3433   42.9719 H   0  0  0  0  0
    5.1998   14.8143   41.3620 H   0  0  0  0  0
    6.3011   13.4293   41.1621 H   0  0  0  0  0
    6.0356   14.1297   42.7776 H   0  0  0  0  0
    6.6555   17.3829   35.8530 H   0  0  0  0  0
    7.2295   19.2292   34.3344 H   0  0  0  0  0
    9.0867   20.7565   34.8956 H   0  0  0  0  0
   10.3681   20.4238   36.9819 H   0  0  0  0  0
    9.8167   18.5587   38.4822 H   0  0  0  0  0
  1  2  1  0  0  0
  2  3  4  0  0  0
  2  5  4  0  0  0
  3  4  4  0  0  0
  4  7  4  0  0  0
  5  6  4  0  0  0
  6  7  4  0  0  0
  7  8  1  0  0  0
  8  9  1  0  0  0
  9 10  2  0  0  0
  9 11  1  0  0  0
 11 12  1  0  0  0
 12 13  4  0  0  0
 12 14  4  0  0  0
 13 16  4  0  0  0
 14 15  4  0  0  0
 14 21  1  0  0  0
 15 16  4  0  0  0
 16 17  1  0  0  0
 17 18  1  0  0  0
 17 19  1  0  0  0
 17 20  1  0  0  0
 21 22  4  0  0  0
 21 26  4  0  0  0
 22 23  4  0  0  0
 23 24  4  0  0  0
 24 25  4  0  0  0
 25 26  4  0  0  0
  3 27  1  0  0  0
  4 28  1  0  0  0
  5 29  1  0  0  0
  6 30  1  0  0  0
  8 31  1  0  0  0
 11 32  1  0  0  0
 13 33  1  0  0  0
 18 34  1  0  0  0
 18 35  1  0  0  0
 18 36  1  0  0  0
 19 37  1  0  0  0
 19 38  1  0  0  0
 19 39  1  0  0  0
 20 40  1  0  0  0
 20 41  1  0  0  0
 20 42  1  0  0  0
 22 43  1  0  0  0
 23 44  1  0  0  0
 24 45  1  0  0  0
 25 46  1  0  0  0
 26 47  1  0  0  0
M  END
$$$$
