6hvu_ligand
  -I-interpret- 

 94 96  0  0  0  0  0  0  0  0999 V2000
   54.6420 -132.2600   34.0520 C   0  0  0  0  0
   57.6670 -134.4410   34.2920 C   0  0  0  0  0
   58.8640 -134.8530   34.6250 C   0  0  0  0  0
   60.7340 -134.2900   37.2550 C   0  0  0  0  0
   62.4310 -135.2950   40.1610 C   0  0  0  0  0
   63.1250 -134.8790   42.5280 C   0  0  0  0  0
   63.5490 -132.4610   42.7610 C   0  0  0  0  0
   64.7930 -130.2640   41.6220 C   0  0  0  0  0
   65.4290 -129.2190   41.0100 C   0  0  0  0  0
   64.5470 -132.6190   41.8410 C   0  0  0  0  0
   61.4770 -136.2900   43.5180 C   0  0  0  0  0
   61.5200 -139.0350   42.7450 C   0  0  0  0  0
   55.7670 -133.2690   34.0140 C   0  0  0  0  0
   57.0370 -133.1400   34.7050 S   0  0  0  0  0
   55.7350 -134.4020   33.3290 N   0  0  0  0  0
   56.8590 -135.0960   33.4800 C   0  0  0  0  0
   59.2200 -135.9960   34.4290 O   0  0  0  0  0
   59.5580 -134.0070   35.3090 N   0  0  0  0  0
   60.8970 -134.2810   35.7660 C   0  0  0  0  0
   61.6310 -133.0670   35.2870 C   0  0  0  0  0
   63.0980 -133.1430   35.5090 C   0  0  0  0  0
   63.6370 -134.2040   34.5910 C   0  0  0  0  0
   63.6840 -131.8540   35.0010 C   0  0  0  0  0
   60.0650 -133.4380   37.8090 O   0  0  0  0  0
   61.3490 -135.2300   37.9420 N   0  0  0  0  0
   61.1780 -135.2220   39.3870 C   0  0  0  0  0
   60.5460 -136.5150   39.8160 C   0  0  0  0  0
   59.2210 -136.8370   39.1750 C   0  0  0  0  0
   58.7220 -138.0950   39.7510 C   0  0  0  0  0
   57.4220 -138.4380   39.1360 C   0  0  0  0  0
   56.4720 -137.3690   39.4030 C   0  0  0  0  0
   56.9660 -136.0930   38.8330 C   0  0  0  0  0
   58.2700 -135.7690   39.4600 C   0  0  0  0  0
   63.4790 -135.6670   39.7010 O   0  0  0  0  0
   62.2110 -134.9620   41.3850 N   0  0  0  0  0
   62.9580 -136.1880   43.3160 C   0  0  0  0  0
   60.9200 -137.9190   43.9340 S   0  0  0  0  0
   61.2860 -138.3990   45.2990 O   0  0  0  0  0
   59.4550 -137.8270   43.7770 O   0  0  0  0  0
   63.0130 -133.6020   43.3620 C   0  0  0  0  0
   65.1560 -131.5310   41.2670 C   0  0  0  0  0
   65.0050 -127.9510   41.5600 N   0  3  0  0  0
   63.8140 -130.0810   42.5670 C   0  0  0  0  0
   63.2030 -131.1790   43.1440 C   0  0  0  0  0
   54.3075 -132.1293   35.0811 H   0  0  0  0  0
   54.9971 -131.3069   33.6602 H   0  0  0  0  0
   53.8130 -132.6189   33.4420 H   0  0  0  0  0
   64.1514 -134.7856   42.1733 H   0  0  0  0  0
   65.1824 -129.2365   39.9484 H   0  0  0  0  0
   66.5021 -129.3248   41.1692 H   0  0  0  0  0
   64.8639 -133.6231   41.5590 H   0  0  0  0  0
   61.0017 -136.0155   42.5763 H   0  0  0  0  0
   61.2176 -135.6362   44.3507 H   0  0  0  0  0
   62.6047 -139.1033   42.8274 H   0  0  0  0  0
   61.0789 -140.0171   42.9151 H   0  0  0  0  0
   61.2514 -138.6822   41.7493 H   0  0  0  0  0
   57.0782 -136.0538   33.0081 H   0  0  0  0  0
   59.1404 -133.1046   35.5362 H   0  0  0  0  0
   61.3985 -135.1919   35.4391 H   0  0  0  0  0
   61.2562 -132.2117   35.8492 H   0  0  0  0  0
   61.4638 -132.9828   34.2132 H   0  0  0  0  0
   63.3264 -133.3359   36.5572 H   0  0  0  0  0
   63.1651 -135.1585   34.8243 H   0  0  0  0  0
   63.4202 -133.9330   33.5577 H   0  0  0  0  0
   64.7152 -134.2873   34.7276 H   0  0  0  0  0
   63.4584 -131.7471   33.9400 H   0  0  0  0  0
   63.2523 -131.0182   35.5516 H   0  0  0  0  0
   64.7644 -131.8660   35.1446 H   0  0  0  0  0
   61.9224 -135.9356   37.4797 H   0  0  0  0  0
   60.6276 -134.2993   39.5708 H   0  0  0  0  0
   60.3587 -136.4275   40.8862 H   0  0  0  0  0
   61.2332 -137.3080   39.5209 H   0  0  0  0  0
   59.3404 -136.9338   38.0959 H   0  0  0  0  0
   58.5945 -137.9763   40.8270 H   0  0  0  0  0
   59.4381 -138.8931   39.5553 H   0  0  0  0  0
   57.0514 -139.3718   39.5588 H   0  0  0  0  0
   57.5459 -138.5580   38.0597 H   0  0  0  0  0
   56.3538 -137.2569   40.4808 H   0  0  0  0  0
   55.5151 -137.6185   38.9444 H   0  0  0  0  0
   56.2500 -135.2956   39.0318 H   0  0  0  0  0
   57.0867 -136.1903   37.7541 H   0  0  0  0  0
   58.6454 -134.8289   39.0558 H   0  0  0  0  0
   58.1423 -135.6726   40.5382 H   0  0  0  0  0
   61.2433 -134.7159   41.5933 H   0  0  0  0  0
   63.5079 -136.1815   44.2571 H   0  0  0  0  0
   63.3671 -137.0486   42.7868 H   0  0  0  0  0
   63.5781 -133.7720   44.2784 H   0  0  0  0  0
   61.9497 -133.4124   43.5091 H   0  0  0  0  0
   65.9365 -131.6802   40.5209 H   0  0  0  0  0
   65.4959 -127.1941   41.0840 H   0  0  0  0  0
   63.9996 -127.8429   41.4262 H   0  0  0  0  0
   65.2214 -127.9246   42.5564 H   0  0  0  0  0
   63.5194 -129.0737   42.8614 H   0  0  0  0  0
   62.4405 -131.0319   43.9089 H   0  0  0  0  0
 13  1  1  0  0  0
  3  2  1  0  0  0
  2 14  4  0  0  0
  2 16  4  0  0  0
  3 17  2  0  0  0
 18  3  1  0  0  0
  4 19  1  0  0  0
  4 24  2  0  0  0
 25  4  1  0  0  0
 26  5  1  0  0  0
  5 34  2  0  0  0
  5 35  1  0  0  0
 35  6  1  0  0  0
  6 36  1  0  0  0
  6 40  1  0  0  0
  7 10  4  0  0  0
 40  7  1  0  0  0
  7 44  4  0  0  0
  8  9  1  0  0  0
 41  8  4  0  0  0
  8 43  4  0  0  0
  9 42  1  0  0  0
 10 41  4  0  0  0
 36 11  1  0  0  0
 11 37  1  0  0  0
 37 12  1  0  0  0
 14 13  4  0  0  0
 15 13  4  0  0  0
 16 15  4  0  0  0
 19 18  1  0  0  0
 19 20  1  0  0  0
 20 21  1  0  0  0
 21 22  1  0  0  0
 21 23  1  0  0  0
 25 26  1  0  0  0
 26 27  1  0  0  0
 27 28  1  0  0  0
 28 29  1  0  0  0
 28 33  1  0  0  0
 29 30  1  0  0  0
 30 31  1  0  0  0
 31 32  1  0  0  0
 32 33  1  0  0  0
 37 38  2  0  0  0
 37 39  2  0  0  0
 43 44  4  0  0  0
  1 45  1  0  0  0
  1 46  1  0  0  0
  1 47  1  0  0  0
  6 48  1  0  0  0
  9 49  1  0  0  0
  9 50  1  0  0  0
 10 51  1  0  0  0
 11 52  1  0  0  0
 11 53  1  0  0  0
 12 54  1  0  0  0
 12 55  1  0  0  0
 12 56  1  0  0  0
 16 57  1  0  0  0
 18 58  1  0  0  0
 19 59  1  0  0  0
 20 60  1  0  0  0
 20 61  1  0  0  0
 21 62  1  0  0  0
 22 63  1  0  0  0
 22 64  1  0  0  0
 22 65  1  0  0  0
 23 66  1  0  0  0
 23 67  1  0  0  0
 23 68  1  0  0  0
 25 69  1  0  0  0
 26 70  1  0  0  0
 27 71  1  0  0  0
 27 72  1  0  0  0
 28 73  1  0  0  0
 29 74  1  0  0  0
 29 75  1  0  0  0
 30 76  1  0  0  0
 30 77  1  0  0  0
 31 78  1  0  0  0
 31 79  1  0  0  0
 32 80  1  0  0  0
 32 81  1  0  0  0
 33 82  1  0  0  0
 33 83  1  0  0  0
 35 84  1  0  0  0
 36 85  1  0  0  0
 36 86  1  0  0  0
 40 87  1  0  0  0
 40 88  1  0  0  0
 41 89  1  0  0  0
 42 90  1  0  0  0
 42 91  1  0  0  0
 42 92  1  0  0  0
 43 93  1  0  0  0
 44 94  1  0  0  0
M  END
$$$$
