### 
### Created by X-TOOL on Mon Sep 10 21:13:09 2018
### 

@<TRIPOS>MOLECULE
4e35_ligand
  128   130     1     0     0
SMALL
GAST_HUCK


@<TRIPOS>ATOM
      1 N          40.6910   18.7210   34.1440 N.4       1 ARG         0.2379
      2 CA         40.1540   19.9510   33.5680 C.3       1 ARG         0.0651
      3 C          38.7300   19.7680   33.0520 C.2       1 ARG         0.2268
      4 O          38.4370   18.8230   32.3110 O.2       1 ARG        -0.3907
      5 CB         41.0580   20.4610   32.4430 C.3       1 ARG         0.0110
      6 CG         40.4780   21.6310   31.6610 C.3       1 ARG        -0.0125
      7 CD         41.4760   22.7710   31.5610 C.3       1 ARG         0.0629
      8 NE         41.7510   23.3580   32.8690 N.pl3     1 ARG        -0.2723
      9 CZ         42.7720   24.1690   33.1260 C.cat     1 ARG         0.2882
     10 NH1        42.9420   24.6570   34.3470 N.pl3     1 ARG        -0.2849
     11 NH2        43.6270   24.4880   32.1630 N.pl3     1 ARG        -0.2849
     12 N          37.8520   20.6880   33.4450 N.am      1 TRP        -0.2599
     13 CA         36.4470   20.6320   33.0600 C.3       1 TRP         0.1355
     14 C          36.2080   21.4270   31.7810 C.2       1 TRP         0.2077
     15 O          36.9550   22.3480   31.4590 O.2       1 TRP        -0.3940
     16 CB         35.5470   21.1990   34.1630 C.3       1 TRP         0.0042
     17 CG         35.7830   20.6230   35.5280 C.2       1 TRP        -0.0418
     18 CD1        36.3340   19.4070   35.8300 C.2       1 TRP         0.0167
     19 CD2        35.4750   21.2470   36.7790 C.ar      1 TRP        -0.0214
     20 NE1        36.3850   19.2410   37.1950 N.pl3     1 TRP        -0.2890
     21 CE2        35.8690   20.3550   37.8000 C.ar      1 TRP         0.0603
     22 CE3        34.9110   22.4740   37.1380 C.ar      1 TRP        -0.0747
     23 CZ2        35.7080   20.6540   39.1530 C.ar      1 TRP        -0.0443
     24 CZ3        34.7550   22.7700   38.4780 C.ar      1 TRP        -0.0792
     25 CH2        35.1520   21.8630   39.4700 C.ar      1 TRP        -0.0768
     26 N          35.1580   21.0650   31.0460 N.am      1 PRO        -0.2497
     27 CA         34.7300   21.8360   29.8820 C.3       1 PRO         0.1338
     28 C          33.9360   23.0750   30.3010 C.2       1 PRO         0.2042
     29 O          33.3460   23.1230   31.3910 O.2       1 PRO        -0.3944
     30 CB         33.8020   20.8610   29.1550 C.3       1 PRO        -0.0104
     31 CG         33.1920   20.0750   30.2580 C.3       1 PRO        -0.0281
     32 CD         34.3250   19.8640   31.2370 C.3       1 PRO         0.0369
     33 N          33.9350   24.0680   29.4230 N.am      1 THR        -0.2613
     34 CA         33.1060   25.2450   29.5840 C.3       1 THR         0.1565
     35 C          32.2780   25.4200   28.3260 C.2       1 THR         0.2065
     36 O          32.7880   25.2470   27.2210 O.2       1 THR        -0.3943
     37 CB         33.9710   26.4860   29.7720 C.3       1 THR         0.0924
     38 OG1        34.6990   26.3640   30.9960 O.3       1 THR        -0.3874
     39 CG2        33.1040   27.7450   29.8120 C.3       1 THR        -0.0346
     40 N          31.0010   25.7620   28.4900 N.am      1 SER        -0.2615
     41 CA         30.1430   26.0870   27.3570 C.3       1 SER         0.1539
     42 C          29.5330   27.4690   27.5570 C.2       1 SER         0.2062
     43 O          29.1110   27.8160   28.6630 O.2       1 SER        -0.3943
     44 CB         29.0080   25.0660   27.2100 C.3       1 SER         0.0843
     45 OG         29.5050   23.7710   26.9050 O.3       1 SER        -0.3903
     46 N          29.5000   28.2590   26.4920 N.am      1 ILE        -0.2634
     47 CA         28.8160   29.5450   26.4890 C.3       1 ILE         0.1335
     48 C          27.3810   29.3090   26.0160 C.2       1 ILE         0.2036
     49 O          27.1660   28.6190   25.0160 O.2       1 ILE        -0.3944
     50 CB         29.5450   30.5530   25.5640 C.3       1 ILE        -0.0037
     51 CG1        30.9860   30.7680   26.0320 C.3       1 ILE        -0.0491
     52 CG2        28.8010   31.8750   25.5120 C.3       1 ILE        -0.0582
     53 CD1        31.8610   31.4480   24.9900 C.3       1 ILE        -0.0648
     54 N          26.4100   29.8950   26.7130 N.am      1 LEU        -0.2695
     55 CA         24.9880   29.5860   26.5350 C.3       1 LEU         0.0946
     56 C          24.1470   30.8260   26.6020 C.2       1 LEU         0.0601
     57 O          24.5810   31.8470   27.1320 O.co2     1 LEU        -0.5666
     58 CB         24.4610   28.7180   27.6890 C.3       1 LEU        -0.0156
     59 CG         25.0850   27.3920   28.0680 C.3       1 LEU        -0.0431
     60 CD1        24.3400   26.8010   29.2660 C.3       1 LEU        -0.0625
     61 CD2        25.0170   26.4570   26.8660 C.3       1 LEU        -0.0625
     62 OXT        22.9920   30.7760   26.1890 O.co2     1 LEU        -0.5666
     63 H1         41.6301   18.8854   34.4714 H         1 ARG         0.2015
     64 H2         40.7018   17.9979   33.4418 H         1 ARG         0.2015
     65 H3         40.1119   18.4308   34.9163 H         1 ARG         0.2015
     66 H4         40.1312   20.7120   34.3619 H         1 ARG         0.1098
     67 H5         41.2379   19.6325   31.7421 H         1 ARG         0.0347
     68 H6         42.0129   20.7809   32.8855 H         1 ARG         0.0347
     69 H7         39.5723   21.9904   32.1714 H         1 ARG         0.0302
     70 H8         40.2176   21.2918   30.6475 H         1 ARG         0.0302
     71 H9         41.0656   23.5483   30.8997 H         1 ARG         0.0689
     72 H10        42.4156   22.3873   31.1369 H         1 ARG         0.0689
     73 H11        41.1119   23.1286   33.6434 H         1 ARG         0.2642
     74 H12        43.7337   25.2854   34.5448 H         1 ARG         0.2615
     75 H13        42.2823   24.4077   35.0977 H         1 ARG         0.2615
     76 H14        43.4975   24.1104   31.2135 H         1 ARG         0.2615
     77 H15        44.4203   25.1132   32.3649 H         1 ARG         0.2615
     78 H16        38.1661   21.4415   34.0226 H         1 TRP         0.1886
     79 H17        36.1753   19.5807   32.8842 H         1 TRP         0.0815
     80 H18        34.5009   21.0027   33.8853 H         1 TRP         0.0397
     81 H19        35.7146   22.2848   34.2165 H         1 TRP         0.0397
     82 H20        36.6807   18.6787   35.0983 H         1 TRP         0.0795
     83 H21        36.7524   18.4117   37.6830 H         1 TRP         0.2216
     84 H22        34.6011   23.1817   36.3776 H         1 TRP         0.0540
     85 H23        36.0119   19.9550   39.9238 H         1 TRP         0.0541
     86 H24        34.3185   23.7192   38.7671 H         1 TRP         0.0510
     87 H25        35.0153   22.1257   40.5128 H         1 TRP         0.0530
     88 H26        35.5863   22.1288   29.2567 H         1 PRO         0.0802
     89 H27        34.3709   20.2092   28.4757 H         1 PRO         0.0313
     90 H28        33.0321   21.4018   28.5851 H         1 PRO         0.0313
     91 H29        32.8133   19.1113   29.8867 H         1 PRO         0.0287
     92 H30        32.3703   20.6354   30.7278 H         1 PRO         0.0287
     93 H31        33.9493   19.8038   32.2691 H         1 PRO         0.0524
     94 H32        34.8886   18.9501   30.9980 H         1 PRO         0.0524
     95 H33        34.5280   24.0023   28.6204 H         1 THR         0.1884
     96 H34        32.4470   25.1180   30.4555 H         1 THR         0.0826
     97 H35        34.6783   26.5640   28.9332 H         1 THR         0.0639
     98 H36        35.2500   25.5910   30.9597 H         1 THR         0.2101
     99 H37        33.7458   28.6280   29.9480 H         1 THR         0.0257
    100 H38        32.3943   27.6751   30.6495 H         1 THR         0.0257
    101 H39        32.5483   27.8377   28.8672 H         1 THR         0.0257
    102 H40        30.6210   25.7967   29.4143 H         1 SER         0.1884
    103 H41        30.7493   26.0849   26.4392 H         1 SER         0.0823
    104 H42        28.3383   25.3910   26.4001 H         1 SER         0.0606
    105 H43        28.4457   25.0191   28.1542 H         1 SER         0.0606
    106 H44        30.0807   23.4815   27.6030 H         1 SER         0.2097
    107 H45        29.9632   27.9597   25.6578 H         1 ILE         0.1883
    108 H46        28.8000   29.9516   27.5110 H         1 ILE         0.0803
    109 H47        29.5706   30.1318   24.5482 H         1 ILE         0.0345
    110 H48        31.4253   29.7884   26.2715 H         1 ILE         0.0267
    111 H49        30.9698   31.3937   26.9366 H         1 ILE         0.0267
    112 H50        27.7686   31.7017   25.1742 H         1 ILE         0.0235
    113 H51        29.3075   32.5535   24.8098 H         1 ILE         0.0235
    114 H52        28.7876   32.3279   26.5143 H         1 ILE         0.0235
    115 H53        32.8784   31.5712   25.3895 H         1 ILE         0.0230
    116 H54        31.4410   32.4349   24.7460 H         1 ILE         0.0230
    117 H55        31.8965   30.8297   24.0810 H         1 ILE         0.0230
    118 H56        26.6639   30.5821   27.3938 H         1 LEU         0.1875
    119 H57        24.8475   29.0754   25.5709 H         1 LEU         0.0726
    120 H58        23.4089   28.5021   27.4513 H         1 LEU         0.0308
    121 H59        24.5118   29.3466   28.5902 H         1 LEU         0.0308
    122 H60        26.1383   27.5486   28.3436 H         1 LEU         0.0297
    123 H61        24.7938   25.8375   29.5410 H         1 LEU         0.0232
    124 H62        23.2837   26.6464   29.0010 H         1 LEU         0.0232
    125 H63        24.4068   27.4940   30.1176 H         1 LEU         0.0232
    126 H64        25.5596   26.9060   26.0211 H         1 LEU         0.0232
    127 H65        23.9657   26.2984   26.5838 H         1 LEU         0.0232
    128 H66        25.4766   25.4920   27.1256 H         1 LEU         0.0232
@<TRIPOS>BOND
     1    1    2 1  
     2    2    3 1  
     3    2    5 1  
     4    3    4 2  
     5    3   12 am 
     6    5    6 1  
     7    6    7 1  
     8    7    8 1  
     9    8    9 ar 
    10    9   10 ar 
    11    9   11 ar 
    12   12   13 1  
    13   13   14 1  
    14   13   16 1  
    15   14   15 2  
    16   14   26 am 
    17   16   17 1  
    18   17   18 2  
    19   17   19 1  
    20   18   20 1  
    21   19   21 ar 
    22   19   22 ar 
    23   20   21 1  
    24   21   23 ar 
    25   22   24 ar 
    26   23   25 ar 
    27   24   25 ar 
    28   26   27 1  
    29   26   32 1  
    30   27   28 1  
    31   27   30 1  
    32   28   29 2  
    33   28   33 am 
    34   30   31 1  
    35   31   32 1  
    36   33   34 1  
    37   34   35 1  
    38   34   37 1  
    39   35   36 2  
    40   35   40 am 
    41   37   38 1  
    42   37   39 1  
    43   40   41 1  
    44   41   42 1  
    45   41   44 1  
    46   42   43 2  
    47   42   46 am 
    48   44   45 1  
    49   46   47 1  
    50   47   48 1  
    51   47   50 1  
    52   48   49 2  
    53   48   54 am 
    54   50   51 1  
    55   50   52 1  
    56   51   53 1  
    57   54   55 1  
    58   55   56 1  
    59   55   58 1  
    60   56   57 ar 
    61   56   62 ar 
    62   58   59 1  
    63   59   60 1  
    64   59   61 1  
    65    1   63 1  
    66    1   64 1  
    67    1   65 1  
    68    2   66 1  
    69    5   67 1  
    70    5   68 1  
    71    6   69 1  
    72    6   70 1  
    73    7   71 1  
    74    7   72 1  
    75    8   73 1  
    76   10   74 1  
    77   10   75 1  
    78   11   76 1  
    79   11   77 1  
    80   12   78 1  
    81   13   79 1  
    82   16   80 1  
    83   16   81 1  
    84   18   82 1  
    85   20   83 1  
    86   22   84 1  
    87   23   85 1  
    88   24   86 1  
    89   25   87 1  
    90   27   88 1  
    91   30   89 1  
    92   30   90 1  
    93   31   91 1  
    94   31   92 1  
    95   32   93 1  
    96   32   94 1  
    97   33   95 1  
    98   34   96 1  
    99   37   97 1  
   100   38   98 1  
   101   39   99 1  
   102   39  100 1  
   103   39  101 1  
   104   40  102 1  
   105   41  103 1  
   106   44  104 1  
   107   44  105 1  
   108   45  106 1  
   109   46  107 1  
   110   47  108 1  
   111   50  109 1  
   112   51  110 1  
   113   51  111 1  
   114   52  112 1  
   115   52  113 1  
   116   52  114 1  
   117   53  115 1  
   118   53  116 1  
   119   53  117 1  
   120   54  118 1  
   121   55  119 1  
   122   58  120 1  
   123   58  121 1  
   124   59  122 1  
   125   60  123 1  
   126   60  124 1  
   127   60  125 1  
   128   61  126 1  
   129   61  127 1  
   130   61  128 1  
@<TRIPOS>SUBSTRUCTURE
     1 ARG         1

