4e35_ligand
  -I-interpret- 

127129  0  0  0  0  0  0  0  0999 V2000
   40.6910   18.7210   34.1440 N   0  3  0  0  0
   40.1540   19.9510   33.5680 C   0  0  0  0  0
   38.7300   19.7680   33.0520 C   0  0  0  0  0
   38.4370   18.8230   32.3110 O   0  0  0  0  0
   41.0580   20.4610   32.4430 C   0  0  0  0  0
   40.4780   21.6310   31.6610 C   0  0  0  0  0
   41.4760   22.7710   31.5610 C   0  0  0  0  0
   41.7510   23.3580   32.8690 N   0  0  0  0  0
   42.7720   24.1690   33.1260 C   0  0  0  0  0
   42.9420   24.6570   34.3470 N   0  0  0  0  0
   43.6270   24.4880   32.1630 N   0  0  0  0  0
   37.8520   20.6880   33.4450 N   0  0  0  0  0
   36.4470   20.6320   33.0600 C   0  0  0  0  0
   36.2080   21.4270   31.7810 C   0  0  0  0  0
   36.9550   22.3480   31.4590 O   0  0  0  0  0
   35.5470   21.1990   34.1630 C   0  0  0  0  0
   35.7830   20.6230   35.5280 C   0  0  0  0  0
   36.3340   19.4070   35.8300 C   0  0  0  0  0
   35.4750   21.2470   36.7790 C   0  0  0  0  0
   36.3850   19.2410   37.1950 N   0  0  0  0  0
   35.8690   20.3550   37.8000 C   0  0  0  0  0
   34.9110   22.4740   37.1380 C   0  0  0  0  0
   35.7080   20.6540   39.1530 C   0  0  0  0  0
   34.7550   22.7700   38.4780 C   0  0  0  0  0
   35.1520   21.8630   39.4700 C   0  0  0  0  0
   35.1580   21.0650   31.0460 N   0  0  0  0  0
   34.7300   21.8360   29.8820 C   0  0  0  0  0
   33.9360   23.0750   30.3010 C   0  0  0  0  0
   33.3460   23.1230   31.3910 O   0  0  0  0  0
   33.8020   20.8610   29.1550 C   0  0  0  0  0
   33.1920   20.0750   30.2580 C   0  0  0  0  0
   34.3250   19.8640   31.2370 C   0  0  0  0  0
   33.9350   24.0680   29.4230 N   0  0  0  0  0
   33.1060   25.2450   29.5840 C   0  0  0  0  0
   32.2780   25.4200   28.3260 C   0  0  0  0  0
   32.7880   25.2470   27.2210 O   0  0  0  0  0
   33.9710   26.4860   29.7720 C   0  0  0  0  0
   34.6990   26.3640   30.9960 O   0  0  0  0  0
   33.1040   27.7450   29.8120 C   0  0  0  0  0
   31.0010   25.7620   28.4900 N   0  0  0  0  0
   30.1430   26.0870   27.3570 C   0  0  0  0  0
   29.5330   27.4690   27.5570 C   0  0  0  0  0
   29.1110   27.8160   28.6630 O   0  0  0  0  0
   29.0080   25.0660   27.2100 C   0  0  0  0  0
   29.5050   23.7710   26.9050 O   0  0  0  0  0
   29.5000   28.2590   26.4920 N   0  0  0  0  0
   28.8160   29.5450   26.4890 C   0  0  0  0  0
   27.3810   29.3090   26.0160 C   0  0  0  0  0
   27.1660   28.6190   25.0160 O   0  0  0  0  0
   29.5450   30.5530   25.5640 C   0  0  0  0  0
   30.9860   30.7680   26.0320 C   0  0  0  0  0
   28.8010   31.8750   25.5120 C   0  0  0  0  0
   31.8610   31.4480   24.9900 C   0  0  0  0  0
   26.4100   29.8950   26.7130 N   0  0  0  0  0
   24.9880   29.5860   26.5350 C   0  0  0  0  0
   24.1470   30.8260   26.6020 C   0  0  0  0  0
   24.5810   31.8470   27.1320 O   0  0  0  0  0
   24.4610   28.7180   27.6890 C   0  0  0  0  0
   25.0850   27.3920   28.0680 C   0  0  0  0  0
   24.3400   26.8010   29.2660 C   0  0  0  0  0
   25.0170   26.4570   26.8660 C   0  0  0  0  0
   22.9920   30.7760   26.1890 O   0  0  0  0  0
   40.0746   18.3990   34.8902 H   0  0  0  0  0
   40.7518   18.0059   33.4192 H   0  0  0  0  0
   41.6203   18.9021   34.5234 H   0  0  0  0  0
   40.1247   20.6916   34.3673 H   0  0  0  0  0
   41.1929   19.6388   31.7402 H   0  0  0  0  0
   41.9822   20.8085   32.9047 H   0  0  0  0  0
   39.5892   21.9904   32.1795 H   0  0  0  0  0
   40.2351   21.2911   30.6542 H   0  0  0  0  0
   41.0544   23.5434   30.9178 H   0  0  0  0  0
   42.4087   22.3786   31.1558 H   0  0  0  0  0
   41.1181   23.1308   33.6359 H   0  0  0  0  0
   42.2887   24.4101   35.0904 H   0  0  0  0  0
   44.4126   25.1071   32.3629 H   0  0  0  0  0
   43.4988   24.1141   31.2227 H   0  0  0  0  0
   38.1723   21.4565   34.0342 H   0  0  0  0  0
   36.1992   19.5832   32.8963 H   0  0  0  0  0
   34.5205   20.9542   33.8900 H   0  0  0  0  0
   35.7618   22.2656   34.2288 H   0  0  0  0  0
   36.6810   18.6781   35.0976 H   0  0  0  0  0
   34.5994   23.1856   36.3734 H   0  0  0  0  0
   36.0136   19.9511   39.9280 H   0  0  0  0  0
   34.3160   23.7244   38.7687 H   0  0  0  0  0
   35.0145   22.1271   40.5185 H   0  0  0  0  0
   35.5673   22.1936   29.2828 H   0  0  0  0  0
   34.3332   20.2337   28.4392 H   0  0  0  0  0
   33.0572   21.3704   28.5435 H   0  0  0  0  0
   32.7721   19.1324   29.9068 H   0  0  0  0  0
   32.3476   20.5929   30.7128 H   0  0  0  0  0
   33.9791   19.7494   32.2643 H   0  0  0  0  0
   34.8716   18.9384   31.0566 H   0  0  0  0  0
   34.5398   24.0010   28.6044 H   0  0  0  0  0
   32.4698   25.1196   30.4602 H   0  0  0  0  0
   34.6618   26.5702   28.9331 H   0  0  0  0  0
   35.2462   27.1429   31.1206 H   0  0  0  0  0
   32.5539   27.8357   28.8754 H   0  0  0  0  0
   32.4012   27.6744   30.6422 H   0  0  0  0  0
   33.7410   28.6191   29.9468 H   0  0  0  0  0
   30.6134   25.7974   29.4328 H   0  0  0  0  0
   30.7553   26.0667   26.4554 H   0  0  0  0  0
   28.3601   25.3868   26.3943 H   0  0  0  0  0
   28.4679   25.0134   28.1553 H   0  0  0  0  0
   28.7701   23.1592   26.8203 H   0  0  0  0  0
   29.9725   27.9538   25.6411 H   0  0  0  0  0
   28.8143   29.9740   27.4910 H   0  0  0  0  0
   29.5667   30.1344   24.5578 H   0  0  0  0  0
   31.4165   29.7874   26.2350 H   0  0  0  0  0
   30.9549   31.4144   26.9091 H   0  0  0  0  0
   27.7948   31.7093   25.1272 H   0  0  0  0  0
   28.7427   32.2974   26.5152 H   0  0  0  0  0
   29.3331   32.5644   24.8565 H   0  0  0  0  0
   31.8953   30.8344   24.0898 H   0  0  0  0  0
   31.4437   32.4257   24.7491 H   0  0  0  0  0
   32.8688   31.5695   25.3870 H   0  0  0  0  0
   26.6690   30.5958   27.4074 H   0  0  0  0  0
   24.9180   29.0874   25.5683 H   0  0  0  0  0
   25.4946   31.7078   27.3918 H   0  0  0  0  0
   23.4620   28.4378   27.3550 H   0  0  0  0  0
   24.6370   29.3375   28.5684 H   0  0  0  0  0
   26.1288   27.5289   28.3507 H   0  0  0  0  0
   24.4069   27.4886   30.1091 H   0  0  0  0  0
   23.2935   26.6483   29.0021 H   0  0  0  0  0
   24.7906   25.8464   29.5375 H   0  0  0  0  0
   23.9754   26.3083   26.5815 H   0  0  0  0  0
   25.5632   26.8986   26.0325 H   0  0  0  0  0
   25.4640   25.4979   27.1276 H   0  0  0  0  0
  1  2  1  0  0  0
  2  3  1  0  0  0
  2  5  1  0  0  0
  3  4  2  0  0  0
  3 12  1  0  0  0
  5  6  1  0  0  0
  6  7  1  0  0  0
  7  8  1  0  0  0
  8  9  1  0  0  0
  9 10  2  0  0  0
  9 11  1  0  0  0
 12 13  1  0  0  0
 13 14  1  0  0  0
 13 16  1  0  0  0
 14 15  2  0  0  0
 14 26  1  0  0  0
 16 17  1  0  0  0
 17 18  4  0  0  0
 17 19  4  0  0  0
 18 20  4  0  0  0
 19 21  4  0  0  0
 19 22  4  0  0  0
 20 21  4  0  0  0
 21 23  4  0  0  0
 22 24  4  0  0  0
 23 25  4  0  0  0
 24 25  4  0  0  0
 26 27  1  0  0  0
 26 32  1  0  0  0
 27 28  1  0  0  0
 27 30  1  0  0  0
 28 29  2  0  0  0
 28 33  1  0  0  0
 30 31  1  0  0  0
 31 32  1  0  0  0
 33 34  1  0  0  0
 34 35  1  0  0  0
 34 37  1  0  0  0
 35 36  2  0  0  0
 35 40  1  0  0  0
 37 38  1  0  0  0
 37 39  1  0  0  0
 40 41  1  0  0  0
 41 42  1  0  0  0
 41 44  1  0  0  0
 42 43  2  0  0  0
 42 46  1  0  0  0
 44 45  1  0  0  0
 46 47  1  0  0  0
 47 48  1  0  0  0
 47 50  1  0  0  0
 48 49  2  0  0  0
 48 54  1  0  0  0
 50 51  1  0  0  0
 50 52  1  0  0  0
 51 53  1  0  0  0
 54 55  1  0  0  0
 55 56  1  0  0  0
 55 58  1  0  0  0
 56 57  1  0  0  0
 56 62  2  0  0  0
 58 59  1  0  0  0
 59 60  1  0  0  0
 59 61  1  0  0  0
  1 63  1  0  0  0
  1 64  1  0  0  0
  1 65  1  0  0  0
  2 66  1  0  0  0
  5 67  1  0  0  0
  5 68  1  0  0  0
  6 69  1  0  0  0
  6 70  1  0  0  0
  7 71  1  0  0  0
  7 72  1  0  0  0
  8 73  1  0  0  0
 10 74  1  0  0  0
 11 75  1  0  0  0
 11 76  1  0  0  0
 12 77  1  0  0  0
 13 78  1  0  0  0
 16 79  1  0  0  0
 16 80  1  0  0  0
 18 81  1  0  0  0
 22 82  1  0  0  0
 23 83  1  0  0  0
 24 84  1  0  0  0
 25 85  1  0  0  0
 27 86  1  0  0  0
 30 87  1  0  0  0
 30 88  1  0  0  0
 31 89  1  0  0  0
 31 90  1  0  0  0
 32 91  1  0  0  0
 32 92  1  0  0  0
 33 93  1  0  0  0
 34 94  1  0  0  0
 37 95  1  0  0  0
 38 96  1  0  0  0
 39 97  1  0  0  0
 39 98  1  0  0  0
 39 99  1  0  0  0
 40100  1  0  0  0
 41101  1  0  0  0
 44102  1  0  0  0
 44103  1  0  0  0
 45104  1  0  0  0
 46105  1  0  0  0
 47106  1  0  0  0
 50107  1  0  0  0
 51108  1  0  0  0
 51109  1  0  0  0
 52110  1  0  0  0
 52111  1  0  0  0
 52112  1  0  0  0
 53113  1  0  0  0
 53114  1  0  0  0
 53115  1  0  0  0
 54116  1  0  0  0
 55117  1  0  0  0
 57118  1  0  0  0
 58119  1  0  0  0
 58120  1  0  0  0
 59121  1  0  0  0
 60122  1  0  0  0
 60123  1  0  0  0
 60124  1  0  0  0
 61125  1  0  0  0
 61126  1  0  0  0
 61127  1  0  0  0
M  END
$$$$
