3tfv_ligand
  -I-interpret- 

 54 55  0  0  0  0  0  0  0  0999 V2000
  -23.1920   21.1710    8.2320 C   0  0  0  0  0
  -26.6090    6.7850    5.5980 O   0  0  0  0  0
  -27.3570    4.8960    4.7150 O   0  0  0  0  0
  -31.7160    5.8370    1.8140 Br  0  0  0  0  0
  -28.5750   11.8330    9.8520 C   0  0  0  0  0
  -29.2320   11.0730    8.9240 C   0  0  0  0  0
  -31.1750    7.8020    3.6980 C   0  0  0  0  0
  -27.5070   12.5920    9.4860 C   0  0  0  0  0
  -30.4660    8.4350    4.6960 C   0  0  0  0  0
  -27.7540   11.8310    7.2480 C   0  0  0  0  0
  -29.4960    6.1060    3.5790 C   0  0  0  0  0
  -22.8390   19.8200    7.6600 C   0  0  0  0  0
  -24.0620   18.9560    7.5750 C   0  0  0  0  0
  -23.6890   17.4920    7.6500 C   0  0  0  0  0
  -24.8330   16.6040    7.1780 C   0  0  0  0  0
  -24.6540   15.1720    7.6310 C   0  0  0  0  0
  -24.5970   14.2330    6.4540 C   0  0  0  0  0
  -25.7900   13.3180    6.4940 C   0  0  0  0  0
  -29.5620   10.2130    6.6290 C   0  0  0  0  0
  -26.0560   13.3640    7.8380 O   0  0  0  0  0
  -28.4800    8.7850    6.3740 S   0  0  0  0  0
  -27.4770    6.1020    5.0040 C   0  0  0  0  0
  -30.6930    6.6420    3.1440 C   0  0  0  0  0
  -28.8370   11.0750    7.6240 C   0  0  0  0  0
  -27.0990   12.5940    8.1810 C   0  0  0  0  0
  -29.2780    7.9140    5.1360 C   0  0  0  0  0
  -28.7820    6.7450    4.5750 C   0  0  0  0  0
  -23.9271   21.6554    7.5893 H   0  0  0  0  0
  -23.6089   21.0435    9.2310 H   0  0  0  0  0
  -22.2941   21.7865    8.2874 H   0  0  0  0  0
  -26.9297    7.6833    5.7069 H   0  0  0  0  0
  -28.9086   11.8306   10.8897 H   0  0  0  0  0
  -30.0800   10.4603    9.2300 H   0  0  0  0  0
  -32.1181    8.2222    3.3486 H   0  0  0  0  0
  -26.9808   13.1937   10.2271 H   0  0  0  0  0
  -30.8522    9.3540    5.1370 H   0  0  0  0  0
  -27.4160   11.8248    6.2117 H   0  0  0  0  0
  -29.1167    5.1838    3.1388 H   0  0  0  0  0
  -22.1073   19.3387    8.3088 H   0  0  0  0  0
  -22.4269   19.9534    6.6597 H   0  0  0  0  0
  -24.5608   19.1442    6.6243 H   0  0  0  0  0
  -24.7208   19.1949    8.4099 H   0  0  0  0  0
  -23.4630   17.2444    8.6872 H   0  0  0  0  0
  -22.8276   17.3201    7.0046 H   0  0  0  0  0
  -24.8523   16.6194    6.0883 H   0  0  0  0  0
  -25.7613   16.9851    7.6035 H   0  0  0  0  0
  -25.5028   14.8957    8.2565 H   0  0  0  0  0
  -23.7174   15.0957    8.1834 H   0  0  0  0  0
  -23.6816   13.6431    6.5003 H   0  0  0  0  0
  -24.6066   14.8067    5.5272 H   0  0  0  0  0
  -25.6143   12.3187    6.0958 H   0  0  0  0  0
  -26.6188   13.6176    5.8525 H   0  0  0  0  0
  -30.5457    9.9156    6.9922 H   0  0  0  0  0
  -29.7558   10.7453    5.6978 H   0  0  0  0  0
 12  1  1  0  0  0
 22  2  1  0  0  0
 22  3  2  0  0  0
 23  4  1  0  0  0
  6  5  4  0  0  0
  5  8  4  0  0  0
 24  6  4  0  0  0
  7  9  4  0  0  0
 23  7  4  0  0  0
 25  8  4  0  0  0
  9 26  4  0  0  0
 24 10  4  0  0  0
 10 25  4  0  0  0
 11 23  4  0  0  0
 27 11  4  0  0  0
 13 12  1  0  0  0
 14 13  1  0  0  0
 15 14  1  0  0  0
 16 15  1  0  0  0
 17 16  1  0  0  0
 18 17  1  0  0  0
 20 18  1  0  0  0
 21 19  1  0  0  0
 19 24  1  0  0  0
 25 20  1  0  0  0
 26 21  1  0  0  0
 22 27  1  0  0  0
 26 27  4  0  0  0
  1 28  1  0  0  0
  1 29  1  0  0  0
  1 30  1  0  0  0
  2 31  1  0  0  0
  5 32  1  0  0  0
  6 33  1  0  0  0
  7 34  1  0  0  0
  8 35  1  0  0  0
  9 36  1  0  0  0
 10 37  1  0  0  0
 11 38  1  0  0  0
 12 39  1  0  0  0
 12 40  1  0  0  0
 13 41  1  0  0  0
 13 42  1  0  0  0
 14 43  1  0  0  0
 14 44  1  0  0  0
 15 45  1  0  0  0
 15 46  1  0  0  0
 16 47  1  0  0  0
 16 48  1  0  0  0
 17 49  1  0  0  0
 17 50  1  0  0  0
 18 51  1  0  0  0
 18 52  1  0  0  0
 19 53  1  0  0  0
 19 54  1  0  0  0
M  END
$$$$
