6h50_ligand
  -I-interpret- 

 39 42  0  0  0  0  0  0  0  0999 V2000
   85.6040   67.0150   12.8910 C   0  0  0  0  0
   88.0450   63.2520   14.2590 N   0  0  0  0  0
   84.7920   64.9350   12.4150 C   0  0  0  0  0
   86.0560   62.9430   13.0120 N   0  0  0  0  0
   85.8590   64.2930   13.0870 C   0  0  0  0  0
   83.6010   64.2510   12.0880 N   0  0  0  0  0
   86.7610   65.1450   13.7400 C   0  0  0  0  0
   82.4470   64.9500   11.9030 N   0  0  0  0  0
   87.9170   64.5600   14.4000 C   0  0  0  0  0
   87.1480   62.4950   13.5860 C   0  0  0  0  0
   81.5380   64.0190   11.6820 C   0  0  0  0  0
   82.0780   62.7200   11.7140 C   0  0  0  0  0
   83.4090   62.9230   11.9750 C   0  0  0  0  0
   81.3430   61.4220   11.5360 C   0  0  0  0  0
   81.0700   60.7320   12.8730 C   0  0  0  0  0
   88.6880   65.2030   15.0920 O   0  0  0  0  0
   86.6270   66.5230   13.6680 C   0  0  0  0  0
   84.7070   66.2510   12.2620 N   0  0  0  0  0
   80.0280   61.5960   10.7740 C   0  0  0  0  0
   79.3230   60.2520   10.6400 C   0  0  0  0  0
   79.0560   59.6670   11.9500 N   0  3  0  0  0
   80.3200   59.4290   12.6400 C   0  0  0  0  0
   85.5202   68.0963   12.7818 H   0  0  0  0  0
   88.8552   62.7934   14.6757 H   0  0  0  0  0
   87.3486   61.4260   13.5147 H   0  0  0  0  0
   80.4856   64.2327   11.4954 H   0  0  0  0  0
   84.1719   62.1507   12.0730 H   0  0  0  0  0
   82.0024   60.7895   10.9417 H   0  0  0  0  0
   80.4650   61.3879   13.4990 H   0  0  0  0  0
   82.0177   60.5178   13.3670 H   0  0  0  0  0
   87.3036   67.1884   14.2043 H   0  0  0  0  0
   80.2385   61.9917    9.7804 H   0  0  0  0  0
   79.3849   62.2858   11.3205 H   0  0  0  0  0
   79.9670   59.5742   10.0796 H   0  0  0  0  0
   78.3741   60.4052   10.1260 H   0  0  0  0  0
   78.5591   58.7838   11.8342 H   0  0  0  0  0
   78.4830   60.3076   12.4992 H   0  0  0  0  0
   80.1093   58.9701   13.6060 H   0  0  0  0  0
   80.9373   58.7766   12.0224 H   0  0  0  0  0
  1 17  4  0  0  0
 18  1  4  0  0  0
  2  9  1  0  0  0
 10  2  1  0  0  0
  5  3  4  0  0  0
  3  6  1  0  0  0
  3 18  4  0  0  0
  4  5  1  0  0  0
  4 10  2  0  0  0
  5  7  4  0  0  0
  6  8  4  0  0  0
  6 13  4  0  0  0
  7  9  1  0  0  0
  7 17  4  0  0  0
  8 11  4  0  0  0
  9 16  2  0  0  0
 11 12  4  0  0  0
 12 13  4  0  0  0
 12 14  1  0  0  0
 14 15  1  0  0  0
 14 19  1  0  0  0
 15 22  1  0  0  0
 19 20  1  0  0  0
 20 21  1  0  0  0
 21 22  1  0  0  0
  1 23  1  0  0  0
  2 24  1  0  0  0
 10 25  1  0  0  0
 11 26  1  0  0  0
 13 27  1  0  0  0
 14 28  1  0  0  0
 15 29  1  0  0  0
 15 30  1  0  0  0
 17 31  1  0  0  0
 19 32  1  0  0  0
 19 33  1  0  0  0
 20 34  1  0  0  0
 20 35  1  0  0  0
 21 36  1  0  0  0
 21 37  1  0  0  0
 22 38  1  0  0  0
 22 39  1  0  0  0
M  END
$$$$
