4ibe_ligand
  -I-interpret- 

 44 47  0  0  0  0  0  0  0  0999 V2000
   -3.0920   19.3980    0.8200 O   0  0  0  0  0
   -3.0870   20.1360   -0.2030 C   0  0  0  0  0
   -4.1910   20.4370   -0.7220 O   0  0  0  0  0
   -1.7790   20.6570   -0.7260 C   0  0  0  0  0
   -0.6330   20.2620   -0.0440 C   0  0  0  0  0
   -1.6550   21.4970   -1.8400 C   0  0  0  0  0
   -3.0090   22.0540   -2.7630 Cl  0  0  0  0  0
   -0.3910   21.9140   -2.2400 C   0  0  0  0  0
    0.7460   21.5100   -1.5550 C   0  0  0  0  0
    0.6250   20.6780   -0.4520 C   0  0  0  0  0
    1.7890   20.2730    0.2710 N   0  0  0  0  0
    2.6830   21.1460    0.7560 C   0  0  0  0  0
    2.1360   22.2140    1.6390 C   0  0  0  0  0
    1.4280   21.8610    3.1180 S   0  0  0  0  0
    1.0270   23.4180    3.6100 C   0  0  0  0  0
    1.4700   24.2570    2.5810 C   0  0  0  0  0
    1.2510   26.1750    2.6690 Br  0  0  0  0  0
    2.0930   23.6040    1.4700 C   0  0  0  0  0
    2.1110   19.0180    0.5890 C   0  0  0  0  0
    1.3640   17.9030    0.2710 O   0  0  0  0  0
    3.3260   19.0660    1.2750 C   0  0  0  0  0
    4.0330   17.9920    1.7660 O   0  0  0  0  0
    3.7030   20.4120    1.3470 C   0  0  0  0  0
    4.9520   21.0530    1.8590 C   0  0  0  0  0
    5.2360   22.1620    1.4260 O   0  0  0  0  0
    5.8590   20.4410    2.8700 C   0  0  0  0  0
    7.2270   20.6260    2.7300 C   0  0  0  0  0
    8.1110   20.0920    3.6520 C   0  0  0  0  0
    7.6160   19.3720    4.7280 C   0  0  0  0  0
    6.2480   19.1900    4.8800 C   0  0  0  0  0
    5.3630   19.7300    3.9530 C   0  0  0  0  0
   -2.1891   19.2488    1.1100 H   0  0  0  0  0
   -0.7256   19.6135    0.8272 H   0  0  0  0  0
   -0.2913   22.5689   -3.1056 H   0  0  0  0  0
    1.7302   21.8451   -1.8824 H   0  0  0  0  0
    3.0639   21.7346   -0.0786 H   0  0  0  0  0
    0.5282   23.7115    4.5337 H   0  0  0  0  0
    2.4866   24.1255    0.5975 H   0  0  0  0  0
    3.5505   17.1823    1.5835 H   0  0  0  0  0
    7.6099   21.1980    1.8848 H   0  0  0  0  0
    9.1848   20.2362    3.5330 H   0  0  0  0  0
    8.3041   18.9466    5.4585 H   0  0  0  0  0
    5.8664   18.6221    5.7285 H   0  0  0  0  0
    4.2884   19.5957    4.0764 H   0  0  0  0  0
  1  2  1  0  0  0
  2  3  2  0  0  0
  2  4  1  0  0  0
  4  5  4  0  0  0
  4  6  4  0  0  0
  5 10  4  0  0  0
  6  7  1  0  0  0
  6  8  4  0  0  0
  8  9  4  0  0  0
  9 10  4  0  0  0
 10 11  1  0  0  0
 11 12  1  0  0  0
 11 19  1  0  0  0
 12 13  1  0  0  0
 12 23  1  0  0  0
 13 14  4  0  0  0
 13 18  4  0  0  0
 14 15  4  0  0  0
 15 16  4  0  0  0
 16 17  1  0  0  0
 16 18  4  0  0  0
 19 20  2  0  0  0
 19 21  1  0  0  0
 21 22  1  0  0  0
 21 23  2  0  0  0
 23 24  1  0  0  0
 24 25  2  0  0  0
 24 26  1  0  0  0
 26 27  4  0  0  0
 26 31  4  0  0  0
 27 28  4  0  0  0
 28 29  4  0  0  0
 29 30  4  0  0  0
 30 31  4  0  0  0
  1 32  1  0  0  0
  5 33  1  0  0  0
  8 34  1  0  0  0
  9 35  1  0  0  0
 12 36  1  0  0  0
 15 37  1  0  0  0
 18 38  1  0  0  0
 22 39  1  0  0  0
 27 40  1  0  0  0
 28 41  1  0  0  0
 29 42  1  0  0  0
 30 43  1  0  0  0
 31 44  1  0  0  0
M  END
$$$$
