3pck_ligand
  -I-interpret- 

 16 16  0  0  0  0  0  0  0  0999 V2000
   14.1890    9.4890   40.7470 N   0  0  0  0  0
   14.9550   10.4550   40.3000 C   0  0  0  0  0
   14.8000   11.8160   40.6900 C   0  0  0  0  0
   13.7500   12.1190   41.5570 C   0  0  0  0  0
   12.9350   11.1110   42.0320 C   0  0  0  0  0
   13.1750    9.7930   41.5940 C   0  0  0  0  0
   15.7760   12.9150   40.2280 C   0  0  0  0  0
   16.6970   12.6030   39.4700 O   0  0  0  0  0
   15.6570   14.0890   40.5750 O   0  0  0  0  0
   12.3610    8.8800   41.9840 O   0  0  0  0  0
   14.3270    8.3100   40.3520 O   0  0  0  0  0
   15.7485   10.2042   39.5961 H   0  0  0  0  0
   13.5731   13.1512   41.8593 H   0  0  0  0  0
   12.1257   11.3291   42.7288 H   0  0  0  0  0
   16.6581   11.6604   39.2920 H   0  0  0  0  0
   13.6809    7.7498   40.7883 H   0  0  0  0  0
  1 11  1  0  0  0
  1  6  1  0  0  0
  1  2  1  0  0  0
  2  3  2  0  0  0
  3  7  1  0  0  0
  3  4  1  0  0  0
  4  5  2  0  0  0
  5  6  1  0  0  0
  6 10  2  0  0  0
  7  9  2  0  0  0
  7  8  1  0  0  0
  2 12  1  0  0  0
  4 13  1  0  0  0
  5 14  1  0  0  0
  8 15  1  0  0  0
 11 16  1  0  0  0
M  END
$$$$
