4ca4_ligand
  -I-interpret- 

 45 45  0  0  0  0  0  0  0  0999 V2000
    1.2180  -33.9890   34.8000 O   0  0  0  0  0
    1.6130  -35.0000   35.7310 C   0  0  0  0  0
    0.9090  -36.3220   35.4030 C   0  0  0  0  0
    0.0890  -39.8150   40.5130 C   0  0  0  0  0
   -0.5440  -36.1970   35.4500 O   0  0  0  0  0
    1.3010  -36.8660   34.0360 C   0  0  0  0  0
    2.7400  -36.9700   33.9580 O   0  0  0  0  0
    0.6500  -38.2260   33.8300 C   0  0  0  0  0
    1.0010  -38.7290   32.5290 O   0  0  0  0  0
   -0.8660  -38.0530   33.9120 C   0  0  0  0  0
   -1.2920  -37.1400   32.8850 O   0  0  0  0  0
   -1.2440  -37.4710   35.2670 C   0  0  0  0  0
   -0.8320  -38.3670   36.3560 O   0  0  0  0  0
   -1.3190  -37.7340   37.5710 C   0  0  0  0  0
   -0.5910  -38.1330   38.8700 C   0  0  0  0  0
   -0.6880  -39.6230   39.2100 C   0  0  0  0  0
    0.9820  -42.7750   42.8050 C   0  0  0  0  0
    0.9160  -41.3440   42.2630 C   0  0  0  0  0
    0.0920  -41.2720   40.9690 C   0  0  0  0  0
    1.6641  -33.1664   35.0143 H   0  0  0  0  0
    1.3359  -34.6873   36.7377 H   0  0  0  0  0
    2.6916  -35.1435   35.6671 H   0  0  0  0  0
    1.2388  -37.0197   36.1728 H   0  0  0  0  0
   -0.3916  -39.2169   41.2872 H   0  0  0  0  0
    1.1213  -39.5097   40.3420 H   0  0  0  0  0
    0.9569  -36.1922   33.2514 H   0  0  0  0  0
    3.1300  -36.1028   34.0904 H   0  0  0  0  0
    0.9913  -38.9263   34.5924 H   0  0  0  0  0
    1.9533  -38.8383   32.4756 H   0  0  0  0  0
   -1.3464  -39.0226   33.7805 H   0  0  0  0  0
   -2.2443  -37.0282   32.9327 H   0  0  0  0  0
   -2.3257  -37.3392   35.2927 H   0  0  0  0  0
   -2.3559  -38.0486   37.6889 H   0  0  0  0  0
   -1.1619  -36.6627   37.4455 H   0  0  0  0  0
   -1.0635  -37.5852   39.6853 H   0  0  0  0  0
    0.4652  -37.9024   38.7311 H   0  0  0  0  0
   -1.7268  -39.9334   39.3226 H   0  0  0  0  0
   -0.2721  -40.2363   38.4106 H   0  0  0  0  0
   -0.0270  -43.1289   43.0167 H   0  0  0  0  0
    1.4470  -43.4226   42.0617 H   0  0  0  0  0
    1.5727  -42.7884   43.7209 H   0  0  0  0  0
    1.9303  -41.0089   42.0464 H   0  0  0  0  0
    0.4395  -40.7118   43.0123 H   0  0  0  0  0
    0.5272  -41.9124   40.2018 H   0  0  0  0  0
   -0.9259  -41.6207   41.1433 H   0  0  0  0  0
  2  1  1  0  0  0
  3  2  1  0  0  0
  5  3  1  0  0  0
  3  6  1  0  0  0
  4 16  1  0  0  0
 19  4  1  0  0  0
 12  5  1  0  0  0
  6  7  1  0  0  0
  8  6  1  0  0  0
  8  9  1  0  0  0
 10  8  1  0  0  0
 10 11  1  0  0  0
 12 10  1  0  0  0
 13 12  1  0  0  0
 14 13  1  0  0  0
 15 14  1  0  0  0
 16 15  1  0  0  0
 18 17  1  0  0  0
 18 19  1  0  0  0
  1 20  1  0  0  0
  2 21  1  0  0  0
  2 22  1  0  0  0
  3 23  1  0  0  0
  4 24  1  0  0  0
  4 25  1  0  0  0
  6 26  1  0  0  0
  7 27  1  0  0  0
  8 28  1  0  0  0
  9 29  1  0  0  0
 10 30  1  0  0  0
 11 31  1  0  0  0
 12 32  1  0  0  0
 14 33  1  0  0  0
 14 34  1  0  0  0
 15 35  1  0  0  0
 15 36  1  0  0  0
 16 37  1  0  0  0
 16 38  1  0  0  0
 17 39  1  0  0  0
 17 40  1  0  0  0
 17 41  1  0  0  0
 18 42  1  0  0  0
 18 43  1  0  0  0
 19 44  1  0  0  0
 19 45  1  0  0  0
M  END
$$$$
