4j51_ligand
  -I-interpret- 

 56 60  0  0  0  0  0  0  0  0999 V2000
   31.6580   -5.3800   35.1020 C   0  0  0  0  0
   31.5460   -4.0430   35.4700 C   0  0  0  0  0
   32.5200   -3.4850   36.3140 C   0  0  0  0  0
   33.5780   -4.2730   36.7580 C   0  0  0  0  0
   33.6590   -5.6040   36.3720 C   0  0  0  0  0
   32.7130   -6.1530   35.5510 C   0  0  0  0  0
   34.5290   -6.6310   36.6040 C   0  0  0  0  0
   34.0040   -7.7000   35.9020 C   0  0  0  0  0
   32.9560   -7.3480   35.3190 O   0  0  0  0  0
   34.4720   -8.9890   35.7850 C   0  0  0  0  0
   34.1400   -9.9460   36.7400 C   0  0  0  0  0
   34.5900  -11.2450   36.6660 C   0  0  0  0  0
   35.4060  -11.6880   35.6350 C   0  0  0  0  0
   35.7390  -10.7310   34.6750 C   0  0  0  0  0
   35.2870   -9.4290   34.7500 C   0  0  0  0  0
   35.8230  -13.0140   35.6350 O   0  0  0  0  0
   35.1570  -13.9710   34.8240 C   0  0  0  0  0
   34.3140  -14.9250   35.6640 C   0  0  0  0  0
   35.0560  -15.9260   36.2700 N   0  0  0  0  0
   33.1120  -14.8080   35.7900 O   0  0  0  0  0
   34.4780  -16.9440   37.1360 C   0  0  0  0  0
   35.3920  -18.1470   37.0300 C   0  0  0  0  0
   35.0810  -17.4760   38.3670 C   0  0  0  0  0
   35.6220   -6.5110   37.3690 C   0  0  0  0  0
   36.6620   -6.4150   38.0130 C   0  0  0  0  0
   37.8210   -6.3150   38.6450 C   0  0  0  0  0
   38.9900   -6.2040   37.9020 C   0  0  0  0  0
   40.2090   -6.0950   38.5320 C   0  0  0  0  0
   40.2820   -6.0960   39.9050 C   0  0  0  0  0
   39.1280   -6.2070   40.6550 C   0  0  0  0  0
   39.2410   -6.2090   42.3790 Cl  0  0  0  0  0
   37.8880   -6.3170   40.0300 C   0  0  0  0  0
   32.4660   -2.1710   36.7190 C   0  0  0  0  0
   33.2760   -1.3480   36.3810 O   0  0  0  0  0
   31.4990   -1.6690   37.5270 O   0  0  0  0  0
   30.4650   -3.3570   34.9730 O   0  0  0  0  0
   30.9045   -5.8239   34.4514 H   0  0  0  0  0
   34.3417   -3.8457   37.4078 H   0  0  0  0  0
   33.5018   -9.6569   37.5750 H   0  0  0  0  0
   34.2952  -11.9494   37.4438 H   0  0  0  0  0
   36.3762  -11.0211   33.8396 H   0  0  0  0  0
   35.5790   -8.7235   33.9721 H   0  0  0  0  0
   35.9077  -14.5529   34.2892 H   0  0  0  0  0
   34.4976  -13.4418   34.1360 H   0  0  0  0  0
   36.0615  -15.9512   36.1003 H   0  0  0  0  0
   33.4480  -16.6103   37.0100 H   0  0  0  0  0
   36.2454  -18.4994   36.4506 H   0  0  0  0  0
   35.4183  -19.1391   36.5793 H   0  0  0  0  0
   34.7615  -17.7680   39.3674 H   0  0  0  0  0
   35.6256  -17.0997   39.2330 H   0  0  0  0  0
   38.9414   -6.2032   36.8131 H   0  0  0  0  0
   41.1201   -6.0075   37.9400 H   0  0  0  0  0
   41.2490   -6.0093   40.4005 H   0  0  0  0  0
   36.9785   -6.4039   40.6244 H   0  0  0  0  0
   30.8852   -2.3686   37.7624 H   0  0  0  0  0
   30.4893   -2.4510   35.2895 H   0  0  0  0  0
  1  2  4  0  0  0
  1  6  4  0  0  0
  2  3  4  0  0  0
  2 36  1  0  0  0
  3  4  4  0  0  0
  3 33  1  0  0  0
  4  5  4  0  0  0
  5  6  4  0  0  0
  5  7  4  0  0  0
  6  9  4  0  0  0
  7  8  4  0  0  0
  7 24  1  0  0  0
  8  9  4  0  0  0
  8 10  1  0  0  0
 10 11  4  0  0  0
 10 15  4  0  0  0
 11 12  4  0  0  0
 12 13  4  0  0  0
 13 14  4  0  0  0
 13 16  1  0  0  0
 14 15  4  0  0  0
 16 17  1  0  0  0
 17 18  1  0  0  0
 18 19  1  0  0  0
 18 20  2  0  0  0
 19 21  1  0  0  0
 21 22  1  0  0  0
 21 23  1  0  0  0
 22 23  1  0  0  0
 24 25  3  0  0  0
 25 26  1  0  0  0
 26 27  4  0  0  0
 26 32  4  0  0  0
 27 28  4  0  0  0
 28 29  4  0  0  0
 29 30  4  0  0  0
 30 31  1  0  0  0
 30 32  4  0  0  0
 33 34  2  0  0  0
 33 35  1  0  0  0
  1 37  1  0  0  0
  4 38  1  0  0  0
 11 39  1  0  0  0
 12 40  1  0  0  0
 14 41  1  0  0  0
 15 42  1  0  0  0
 17 43  1  0  0  0
 17 44  1  0  0  0
 19 45  1  0  0  0
 21 46  1  0  0  0
 22 47  1  0  0  0
 22 48  1  0  0  0
 23 49  1  0  0  0
 23 50  1  0  0  0
 27 51  1  0  0  0
 28 52  1  0  0  0
 29 53  1  0  0  0
 32 54  1  0  0  0
 35 55  1  0  0  0
 36 56  1  0  0  0
M  END
$$$$
