2jbu_ligand
  -I-interpret- 

 74 73  0  0  0  0  0  0  0  0999 V2000
 -108.0050   43.9870    5.7020 N   0  3  0  0  0
 -106.7880   43.4470    5.0830 C   0  0  0  0  0
 -107.0530   41.9860    4.6640 C   0  0  0  0  0
 -106.9760   41.0580    5.4790 O   0  0  0  0  0
 -105.5720   43.5520    6.0820 C   0  0  0  0  0
 -107.3740   41.7960    3.3830 N   0  0  0  0  0
 -107.6980   40.4720    2.8400 C   0  0  0  0  0
 -106.5910   39.8360    2.0010 C   0  0  0  0  0
 -106.0390   40.4710    1.1030 O   0  0  0  0  0
 -108.9830   40.5620    2.0100 C   0  0  0  0  0
 -106.2860   38.5740    2.2950 N   0  0  0  0  0
 -105.2550   37.8240    1.5800 C   0  0  0  0  0
 -105.7770   37.4170    0.1690 C   0  0  0  0  0
 -106.8180   36.7610    0.0580 O   0  0  0  0  0
 -104.8410   36.5810    2.4360 C   0  0  0  0  0
 -105.0630   37.8240   -0.8950 N   0  0  0  0  0
 -105.4590   37.5350   -2.2940 C   0  0  0  0  0
 -104.7300   36.3490   -2.9670 C   0  0  0  0  0
 -103.8670   35.7060   -2.3540 O   0  0  0  0  0
 -105.3090   38.8220   -3.1730 C   0  0  0  0  0
 -105.0880   36.0650   -4.2270 N   0  0  0  0  0
 -104.4990   34.9500   -4.9960 C   0  0  0  0  0
 -103.2200   35.3170   -5.7470 C   0  0  0  0  0
 -102.1570   34.7530   -5.4900 O   0  0  0  0  0
 -105.5290   34.3710   -5.9960 C   0  0  0  0  0
 -103.3340   36.2430   -6.6940 N   0  0  0  0  0
 -102.1870   36.6850   -7.4820 C   0  0  0  0  0
 -101.7750   38.0880   -7.0340 C   0  0  0  0  0
 -102.6250   38.9480   -6.7690 O   0  0  0  0  0
 -102.5340   36.6820   -8.9940 C   0  0  0  0  0
 -100.4640   38.2980   -6.9370 N   0  0  0  0  0
  -99.8940   39.5850   -6.5460 C   0  0  0  0  0
 -100.6400   40.7220   -7.2410 C   0  0  0  0  0
 -100.2530   41.0530   -8.3810 O   0  0  0  0  0
  -98.4130   39.6250   -6.9160 C   0  0  0  0  0
 -101.6120   41.2450   -6.6550 O   0  0  0  0  0
 -107.8417   44.9537    5.9835 H   0  0  0  0  0
 -108.7712   43.9522    5.0296 H   0  0  0  0  0
 -108.2446   43.4289    6.5214 H   0  0  0  0  0
 -106.5283   44.0266    4.1972 H   0  0  0  0  0
 -105.7881   42.9699    6.9779 H   0  0  0  0  0
 -104.6743   43.1625    5.6019 H   0  0  0  0  0
 -105.4162   44.5959    6.3542 H   0  0  0  0  0
 -107.3950   42.6015    2.7576 H   0  0  0  0  0
 -107.8261   39.8193    3.7035 H   0  0  0  0  0
 -108.8009   41.1728    1.1258 H   0  0  0  0  0
 -109.2879   39.5609    1.7051 H   0  0  0  0  0
 -109.7710   41.0160    2.6108 H   0  0  0  0  0
 -106.7924   38.1115    3.0500 H   0  0  0  0  0
 -104.3701   38.4427    1.4308 H   0  0  0  0  0
 -104.4515   36.9167    3.3971 H   0  0  0  0  0
 -105.7122   35.9461    2.5973 H   0  0  0  0  0
 -104.0720   36.0175    1.9077 H   0  0  0  0  0
 -104.2086   38.3567   -0.7319 H   0  0  0  0  0
 -106.5012   37.2228   -2.2279 H   0  0  0  0  0
 -105.9494   39.6091   -2.7748 H   0  0  0  0  0
 -104.2707   39.1532   -3.1558 H   0  0  0  0  0
 -105.6029   38.5966   -4.1981 H   0  0  0  0  0
 -105.7984   36.6443   -4.6744 H   0  0  0  0  0
 -104.2253   34.2014   -4.2525 H   0  0  0  0  0
 -106.3971   34.0028   -5.4492 H   0  0  0  0  0
 -105.8394   35.1527   -6.6893 H   0  0  0  0  0
 -105.0732   33.5512   -6.5512 H   0  0  0  0  0
 -104.2487   36.6564   -6.8753 H   0  0  0  0  0
 -101.3566   35.9972   -7.3226 H   0  0  0  0  0
 -102.8075   35.6724   -9.3007 H   0  0  0  0  0
 -103.3703   37.3572   -9.1749 H   0  0  0  0  0
 -101.6671   37.0142   -9.5651 H   0  0  0  0  0
  -99.8298   37.5266   -7.1448 H   0  0  0  0  0
  -99.9959   39.7082   -5.4678 H   0  0  0  0  0
  -97.8882   38.8235   -6.3961 H   0  0  0  0  0
  -98.3051   39.4932   -7.9926 H   0  0  0  0  0
  -97.9923   40.5867   -6.6224 H   0  0  0  0  0
 -101.7244   40.8341   -5.7947 H   0  0  0  0  0
  2  1  1  0  0  0
  2  5  1  0  0  0
  3  2  1  0  0  0
  3  4  2  0  0  0
  7  6  1  0  0  0
  7 10  1  0  0  0
  8  7  1  0  0  0
  8  9  2  0  0  0
  6  3  1  0  0  0
 12 11  1  0  0  0
 12 15  1  0  0  0
 13 12  1  0  0  0
 13 14  2  0  0  0
 11  8  1  0  0  0
 17 16  1  0  0  0
 17 20  1  0  0  0
 18 17  1  0  0  0
 18 19  2  0  0  0
 16 13  1  0  0  0
 22 21  1  0  0  0
 22 25  1  0  0  0
 23 22  1  0  0  0
 23 24  2  0  0  0
 21 18  1  0  0  0
 27 26  1  0  0  0
 27 30  1  0  0  0
 28 27  1  0  0  0
 28 29  2  0  0  0
 26 23  1  0  0  0
 31 32  1  0  0  0
 32 35  1  0  0  0
 32 33  1  0  0  0
 33 34  2  0  0  0
 33 36  1  0  0  0
 28 31  1  0  0  0
  1 37  1  0  0  0
  1 38  1  0  0  0
  1 39  1  0  0  0
  2 40  1  0  0  0
  5 41  1  0  0  0
  5 42  1  0  0  0
  5 43  1  0  0  0
  6 44  1  0  0  0
  7 45  1  0  0  0
 10 46  1  0  0  0
 10 47  1  0  0  0
 10 48  1  0  0  0
 11 49  1  0  0  0
 12 50  1  0  0  0
 15 51  1  0  0  0
 15 52  1  0  0  0
 15 53  1  0  0  0
 16 54  1  0  0  0
 17 55  1  0  0  0
 20 56  1  0  0  0
 20 57  1  0  0  0
 20 58  1  0  0  0
 21 59  1  0  0  0
 22 60  1  0  0  0
 25 61  1  0  0  0
 25 62  1  0  0  0
 25 63  1  0  0  0
 26 64  1  0  0  0
 27 65  1  0  0  0
 30 66  1  0  0  0
 30 67  1  0  0  0
 30 68  1  0  0  0
 31 69  1  0  0  0
 32 70  1  0  0  0
 35 71  1  0  0  0
 35 72  1  0  0  0
 35 73  1  0  0  0
 36 74  1  0  0  0
M  END
$$$$
