3nwb_ligand
  -I-interpret- 

 63 67  0  0  0  0  0  0  0  0999 V2000
   -3.1670   20.6380   14.4800 C   0  0  0  0  0
   -3.7600   21.3440   15.6780 C   0  0  0  0  0
   -5.0940   21.5650   15.1430 C   0  0  0  0  0
   -4.8370   22.0780   13.8060 C   0  0  0  0  0
   -3.6750   21.3130   13.3460 O   0  0  0  0  0
   -3.7160   20.4900   16.7630 F   0  0  0  0  0
   -5.8360   22.4750   15.8990 O   0  0  0  0  0
   -3.5020   19.1660   14.4640 C   0  0  0  0  0
    1.8380   13.9320   14.1710 C   0  0  0  0  0
    1.8140   12.7340   14.8920 C   0  0  0  0  0
    0.6040   12.2180   15.4080 C   0  0  0  0  0
   -0.5760   12.9510   15.1280 C   0  0  0  0  0
   -0.5610   14.1130   14.4010 C   0  0  0  0  0
    0.6540   14.6300   13.9170 C   0  0  0  0  0
    0.5670   10.9790   16.1650 C   0  0  0  0  0
   -0.3360   10.8120   17.2110 C   0  0  0  0  0
   -0.3490    9.6580   17.9310 C   0  0  0  0  0
    0.5080    8.6150   17.5970 C   0  0  0  0  0
    1.3970    8.7620   16.5680 C   0  0  0  0  0
    1.3740    9.9440   15.8470 C   0  0  0  0  0
    0.7860   15.7610   13.1340 O   0  0  0  0  0
    3.0130   14.4530   13.6750 O   0  0  0  0  0
    0.5060    7.4920   18.3100 F   0  0  0  0  0
   -1.8640   14.7980   14.2290 C   0  0  0  0  0
   -1.8380   16.0890   13.7970 N   0  0  0  0  0
   -2.9110   14.2920   14.5160 O   0  0  0  0  0
   -3.1000   16.8630   13.6920 C   0  0  0  0  0
   -2.7180   18.2880   13.8240 C   0  0  0  0  0
   -5.8610   21.8580   12.8170 N   0  0  0  0  0
   -7.2260   20.8400   11.4210 N   0  0  0  0  0
   -6.4270   20.6750   12.5050 C   0  0  0  0  0
   -7.1050   22.1580   11.0350 C   0  0  0  0  0
   -6.2550   22.7920   11.8960 C   0  0  0  0  0
   -5.9360   24.0860   11.7750 N   0  0  0  0  0
   -6.5080   24.7620   10.7430 C   0  0  0  0  0
   -7.3510   24.1660    9.8510 N   0  0  0  0  0
   -7.6870   22.8980   10.0000 C   0  0  0  0  0
   -8.6030   22.3980    9.0730 N   0  0  0  0  0
   -9.1110   21.0490    9.1470 C   0  0  0  0  0
   -2.0778   20.6723   14.5024 H   0  0  0  0  0
   -3.2800   22.2521   16.0429 H   0  0  0  0  0
   -5.6945   20.6554   15.1533 H   0  0  0  0  0
   -4.7375   23.1600   13.8919 H   0  0  0  0  0
   -5.9904   22.1115   16.7740 H   0  0  0  0  0
   -4.3944   18.8125   14.9805 H   0  0  0  0  0
    2.7435   12.1896   15.0586 H   0  0  0  0  0
   -1.5287   12.5778   15.5038 H   0  0  0  0  0
   -1.0368   11.6106   17.4546 H   0  0  0  0  0
   -1.0334    9.5504   18.7725 H   0  0  0  0  0
    2.1045    7.9701   16.3221 H   0  0  0  0  0
    2.0353   10.0432   14.9863 H   0  0  0  0  0
   -0.0748   16.1693   13.0159 H   0  0  0  0  0
    2.8278   15.2737   13.2127 H   0  0  0  0  0
   -0.9506   16.5245   13.5454 H   0  0  0  0  0
   -3.8077   16.5708   14.4678 H   0  0  0  0  0
   -3.6002   16.6750   12.7420 H   0  0  0  0  0
   -1.7781   18.6300   13.3908 H   0  0  0  0  0
   -6.2684   19.7373   13.0376 H   0  0  0  0  0
   -6.2841   25.8221   10.6237 H   0  0  0  0  0
   -8.9237   23.0055    8.3190 H   0  0  0  0  0
   -8.2819   20.3453    9.0730 H   0  0  0  0  0
   -9.6255   20.9075   10.0974 H   0  0  0  0  0
   -9.8079   20.8790    8.3263 H   0  0  0  0  0
  1  2  1  0  0  0
  1  5  1  0  0  0
  8  1  1  0  0  0
  2  3  1  0  0  0
  2  6  1  0  0  0
  4  3  1  0  0  0
  3  7  1  0  0  0
  5  4  1  0  0  0
  4 29  1  0  0  0
 28  8  2  0  0  0
  9 10  4  0  0  0
 14  9  4  0  0  0
  9 22  1  0  0  0
 11 10  4  0  0  0
 12 11  4  0  0  0
 11 15  1  0  0  0
 13 12  4  0  0  0
 13 14  4  0  0  0
 24 13  1  0  0  0
 14 21  1  0  0  0
 15 16  4  0  0  0
 15 20  4  0  0  0
 16 17  4  0  0  0
 17 18  4  0  0  0
 19 18  4  0  0  0
 18 23  1  0  0  0
 20 19  4  0  0  0
 25 24  1  0  0  0
 24 26  2  0  0  0
 27 25  1  0  0  0
 27 28  1  0  0  0
 29 31  4  0  0  0
 29 33  4  0  0  0
 31 30  4  0  0  0
 30 32  4  0  0  0
 32 33  4  0  0  0
 32 37  4  0  0  0
 33 34  4  0  0  0
 34 35  4  0  0  0
 35 36  4  0  0  0
 36 37  4  0  0  0
 37 38  1  0  0  0
 38 39  1  0  0  0
  1 40  1  0  0  0
  2 41  1  0  0  0
  3 42  1  0  0  0
  4 43  1  0  0  0
  7 44  1  0  0  0
  8 45  1  0  0  0
 10 46  1  0  0  0
 12 47  1  0  0  0
 16 48  1  0  0  0
 17 49  1  0  0  0
 19 50  1  0  0  0
 20 51  1  0  0  0
 21 52  1  0  0  0
 22 53  1  0  0  0
 25 54  1  0  0  0
 27 55  1  0  0  0
 27 56  1  0  0  0
 28 57  1  0  0  0
 31 58  1  0  0  0
 35 59  1  0  0  0
 38 60  1  0  0  0
 39 61  1  0  0  0
 39 62  1  0  0  0
 39 63  1  0  0  0
M  END
$$$$
