5oq7_ligand
  -I-interpret- 

 57 60  0  0  0  0  0  0  0  0999 V2000
    0.8780   -4.5700   19.7330 C   0  0  0  0  0
    1.7990   -4.9680   18.7650 C   0  0  0  0  0
    1.3610   -5.8220   17.7330 C   0  0  0  0  0
    0.0240   -6.2260   17.6830 C   0  0  0  0  0
   -0.8850   -5.8140   18.6630 C   0  0  0  0  0
   -0.4660   -4.9840   19.7210 C   0  0  0  0  0
    2.2610   -6.2140   16.7710 O   0  0  0  0  0
    1.9890   -7.3930   15.9540 C   0  0  0  0  0
    3.2630   -7.7100   15.1450 C   0  0  0  0  0
   -1.4060   -4.5460   20.7420 N   0  0  0  0  0
    3.2940   -4.4930   18.8390 C   0  0  0  0  0
    4.2650   -5.1770   18.1690 N   0  0  0  0  0
    3.5960   -3.5340   19.5450 O   0  0  0  0  0
    5.5920   -4.7490   17.8920 C   0  0  0  0  0
    6.1640   -3.6090   18.4060 C   0  0  0  0  0
    7.4550   -3.2660   18.0870 C   0  0  0  0  0
    8.1910   -4.0990   17.2480 C   0  0  0  0  0
    7.6150   -5.1860   16.7350 N   0  0  0  0  0
    6.3680   -5.5230   17.0370 C   0  0  0  0  0
    3.8480   -6.7410   14.3360 C   0  0  0  0  0
    5.0160   -6.9880   13.6210 C   0  0  0  0  0
    5.6010   -8.2290   13.7020 C   0  0  0  0  0
    4.9990   -9.2010   14.4960 C   0  0  0  0  0
    3.8490   -8.9590   15.2340 C   0  0  0  0  0
   -0.9120   -3.9240   21.9890 C   0  0  0  0  0
   -1.8700   -4.1750   23.1900 C   0  0  0  0  0
   -3.2840   -3.9910   22.8230 N   0  3  0  0  0
   -3.6800   -4.9600   21.7900 C   0  0  0  0  0
   -2.9000   -4.6660   20.5070 C   0  0  0  0  0
   -4.1630   -4.0360   24.0100 C   0  0  0  0  0
    1.2138   -3.9101   20.5329 H   0  0  0  0  0
   -0.3143   -6.8696   16.8709 H   0  0  0  0  0
   -1.9244   -6.1374   18.6076 H   0  0  0  0  0
    1.1518   -7.2031   15.2824 H   0  0  0  0  0
    1.7227   -8.2391   16.5875 H   0  0  0  0  0
    4.0095   -6.1033   17.8269 H   0  0  0  0  0
    5.5862   -2.9704   19.0742 H   0  0  0  0  0
    7.8980   -2.3533   18.4855 H   0  0  0  0  0
    9.2291   -3.8641   17.0129 H   0  0  0  0  0
    5.9418   -6.4282   16.6045 H   0  0  0  0  0
    3.3781   -5.7604   14.2601 H   0  0  0  0  0
    5.4613   -6.2071   13.0045 H   0  0  0  0  0
    6.5182   -8.4478   13.1553 H   0  0  0  0  0
    5.4493  -10.1927   14.5399 H   0  0  0  0  0
    3.4185   -9.7342   15.8679 H   0  0  0  0  0
   -0.8443   -2.8481   21.8279 H   0  0  0  0  0
    0.0553   -4.3656   22.2284 H   0  0  0  0  0
   -1.6270   -3.4566   23.9729 H   0  0  0  0  0
   -1.7370   -5.2054   23.5197 H   0  0  0  0  0
   -3.3941   -3.0594   22.4225 H   0  0  0  0  0
   -4.7496   -4.8760   21.5976 H   0  0  0  0  0
   -3.4596   -5.9716   22.1308 H   0  0  0  0  0
   -3.0642   -5.4953   19.8189 H   0  0  0  0  0
   -3.2535   -3.7135   20.1122 H   0  0  0  0  0
   -4.0572   -5.0026   24.5025 H   0  0  0  0  0
   -3.8795   -3.2419   24.7008 H   0  0  0  0  0
   -5.1984   -3.8965   23.6993 H   0  0  0  0  0
  1  2  4  0  0  0
  1  6  4  0  0  0
  2  3  4  0  0  0
  2 11  1  0  0  0
  3  4  4  0  0  0
  3  7  1  0  0  0
  4  5  4  0  0  0
  5  6  4  0  0  0
  6 10  1  0  0  0
  7  8  1  0  0  0
  8  9  1  0  0  0
  9 20  4  0  0  0
  9 24  4  0  0  0
 10 25  1  0  0  0
 10 29  1  0  0  0
 11 12  1  0  0  0
 11 13  2  0  0  0
 12 14  1  0  0  0
 14 15  4  0  0  0
 14 19  4  0  0  0
 15 16  4  0  0  0
 16 17  4  0  0  0
 17 18  4  0  0  0
 18 19  4  0  0  0
 20 21  4  0  0  0
 21 22  4  0  0  0
 22 23  4  0  0  0
 23 24  4  0  0  0
 25 26  1  0  0  0
 26 27  1  0  0  0
 27 28  1  0  0  0
 27 30  1  0  0  0
 28 29  1  0  0  0
  1 31  1  0  0  0
  4 32  1  0  0  0
  5 33  1  0  0  0
  8 34  1  0  0  0
  8 35  1  0  0  0
 12 36  1  0  0  0
 15 37  1  0  0  0
 16 38  1  0  0  0
 17 39  1  0  0  0
 19 40  1  0  0  0
 20 41  1  0  0  0
 21 42  1  0  0  0
 22 43  1  0  0  0
 23 44  1  0  0  0
 24 45  1  0  0  0
 25 46  1  0  0  0
 25 47  1  0  0  0
 26 48  1  0  0  0
 26 49  1  0  0  0
 27 50  1  0  0  0
 28 51  1  0  0  0
 28 52  1  0  0  0
 29 53  1  0  0  0
 29 54  1  0  0  0
 30 55  1  0  0  0
 30 56  1  0  0  0
 30 57  1  0  0  0
M  END
$$$$
