3m3e_ligand
  -I-interpret- 

 63 65  0  0  0  0  0  0  0  0999 V2000
   39.3280    3.7230    6.5370 C   0  0  0  0  0
   38.2470    4.1620    5.5470 C   0  0  0  0  0
   37.0530    4.7920    6.2640 C   0  0  0  0  0
   36.5590    3.8290    7.3440 C   0  0  0  0  0
   37.7240    3.4830    8.2730 C   0  0  0  0  0
   37.2320    2.5580    9.3880 C   0  0  0  0  0
   38.7960    5.0810    4.6000 O   0  0  0  0  0
   36.0130    5.0390    5.3150 O   0  0  0  0  0
   36.0670    2.6320    6.7340 O   0  0  0  0  0
   38.7660    2.8410    7.5230 O   0  0  0  0  0
   38.2860    2.3290   10.3270 O   0  0  0  0  0
   44.0710    1.9360    7.2740 O   0  0  0  0  0
   44.0380    2.6930    6.0540 C   0  0  0  0  0
   42.6590    2.5470    5.4080 C   0  0  0  0  0
   42.6350    3.3230    4.1600 N   0  0  0  0  0
   41.6060    3.1100    6.3640 C   0  0  0  0  0
   40.3060    3.0030    5.7710 O   0  0  0  0  0
   41.6960    2.3130    7.6670 C   0  0  0  0  0
   41.3990    0.9380    7.4070 O   0  0  0  0  0
   43.1150    2.4260    8.2280 C   0  0  0  0  0
   43.2320    1.6240    9.5250 C   0  0  0  0  0
   44.5570    1.7600   10.0450 O   0  0  0  0  0
   42.8570    2.7610    2.9760 C   0  0  0  0  0
   43.1110    1.4280    2.8950 O   0  0  0  0  0
   42.8450    3.5400    1.8250 C   0  0  0  0  0
   47.4730    5.3640    8.4550 C   0  0  0  0  0
   46.3120    6.1270    8.4260 C   0  0  0  0  0
   45.2070    5.6780    7.7120 C   0  0  0  0  0
   45.2600    4.4710    7.0240 C   0  0  0  0  0
   46.4200    3.7050    7.0560 C   0  0  0  0  0
   47.5250    4.1530    7.7730 C   0  0  0  0  0
   44.1820    4.1040    6.2810 O   0  0  0  0  0
   48.5300    5.8020    9.1340 N   0  0  0  0  0
   49.7210    5.0280    9.1800 O   0  0  0  0  0
   48.4610    7.0450    9.8210 O   0  0  0  0  0
   39.7599    4.5822    7.0500 H   0  0  0  0  0
   37.8898    3.2752    5.0235 H   0  0  0  0  0
   37.3453    5.7346    6.7267 H   0  0  0  0  0
   35.7565    4.2981    7.9132 H   0  0  0  0  0
   38.1193    4.3967    8.7168 H   0  0  0  0  0
   36.9206    1.6068    8.9563 H   0  0  0  0  0
   36.3895    3.0248    9.8983 H   0  0  0  0  0
   39.5441    4.6737    4.1572 H   0  0  0  0  0
   36.3328    5.6441    4.6418 H   0  0  0  0  0
   35.3358    2.8486    6.1508 H   0  0  0  0  0
   37.9717    1.7483   11.0239 H   0  0  0  0  0
   44.8551    2.3152    5.4395 H   0  0  0  0  0
   42.4509    1.4978    5.1983 H   0  0  0  0  0
   42.4420    4.3236    4.2038 H   0  0  0  0  0
   41.7814    4.1660    6.5692 H   0  0  0  0  0
   40.9811    2.7093    8.3881 H   0  0  0  0  0
   41.4558    0.4392    8.2253 H   0  0  0  0  0
   43.3225    3.4764    8.4322 H   0  0  0  0  0
   43.0241    0.5729    9.3248 H   0  0  0  0  0
   42.5133    1.9998   10.2532 H   0  0  0  0  0
   44.6331    1.2574   10.8594 H   0  0  0  0  0
   43.8206    3.4871    1.3418 H   0  0  0  0  0
   42.0801    3.1675    1.1437 H   0  0  0  0  0
   42.6249    4.5741    2.0900 H   0  0  0  0  0
   46.2678    7.0752    8.9618 H   0  0  0  0  0
   44.2951    6.2748    7.6914 H   0  0  0  0  0
   46.4635    2.7564    6.5210 H   0  0  0  0  0
   48.4345    3.5529    7.8003 H   0  0  0  0  0
  1  2  1  0  0  0
  1 10  1  0  0  0
 17  1  1  0  0  0
  2  3  1  0  0  0
  2  7  1  0  0  0
  3  4  1  0  0  0
  3  8  1  0  0  0
  5  4  1  0  0  0
  4  9  1  0  0  0
  5  6  1  0  0  0
 10  5  1  0  0  0
  6 11  1  0  0  0
 13 12  1  0  0  0
 12 20  1  0  0  0
 13 14  1  0  0  0
 32 13  1  0  0  0
 14 15  1  0  0  0
 14 16  1  0  0  0
 15 23  1  0  0  0
 16 17  1  0  0  0
 16 18  1  0  0  0
 18 19  1  0  0  0
 20 18  1  0  0  0
 20 21  1  0  0  0
 21 22  1  0  0  0
 23 24  2  0  0  0
 23 25  1  0  0  0
 27 26  4  0  0  0
 26 31  4  0  0  0
 26 33  1  0  0  0
 28 27  4  0  0  0
 29 28  4  0  0  0
 29 30  4  0  0  0
 29 32  1  0  0  0
 30 31  4  0  0  0
 33 34  2  0  0  0
 33 35  2  0  0  0
  1 36  1  0  0  0
  2 37  1  0  0  0
  3 38  1  0  0  0
  4 39  1  0  0  0
  5 40  1  0  0  0
  6 41  1  0  0  0
  6 42  1  0  0  0
  7 43  1  0  0  0
  8 44  1  0  0  0
  9 45  1  0  0  0
 11 46  1  0  0  0
 13 47  1  0  0  0
 14 48  1  0  0  0
 15 49  1  0  0  0
 16 50  1  0  0  0
 18 51  1  0  0  0
 19 52  1  0  0  0
 20 53  1  0  0  0
 21 54  1  0  0  0
 21 55  1  0  0  0
 22 56  1  0  0  0
 25 57  1  0  0  0
 25 58  1  0  0  0
 25 59  1  0  0  0
 27 60  1  0  0  0
 28 61  1  0  0  0
 30 62  1  0  0  0
 31 63  1  0  0  0
M  END
$$$$
