3s54_ligand
  -I-interpret- 

 75 78  0  0  0  0  0  0  0  0999 V2000
   21.1120   28.7880   14.2350 N   0  0  0  0  0
   20.4600   27.6390   14.5790 C   0  0  0  0  0
   19.1300   27.4450   14.1920 C   0  0  0  0  0
   18.4500   26.2650   14.5460 C   0  0  0  0  0
   19.2130   25.2940   15.2130 C   0  0  0  0  0
   20.5200   25.5070   15.6660 C   0  0  0  0  0
   21.1930   26.6980   15.3250 C   0  0  0  0  0
   18.3560   23.8210   15.8620 S   0  0  0  0  0
   17.1620   23.5110   14.8740 O   0  0  0  0  0
   19.3970   22.6140   15.9200 O   0  0  0  0  0
   17.7290   24.0760   17.5190 N   0  0  0  0  0
   18.7290   24.4300   18.5850 C   0  0  0  0  0
   18.3710   23.7800   19.9610 C   0  0  0  0  0
   18.2810   22.2690   19.7720 C   0  0  0  0  0
   19.5510   24.1170   20.8820 C   0  0  0  0  0
   16.4540   24.9030   17.5330 C   0  0  0  0  0
   15.2710   23.9940   17.9900 C   0  0  0  0  0
   14.1340   24.7930   18.3030 O   0  0  0  0  0
   14.8880   22.8570   16.9850 C   0  0  0  0  0
   14.0050   21.9430   17.6730 N   0  0  0  0  0
   14.3540   20.6720   17.9940 C   0  0  0  0  0
   15.4180   20.0960   17.5900 O   0  0  0  0  0
   13.3840   20.0720   18.8530 O   0  0  0  0  0
   13.4480   18.6010   18.9250 C   0  0  0  0  0
   12.8730   18.2950   20.3270 C   0  0  0  0  0
   11.4280   18.4540   20.2070 O   0  0  0  0  0
   11.1240   18.1000   18.8580 C   0  0  0  0  0
   10.1650   18.9750   18.2290 O   0  0  0  0  0
   10.8810   19.5210   17.1180 C   0  0  0  0  0
   11.9500   18.4790   16.7020 C   0  0  0  0  0
   12.3460   17.9580   18.0720 C   0  0  0  0  0
   14.0810   23.3350   15.7190 C   0  0  0  0  0
   12.3610   21.7300   14.7270 C   0  0  0  0  0
   11.9790   20.6200   13.9360 C   0  0  0  0  0
   13.0060   19.8890   13.2880 C   0  0  0  0  0
   14.3400   20.3110   13.3750 C   0  0  0  0  0
   14.7080   21.3970   14.2010 C   0  0  0  0  0
   13.6870   22.1650   14.7970 C   0  0  0  0  0
   20.6292   29.5063   13.6951 H   0  0  0  0  0
   22.0819   28.9282   14.5178 H   0  0  0  0  0
   18.6171   28.2126   13.6126 H   0  0  0  0  0
   17.3952   26.1143   14.3163 H   0  0  0  0  0
   21.0156   24.7550   16.2800 H   0  0  0  0  0
   22.2255   26.8799   15.6232 H   0  0  0  0  0
   18.7274   25.5130   18.7084 H   0  0  0  0  0
   19.7050   24.0568   18.2749 H   0  0  0  0  0
   17.4251   24.1377   20.3677 H   0  0  0  0  0
   17.5070   22.0413   19.0391 H   0  0  0  0  0
   19.2402   21.8905   19.4188 H   0  0  0  0  0
   18.0317   21.7993   20.7235 H   0  0  0  0  0
   20.4667   23.6973   20.4655 H   0  0  0  0  0
   19.6497   25.1995   20.9626 H   0  0  0  0  0
   19.3719   23.6927   21.8699 H   0  0  0  0  0
   16.2558   25.2936   16.5349 H   0  0  0  0  0
   16.5642   25.7405   18.2219 H   0  0  0  0  0
   15.6255   23.4749   18.8805 H   0  0  0  0  0
   13.4124   24.2250   18.5828 H   0  0  0  0  0
   15.8321   22.4299   16.6468 H   0  0  0  0  0
   13.0735   22.2696   17.9299 H   0  0  0  0  0
   14.4497   18.2643   18.6579 H   0  0  0  0  0
   13.2848   18.9671   21.0799 H   0  0  0  0  0
   13.1356   17.2884   20.6523 H   0  0  0  0  0
   10.6301   17.1291   18.8957 H   0  0  0  0  0
   11.3524   20.4647   17.3925 H   0  0  0  0  0
   10.2034   19.7264   16.2893 H   0  0  0  0  0
   12.7745   18.8848   16.1158 H   0  0  0  0  0
   11.5931   17.7143   16.0121 H   0  0  0  0  0
   12.7777   16.9812   17.8539 H   0  0  0  0  0
   14.7170   24.0132   15.1501 H   0  0  0  0  0
   13.1654   23.8152   16.0643 H   0  0  0  0  0
   11.5989   22.2606   15.2978 H   0  0  0  0  0
   10.9317   20.3373   13.8290 H   0  0  0  0  0
   12.7571   18.9935   12.7187 H   0  0  0  0  0
   15.1053   19.7934   12.7966 H   0  0  0  0  0
   15.7575   21.6355   14.3734 H   0  0  0  0  0
  2  1  1  0  0  0
  3  2  4  0  0  0
  7  2  4  0  0  0
  4  3  4  0  0  0
  5  4  4  0  0  0
  5  6  4  0  0  0
  8  5  1  0  0  0
  6  7  4  0  0  0
  8  9  2  0  0  0
  8 10  2  0  0  0
 11  8  1  0  0  0
 11 12  1  0  0  0
 16 11  1  0  0  0
 12 13  1  0  0  0
 13 14  1  0  0  0
 13 15  1  0  0  0
 17 16  1  0  0  0
 17 18  1  0  0  0
 19 17  1  0  0  0
 19 20  1  0  0  0
 32 19  1  0  0  0
 20 21  1  0  0  0
 21 22  2  0  0  0
 21 23  1  0  0  0
 23 24  1  0  0  0
 24 25  1  0  0  0
 24 31  1  0  0  0
 25 26  1  0  0  0
 27 26  1  0  0  0
 27 28  1  0  0  0
 31 27  1  0  0  0
 29 28  1  0  0  0
 30 29  1  0  0  0
 31 30  1  0  0  0
 38 32  1  0  0  0
 33 34  4  0  0  0
 33 38  4  0  0  0
 34 35  4  0  0  0
 35 36  4  0  0  0
 36 37  4  0  0  0
 37 38  4  0  0  0
  1 39  1  0  0  0
  1 40  1  0  0  0
  3 41  1  0  0  0
  4 42  1  0  0  0
  6 43  1  0  0  0
  7 44  1  0  0  0
 12 45  1  0  0  0
 12 46  1  0  0  0
 13 47  1  0  0  0
 14 48  1  0  0  0
 14 49  1  0  0  0
 14 50  1  0  0  0
 15 51  1  0  0  0
 15 52  1  0  0  0
 15 53  1  0  0  0
 16 54  1  0  0  0
 16 55  1  0  0  0
 17 56  1  0  0  0
 18 57  1  0  0  0
 19 58  1  0  0  0
 20 59  1  0  0  0
 24 60  1  0  0  0
 25 61  1  0  0  0
 25 62  1  0  0  0
 27 63  1  0  0  0
 29 64  1  0  0  0
 29 65  1  0  0  0
 30 66  1  0  0  0
 30 67  1  0  0  0
 31 68  1  0  0  0
 32 69  1  0  0  0
 32 70  1  0  0  0
 33 71  1  0  0  0
 34 72  1  0  0  0
 35 73  1  0  0  0
 36 74  1  0  0  0
 37 75  1  0  0  0
M  END
$$$$
