4qvm_ligand
  -I-interpret- 

 53 54  0  0  0  0  0  0  0  0999 V2000
   62.8590 -132.9540   36.0060 N   0  0  0  0  0
   62.3250 -134.1520   36.2970 C   0  0  0  0  0
   62.3150 -135.1640   35.3410 C   0  0  0  0  0
   62.8660 -134.9310   34.0780 N   0  0  0  0  0
   63.4200 -133.6830   33.7810 C   0  0  0  0  0
   63.4160 -132.6890   34.7490 C   0  0  0  0  0
   61.7860 -134.3510   37.5640 C   0  0  0  0  0
   61.1620 -133.4480   38.1180 O   0  0  0  0  0
   61.9940 -135.5610   38.1120 N   0  0  0  0  0
   61.5170 -135.8760   39.4640 C   0  0  0  0  0
   60.8160 -137.2060   39.5170 C   0  0  0  0  0
   59.6380 -137.0810   38.7640 C   0  0  0  0  0
   59.4790 -137.7960   37.5750 C   0  0  0  0  0
   58.3060 -137.6760   36.8340 C   0  0  0  0  0
   57.2810 -136.8420   37.2750 C   0  0  0  0  0
   57.4310 -136.1300   38.4610 C   0  0  0  0  0
   58.6030 -136.2520   39.2030 C   0  0  0  0  0
   62.7510 -135.9390   40.3400 C   0  0  0  0  0
   63.8640 -136.0290   39.8250 O   0  0  0  0  0
   62.5290 -135.8500   41.6590 N   0  0  0  0  0
   63.6510 -135.8520   42.6130 C   0  0  0  0  0
   63.7040 -134.5440   43.3650 C   0  0  0  0  0
   63.6750 -133.3700   42.3580 C   0  0  0  0  0
   63.0890 -132.1360   43.0550 C   0  0  0  0  0
   65.0790 -133.0720   41.8080 C   0  0  0  0  0
   63.5060 -136.9860   43.6440 B   0  0  0  0  0
   62.1960 -136.9490   44.2310 O   0  0  0  0  0
   63.7210 -138.2570   43.0170 O   0  0  0  0  0
   61.8789 -136.1347   35.5768 H   0  0  0  0  0
   63.8512 -133.4922   32.7982 H   0  0  0  0  0
   63.8430 -131.7097   34.5327 H   0  0  0  0  0
   62.4924 -136.2732   37.5784 H   0  0  0  0  0
   60.8017 -135.1210   39.7904 H   0  0  0  0  0
   60.5874 -137.4800   40.5469 H   0  0  0  0  0
   61.4514 -137.9927   39.1102 H   0  0  0  0  0
   60.2768 -138.4512   37.2253 H   0  0  0  0  0
   58.1896 -138.2363   35.9063 H   0  0  0  0  0
   56.3644 -136.7475   36.6928 H   0  0  0  0  0
   56.6310 -135.4767   38.8093 H   0  0  0  0  0
   58.7137 -135.6961   40.1340 H   0  0  0  0  0
   61.5723 -135.7801   42.0058 H   0  0  0  0  0
   64.5635 -135.9978   42.0349 H   0  0  0  0  0
   64.6221 -134.4982   43.9508 H   0  0  0  0  0
   62.8446 -134.4727   44.0317 H   0  0  0  0  0
   63.0495 -133.6425   41.5079 H   0  0  0  0  0
   62.0771 -132.3580   43.3939 H   0  0  0  0  0
   63.7110 -131.8741   43.9110 H   0  0  0  0  0
   63.0639 -131.3019   42.3538 H   0  0  0  0  0
   65.7418 -132.8071   42.6318 H   0  0  0  0  0
   65.4641 -133.9562   41.3001 H   0  0  0  0  0
   65.0233 -132.2421   41.1035 H   0  0  0  0  0
   62.1137 -137.6587   44.8722 H   0  0  0  0  0
   63.6278 -138.9545   43.6700 H   0  0  0  0  0
  1  2  4  0  0  0
  1  6  4  0  0  0
  2  3  4  0  0  0
  2  7  1  0  0  0
  3  4  4  0  0  0
  4  5  4  0  0  0
  5  6  4  0  0  0
  7  8  2  0  0  0
  7  9  1  0  0  0
  9 10  1  0  0  0
 10 11  1  0  0  0
 10 18  1  0  0  0
 11 12  1  0  0  0
 12 13  4  0  0  0
 12 17  4  0  0  0
 13 14  4  0  0  0
 14 15  4  0  0  0
 15 16  4  0  0  0
 16 17  4  0  0  0
 18 19  2  0  0  0
 18 20  1  0  0  0
 20 21  1  0  0  0
 21 22  1  0  0  0
 21 26  1  0  0  0
 22 23  1  0  0  0
 23 24  1  0  0  0
 23 25  1  0  0  0
 26 27  1  0  0  0
 26 28  1  0  0  0
  3 29  1  0  0  0
  5 30  1  0  0  0
  6 31  1  0  0  0
  9 32  1  0  0  0
 10 33  1  0  0  0
 11 34  1  0  0  0
 11 35  1  0  0  0
 13 36  1  0  0  0
 14 37  1  0  0  0
 15 38  1  0  0  0
 16 39  1  0  0  0
 17 40  1  0  0  0
 20 41  1  0  0  0
 21 42  1  0  0  0
 22 43  1  0  0  0
 22 44  1  0  0  0
 23 45  1  0  0  0
 24 46  1  0  0  0
 24 47  1  0  0  0
 24 48  1  0  0  0
 25 49  1  0  0  0
 25 50  1  0  0  0
 25 51  1  0  0  0
 27 52  1  0  0  0
 28 53  1  0  0  0
M  END
$$$$
