### 
### Created by X-TOOL on Mon Sep 10 21:13:23 2018
### 

@<TRIPOS>MOLECULE
4qvm_ligand
   53    54     1     0     0
SMALL
GAST_HUCK


@<TRIPOS>ATOM
      1 N1         62.8590 -132.9540   36.0060 N.ar      1 BO2        -0.2509
      2 C2         62.3250 -134.1520   36.2970 C.ar      1 BO2         0.1532
      3 C3         62.3150 -135.1640   35.3410 C.ar      1 BO2         0.0620
      4 N4         62.8660 -134.9310   34.0780 N.ar      1 BO2        -0.2653
      5 C5         63.4200 -133.6830   33.7810 C.ar      1 BO2         0.0462
      6 C6         63.4160 -132.6890   34.7490 C.ar      1 BO2         0.0475
      7 C7         61.7860 -134.3510   37.5640 C.2       1 BO2         0.2349
      8 O8         61.1620 -133.4480   38.1180 O.2       1 BO2        -0.3755
      9 N9         61.9940 -135.5610   38.1120 N.am      1 BO2        -0.2600
     10 C10        61.5170 -135.8760   39.4640 C.3       1 BO2         0.1378
     11 C11        60.8160 -137.2060   39.5170 C.3       1 BO2         0.0213
     12 C12        59.6380 -137.0810   38.7640 C.ar      1 BO2        -0.0385
     13 C13        59.4790 -137.7960   37.5750 C.ar      1 BO2        -0.0601
     14 C14        58.3060 -137.6760   36.8340 C.ar      1 BO2        -0.0686
     15 C15        57.2810 -136.8420   37.2750 C.ar      1 BO2        -0.0687
     16 C16        57.4310 -136.1300   38.4610 C.ar      1 BO2        -0.0686
     17 C17        58.6030 -136.2520   39.2030 C.ar      1 BO2        -0.0601
     18 C18        62.7510 -135.9390   40.3400 C.2       1 BO2         0.1755
     19 O19        63.8640 -136.0290   39.8250 O.2       1 BO2        -0.3969
     20 N20        62.5290 -135.8500   41.6590 N.am      1 BO2        -0.4361
     21 C21        63.6510 -135.8520   42.6130 C.3       1 BO2        -0.2261
     22 C22        63.7040 -134.5440   43.3650 C.3       1 BO2        -0.1585
     23 C23        63.6750 -133.3700   42.3580 C.3       1 BO2        -0.0721
     24 C24        63.0890 -132.1360   43.0550 C.3       1 BO2        -0.0649
     25 C25        65.0790 -133.0720   41.8080 C.3       1 BO2        -0.0649
     26 B26        63.5060 -136.9860   43.6440 B         1 BO2         3.0000
     27 O27        62.1960 -136.9490   44.2310 O.3       1 BO2        -0.8710
     28 O28        63.7210 -138.2570   43.0170 O.3       1 BO2        -0.8710
     29 H          61.8813 -136.1294   35.5755 H         1 BO2         0.0978
     30 H          63.8488 -133.4933   32.8037 H         1 BO2         0.0958
     31 H          63.8407 -131.7151   34.5339 H         1 BO2         0.0941
     32 H          62.4827 -136.2592   37.5889 H         1 BO2         0.1883
     33 H          60.8337 -135.0882   39.8141 H         1 BO2         0.0823
     34 H          60.5727 -137.4633   40.5584 H         1 BO2         0.0474
     35 H          61.4580 -137.9885   39.0863 H         1 BO2         0.0474
     36 H          60.2725 -138.4475   37.2272 H         1 BO2         0.0557
     37 H          58.1902 -138.2332   35.9114 H         1 BO2         0.0599
     38 H          56.3694 -136.7480   36.6960 H         1 BO2         0.0559
     39 H          56.6354 -135.4803   38.8074 H         1 BO2         0.0599
     40 H          58.7131 -135.6991   40.1289 H         1 BO2         0.0557
     41 H          61.5911 -135.7815   41.9990 H         1 BO2         0.1459
     42 H          64.5936 -135.9928   42.0638 H         1 BO2        -0.1822
     43 H          64.6307 -134.4977   43.9558 H         1 BO2        -0.0063
     44 H          62.8365 -134.4720   44.0374 H         1 BO2        -0.0063
     45 H          63.0241 -133.6439   41.5146 H         1 BO2         0.0272
     46 H          63.0631 -131.2935   42.3483 H         1 BO2         0.0232
     47 H          63.7159 -131.8706   43.9191 H         1 BO2         0.0232
     48 H          62.0677 -132.3587   43.3975 H         1 BO2         0.0232
     49 H          65.4774 -133.9703   41.3137 H         1 BO2         0.0232
     50 H          65.7436 -132.7838   42.6358 H         1 BO2         0.0232
     51 H          65.0208 -132.2487   41.0808 H         1 BO2         0.0232
     52 H          62.1221 -137.6374   44.8814 H         1 BO2        -0.1290
     53 H          63.6478 -138.9459   43.6670 H         1 BO2        -0.1290
@<TRIPOS>BOND
     1    1    2 ar 
     2    1    6 ar 
     3    2    3 ar 
     4    2    7 1  
     5    3    4 ar 
     6    4    5 ar 
     7    5    6 ar 
     8    7    8 2  
     9    7    9 am 
    10    9   10 1  
    11   10   11 1  
    12   10   18 1  
    13   11   12 1  
    14   12   13 ar 
    15   12   17 ar 
    16   13   14 ar 
    17   14   15 ar 
    18   15   16 ar 
    19   16   17 ar 
    20   18   19 2  
    21   18   20 am 
    22   20   21 1  
    23   21   22 1  
    24   21   26 1  
    25   22   23 1  
    26   23   24 1  
    27   23   25 1  
    28   26   27 1  
    29   26   28 1  
    30    3   29 1  
    31    5   30 1  
    32    6   31 1  
    33    9   32 1  
    34   10   33 1  
    35   11   34 1  
    36   11   35 1  
    37   13   36 1  
    38   14   37 1  
    39   15   38 1  
    40   16   39 1  
    41   17   40 1  
    42   20   41 1  
    43   21   42 1  
    44   22   43 1  
    45   22   44 1  
    46   23   45 1  
    47   24   46 1  
    48   24   47 1  
    49   24   48 1  
    50   25   49 1  
    51   25   50 1  
    52   25   51 1  
    53   27   52 1  
    54   28   53 1  
@<TRIPOS>SUBSTRUCTURE
     1 BO2         1

