3tib_ligand
  -I-interpret- 

 50 50  0  0  0  0  0  0  0  0999 V2000
   23.4600  -21.9400   -5.6590 C   0  0  0  0  0
   23.3210  -20.7880   -4.7060 C   0  0  0  0  0
   24.4180  -19.6990   -4.7330 C   0  0  0  0  0
   25.7180  -20.0880   -5.5020 C   0  0  0  0  0
   25.8240  -21.5890   -5.9170 C   0  0  0  0  0
   24.7150  -22.4220   -5.7780 O   0  0  0  0  0
   22.3700  -23.0020   -5.5840 C   0  0  0  0  0
   22.6160  -24.2790   -5.8490 O   0  0  0  0  0
   21.3210  -22.6910   -5.2320 O   0  0  0  0  0
   26.9290  -21.9720   -6.8780 C   0  0  0  0  0
   27.5800  -23.3310   -6.6590 C   0  0  0  0  0
   28.7780  -23.6620   -7.5280 C   0  0  0  0  0
   29.7840  -22.7310   -7.6870 O   0  0  0  0  0
   29.9420  -22.1040   -8.8250 C   0  0  0  0  0
   30.6350  -21.1080   -9.0180 O   0  0  0  0  0
   26.6880  -21.6240   -8.1610 O   0  0  0  0  0
   27.2210  -20.5590   -8.7770 C   0  0  0  0  0
   27.6930  -23.7260   -5.3940 O   0  0  0  0  0
   24.0510  -18.3550   -4.8070 N   0  0  0  0  0
   24.7050  -17.2730   -4.1710 C   0  0  0  0  0
   24.4170  -16.1020   -4.5260 N   0  0  0  0  0
   25.5330  -17.4420   -3.2180 N   0  0  0  0  0
   27.3380  -18.2670   -6.0480 C   0  0  0  0  0
   28.4660  -17.4480   -5.6010 C   0  0  0  0  0
   26.7740  -18.0070   -6.9930 O   0  0  0  0  0
   26.9320  -19.3640   -5.3040 N   0  0  0  0  0
   23.2623  -21.4749   -6.6248 H   0  0  0  0  0
   23.3684  -21.2260   -3.7090 H   0  0  0  0  0
   22.3992  -20.2815   -4.9921 H   0  0  0  0  0
   24.6954  -19.7180   -3.6791 H   0  0  0  0  0
   25.5015  -19.5659   -6.4340 H   0  0  0  0  0
   26.2781  -21.9666   -5.0009 H   0  0  0  0  0
   23.5290  -24.3764   -6.1291 H   0  0  0  0  0
   27.7513  -21.3190   -6.5857 H   0  0  0  0  0
   26.8064  -23.9833   -7.0641 H   0  0  0  0  0
   28.3647  -23.7944   -8.5279 H   0  0  0  0  0
   29.2576  -24.5029   -7.0271 H   0  0  0  0  0
   29.4064  -22.5046   -9.6856 H   0  0  0  0  0
   26.9291  -19.6514   -8.2485 H   0  0  0  0  0
   28.3074  -20.6472   -8.7775 H   0  0  0  0  0
   26.8582  -20.5156   -9.8039 H   0  0  0  0  0
   28.1133  -24.5887   -5.3656 H   0  0  0  0  0
   23.2331  -18.1308   -5.3737 H   0  0  0  0  0
   23.7245  -15.9469   -5.2586 H   0  0  0  0  0
   25.9507  -16.6342   -2.7561 H   0  0  0  0  0
   25.7783  -18.3851   -2.9168 H   0  0  0  0  0
   29.2391  -17.4462   -6.3694 H   0  0  0  0  0
   28.1252  -16.4278   -5.4244 H   0  0  0  0  0
   28.8707  -17.8622   -4.6776 H   0  0  0  0  0
   27.5498  -19.6787   -4.5558 H   0  0  0  0  0
  2  1  1  0  0  0
  6  1  1  0  0  0
  1  7  1  0  0  0
  3  2  1  0  0  0
  4  3  1  0  0  0
  3 19  1  0  0  0
  4  5  1  0  0  0
 26  4  1  0  0  0
  5  6  1  0  0  0
  5 10  1  0  0  0
  7  8  1  0  0  0
  7  9  2  0  0  0
 10 11  1  0  0  0
 10 16  1  0  0  0
 11 12  1  0  0  0
 11 18  1  0  0  0
 12 13  1  0  0  0
 13 14  1  0  0  0
 14 15  2  0  0  0
 16 17  1  0  0  0
 19 20  1  0  0  0
 20 21  2  0  0  0
 20 22  1  0  0  0
 23 24  1  0  0  0
 23 25  2  0  0  0
 23 26  1  0  0  0
  1 27  1  0  0  0
  2 28  1  0  0  0
  2 29  1  0  0  0
  3 30  1  0  0  0
  4 31  1  0  0  0
  5 32  1  0  0  0
  8 33  1  0  0  0
 10 34  1  0  0  0
 11 35  1  0  0  0
 12 36  1  0  0  0
 12 37  1  0  0  0
 14 38  1  0  0  0
 17 39  1  0  0  0
 17 40  1  0  0  0
 17 41  1  0  0  0
 18 42  1  0  0  0
 19 43  1  0  0  0
 21 44  1  0  0  0
 22 45  1  0  0  0
 22 46  1  0  0  0
 24 47  1  0  0  0
 24 48  1  0  0  0
 24 49  1  0  0  0
 26 50  1  0  0  0
M  END
$$$$
