### 
### Created by X-TOOL on Mon Sep 10 21:12:50 2018
### 

@<TRIPOS>MOLECULE
1h24_ligand
  168   168     1     0     0
SMALL
GAST_HUCK


@<TRIPOS>ATOM
      1 N           8.1310   84.8080   79.6780 N.4       1 PRO         0.2461
      2 CA          7.1570   83.8060   79.1660 C.3       1 PRO         0.0670
      3 C           7.7400   83.0280   78.0110 C.2       1 PRO         0.2268
      4 O           8.5930   83.5450   77.2620 O.2       1 PRO        -0.3907
      5 CB          5.9990   84.6660   78.6320 C.3       1 PRO         0.0127
      6 CG          6.5350   86.0490   78.5140 C.3       1 PRO        -0.0053
      7 CD          8.0220   86.0590   78.9180 C.3       1 PRO        -0.0313
      8 N           7.2900   81.7830   77.8870 N.am      1 VAL        -0.2608
      9 CA          7.7260   80.9260   76.7900 C.3       1 VAL         0.1334
     10 C           7.2780   81.6050   75.5010 C.2       1 VAL         0.2042
     11 O           8.0960   81.9950   74.6810 O.2       1 VAL        -0.3944
     12 CB          7.1480   79.5020   76.8910 C.3       1 VAL        -0.0063
     13 CG1         8.2300   78.4900   76.9280 C.3       1 VAL        -0.0584
     14 CG2         6.2270   79.3580   78.1070 C.3       1 VAL        -0.0584
     15 N           5.9680   81.7740   75.3350 N.am      1 LYS        -0.2637
     16 CA          5.4510   82.4780   74.1670 C.3       1 LYS         0.1310
     17 C           6.3030   83.7480   73.9870 C.2       1 LYS         0.2039
     18 O           6.0680   84.7580   74.6390 O.2       1 LYS        -0.3944
     19 CB          3.9750   82.8260   74.3860 C.3       1 LYS        -0.0122
     20 CG          3.1370   83.0990   73.1240 C.3       1 LYS        -0.0440
     21 CD          1.6600   83.3290   73.4650 C.3       1 LYS        -0.0124
     22 CE          1.1580   84.7130   73.0140 C.3       1 LYS        -0.0354
     23 NZ          1.9220   85.8580   73.6040 N.4       1 LYS         0.2185
     24 N           7.3200   83.6800   73.1440 N.am      1 ARG        -0.2637
     25 CA          8.1570   84.8500   72.8940 C.3       1 ARG         0.1311
     26 C           9.1420   84.5990   71.7930 C.2       1 ARG         0.2039
     27 O           9.6850   83.5320   71.6920 O.2       1 ARG        -0.3944
     28 CB          8.9380   85.2790   74.1510 C.3       1 ARG        -0.0092
     29 CG         10.2870   84.6480   74.3250 C.3       1 ARG        -0.0156
     30 CD         10.7420   84.7040   75.7580 C.3       1 ARG         0.0627
     31 NE         12.1230   84.2640   75.9230 N.pl3     1 ARG        -0.2723
     32 CZ         12.4800   83.2120   76.6400 C.cat     1 ARG         0.2882
     33 NH1        11.5430   82.4830   77.2530 N.pl3     1 ARG        -0.2849
     34 NH2        13.7600   82.8860   76.7360 N.pl3     1 ARG        -0.2849
     35 N           9.3660   85.5870   70.9570 N.am      1 ARG        -0.2637
     36 CA         10.4160   85.4440   69.9880 C.3       1 ARG         0.1311
     37 C          11.6990   85.8370   70.7290 C.2       1 ARG         0.2039
     38 O          11.7390   86.8660   71.4110 O.2       1 ARG        -0.3944
     39 CB         10.1470   86.2950   68.7370 C.3       1 ARG        -0.0092
     40 CG         10.7520   87.6330   68.7600 C.3       1 ARG        -0.0156
     41 CD         11.3730   88.0380   67.4560 C.3       1 ARG         0.0627
     42 NE         12.6440   88.7020   67.7450 N.pl3     1 ARG        -0.2723
     43 CZ         13.1870   89.6640   67.0120 C.cat     1 ARG         0.2882
     44 NH1        12.5800   90.0850   65.9100 N.pl3     1 ARG        -0.2849
     45 NH2        14.3440   90.1910   67.3780 N.pl3     1 ARG        -0.2849
     46 N          12.7260   85.0020   70.6320 N.am      1 LEU        -0.2637
     47 CA         13.9680   85.2720   71.3340 C.3       1 LEU         0.1312
     48 C          14.7020   86.4520   70.7260 C.2       1 LEU         0.2040
     49 O          14.8290   86.5200   69.5130 O.2       1 LEU        -0.3944
     50 CB         14.8800   84.0470   71.2970 C.3       1 LEU        -0.0101
     51 CG         14.3240   82.7110   71.7740 C.3       1 LEU        -0.0425
     52 CD1        15.2290   81.5960   71.3390 C.3       1 LEU        -0.0625
     53 CD2        14.1660   82.7330   73.2730 C.3       1 LEU        -0.0625
     54 N          15.1870   87.3620   71.5700 N.am      1 ASP        -0.2622
     55 CA         15.9010   88.5620   71.1240 C.3       1 ASP         0.1423
     56 C          17.3950   88.3590   71.2860 C.2       1 ASP         0.2056
     57 O          17.8740   88.0350   72.3780 O.2       1 ASP        -0.3943
     58 CB         15.4650   89.7920   71.9460 C.3       1 ASP         0.0406
     59 CG         15.7990   91.1320   71.2570 C.2       1 ASP         0.0393
     60 OD1        16.8730   91.2630   70.6180 O.co2     1 ASP        -0.5688
     61 OD2        15.0280   92.1160   71.3080 O.co2     1 ASP        -0.5688
     62 N          18.1470   88.5720   70.2120 N.am      1 LEU        -0.2636
     63 CA         19.5770   88.3250   70.2880 C.3       1 LEU         0.1312
     64 C          20.5110   89.4820   69.8830 C.2       1 LEU         0.2040
     65 O          21.5710   89.6430   70.4910 O.2       1 LEU        -0.3944
     66 CB         19.9110   87.0620   69.4910 C.3       1 LEU        -0.0101
     67 CG         18.7850   86.0610   69.2080 C.3       1 LEU        -0.0425
     68 CD1        19.3020   84.9850   68.2970 C.3       1 LEU        -0.0625
     69 CD2        18.2430   85.4240   70.4600 C.3       1 LEU        -0.0625
     70 N          20.1200   90.2800   68.8830 N.am      1 GLU        -0.2649
     71 CA         20.9800   91.3470   68.3180 C.3       1 GLU         0.1143
     72 C          22.2760   91.5980   69.1120 C.2       1 GLU         0.1246
     73 O          22.3040   92.3270   70.1050 O.2       1 GLU        -0.3725
     74 CB         20.2140   92.6730   68.0480 C.3       1 GLU        -0.0021
     75 CG         20.7370   93.4580   66.8240 C.3       1 GLU         0.0045
     76 CD         20.6060   94.9970   66.8940 C.2       1 GLU         0.0350
     77 OE1        20.6170   95.5890   68.0050 O.co2     1 GLU        -0.5690
     78 OE2        20.5200   95.6320   65.8120 O.co2     1 GLU        -0.5690
     79 H1          9.0654   84.4419   79.5835 H         1 PRO         0.2035
     80 H2          7.9389   84.9918   80.6503 H         1 PRO         0.2035
     81 H3          6.8281   83.1229   79.9629 H         1 PRO         0.1099
     82 H4          5.1514   84.6432   79.3328 H         1 PRO         0.0347
     83 H5          5.6716   84.2979   77.6485 H         1 PRO         0.0347
     84 H6          5.9699   86.7193   79.1784 H         1 PRO         0.0320
     85 H7          6.4351   86.3936   77.4742 H         1 PRO         0.0320
     86 H8          8.6777   86.0503   78.0348 H         1 PRO         0.0814
     87 H9          8.2617   86.9310   79.5442 H         1 PRO         0.0814
     88 H10         6.6402   81.4273   78.5587 H         1 VAL         0.1885
     89 H11         8.8236   80.8544   76.8033 H         1 VAL         0.0802
     90 H12         6.5455   79.3195   75.9890 H         1 VAL         0.0343
     91 H13         7.7894   77.4847   77.0001 H         1 VAL         0.0234
     92 H14         8.8727   78.6721   77.8019 H         1 VAL         0.0234
     93 H15         8.8309   78.5619   76.0095 H         1 VAL         0.0234
     94 H16         5.4333   80.1181   78.0579 H         1 VAL         0.0234
     95 H17         6.8116   79.4974   79.0283 H         1 VAL         0.0234
     96 H18         5.7748   78.3553   78.1078 H         1 VAL         0.0234
     97 H19         5.3321   81.4146   76.0180 H         1 LYS         0.1883
     98 H20         5.5428   81.8419   73.2743 H         1 LYS         0.0800
     99 H21         3.9344   83.7274   75.0151 H         1 LYS         0.0312
    100 H22         3.5094   81.9847   74.9202 H         1 LYS         0.0312
    101 H23         3.2168   82.2343   72.4487 H         1 LYS         0.0269
    102 H24         3.5307   83.9946   72.6211 H         1 LYS         0.0269
    103 H25         1.5326   83.2456   74.5544 H         1 LYS         0.0317
    104 H26         1.0582   82.5557   72.9652 H         1 LYS         0.0317
    105 H27         0.1030   84.8119   73.3094 H         1 LYS         0.0813
    106 H28         1.2390   84.7706   71.9185 H         1 LYS         0.0813
    107 H29         1.5394   86.7270   73.2657 H         1 LYS         0.1994
    108 H30         2.8909   85.7900   73.3344 H         1 LYS         0.1994
    109 H31         1.8499   85.8278   74.6090 H         1 LYS         0.1994
    110 H32         7.5174   82.8198   72.6738 H         1 ARG         0.1883
    111 H33         7.4981   85.6777   72.5929 H         1 ARG         0.0800
    112 H34         8.3293   85.0233   75.0308 H         1 ARG         0.0313
    113 H35         9.0781   86.3691   74.1063 H         1 ARG         0.0313
    114 H36        11.0153   85.1829   73.6978 H         1 ARG         0.0301
    115 H37        10.2330   83.5960   74.0082 H         1 ARG         0.0301
    116 H38        10.0904   84.0543   76.3607 H         1 ARG         0.0689
    117 H39        10.6572   85.7410   76.1149 H         1 ARG         0.0689
    118 H40        12.8634   84.8045   75.4534 H         1 ARG         0.2642
    119 H41        11.8138   81.6622   77.8132 H         1 ARG         0.2615
    120 H42        10.5499   82.7418   77.1654 H         1 ARG         0.2615
    121 H43        14.4736   83.4554   76.2591 H         1 ARG         0.2615
    122 H44        14.0419   82.0630   77.2876 H         1 ARG         0.2615
    123 H45         8.8166   86.4217   70.9946 H         1 ARG         0.1883
    124 H46        10.4875   84.3923   69.6737 H         1 ARG         0.0800
    125 H47         9.0585   86.4135   68.6314 H         1 ARG         0.0313
    126 H48        10.5434   85.7553   67.8643 H         1 ARG         0.0313
    127 H49        11.5322   87.6478   69.5353 H         1 ARG         0.0301
    128 H50         9.9695   88.3634   69.0133 H         1 ARG         0.0301
    129 H51        10.7038   88.7295   66.9231 H         1 ARG         0.0689
    130 H52        11.5503   87.1476   66.8349 H         1 ARG         0.0689
    131 H53        13.1577   88.3981   68.5844 H         1 ARG         0.2642
    132 H54        13.0038   90.8325   65.3421 H         1 ARG         0.2615
    133 H55        11.6849   89.6643   65.6223 H         1 ARG         0.2615
    134 H56        14.8121   89.8615   68.2342 H         1 ARG         0.2615
    135 H57        14.7766   90.9308   66.8067 H         1 ARG         0.2615
    136 H58        12.6437   84.1790   70.0700 H         1 LEU         0.1883
    137 H59        13.7303   85.5069   72.3820 H         1 LEU         0.0800
    138 H60        15.7560   84.2756   71.9217 H         1 LEU         0.0315
    139 H61        15.1993   83.9115   70.2531 H         1 LEU         0.0315
    140 H62        13.3344   82.5555   71.3196 H         1 LEU         0.0298
    141 H63        14.8209   80.6356   71.6870 H         1 LEU         0.0232
    142 H64        16.2298   81.7468   71.7698 H         1 LEU         0.0232
    143 H65        15.2997   81.5881   70.2413 H         1 LEU         0.0232
    144 H66        13.4987   83.5593   73.5592 H         1 LEU         0.0232
    145 H67        15.1499   82.8766   73.7434 H         1 LEU         0.0232
    146 H68        13.7340   81.7793   73.6102 H         1 LEU         0.0232
    147 H69        15.0581   87.2199   72.5514 H         1 ASP         0.1884
    148 H70        15.6723   88.7399   70.0629 H         1 ASP         0.0819
    149 H71        15.9771   89.7619   72.9190 H         1 ASP         0.0478
    150 H72        14.3774   89.7407   72.1023 H         1 ASP         0.0478
    151 H73        17.7342   88.8983   69.3616 H         1 LEU         0.1883
    152 H74        19.7963   88.1162   71.3455 H         1 LEU         0.0800
    153 H75        20.6929   86.5237   70.0467 H         1 LEU         0.0315
    154 H76        20.3098   87.3867   68.5186 H         1 LEU         0.0315
    155 H77        17.9642   86.5947   68.7066 H         1 LEU         0.0298
    156 H78        18.4986   84.2628   68.0897 H         1 LEU         0.0232
    157 H79        20.1438   84.4680   68.7809 H         1 LEU         0.0232
    158 H80        19.6422   85.4359   67.3531 H         1 LEU         0.0232
    159 H81        17.8618   86.2057   71.1336 H         1 LEU         0.0232
    160 H82        19.0453   84.8650   70.9639 H         1 LEU         0.0232
    161 H83        17.4259   84.7360   70.1972 H         1 LEU         0.0232
    162 H84        19.2057   90.1508   68.4991 H         1 GLU         0.1884
    163 H85        21.2992   90.9755   67.3331 H         1 GLU         0.0791
    164 H86        23.1963   91.1160   68.7854 H         1 GLU         0.1373
    165 H87        20.3072   93.3144   68.9368 H         1 GLU         0.0331
    166 H88        19.1540   92.4328   67.8786 H         1 GLU         0.0331
    167 H89        20.1791   93.1135   65.9408 H         1 GLU         0.0433
    168 H90        21.8032   93.2171   66.7012 H         1 GLU         0.0433
@<TRIPOS>BOND
     1    1    2 1  
     2    1    7 1  
     3    2    3 1  
     4    2    5 1  
     5    3    4 2  
     6    3    8 am 
     7    5    6 1  
     8    6    7 1  
     9    8    9 1  
    10    9   10 1  
    11    9   12 1  
    12   10   11 2  
    13   10   15 am 
    14   12   13 1  
    15   12   14 1  
    16   15   16 1  
    17   16   17 1  
    18   16   19 1  
    19   17   18 2  
    20   17   24 am 
    21   19   20 1  
    22   20   21 1  
    23   21   22 1  
    24   22   23 1  
    25   24   25 1  
    26   25   26 1  
    27   25   28 1  
    28   26   27 2  
    29   26   35 am 
    30   28   29 1  
    31   29   30 1  
    32   30   31 1  
    33   31   32 ar 
    34   32   33 ar 
    35   32   34 ar 
    36   35   36 1  
    37   36   37 1  
    38   36   39 1  
    39   37   38 2  
    40   37   46 am 
    41   39   40 1  
    42   40   41 1  
    43   41   42 1  
    44   42   43 ar 
    45   43   44 ar 
    46   43   45 ar 
    47   46   47 1  
    48   47   48 1  
    49   47   50 1  
    50   48   49 2  
    51   48   54 am 
    52   50   51 1  
    53   51   52 1  
    54   51   53 1  
    55   54   55 1  
    56   55   56 1  
    57   55   58 1  
    58   56   57 2  
    59   56   62 am 
    60   58   59 1  
    61   59   60 ar 
    62   59   61 ar 
    63   62   63 1  
    64   63   64 1  
    65   63   66 1  
    66   64   65 2  
    67   64   70 am 
    68   66   67 1  
    69   67   68 1  
    70   67   69 1  
    71   70   71 1  
    72   71   72 1  
    73   71   74 1  
    74   72   73 2  
    75   74   75 1  
    76   75   76 1  
    77   76   77 ar 
    78   76   78 ar 
    79    1   79 1  
    80    1   80 1  
    81    2   81 1  
    82    5   82 1  
    83    5   83 1  
    84    6   84 1  
    85    6   85 1  
    86    7   86 1  
    87    7   87 1  
    88    8   88 1  
    89    9   89 1  
    90   12   90 1  
    91   13   91 1  
    92   13   92 1  
    93   13   93 1  
    94   14   94 1  
    95   14   95 1  
    96   14   96 1  
    97   15   97 1  
    98   16   98 1  
    99   19   99 1  
   100   19  100 1  
   101   20  101 1  
   102   20  102 1  
   103   21  103 1  
   104   21  104 1  
   105   22  105 1  
   106   22  106 1  
   107   23  107 1  
   108   23  108 1  
   109   23  109 1  
   110   24  110 1  
   111   25  111 1  
   112   28  112 1  
   113   28  113 1  
   114   29  114 1  
   115   29  115 1  
   116   30  116 1  
   117   30  117 1  
   118   31  118 1  
   119   33  119 1  
   120   33  120 1  
   121   34  121 1  
   122   34  122 1  
   123   35  123 1  
   124   36  124 1  
   125   39  125 1  
   126   39  126 1  
   127   40  127 1  
   128   40  128 1  
   129   41  129 1  
   130   41  130 1  
   131   42  131 1  
   132   44  132 1  
   133   44  133 1  
   134   45  134 1  
   135   45  135 1  
   136   46  136 1  
   137   47  137 1  
   138   50  138 1  
   139   50  139 1  
   140   51  140 1  
   141   52  141 1  
   142   52  142 1  
   143   52  143 1  
   144   53  144 1  
   145   53  145 1  
   146   53  146 1  
   147   54  147 1  
   148   55  148 1  
   149   58  149 1  
   150   58  150 1  
   151   62  151 1  
   152   63  152 1  
   153   66  153 1  
   154   66  154 1  
   155   67  155 1  
   156   68  156 1  
   157   68  157 1  
   158   68  158 1  
   159   69  159 1  
   160   69  160 1  
   161   69  161 1  
   162   70  162 1  
   163   71  163 1  
   164   72  164 1  
   165   74  165 1  
   166   74  166 1  
   167   75  167 1  
   168   75  168 1  
@<TRIPOS>SUBSTRUCTURE
     1 PRO         1

