1h24_ligand
  -I-interpret- 

168168  0  0  0  0  0  0  0  0999 V2000
    8.1310   84.8080   79.6780 N   0  3  0  0  0
    7.1570   83.8060   79.1660 C   0  0  0  0  0
    7.7400   83.0280   78.0110 C   0  0  0  0  0
    8.5930   83.5450   77.2620 O   0  0  0  0  0
    5.9990   84.6660   78.6320 C   0  0  0  0  0
    6.5350   86.0490   78.5140 C   0  0  0  0  0
    8.0220   86.0590   78.9180 C   0  0  0  0  0
    7.2900   81.7830   77.8870 N   0  0  0  0  0
    7.7260   80.9260   76.7900 C   0  0  0  0  0
    7.2780   81.6050   75.5010 C   0  0  0  0  0
    8.0960   81.9950   74.6810 O   0  0  0  0  0
    7.1480   79.5020   76.8910 C   0  0  0  0  0
    8.2300   78.4900   76.9280 C   0  0  0  0  0
    6.2270   79.3580   78.1070 C   0  0  0  0  0
    5.9680   81.7740   75.3350 N   0  0  0  0  0
    5.4510   82.4780   74.1670 C   0  0  0  0  0
    6.3030   83.7480   73.9870 C   0  0  0  0  0
    6.0680   84.7580   74.6390 O   0  0  0  0  0
    3.9750   82.8260   74.3860 C   0  0  0  0  0
    3.1370   83.0990   73.1240 C   0  0  0  0  0
    1.6600   83.3290   73.4650 C   0  0  0  0  0
    1.1580   84.7130   73.0140 C   0  0  0  0  0
    1.9220   85.8580   73.6040 N   0  3  0  0  0
    7.3200   83.6800   73.1440 N   0  0  0  0  0
    8.1570   84.8500   72.8940 C   0  0  0  0  0
    9.1420   84.5990   71.7930 C   0  0  0  0  0
    9.6850   83.5320   71.6920 O   0  0  0  0  0
    8.9380   85.2790   74.1510 C   0  0  0  0  0
   10.2870   84.6480   74.3250 C   0  0  0  0  0
   10.7420   84.7040   75.7580 C   0  0  0  0  0
   12.1230   84.2640   75.9230 N   0  0  0  0  0
   12.4800   83.2120   76.6400 C   0  0  0  0  0
   11.5430   82.4830   77.2530 N   0  0  0  0  0
   13.7600   82.8860   76.7360 N   0  0  0  0  0
    9.3660   85.5870   70.9570 N   0  0  0  0  0
   10.4160   85.4440   69.9880 C   0  0  0  0  0
   11.6990   85.8370   70.7290 C   0  0  0  0  0
   11.7390   86.8660   71.4110 O   0  0  0  0  0
   10.1470   86.2950   68.7370 C   0  0  0  0  0
   10.7520   87.6330   68.7600 C   0  0  0  0  0
   11.3730   88.0380   67.4560 C   0  0  0  0  0
   12.6440   88.7020   67.7450 N   0  0  0  0  0
   13.1870   89.6640   67.0120 C   0  0  0  0  0
   12.5800   90.0850   65.9100 N   0  0  0  0  0
   14.3440   90.1910   67.3780 N   0  0  0  0  0
   12.7260   85.0020   70.6320 N   0  0  0  0  0
   13.9680   85.2720   71.3340 C   0  0  0  0  0
   14.7020   86.4520   70.7260 C   0  0  0  0  0
   14.8290   86.5200   69.5130 O   0  0  0  0  0
   14.8800   84.0470   71.2970 C   0  0  0  0  0
   14.3240   82.7110   71.7740 C   0  0  0  0  0
   15.2290   81.5960   71.3390 C   0  0  0  0  0
   14.1660   82.7330   73.2730 C   0  0  0  0  0
   15.1870   87.3620   71.5700 N   0  0  0  0  0
   15.9010   88.5620   71.1240 C   0  0  0  0  0
   17.3950   88.3590   71.2860 C   0  0  0  0  0
   17.8740   88.0350   72.3780 O   0  0  0  0  0
   15.4650   89.7920   71.9460 C   0  0  0  0  0
   15.7990   91.1320   71.2570 C   0  0  0  0  0
   16.8730   91.2630   70.6180 O   0  0  0  0  0
   15.0280   92.1160   71.3080 O   0  0  0  0  0
   18.1470   88.5720   70.2120 N   0  0  0  0  0
   19.5770   88.3250   70.2880 C   0  0  0  0  0
   20.5110   89.4820   69.8830 C   0  0  0  0  0
   21.5710   89.6430   70.4910 O   0  0  0  0  0
   19.9110   87.0620   69.4910 C   0  0  0  0  0
   18.7850   86.0610   69.2080 C   0  0  0  0  0
   19.3020   84.9850   68.2970 C   0  0  0  0  0
   18.2430   85.4240   70.4600 C   0  0  0  0  0
   20.1200   90.2800   68.8830 N   0  0  0  0  0
   20.9800   91.3470   68.3180 C   0  0  0  0  0
   22.2760   91.5980   69.1120 C   0  0  0  0  0
   22.3040   92.3270   70.1050 O   0  0  0  0  0
   20.2140   92.6730   68.0480 C   0  0  0  0  0
   20.7370   93.4580   66.8240 C   0  0  0  0  0
   20.6060   94.9970   66.8940 C   0  0  0  0  0
   20.6170   95.5890   68.0050 O   0  0  0  0  0
   20.5200   95.6320   65.8120 O   0  0  0  0  0
    9.0756   84.4370   79.5750 H   0  0  0  0  0
    7.9298   84.9964   80.6600 H   0  0  0  0  0
    6.8691   83.0886   79.9345 H   0  0  0  0  0
    5.1402   84.6315   79.3024 H   0  0  0  0  0
    5.6445   84.2968   77.6697 H   0  0  0  0  0
    5.9750   86.7134   79.1721 H   0  0  0  0  0
    6.4358   86.3907   77.4837 H   0  0  0  0  0
    8.7031   86.1128   78.0687 H   0  0  0  0  0
    8.3118   86.9413   79.4887 H   0  0  0  0  0
    6.6272   81.4202   78.5721 H   0  0  0  0  0
    8.8088   80.8048   76.8214 H   0  0  0  0  0
    6.5494   79.3266   75.9971 H   0  0  0  0  0
    8.8247   78.5624   76.0174 H   0  0  0  0  0
    8.8661   78.6716   77.7943 H   0  0  0  0  0
    7.7922   77.4943   76.9994 H   0  0  0  0  0
    6.7913   79.5684   79.0155 H   0  0  0  0  0
    5.3999   80.0626   78.0202 H   0  0  0  0  0
    5.8369   78.3410   78.1473 H   0  0  0  0  0
    5.3194   81.4075   76.0316 H   0  0  0  0  0
    5.5112   81.8609   73.2705 H   0  0  0  0  0
    3.9661   83.7528   74.9597 H   0  0  0  0  0
    3.5273   81.9535   74.8618 H   0  0  0  0  0
    3.2077   82.2303   72.4694 H   0  0  0  0  0
    3.5229   83.9975   72.6425 H   0  0  0  0  0
    1.5521   83.2691   74.5480 H   0  0  0  0  0
    1.0732   82.5727   72.9437 H   0  0  0  0  0
    0.1245   84.8072   73.3472 H   0  0  0  0  0
    1.2801   84.7652   71.9321 H   0  0  0  0  0
    1.5340   86.7368   73.2611 H   0  0  0  0  0
    1.8484   85.8263   74.6208 H   0  0  0  0  0
    2.9022   85.7880   73.3305 H   0  0  0  0  0
    7.5213   82.8026   72.6644 H   0  0  0  0  0
    7.4740   85.6479   72.6024 H   0  0  0  0  0
    8.3393   84.9687   75.0073 H   0  0  0  0  0
    9.1086   86.3515   74.0574 H   0  0  0  0  0
   11.0050   85.1945   73.7134 H   0  0  0  0  0
   10.2201   83.6023   74.0249 H   0  0  0  0  0
   10.1049   84.0376   76.3395 H   0  0  0  0  0
   10.6768   85.7397   76.0914 H   0  0  0  0  0
   12.8562   84.7993   75.4580 H   0  0  0  0  0
   11.8105   81.6660   77.8019 H   0  0  0  0  0
   10.5602   82.7435   77.1721 H   0  0  0  0  0
   14.4661   83.4457   76.2579 H   0  0  0  0  0
    8.8056   86.4384   70.9953 H   0  0  0  0  0
   10.4934   84.4271   69.6033 H   0  0  0  0  0
    9.0679   86.4368   68.6770 H   0  0  0  0  0
   10.5862   85.7637   67.8926 H   0  0  0  0  0
   11.5451   87.6187   69.5076 H   0  0  0  0  0
    9.9567   88.3461   68.9770 H   0  0  0  0  0
   10.7093   88.7148   66.9179 H   0  0  0  0  0
   11.5409   87.1607   66.8312 H   0  0  0  0  0
   13.1527   88.4010   68.5763 H   0  0  0  0  0
   13.0052   90.8175   65.3416 H   0  0  0  0  0
   11.6881   89.6762   65.6311 H   0  0  0  0  0
   14.8131   89.8569   68.2199 H   0  0  0  0  0
   12.6420   84.1625   70.0588 H   0  0  0  0  0
   13.7118   85.5105   72.3663 H   0  0  0  0  0
   15.6946   84.2777   71.9835 H   0  0  0  0  0
   15.1139   83.8980   70.2429 H   0  0  0  0  0
   13.3432   82.5425   71.3293 H   0  0  0  0  0
   15.2982   81.5893   70.2512 H   0  0  0  0  0
   16.2203   81.7466   71.7665 H   0  0  0  0  0
   14.8236   80.6450   71.6844 H   0  0  0  0  0
   15.1368   82.9076   73.7369 H   0  0  0  0  0
   13.4792   83.5318   73.5530 H   0  0  0  0  0
   13.7682   81.7755   73.6092 H   0  0  0  0  0
   15.0555   87.2171   72.5711 H   0  0  0  0  0
   15.6615   88.7343   70.0747 H   0  0  0  0  0
   16.0032   89.7642   72.8934 H   0  0  0  0  0
   14.3828   89.7427   72.0661 H   0  0  0  0  0
   17.3690   90.4420   70.6563 H   0  0  0  0  0
   17.7259   88.9048   69.3446 H   0  0  0  0  0
   19.7803   88.2035   71.3520 H   0  0  0  0  0
   20.6299   86.5184   70.1040 H   0  0  0  0  0
   20.2306   87.4178   68.5115 H   0  0  0  0  0
   17.9686   86.6136   68.7430 H   0  0  0  0  0
   19.6388   85.4330   67.3622 H   0  0  0  0  0
   20.1360   84.4736   68.7776 H   0  0  0  0  0
   18.5051   84.2701   68.0923 H   0  0  0  0  0
   19.0443   84.8896   70.9704 H   0  0  0  0  0
   17.8447   86.1976   71.1166 H   0  0  0  0  0
   17.4490   84.7253   70.1962 H   0  0  0  0  0
   19.1874   90.1482   68.4914 H   0  0  0  0  0
   21.2897   90.9512   67.3508 H   0  0  0  0  0
   23.1972   91.1156   68.7851 H   0  0  0  0  0
   20.3474   93.3091   68.9230 H   0  0  0  0  0
   19.1748   92.4127   67.8471 H   0  0  0  0  0
   20.1311   93.1390   65.9760 H   0  0  0  0  0
   21.8042   93.2458   66.7593 H   0  0  0  0  0
   20.6876   94.9418   68.7105 H   0  0  0  0  0
  1  2  1  0  0  0
  1  7  1  0  0  0
  2  3  1  0  0  0
  2  5  1  0  0  0
  3  4  2  0  0  0
  3  8  1  0  0  0
  5  6  1  0  0  0
  6  7  1  0  0  0
  8  9  1  0  0  0
  9 10  1  0  0  0
  9 12  1  0  0  0
 10 11  2  0  0  0
 10 15  1  0  0  0
 12 13  1  0  0  0
 12 14  1  0  0  0
 15 16  1  0  0  0
 16 17  1  0  0  0
 16 19  1  0  0  0
 17 18  2  0  0  0
 17 24  1  0  0  0
 19 20  1  0  0  0
 20 21  1  0  0  0
 21 22  1  0  0  0
 22 23  1  0  0  0
 24 25  1  0  0  0
 25 26  1  0  0  0
 25 28  1  0  0  0
 26 27  2  0  0  0
 26 35  1  0  0  0
 28 29  1  0  0  0
 29 30  1  0  0  0
 30 31  1  0  0  0
 31 32  1  0  0  0
 32 33  1  0  0  0
 32 34  2  0  0  0
 35 36  1  0  0  0
 36 37  1  0  0  0
 36 39  1  0  0  0
 37 38  2  0  0  0
 37 46  1  0  0  0
 39 40  1  0  0  0
 40 41  1  0  0  0
 41 42  1  0  0  0
 42 43  1  0  0  0
 43 44  1  0  0  0
 43 45  2  0  0  0
 46 47  1  0  0  0
 47 48  1  0  0  0
 47 50  1  0  0  0
 48 49  2  0  0  0
 48 54  1  0  0  0
 50 51  1  0  0  0
 51 52  1  0  0  0
 51 53  1  0  0  0
 54 55  1  0  0  0
 55 56  1  0  0  0
 55 58  1  0  0  0
 56 57  2  0  0  0
 56 62  1  0  0  0
 58 59  1  0  0  0
 59 60  1  0  0  0
 59 61  2  0  0  0
 62 63  1  0  0  0
 63 64  1  0  0  0
 63 66  1  0  0  0
 64 65  2  0  0  0
 64 70  1  0  0  0
 66 67  1  0  0  0
 67 68  1  0  0  0
 67 69  1  0  0  0
 70 71  1  0  0  0
 71 72  1  0  0  0
 71 74  1  0  0  0
 72 73  2  0  0  0
 74 75  1  0  0  0
 75 76  1  0  0  0
 76 77  1  0  0  0
 76 78  2  0  0  0
  1 79  1  0  0  0
  1 80  1  0  0  0
  2 81  1  0  0  0
  5 82  1  0  0  0
  5 83  1  0  0  0
  6 84  1  0  0  0
  6 85  1  0  0  0
  7 86  1  0  0  0
  7 87  1  0  0  0
  8 88  1  0  0  0
  9 89  1  0  0  0
 12 90  1  0  0  0
 13 91  1  0  0  0
 13 92  1  0  0  0
 13 93  1  0  0  0
 14 94  1  0  0  0
 14 95  1  0  0  0
 14 96  1  0  0  0
 15 97  1  0  0  0
 16 98  1  0  0  0
 19 99  1  0  0  0
 19100  1  0  0  0
 20101  1  0  0  0
 20102  1  0  0  0
 21103  1  0  0  0
 21104  1  0  0  0
 22105  1  0  0  0
 22106  1  0  0  0
 23107  1  0  0  0
 23108  1  0  0  0
 23109  1  0  0  0
 24110  1  0  0  0
 25111  1  0  0  0
 28112  1  0  0  0
 28113  1  0  0  0
 29114  1  0  0  0
 29115  1  0  0  0
 30116  1  0  0  0
 30117  1  0  0  0
 31118  1  0  0  0
 33119  1  0  0  0
 33120  1  0  0  0
 34121  1  0  0  0
 35122  1  0  0  0
 36123  1  0  0  0
 39124  1  0  0  0
 39125  1  0  0  0
 40126  1  0  0  0
 40127  1  0  0  0
 41128  1  0  0  0
 41129  1  0  0  0
 42130  1  0  0  0
 44131  1  0  0  0
 44132  1  0  0  0
 45133  1  0  0  0
 46134  1  0  0  0
 47135  1  0  0  0
 50136  1  0  0  0
 50137  1  0  0  0
 51138  1  0  0  0
 52139  1  0  0  0
 52140  1  0  0  0
 52141  1  0  0  0
 53142  1  0  0  0
 53143  1  0  0  0
 53144  1  0  0  0
 54145  1  0  0  0
 55146  1  0  0  0
 58147  1  0  0  0
 58148  1  0  0  0
 60149  1  0  0  0
 62150  1  0  0  0
 63151  1  0  0  0
 66152  1  0  0  0
 66153  1  0  0  0
 67154  1  0  0  0
 68155  1  0  0  0
 68156  1  0  0  0
 68157  1  0  0  0
 69158  1  0  0  0
 69159  1  0  0  0
 69160  1  0  0  0
 70161  1  0  0  0
 71162  1  0  0  0
 72163  1  0  0  0
 74164  1  0  0  0
 74165  1  0  0  0
 75166  1  0  0  0
 75167  1  0  0  0
 77168  1  0  0  0
M  END
$$$$
