4o2c_ligand
  -I-interpret- 

136136  0  0  0  0  0  0  0  0999 V2000
   10.3350   12.9590   40.7590 C   0  0  0  0  0
   10.2570   14.1800   40.8770 O   0  0  0  0  0
    9.8460   12.0000   41.8040 C   0  0  0  0  0
   10.8920   12.2870   39.7560 N   0  0  0  0  0
   11.2660   12.9850   38.5290 C   0  0  0  0  0
   10.0520   13.1530   37.6160 C   0  0  0  0  0
    9.8650   14.2070   37.0030 O   0  0  0  0  0
   12.3840   12.2330   37.8050 C   0  0  0  0  0
   12.9030   13.0010   36.7340 O   0  0  0  0  0
    9.2370   12.1030   37.5270 N   0  0  0  0  0
    7.9620   12.1660   36.8230 C   0  0  0  0  0
    7.0400   13.1490   37.5300 C   0  0  0  0  0
    7.1710   13.3750   38.7310 O   0  0  0  0  0
    7.2830   10.7940   36.8210 C   0  0  0  0  0
    7.9130    9.7960   35.8970 C   0  0  0  0  0
    9.0740    9.1260   36.2040 N   0  0  0  0  0
    7.5170    9.3360   34.6860 C   0  0  0  0  0
    9.3790    8.3030   35.2130 C   0  0  0  0  0
    8.4500    8.4100   34.2830 N   0  0  0  0  0
    6.0950   13.7230   36.7930 N   0  0  0  0  0
    5.0970   14.5840   37.4160 C   0  0  0  0  0
    4.1680   13.7390   38.2860 C   0  0  0  0  0
    3.7890   12.6310   37.9080 O   0  0  0  0  0
    4.2830   15.3830   36.3730 C   0  0  0  0  0
    3.5140   14.4490   35.4510 C   0  0  0  0  0
    3.3380   16.3540   37.0690 C   0  0  0  0  0
    3.8130   14.2600   39.4560 N   0  0  0  0  0
    2.9870   13.5170   40.4040 C   0  0  0  0  0
    1.5470   14.0230   40.4260 C   0  0  0  0  0
    0.8450   13.8840   41.4280 O   0  0  0  0  0
    3.5960   13.5750   41.7990 C   0  0  0  0  0
    1.1130   14.6100   39.3160 N   0  0  0  0  0
   -0.2550   15.1010   39.1980 C   0  0  0  0  0
   -1.1330   14.0450   38.5350 C   0  0  0  0  0
   -0.8990   13.6580   37.3890 O   0  0  0  0  0
   -0.3190   16.4190   38.4050 C   0  0  0  0  0
   -1.7490   16.9270   38.3390 C   0  0  0  0  0
    0.5880   17.4630   39.0420 C   0  0  0  0  0
   -2.1410   13.5840   39.2670 N   0  0  0  0  0
   -2.9750   12.4700   38.8320 C   0  0  0  0  0
   -4.3680   12.9350   38.4220 C   0  0  0  0  0
   -5.2100   13.2260   39.2740 O   0  0  0  0  0
   -3.0740   11.4330   39.9560 C   0  0  0  0  0
   -4.1520   10.3770   39.7750 C   0  0  0  0  0
   -4.2770    9.4700   40.9870 C   0  0  0  0  0
   -5.1440    8.5700   40.9790 O   0  0  0  0  0
   -3.5040    9.6590   41.9490 O   0  0  0  0  0
   -4.6050   13.0070   37.1150 N   0  0  0  0  0
   -5.9080   13.4060   36.5920 C   0  0  0  0  0
   -6.2410   12.7160   35.2740 C   0  0  0  0  0
   -5.5960   12.9600   34.2570 O   0  0  0  0  0
   -5.9730   14.9240   36.4100 C   0  0  0  0  0
   -5.9390   15.6710   37.7280 C   0  0  0  0  0
   -6.9590   15.8080   38.4050 O   0  0  0  0  0
   -4.7640   16.1620   38.0980 N   0  0  0  0  0
   -7.2550   11.8590   35.2930 N   0  0  0  0  0
   -7.6540   11.1420   34.0870 C   0  0  0  0  0
   -8.2670   12.0980   33.0710 C   0  0  0  0  0
   -8.8840   13.0950   33.4420 O   0  0  0  0  0
   -8.6330   10.0310   34.4320 C   0  0  0  0  0
   -8.0880   11.7950   31.7890 N   0  0  0  0  0
   -8.7260   12.5660   30.7290 C   0  0  0  0  0
  -10.2440   12.4350   30.8180 C   0  0  0  0  0
  -10.9930   13.2080   30.2180 O   0  0  0  0  0
   -8.2260   12.1180   29.3510 C   0  0  0  0  0
   -6.8610   12.6600   28.9080 C   0  0  0  0  0
   -5.7410   12.1600   29.8190 C   0  0  0  0  0
   -6.5810   12.2810   27.4630 C   0  0  0  0  0
  -10.7580   11.5470   31.5030 O   0  0  0  0  0
   10.3809   12.1775   42.7370 H   0  0  0  0  0
    8.7780   12.1501   41.9617 H   0  0  0  0  0
   10.0252   10.9781   41.4698 H   0  0  0  0  0
   11.0580   11.2844   39.8435 H   0  0  0  0  0
   11.6343   13.9759   38.7947 H   0  0  0  0  0
   11.9776   11.3044   37.4041 H   0  0  0  0  0
   13.1877   12.0347   38.5141 H   0  0  0  0  0
   13.6013   12.5080   36.2971 H   0  0  0  0  0
    9.5145   11.2253   37.9663 H   0  0  0  0  0
    8.1514   12.4841   35.7978 H   0  0  0  0  0
    6.2582   10.9436   36.4813 H   0  0  0  0  0
    7.3662   10.3932   37.8312 H   0  0  0  0  0
    6.6274    9.6419   34.1354 H   0  0  0  0  0
   10.2496    7.6484   35.1725 H   0  0  0  0  0
    6.0677   13.5604   35.7864 H   0  0  0  0  0
    5.6203   15.3125   38.0352 H   0  0  0  0  0
    4.9797   15.9568   35.7619 H   0  0  0  0  0
    4.2152   13.8002   34.9261 H   0  0  0  0  0
    2.8274   13.8420   36.0412 H   0  0  0  0  0
    2.9503   15.0378   34.7274 H   0  0  0  0  0
    2.6509   15.7968   37.7059 H   0  0  0  0  0
    3.9167   17.0491   37.6774 H   0  0  0  0  0
    2.7725   16.9085   36.3201 H   0  0  0  0  0
    4.1247   15.2007   39.6975 H   0  0  0  0  0
    2.9610   12.4792   40.0718 H   0  0  0  0  0
    4.5937   13.1365   41.7770 H   0  0  0  0  0
    3.6614   14.6138   42.1226 H   0  0  0  0  0
    2.9672   13.0161   42.4921 H   0  0  0  0  0
    1.7514   14.7198   38.5281 H   0  0  0  0  0
   -0.6261   15.3012   40.2031 H   0  0  0  0  0
    0.0283   16.2318   37.3889 H   0  0  0  0  0
   -2.3749   16.1837   37.8452 H   0  0  0  0  0
   -2.1183   17.1013   39.3496 H   0  0  0  0  0
   -1.7763   17.8593   37.7750 H   0  0  0  0  0
    0.2644   17.6471   40.0664 H   0  0  0  0  0
    1.6149   17.0976   39.0441 H   0  0  0  0  0
    0.5317   18.3891   38.4698 H   0  0  0  0  0
   -2.3386   14.0250   40.1653 H   0  0  0  0  0
   -2.5085   12.0194   37.9559 H   0  0  0  0  0
   -3.3244   11.9812   40.8642 H   0  0  0  0  0
   -2.1209   10.9046   39.9770 H   0  0  0  0  0
   -3.8823    9.7610   38.9171 H   0  0  0  0  0
   -5.1051   10.8865   39.6333 H   0  0  0  0  0
   -5.6264    8.5993   40.1495 H   0  0  0  0  0
   -3.8566   12.7774   36.4612 H   0  0  0  0  0
   -6.6503   13.0935   37.3265 H   0  0  0  0  0
   -6.9137   15.1623   35.9136 H   0  0  0  0  0
   -5.1031   15.2297   35.8287 H   0  0  0  0  0
   -4.6795   16.6768   38.9745 H   0  0  0  0  0
   -3.9447   16.0248   37.5061 H   0  0  0  0  0
   -7.7623   11.6997   36.1635 H   0  0  0  0  0
   -6.7650   10.6953   33.6418 H   0  0  0  0  0
   -8.1593    9.3322   35.1214 H   0  0  0  0  0
   -9.5185   10.4611   34.9000 H   0  0  0  0  0
   -8.9206    9.5060   33.5211 H   0  0  0  0  0
   -7.4911   11.0057   31.5416 H   0  0  0  0  0
   -8.4592   13.6147   30.8603 H   0  0  0  0  0
   -8.9497   12.4973   28.6296 H   0  0  0  0  0
   -8.1166   11.0350   29.4073 H   0  0  0  0  0
   -6.8931   13.7468   28.9848 H   0  0  0  0  0
   -5.9304   12.4903   30.8403 H   0  0  0  0  0
   -5.7082   11.0709   29.7882 H   0  0  0  0  0
   -4.7882   12.5633   29.4761 H   0  0  0  0  0
   -6.5795   11.1952   27.3673 H   0  0  0  0  0
   -7.3550   12.7025   26.8216 H   0  0  0  0  0
   -5.6084   12.6745   27.1674 H   0  0  0  0  0
  -10.0677   11.0203   31.9124 H   0  0  0  0  0
  1  2  2  0  0  0
  1  3  1  0  0  0
  1  4  1  0  0  0
  4  5  1  0  0  0
  5  6  1  0  0  0
  5  8  1  0  0  0
  6  7  2  0  0  0
  6 10  1  0  0  0
  8  9  1  0  0  0
 10 11  1  0  0  0
 11 12  1  0  0  0
 11 14  1  0  0  0
 12 13  2  0  0  0
 12 20  1  0  0  0
 14 15  1  0  0  0
 15 16  4  0  0  0
 15 17  4  0  0  0
 16 18  4  0  0  0
 17 19  4  0  0  0
 18 19  4  0  0  0
 20 21  1  0  0  0
 21 22  1  0  0  0
 21 24  1  0  0  0
 22 23  2  0  0  0
 22 27  1  0  0  0
 24 25  1  0  0  0
 24 26  1  0  0  0
 27 28  1  0  0  0
 28 29  1  0  0  0
 28 31  1  0  0  0
 29 30  2  0  0  0
 29 32  1  0  0  0
 32 33  1  0  0  0
 33 34  1  0  0  0
 33 36  1  0  0  0
 34 35  2  0  0  0
 34 39  1  0  0  0
 36 37  1  0  0  0
 36 38  1  0  0  0
 39 40  1  0  0  0
 40 41  1  0  0  0
 40 43  1  0  0  0
 41 42  2  0  0  0
 41 48  1  0  0  0
 43 44  1  0  0  0
 44 45  1  0  0  0
 45 46  1  0  0  0
 45 47  2  0  0  0
 48 49  1  0  0  0
 49 50  1  0  0  0
 49 52  1  0  0  0
 50 51  2  0  0  0
 50 56  1  0  0  0
 52 53  1  0  0  0
 53 54  2  0  0  0
 53 55  1  0  0  0
 56 57  1  0  0  0
 57 58  1  0  0  0
 57 60  1  0  0  0
 58 59  2  0  0  0
 58 61  1  0  0  0
 61 62  1  0  0  0
 62 63  1  0  0  0
 62 65  1  0  0  0
 63 64  2  0  0  0
 63 69  1  0  0  0
 65 66  1  0  0  0
 66 67  1  0  0  0
 66 68  1  0  0  0
  3 70  1  0  0  0
  3 71  1  0  0  0
  3 72  1  0  0  0
  4 73  1  0  0  0
  5 74  1  0  0  0
  8 75  1  0  0  0
  8 76  1  0  0  0
  9 77  1  0  0  0
 10 78  1  0  0  0
 11 79  1  0  0  0
 14 80  1  0  0  0
 14 81  1  0  0  0
 17 82  1  0  0  0
 18 83  1  0  0  0
 20 84  1  0  0  0
 21 85  1  0  0  0
 24 86  1  0  0  0
 25 87  1  0  0  0
 25 88  1  0  0  0
 25 89  1  0  0  0
 26 90  1  0  0  0
 26 91  1  0  0  0
 26 92  1  0  0  0
 27 93  1  0  0  0
 28 94  1  0  0  0
 31 95  1  0  0  0
 31 96  1  0  0  0
 31 97  1  0  0  0
 32 98  1  0  0  0
 33 99  1  0  0  0
 36100  1  0  0  0
 37101  1  0  0  0
 37102  1  0  0  0
 37103  1  0  0  0
 38104  1  0  0  0
 38105  1  0  0  0
 38106  1  0  0  0
 39107  1  0  0  0
 40108  1  0  0  0
 43109  1  0  0  0
 43110  1  0  0  0
 44111  1  0  0  0
 44112  1  0  0  0
 46113  1  0  0  0
 48114  1  0  0  0
 49115  1  0  0  0
 52116  1  0  0  0
 52117  1  0  0  0
 55118  1  0  0  0
 55119  1  0  0  0
 56120  1  0  0  0
 57121  1  0  0  0
 60122  1  0  0  0
 60123  1  0  0  0
 60124  1  0  0  0
 61125  1  0  0  0
 62126  1  0  0  0
 65127  1  0  0  0
 65128  1  0  0  0
 66129  1  0  0  0
 67130  1  0  0  0
 67131  1  0  0  0
 67132  1  0  0  0
 68133  1  0  0  0
 68134  1  0  0  0
 68135  1  0  0  0
 69136  1  0  0  0
M  END
$$$$
