6p7p_ligand
  -I-interpret- 

102111  0  0  0  0  0  0  0  0999 V2000
   -1.2030    3.8400   16.4320 P   0  0  0  0  0
   -1.3990    4.1280   17.8790 O   0  0  0  0  0
   -1.2370    4.9240   15.4080 O   0  0  0  0  0
    0.1350    2.9780   16.3310 O   0  0  0  0  0
    0.5880    2.4860   15.0580 C   0  0  0  0  0
    2.0660    2.2310   15.1060 C   0  0  0  0  0
    2.7480    3.5060   15.2490 O   0  0  0  0  0
    2.5400    1.3610   16.2660 C   0  0  0  0  0
    3.6760    0.6140   15.8840 O   0  0  0  0  0
    2.9090    2.3990   17.3230 C   0  0  0  0  0
    3.8460    1.9470   18.2880 O   0  0  0  0  0
    3.4770    3.5280   16.4560 C   0  0  0  0  0
    3.2990    4.8470   17.0700 N   0  0  0  0  0
    2.1640    5.6160   17.0550 C   0  0  0  0  0
    2.2810    6.7650   17.6740 N   0  0  0  0  0
    3.5760    6.7460   18.1500 C   0  0  0  0  0
    4.3060    7.6670   18.9140 C   0  0  0  0  0
    3.8120    8.8260   19.3470 N   0  0  0  0  0
    5.5880    7.3550   19.2120 N   0  0  0  0  0
    6.0710    6.1830   18.7810 C   0  0  0  0  0
    5.4770    5.2280   18.0690 N   0  0  0  0  0
    4.2170    5.5800   17.7800 C   0  0  0  0  0
    3.9090   -0.8750   16.4100 P   0  0  0  0  0
    4.2380   -0.8420   17.8650 O   0  0  0  0  0
    4.8530   -1.5270   15.4490 O   0  0  0  0  0
    2.4690   -1.5670   16.3210 O   0  0  0  0  0
    1.8190   -1.7440   15.0460 C   0  0  0  0  0
    0.8840   -2.9140   15.0910 C   0  0  0  0  0
    1.6660   -4.1270   15.2470 O   0  0  0  0  0
   -0.1140   -2.8990   16.2470 C   0  0  0  0  0
   -1.3310   -3.5240   15.8770 O   0  0  0  0  0
    0.6050   -3.7260   17.3090 C   0  0  0  0  0
   -0.2550   -4.3250   18.2710 O   0  0  0  0  0
    1.3140   -4.7750   16.4490 C   0  0  0  0  0
    2.5430   -5.2820   17.0690 N   0  0  0  0  0
    3.7800   -4.6880   17.0460 C   0  0  0  0  0
    4.7150   -5.3640   17.6670 N   0  0  0  0  0
    4.0460   -6.4730   18.1490 C   0  0  0  0  0
    4.4760   -7.5670   18.9110 C   0  0  0  0  0
    5.7260   -7.7300   19.3390 N   0  0  0  0  0
    3.5600   -8.5130   19.2130 N   0  0  0  0  0
    2.3050   -8.3480   18.7810 C   0  0  0  0  0
    1.7760   -7.3550   18.0710 N   0  0  0  0  0
    2.7160   -6.4480   17.7750 C   0  0  0  0  0
   -2.7330   -2.9770   16.3830 P   0  0  0  0  0
   -2.8640   -3.2790   17.8370 O   0  0  0  0  0
   -3.7920   -3.4630   15.4370 O   0  0  0  0  0
   -2.6020   -1.3850   16.3050 O   0  0  0  0  0
   -2.4550   -0.7290   15.0310 C   0  0  0  0  0
   -2.9720    0.6670   15.1190 C   0  0  0  0  0
   -4.4150    0.6120   15.2600 O   0  0  0  0  0
   -2.4550    1.4860   16.2930 C   0  0  0  0  0
   -2.3470    2.8310   15.9140 O   0  0  0  0  0
   -3.5540    1.3160   17.3430 C   0  0  0  0  0
   -3.6550    2.3640   18.3060 O   0  0  0  0  0
   -4.8070    1.2420   16.4580 C   0  0  0  0  0
   -5.8660    0.4320   17.0660 N   0  0  0  0  0
   -5.9680   -0.9360   17.0410 C   0  0  0  0  0
   -7.0180   -1.4140   17.6610 N   0  0  0  0  0
   -7.6420   -0.2830   18.1480 C   0  0  0  0  0
   -8.8020   -0.1110   18.9140 C   0  0  0  0  0
   -9.5570   -1.1220   19.3390 N   0  0  0  0  0
   -9.1770    1.1540   19.2160 N   0  0  0  0  0
   -8.4020    2.1590   18.7880 C   0  0  0  0  0
   -7.2800    2.1200   18.0740 N   0  0  0  0  0
   -6.9600    0.8570   17.7750 C   0  0  0  0  0
   -1.0916    4.5454   14.5379 H   0  0  0  0  0
    0.3760    3.2290   14.2892 H   0  0  0  0  0
    0.0698    1.5553   14.8270 H   0  0  0  0  0
    2.2947    1.6983   14.1829 H   0  0  0  0  0
    1.8007    0.6359   16.6064 H   0  0  0  0  0
    2.0595    2.6808   17.9451 H   0  0  0  0  0
    4.0251    2.6528   18.9136 H   0  0  0  0  0
    4.5470    3.3714   16.3195 H   0  0  0  0  0
    1.2416    5.2982   16.5689 H   0  0  0  0  0
    2.8507    9.0852   19.1256 H   0  0  0  0  0
    4.3951    9.4542   19.9000 H   0  0  0  0  0
    7.1065    5.9804   19.0543 H   0  0  0  0  0
    4.4972   -1.4632   14.5596 H   0  0  0  0  0
    2.5772   -1.9260   14.2844 H   0  0  0  0  0
    1.2496   -0.8447   14.8111 H   0  0  0  0  0
    0.3167   -2.8639   14.1616 H   0  0  0  0  0
   -0.3831   -1.8943   16.5729 H   0  0  0  0  0
    1.2622   -3.1203   17.9330 H   0  0  0  0  0
    0.2698   -4.8250   18.9004 H   0  0  0  0  0
    0.6487   -5.6269   16.3081 H   0  0  0  0  0
    3.9687   -3.7345   16.5528 H   0  0  0  0  0
    6.4367   -7.0335   19.1149 H   0  0  0  0  0
    5.9730   -8.5514   19.8910 H   0  0  0  0  0
    1.6128   -9.1456   19.0507 H   0  0  0  0  0
   -3.5695   -3.1927   14.5431 H   0  0  0  0  0
   -3.0206   -1.2759   14.2766 H   0  0  0  0  0
   -1.4002   -0.7061   14.7570 H   0  0  0  0  0
   -2.6256    1.1570   14.2090 H   0  0  0  0  0
   -1.4726    1.1753   16.6487 H   0  0  0  0  0
   -3.3717    0.4510   17.9807 H   0  0  0  0  0
   -4.3685    2.1675   18.9175 H   0  0  0  0  0
   -5.1995    2.2479   16.3089 H   0  0  0  0  0
   -5.2351   -1.5729   16.5457 H   0  0  0  0  0
   -9.3003   -2.0820   19.1091 H   0  0  0  0  0
  -10.3921   -0.9365   19.8945 H   0  0  0  0  0
   -8.7408    3.1571   19.0659 H   0  0  0  0  0
  1  2  2  0  0  0
  1  3  1  0  0  0
  1  4  1  0  0  0
  1 53  1  0  0  0
  4  5  1  0  0  0
  5  6  1  0  0  0
  6  7  1  0  0  0
  6  8  1  0  0  0
  7 12  1  0  0  0
  8  9  1  0  0  0
  8 10  1  0  0  0
  9 23  1  0  0  0
 10 11  1  0  0  0
 10 12  1  0  0  0
 12 13  1  0  0  0
 13 14  4  0  0  0
 13 22  4  0  0  0
 14 15  4  0  0  0
 15 16  4  0  0  0
 16 17  4  0  0  0
 16 22  4  0  0  0
 17 18  1  0  0  0
 17 19  4  0  0  0
 19 20  4  0  0  0
 20 21  4  0  0  0
 21 22  4  0  0  0
 23 24  2  0  0  0
 23 25  1  0  0  0
 23 26  1  0  0  0
 26 27  1  0  0  0
 27 28  1  0  0  0
 28 29  1  0  0  0
 28 30  1  0  0  0
 29 34  1  0  0  0
 30 31  1  0  0  0
 30 32  1  0  0  0
 31 45  1  0  0  0
 32 33  1  0  0  0
 32 34  1  0  0  0
 34 35  1  0  0  0
 35 36  4  0  0  0
 35 44  4  0  0  0
 36 37  4  0  0  0
 37 38  4  0  0  0
 38 39  4  0  0  0
 38 44  4  0  0  0
 39 40  1  0  0  0
 39 41  4  0  0  0
 41 42  4  0  0  0
 42 43  4  0  0  0
 43 44  4  0  0  0
 45 46  2  0  0  0
 45 47  1  0  0  0
 45 48  1  0  0  0
 48 49  1  0  0  0
 49 50  1  0  0  0
 50 51  1  0  0  0
 50 52  1  0  0  0
 51 56  1  0  0  0
 52 53  1  0  0  0
 52 54  1  0  0  0
 54 55  1  0  0  0
 54 56  1  0  0  0
 56 57  1  0  0  0
 57 58  4  0  0  0
 57 66  4  0  0  0
 58 59  4  0  0  0
 59 60  4  0  0  0
 60 61  4  0  0  0
 60 66  4  0  0  0
 61 62  1  0  0  0
 61 63  4  0  0  0
 63 64  4  0  0  0
 64 65  4  0  0  0
 65 66  4  0  0  0
  3 67  1  0  0  0
  5 68  1  0  0  0
  5 69  1  0  0  0
  6 70  1  0  0  0
  8 71  1  0  0  0
 10 72  1  0  0  0
 11 73  1  0  0  0
 12 74  1  0  0  0
 14 75  1  0  0  0
 18 76  1  0  0  0
 18 77  1  0  0  0
 20 78  1  0  0  0
 25 79  1  0  0  0
 27 80  1  0  0  0
 27 81  1  0  0  0
 28 82  1  0  0  0
 30 83  1  0  0  0
 32 84  1  0  0  0
 33 85  1  0  0  0
 34 86  1  0  0  0
 36 87  1  0  0  0
 40 88  1  0  0  0
 40 89  1  0  0  0
 42 90  1  0  0  0
 47 91  1  0  0  0
 49 92  1  0  0  0
 49 93  1  0  0  0
 50 94  1  0  0  0
 52 95  1  0  0  0
 54 96  1  0  0  0
 55 97  1  0  0  0
 56 98  1  0  0  0
 58 99  1  0  0  0
 62100  1  0  0  0
 62101  1  0  0  0
 64102  1  0  0  0
M  END
$$$$
