### 
### Created by X-TOOL on Mon Aug  2 16:11:08 2021
### 

@<TRIPOS>MOLECULE
6p7p_ligand
   99   108     1     0     0
SMALL
GAST_HUCK


@<TRIPOS>ATOM
      1 P          -1.2030    3.8400   16.4320 P.3       1 A           0.2557
      2 OP1        -1.3990    4.1280   17.8790 O.co2     1 A          -0.6177
      3 OP2        -1.2370    4.9240   15.4080 O.co2     1 A          -0.6177
      4 O5'         0.1350    2.9780   16.3310 O.3       1 A          -0.2514
      5 C5'         0.5880    2.4860   15.0580 C.3       1 A           0.1128
      6 C4'         2.0660    2.2310   15.1060 C.3       1 A           0.1242
      7 O4'         2.7480    3.5060   15.2490 O.3       1 A          -0.3360
      8 C3'         2.5400    1.3610   16.2660 C.3       1 A           0.1540
      9 O3'         3.6760    0.6140   15.8840 O.3       1 A          -0.2453
     10 C2'         2.9090    2.3990   17.3230 C.3       1 A           0.1439
     11 O2'         3.8460    1.9470   18.2880 O.3       1 A          -0.3832
     12 C1'         3.4770    3.5280   16.4560 C.3       1 A           0.2014
     13 N9          3.2990    4.8470   17.0700 N.pl3     1 A          -0.1919
     14 C8          2.1640    5.6160   17.0550 C.2       1 A           0.1123
     15 N7          2.2810    6.7650   17.6740 N.2       1 A          -0.2958
     16 C5          3.5760    6.7460   18.1500 C.ar      1 A           0.1045
     17 C6          4.3060    7.6670   18.9140 C.ar      1 A           0.1298
     18 N6          3.8120    8.8260   19.3470 N.pl3     1 A          -0.3152
     19 N1          5.5880    7.3550   19.2120 N.ar      1 A          -0.2698
     20 C2          6.0710    6.1830   18.7810 C.ar      1 A           0.0533
     21 N3          5.4770    5.2280   18.0690 N.ar      1 A          -0.2714
     22 C4          4.2170    5.5800   17.7800 C.ar      1 A           0.1613
     23 P           3.9090   -0.8750   16.4100 P.3       1 A           0.2557
     24 OP1         4.2380   -0.8420   17.8650 O.co2     1 A          -0.6177
     25 OP2         4.8530   -1.5270   15.4490 O.co2     1 A          -0.6177
     26 O5'         2.4690   -1.5670   16.3210 O.3       1 A          -0.2514
     27 C5'         1.8190   -1.7440   15.0460 C.3       1 A           0.1128
     28 C4'         0.8840   -2.9140   15.0910 C.3       1 A           0.1242
     29 O4'         1.6660   -4.1270   15.2470 O.3       1 A          -0.3360
     30 C3'        -0.1140   -2.8990   16.2470 C.3       1 A           0.1540
     31 O3'        -1.3310   -3.5240   15.8770 O.3       1 A          -0.2453
     32 C2'         0.6050   -3.7260   17.3090 C.3       1 A           0.1439
     33 O2'        -0.2550   -4.3250   18.2710 O.3       1 A          -0.3832
     34 C1'         1.3140   -4.7750   16.4490 C.3       1 A           0.2014
     35 N9          2.5430   -5.2820   17.0690 N.pl3     1 A          -0.1919
     36 C8          3.7800   -4.6880   17.0460 C.2       1 A           0.1123
     37 N7          4.7150   -5.3640   17.6670 N.2       1 A          -0.2958
     38 C5          4.0460   -6.4730   18.1490 C.ar      1 A           0.1045
     39 C6          4.4760   -7.5670   18.9110 C.ar      1 A           0.1298
     40 N6          5.7260   -7.7300   19.3390 N.pl3     1 A          -0.3152
     41 N1          3.5600   -8.5130   19.2130 N.ar      1 A          -0.2698
     42 C2          2.3050   -8.3480   18.7810 C.ar      1 A           0.0533
     43 N3          1.7760   -7.3550   18.0710 N.ar      1 A          -0.2714
     44 C4          2.7160   -6.4480   17.7750 C.ar      1 A           0.1613
     45 P          -2.7330   -2.9770   16.3830 P.3       1 A           0.2557
     46 OP1        -2.8640   -3.2790   17.8370 O.co2     1 A          -0.6177
     47 OP2        -3.7920   -3.4630   15.4370 O.co2     1 A          -0.6177
     48 O5'        -2.6020   -1.3850   16.3050 O.3       1 A          -0.2514
     49 C5'        -2.4550   -0.7290   15.0310 C.3       1 A           0.1128
     50 C4'        -2.9720    0.6670   15.1190 C.3       1 A           0.1242
     51 O4'        -4.4150    0.6120   15.2600 O.3       1 A          -0.3360
     52 C3'        -2.4550    1.4860   16.2930 C.3       1 A           0.1540
     53 O3'        -2.3470    2.8310   15.9140 O.3       1 A          -0.2453
     54 C2'        -3.5540    1.3160   17.3430 C.3       1 A           0.1439
     55 O2'        -3.6550    2.3640   18.3060 O.3       1 A          -0.3832
     56 C1'        -4.8070    1.2420   16.4580 C.3       1 A           0.2014
     57 N9         -5.8660    0.4320   17.0660 N.pl3     1 A          -0.1919
     58 C8         -5.9680   -0.9360   17.0410 C.2       1 A           0.1123
     59 N7         -7.0180   -1.4140   17.6610 N.2       1 A          -0.2958
     60 C5         -7.6420   -0.2830   18.1480 C.ar      1 A           0.1045
     61 C6         -8.8020   -0.1110   18.9140 C.ar      1 A           0.1298
     62 N6         -9.5570   -1.1220   19.3390 N.pl3     1 A          -0.3152
     63 N1         -9.1770    1.1540   19.2160 N.ar      1 A          -0.2698
     64 C2         -8.4020    2.1590   18.7880 C.ar      1 A           0.0533
     65 N3         -7.2800    2.1200   18.0740 N.ar      1 A          -0.2714
     66 C4         -6.9600    0.8570   17.7750 C.ar      1 A           0.1613
     67 H1          0.3718    3.2332   14.2802 H         1 A           0.0647
     68 H2          0.0636    1.5484   14.8217 H         1 A           0.0647
     69 H3          2.3621    1.7495   14.1624 H         1 A           0.0655
     70 H4          1.7463    0.6866   16.6198 H         1 A           0.0712
     71 H5          2.0065    2.7350   17.8545 H         1 A           0.0680
     72 H6          4.6521    1.6966   17.8520 H         1 A           0.2101
     73 H7          4.5464    3.3521   16.2680 H         1 A           0.0996
     74 H8          1.2425    5.2985   16.5693 H         1 A           0.1349
     75 H9          4.4008    9.4603   19.9054 H         1 A           0.1820
     76 H10         2.8412    9.0877   19.1234 H         1 A           0.1820
     77 H11         7.1008    5.9815   19.0528 H         1 A           0.0996
     78 H12         2.5811   -1.9194   14.2725 H         1 A           0.0647
     79 H13         1.2499   -0.8352   14.8006 H         1 A           0.0647
     80 H14         0.3259   -2.9452   14.1436 H         1 A           0.0655
     81 H15        -0.3105   -1.8744   16.5958 H         1 A           0.0712
     82 H16         1.3364   -3.1025   17.8440 H         1 A           0.0680
     83 H17        -0.8634   -4.9072   17.8312 H         1 A           0.2101
     84 H18         0.6320   -5.6153   16.2518 H         1 A           0.0996
     85 H19         3.9685   -3.7353   16.5533 H         1 A           0.1349
     86 H20         5.9755   -8.5594   19.8964 H         1 A           0.1820
     87 H21         6.4437   -7.0267   19.1127 H         1 A           0.1820
     88 H22         1.6166   -9.1412   19.0492 H         1 A           0.0996
     89 H23        -3.0232   -1.2814   14.2681 H         1 A           0.0647
     90 H24        -1.3912   -0.7075   14.7519 H         1 A           0.0647
     91 H25        -2.7064    1.1884   14.1876 H         1 A           0.0655
     92 H26        -1.4863    1.1124   16.6564 H         1 A           0.0712
     93 H27        -3.4066    0.3714   17.8870 H         1 A           0.0680
     94 H28        -3.8340    3.1845   17.8619 H         1 A           0.2101
     95 H29        -5.1853    2.2557   16.2597 H         1 A           0.0996
     96 H30        -5.2358   -1.5723   16.5461 H         1 A           0.1349
     97 H31       -10.4003   -0.9347   19.8999 H         1 A           0.1820
     98 H32        -9.2978   -2.0914   19.1068 H         1 A           0.1820
     99 H33        -8.7389    3.1516   19.0644 H         1 A           0.0996
@<TRIPOS>BOND
     1    1    2 ar 
     2    1    3 ar 
     3    1    4 1  
     4    1   53 1  
     5    4    5 1  
     6    5    6 1  
     7    6    7 1  
     8    6    8 1  
     9    7   12 1  
    10    8    9 1  
    11    8   10 1  
    12    9   23 1  
    13   10   11 1  
    14   10   12 1  
    15   12   13 1  
    16   13   14 1  
    17   13   22 1  
    18   14   15 2  
    19   15   16 1  
    20   16   17 ar 
    21   16   22 ar 
    22   17   18 1  
    23   17   19 ar 
    24   19   20 ar 
    25   20   21 ar 
    26   21   22 ar 
    27   23   24 ar 
    28   23   25 ar 
    29   23   26 1  
    30   26   27 1  
    31   27   28 1  
    32   28   29 1  
    33   28   30 1  
    34   29   34 1  
    35   30   31 1  
    36   30   32 1  
    37   31   45 1  
    38   32   33 1  
    39   32   34 1  
    40   34   35 1  
    41   35   36 1  
    42   35   44 1  
    43   36   37 2  
    44   37   38 1  
    45   38   39 ar 
    46   38   44 ar 
    47   39   40 1  
    48   39   41 ar 
    49   41   42 ar 
    50   42   43 ar 
    51   43   44 ar 
    52   45   46 ar 
    53   45   47 ar 
    54   45   48 1  
    55   48   49 1  
    56   49   50 1  
    57   50   51 1  
    58   50   52 1  
    59   51   56 1  
    60   52   53 1  
    61   52   54 1  
    62   54   55 1  
    63   54   56 1  
    64   56   57 1  
    65   57   58 1  
    66   57   66 1  
    67   58   59 2  
    68   59   60 1  
    69   60   61 ar 
    70   60   66 ar 
    71   61   62 1  
    72   61   63 ar 
    73   63   64 ar 
    74   64   65 ar 
    75   65   66 ar 
    76    5   67 1  
    77    5   68 1  
    78    6   69 1  
    79    8   70 1  
    80   10   71 1  
    81   11   72 1  
    82   12   73 1  
    83   14   74 1  
    84   18   75 1  
    85   18   76 1  
    86   20   77 1  
    87   27   78 1  
    88   27   79 1  
    89   28   80 1  
    90   30   81 1  
    91   32   82 1  
    92   33   83 1  
    93   34   84 1  
    94   36   85 1  
    95   40   86 1  
    96   40   87 1  
    97   42   88 1  
    98   49   89 1  
    99   49   90 1  
   100   50   91 1  
   101   52   92 1  
   102   54   93 1  
   103   55   94 1  
   104   56   95 1  
   105   58   96 1  
   106   62   97 1  
   107   62   98 1  
   108   64   99 1  
@<TRIPOS>SUBSTRUCTURE
     1 A           1

