2aq7_ligand
  -I-interpret- 

 31 31  0  0  0  0  0  0  0  0999 V2000
   22.1480   87.6940    0.9150 O   0  0  0  0  0
   22.9200   88.6240    1.0870 C   0  0  0  0  0
   23.2540   89.0800    2.2900 C   0  0  0  0  0
   22.6340   88.5620    3.5550 C   0  0  0  0  0
   23.6250   89.4110   -0.2000 S   0  0  0  0  0
   24.4690   90.5370    0.8680 C   0  0  0  0  0
   24.1710   90.0360    2.2570 C   0  0  0  0  0
   24.7800   90.5040    3.3460 O   0  0  0  0  0
   23.9290   91.9580    0.7290 C   0  0  0  0  0
   25.9640   90.4880    0.6030 C   0  0  0  0  0
   26.5520   90.7770   -0.5790 C   0  0  0  0  0
   25.8180   91.2110   -1.8240 C   0  0  0  0  0
   28.0250   90.6920   -0.6220 C   0  0  0  0  0
   28.7210   91.0360   -1.7040 C   0  0  0  0  0
   30.2190   90.9570   -1.6720 C   0  0  0  0  0
   23.4124   88.1509    4.1978 H   0  0  0  0  0
   22.1284   89.3782    4.0710 H   0  0  0  0  0
   21.9125   87.7820    3.3116 H   0  0  0  0  0
   25.4036   91.1887    3.0932 H   0  0  0  0  0
   22.8520   91.9541    0.8970 H   0  0  0  0  0
   24.4105   92.6019    1.4650 H   0  0  0  0  0
   24.1403   92.3291   -0.2739 H   0  0  0  0  0
   26.6123   90.1974    1.4297 H   0  0  0  0  0
   25.1137   90.4331   -2.1188 H   0  0  0  0  0
   25.2767   92.1352   -1.6215 H   0  0  0  0  0
   26.5352   91.3771   -2.6278 H   0  0  0  0  0
   28.5595   90.3367    0.2590 H   0  0  0  0  0
   28.2071   91.3719   -2.6047 H   0  0  0  0  0
   30.5993   91.6107   -0.8870 H   0  0  0  0  0
   30.5232   89.9299   -1.4704 H   0  0  0  0  0
   30.6189   91.2733   -2.6354 H   0  0  0  0  0
  1  2  2  0  0  0
  2  3  1  0  0  0
  2  5  1  0  0  0
  3  4  1  0  0  0
  3  7  2  0  0  0
  5  6  1  0  0  0
  6  7  1  0  0  0
  6  9  1  0  0  0
  6 10  1  0  0  0
  7  8  1  0  0  0
 10 11  2  0  0  0
 11 12  1  0  0  0
 11 13  1  0  0  0
 13 14  2  0  0  0
 14 15  1  0  0  0
  4 16  1  0  0  0
  4 17  1  0  0  0
  4 18  1  0  0  0
  8 19  1  0  0  0
  9 20  1  0  0  0
  9 21  1  0  0  0
  9 22  1  0  0  0
 10 23  1  0  0  0
 12 24  1  0  0  0
 12 25  1  0  0  0
 12 26  1  0  0  0
 13 27  1  0  0  0
 14 28  1  0  0  0
 15 29  1  0  0  0
 15 30  1  0  0  0
 15 31  1  0  0  0
M  END
$$$$
