### 
### Created by X-TOOL on Mon Sep 10 21:13:06 2018
### 

@<TRIPOS>MOLECULE
3twu_ligand
  190   193     1     0     0
SMALL
GAST_HUCK


@<TRIPOS>ATOM
      1 N          24.5470   15.0170   22.1560 N.4       1 VAL         0.2381
      2 CA         24.1950   14.4670   20.8410 C.3       1 VAL         0.0673
      3 C          22.9710   15.1750   20.2460 C.2       1 VAL         0.2269
      4 O          21.9030   15.2260   20.8560 O.2       1 VAL        -0.3907
      5 CB         23.9510   12.9500   20.8810 C.3       1 VAL         0.0139
      6 CG1        23.5940   12.4380   19.4960 C.3       1 VAL        -0.0553
      7 CG2        25.1850   12.2180   21.4010 C.3       1 VAL        -0.0553
      8 N          23.1460   15.7250   19.0500 N.am      1 ALA        -0.2613
      9 CA         22.1170   16.5530   18.4450 C.3       1 ALA         0.1283
     10 C          21.0790   15.6560   17.7990 C.2       1 ALA         0.2036
     11 O          21.3800   14.5320   17.3720 O.2       1 ALA        -0.3944
     12 CB         22.7280   17.5250   17.4260 C.3       1 ALA        -0.0244
     13 N          19.8450   16.1420   17.7630 N.am      1 ARG        -0.2637
     14 CA         18.7580   15.4110   17.1250 C.3       1 ARG         0.1313
     15 C          18.8220   15.6760   15.6280 C.2       1 ARG         0.2064
     16 O          18.7760   16.8210   15.2100 O.2       1 ARG        -0.3942
     17 CB         17.4220   15.8830   17.6870 C.3       1 ARG        -0.0092
     18 CG         16.1940   15.1980   17.0890 C.3       1 ARG        -0.0156
     19 CD         14.9380   15.8030   17.6950 C.3       1 ARG         0.0627
     20 NE         13.7340   15.0560   17.3460 N.pl3     1 ARG        -0.2723
     21 CZ         12.9370   15.3730   16.3360 C.cat     1 ARG         0.2882
     22 NH1        11.8570   14.6470   16.0940 N.pl3     1 ARG        -0.2849
     23 NH2        13.2210   16.4210   15.5690 N.pl3     1 ARG        -0.2849
     24 N          18.9430   14.6150   14.8160 N.am      1 PRO        -0.2498
     25 CA         19.0160   14.8420   13.3670 C.3       1 PRO         0.1340
     26 C          17.6410   15.0940   12.7510 C.2       1 PRO         0.2066
     27 O          16.6270   14.7230   13.3370 O.2       1 PRO        -0.3942
     28 CB         19.6020   13.5300   12.8380 C.3       1 PRO        -0.0104
     29 CG         19.1930   12.5100   13.8430 C.3       1 PRO        -0.0281
     30 CD         19.2130   13.2160   15.1750 C.3       1 PRO         0.0369
     31 N          17.6020   15.7380   11.5810 N.am      1 PRO        -0.2498
     32 CA         16.3030   15.8650   10.9150 C.3       1 PRO         0.1340
     33 C          15.7300   14.4740   10.6350 C.2       1 PRO         0.2066
     34 O          16.4880   13.5700   10.2960 O.2       1 PRO        -0.3942
     35 CB         16.6480   16.5850    9.6050 C.3       1 PRO        -0.0104
     36 CG         18.1110   16.3140    9.3840 C.3       1 PRO        -0.0281
     37 CD         18.7110   16.2550   10.7630 C.3       1 PRO         0.0369
     38 N          14.4060   14.2990   10.7890 N.am      1 PRO        -0.2498
     39 CA         13.8100   12.9960   10.4750 C.3       1 PRO         0.1338
     40 C          14.0370   12.6350    9.0250 C.2       1 PRO         0.2041
     41 O          14.1990   13.5130    8.1810 O.2       1 PRO        -0.3944
     42 CB         12.3180   13.2300   10.7200 C.3       1 PRO        -0.0104
     43 CG         12.3090   14.3160   11.8100 C.3       1 PRO        -0.0281
     44 CD         13.4370   15.2240   11.3970 C.3       1 PRO         0.0369
     45 N          14.0530   11.3400    8.7450 N.am      1 ILE        -0.2635
     46 CA         14.1720   10.8570    7.3870 C.3       1 ILE         0.1335
     47 C          12.9160   11.1980    6.5920 C.2       1 ILE         0.2040
     48 O          11.8040   10.9670    7.0460 O.2       1 ILE        -0.3944
     49 CB         14.3960    9.3460    7.3700 C.3       1 ILE        -0.0037
     50 CG1        15.7930    9.0210    7.9000 C.3       1 ILE        -0.0491
     51 CG2        14.2530    8.8060    5.9560 C.3       1 ILE        -0.0582
     52 CD1        16.0440    7.5540    8.0840 C.3       1 ILE        -0.0648
     53 N          13.1080   11.7540    5.4020 N.am      1 GLY        -0.2664
     54 CA         12.0070   12.1270    4.5350 C.3       1 GLY         0.1201
     55 C          12.3360   13.3680    3.7270 C.2       1 GLY         0.2007
     56 O          13.4490   13.9000    3.7940 O.2       1 GLY        -0.3947
     57 N          11.3640   13.8390    2.9610 N.am      1 ALA        -0.2642
     58 CA         11.5400   15.0560    2.1830 C.3       1 ALA         0.1282
     59 C          10.1790   15.6180    1.8090 C.2       1 ALA         0.2036
     60 O           9.1600   14.9310    1.9240 O.2       1 ALA        -0.3944
     61 CB         12.3650   14.7720    0.9300 C.3       1 ALA        -0.0244
     62 N          10.1640   16.8650    1.3520 N.am      1 GLU        -0.2636
     63 CA          8.9240   17.4900    0.9150 C.3       1 GLU         0.1325
     64 C           8.5320   17.0560   -0.4950 C.2       1 GLU         0.2040
     65 O           8.4180   17.8760   -1.4090 O.2       1 GLU        -0.3944
     66 CB          9.0310   19.0070    1.0140 C.3       1 GLU        -0.0008
     67 CG          9.4250   19.4810    2.4030 C.3       1 GLU         0.0044
     68 CD          8.5150   20.5630    2.9280 C.2       1 GLU         0.0350
     69 OE1         7.5740   20.9540    2.2060 O.co2     1 GLU        -0.5690
     70 OE2         8.7420   21.0230    4.0630 O.co2     1 GLU        -0.5690
     71 N           8.3400   15.7500   -0.6510 N.am      1 VAL        -0.2635
     72 CA          7.8780   15.1400   -1.8850 C.3       1 VAL         0.1334
     73 C           6.4170   15.4790   -2.1540 C.2       1 VAL         0.2066
     74 O           5.5520   15.1800   -1.3360 O.2       1 VAL        -0.3942
     75 CB          7.9950   13.6040   -1.7840 C.3       1 VAL        -0.0062
     76 CG1         7.5050   12.9370   -3.0620 C.3       1 VAL        -0.0584
     77 CG2         9.4330   13.2000   -1.4510 C.3       1 VAL        -0.0584
     78 N           6.1280   16.0820   -3.3140 N.am      1 PRO        -0.2498
     79 CA          4.7320   16.4140   -3.6220 C.3       1 PRO         0.1338
     80 C           3.8740   15.1560   -3.7080 C.2       1 PRO         0.2042
     81 O           4.3770   14.1000   -4.1070 O.2       1 PRO        -0.3944
     82 CB          4.8250   17.0770   -5.0010 C.3       1 PRO        -0.0104
     83 CG          6.0670   16.5060   -5.6090 C.3       1 PRO        -0.0281
     84 CD          7.0270   16.3470   -4.4530 C.3       1 PRO         0.0369
     85 C           1.7300   13.7490   -4.9730 C.2       1 XSN         0.2009
     86 N           2.6010   15.2620   -3.3320 N.am      1 XSN        -0.2622
     87 O           1.8490   14.6110   -5.8460 O.2       1 XSN        -0.3946
     88 CA          1.6740   14.1350   -3.4970 C.3       1 XSN         0.1420
     89 CB          0.2300   14.4960   -3.1170 C.3       1 XSN         0.0406
     90 CG          0.1220   14.8540   -1.6190 C.2       1 XSN         0.0393
     91 OD1        -0.9060   14.4660   -1.0190 O.co2     1 XSN        -0.5688
     92 OD2         1.0600   15.4970   -1.1020 O.co2     1 XSN        -0.5688
     93 N1          1.6510   12.4400   -5.2150 N.am      1 XSN        -0.2989
     94 H          24.6976   16.0224   22.0734 H         1 VAL         0.2015
     95 H          23.7869   14.8386   22.8124 H         1 VAL         0.2015
     96 H          25.4002   14.5707   22.4926 H         1 VAL         0.2015
     97 H          25.0570   14.6484   20.1991 H         1 VAL         0.1101
     98 H          23.1195   12.7567   21.5588 H         1 VAL         0.0376
     99 H          24.4298   12.6134   18.8186 H         1 VAL         0.0236
    100 H          23.3847   11.3695   19.5478 H         1 VAL         0.0236
    101 H          22.7123   12.9650   19.1313 H         1 VAL         0.0236
    102 H          24.9766   11.1494   21.4539 H         1 VAL         0.0236
    103 H          26.0217   12.3932   20.7247 H         1 VAL         0.0236
    104 H          25.4350   12.5904   22.3945 H         1 VAL         0.0236
    105 H          24.0186   15.5632   18.5471 H         1 ALA         0.1884
    106 H          21.6351   17.1565   19.2142 H         1 ALA         0.0797
    107 H          23.4487   18.1703   17.9283 H         1 ALA         0.0277
    108 H          23.2302   16.9588   16.6416 H         1 ALA         0.0277
    109 H          21.9374   18.1336   16.9871 H         1 ALA         0.0277
    110 H          19.6530   17.0475   18.1915 H         1 ARG         0.1883
    111 H          18.8538   14.3424   17.3172 H         1 ARG         0.0800
    112 H          17.3376   16.9438   17.4510 H         1 ARG         0.0313
    113 H          17.4270   15.6484   18.7514 H         1 ARG         0.0313
    114 H          16.2279   14.1308   17.3082 H         1 ARG         0.0301
    115 H          16.1847   15.3427   16.0087 H         1 ARG         0.0301
    116 H          14.8306   16.8154   17.3056 H         1 ARG         0.0689
    117 H          15.0442   15.7824   18.7796 H         1 ARG         0.0689
    118 H          13.4919   14.2429   17.9122 H         1 ARG         0.2642
    119 H          11.6390   13.8445   16.6847 H         1 ARG         0.2615
    120 H          11.2427   14.8900   15.3168 H         1 ARG         0.2615
    121 H          14.0523   16.9810   15.7580 H         1 ARG         0.2615
    122 H          12.6076   16.6651   14.7915 H         1 ARG         0.2615
    123 H          19.6068   15.7238   13.1191 H         1 PRO         0.0802
    124 H          20.6848   13.5816   12.7242 H         1 PRO         0.0313
    125 H          19.2357   13.2910   11.8396 H         1 PRO         0.0313
    126 H          19.8681   11.6543   13.8373 H         1 PRO         0.0287
    127 H          18.2041   12.1088   13.6213 H         1 PRO         0.0287
    128 H          18.4824   12.8128   15.8762 H         1 PRO         0.0524
    129 H          20.1584   13.0918   15.7031 H         1 PRO         0.0524
    130 H          15.5570   16.3979   11.5046 H         1 PRO         0.0802
    131 H          16.4401   17.6533    9.6649 H         1 PRO         0.0313
    132 H          16.0409   16.2246    8.7745 H         1 PRO         0.0313
    133 H          18.5769   17.0882    8.7744 H         1 PRO         0.0287
    134 H          18.2707   15.3861    8.8348 H         1 PRO         0.0287
    135 H          19.6012   15.6279   10.8112 H         1 PRO         0.0524
    136 H          19.0766   17.2223   11.1077 H         1 PRO         0.0524
    137 H          14.2334   12.1845   11.0668 H         1 PRO         0.0802
    138 H          11.7938   12.3239   11.0238 H         1 PRO         0.0313
    139 H          11.7856   13.5335    9.8186 H         1 PRO         0.0313
    140 H          12.4417   13.9083   12.8121 H         1 PRO         0.0287
    141 H          11.3534   14.8358   11.8790 H         1 PRO         0.0287
    142 H          13.1165   16.0084   10.7114 H         1 PRO         0.0524
    143 H          13.8561   15.7822   12.2342 H         1 PRO         0.0524
    144 H          13.9795   10.6661    9.5072 H         1 ILE         0.1883
    145 H          15.0311   11.3453    6.9270 H         1 ILE         0.0803
    146 H          13.6466    8.8767    8.0074 H         1 ILE         0.0345
    147 H          15.8874    9.4923    8.8783 H         1 ILE         0.0267
    148 H          16.5120    9.3843    7.1658 H         1 ILE         0.0267
    149 H          13.2507    9.0215    5.5858 H         1 ILE         0.0235
    150 H          14.9905    9.2825    5.3102 H         1 ILE         0.0235
    151 H          14.4156    7.7282    5.9619 H         1 ILE         0.0235
    152 H          15.3247    7.1502    8.7965 H         1 ILE         0.0230
    153 H          15.9338    7.0449    7.1265 H         1 ILE         0.0230
    154 H          17.0553    7.4044    8.4623 H         1 ILE         0.0230
    155 H          14.0628   11.9248    5.0865 H         1 GLY         0.1881
    156 H          11.1347   12.3375    5.1537 H         1 GLY         0.0763
    157 H          11.8154   11.3051    3.8452 H         1 GLY         0.0763
    158 H          10.4758   13.3397    2.9155 H         1 ALA         0.1883
    159 H          12.0769   15.7911    2.7826 H         1 ALA         0.0797
    160 H          13.3441   14.3905    1.2199 H         1 ALA         0.0277
    161 H          11.8511   14.0303    0.3186 H         1 ALA         0.0277
    162 H          12.4867   15.6932    0.3602 H         1 ALA         0.0277
    163 H          11.0354   17.3933    1.3065 H         1 GLU         0.1883
    164 H           8.1300   17.1537    1.5817 H         1 GLU         0.0801
    165 H           8.0515   19.4261    0.7840 H         1 GLU         0.0330
    166 H           9.8045   19.3329    0.3185 H         1 GLU         0.0330
    167 H          10.4332   19.8910    2.3435 H         1 GLU         0.0433
    168 H           9.3571   18.6290    3.0794 H         1 GLU         0.0433
    169 H           8.5286   15.1395    0.1441 H         1 VAL         0.1883
    170 H           8.4971   15.5262   -2.6947 H         1 VAL         0.0803
    171 H           7.3548   13.2581   -0.9724 H         1 VAL         0.0343
    172 H           6.4604   13.1993   -3.2298 H         1 VAL         0.0234
    173 H           8.1069   13.2805   -3.9034 H         1 VAL         0.0234
    174 H           7.5982   11.8554   -2.9646 H         1 VAL         0.0234
    175 H          10.1003   13.5569   -2.2355 H         1 VAL         0.0234
    176 H           9.7218   13.6424   -0.4976 H         1 VAL         0.0234
    177 H           9.4976   12.1140   -1.3835 H         1 VAL         0.0234
    178 H           4.2735   17.0451   -2.8607 H         1 PRO         0.0802
    179 H           4.8679   18.1638   -4.9294 H         1 PRO         0.0313
    180 H           3.9434   16.8776   -5.6101 H         1 PRO         0.0313
    181 H           6.4724   17.1539   -6.3861 H         1 PRO         0.0287
    182 H           5.8739   15.5568   -6.1088 H         1 PRO         0.0287
    183 H           7.7545   15.5512   -4.6127 H         1 PRO         0.0524
    184 H           7.6563   17.2239   -4.3011 H         1 PRO         0.0524
    185 H           2.2662   16.1353   -2.9250 H         1 XSN         0.1884
    186 H           1.9699   13.3198   -2.8367 H         1 XSN         0.0819
    187 H          -0.4086   13.6356   -3.3168 H         1 XSN         0.0478
    188 H          -0.0797   15.3599   -3.7051 H         1 XSN         0.0478
    189 H           1.6883   12.0956   -6.1744 H         1 XSN         0.1815
    190 H           1.5533   11.7832   -4.4407 H         1 XSN         0.1815
@<TRIPOS>BOND
     1    2    1 1  
     2    3    2 1  
     3    2    5 1  
     4    3    4 2  
     5    8    3 am 
     6    5    6 1  
     7    5    7 1  
     8    9    8 1  
     9   10    9 1  
    10    9   12 1  
    11   10   11 2  
    12   13   10 am 
    13   14   13 1  
    14   15   14 1  
    15   14   17 1  
    16   15   16 2  
    17   24   15 am 
    18   17   18 1  
    19   18   19 1  
    20   19   20 1  
    21   20   21 ar 
    22   21   22 ar 
    23   21   23 ar 
    24   25   24 1  
    25   24   30 1  
    26   26   25 1  
    27   25   28 1  
    28   26   27 2  
    29   31   26 am 
    30   28   29 1  
    31   29   30 1  
    32   32   31 1  
    33   31   37 1  
    34   33   32 1  
    35   32   35 1  
    36   33   34 2  
    37   38   33 am 
    38   35   36 1  
    39   36   37 1  
    40   39   38 1  
    41   38   44 1  
    42   40   39 1  
    43   39   42 1  
    44   40   41 2  
    45   45   40 am 
    46   42   43 1  
    47   43   44 1  
    48   46   45 1  
    49   47   46 1  
    50   46   49 1  
    51   47   48 2  
    52   53   47 am 
    53   49   50 1  
    54   49   51 1  
    55   50   52 1  
    56   54   53 1  
    57   55   54 1  
    58   55   56 2  
    59   57   55 am 
    60   58   57 1  
    61   59   58 1  
    62   58   61 1  
    63   59   60 2  
    64   62   59 am 
    65   63   62 1  
    66   64   63 1  
    67   63   66 1  
    68   64   65 2  
    69   71   64 am 
    70   66   67 1  
    71   67   68 1  
    72   68   69 ar 
    73   68   70 ar 
    74   72   71 1  
    75   73   72 1  
    76   72   75 1  
    77   73   74 2  
    78   78   73 am 
    79   75   76 1  
    80   75   77 1  
    81   79   78 1  
    82   78   84 1  
    83   80   79 1  
    84   79   82 1  
    85   80   81 2  
    86   86   80 am 
    87   82   83 1  
    88   83   84 1  
    89   85   87 2  
    90   88   85 1  
    91   85   93 am 
    92   86   88 1  
    93   88   89 1  
    94   89   90 1  
    95   90   91 ar 
    96   90   92 ar 
    97    1   94 1  
    98    1   95 1  
    99    1   96 1  
   100    2   97 1  
   101    5   98 1  
   102    6   99 1  
   103    6  100 1  
   104    6  101 1  
   105    7  102 1  
   106    7  103 1  
   107    7  104 1  
   108    8  105 1  
   109    9  106 1  
   110   12  107 1  
   111   12  108 1  
   112   12  109 1  
   113   13  110 1  
   114   14  111 1  
   115   17  112 1  
   116   17  113 1  
   117   18  114 1  
   118   18  115 1  
   119   19  116 1  
   120   19  117 1  
   121   20  118 1  
   122   22  119 1  
   123   22  120 1  
   124   23  121 1  
   125   23  122 1  
   126   25  123 1  
   127   28  124 1  
   128   28  125 1  
   129   29  126 1  
   130   29  127 1  
   131   30  128 1  
   132   30  129 1  
   133   32  130 1  
   134   35  131 1  
   135   35  132 1  
   136   36  133 1  
   137   36  134 1  
   138   37  135 1  
   139   37  136 1  
   140   39  137 1  
   141   42  138 1  
   142   42  139 1  
   143   43  140 1  
   144   43  141 1  
   145   44  142 1  
   146   44  143 1  
   147   45  144 1  
   148   46  145 1  
   149   49  146 1  
   150   50  147 1  
   151   50  148 1  
   152   51  149 1  
   153   51  150 1  
   154   51  151 1  
   155   52  152 1  
   156   52  153 1  
   157   52  154 1  
   158   53  155 1  
   159   54  156 1  
   160   54  157 1  
   161   57  158 1  
   162   58  159 1  
   163   61  160 1  
   164   61  161 1  
   165   61  162 1  
   166   62  163 1  
   167   63  164 1  
   168   66  165 1  
   169   66  166 1  
   170   67  167 1  
   171   67  168 1  
   172   71  169 1  
   173   72  170 1  
   174   75  171 1  
   175   76  172 1  
   176   76  173 1  
   177   76  174 1  
   178   77  175 1  
   179   77  176 1  
   180   77  177 1  
   181   79  178 1  
   182   82  179 1  
   183   82  180 1  
   184   83  181 1  
   185   83  182 1  
   186   84  183 1  
   187   84  184 1  
   188   86  185 1  
   189   88  186 1  
   190   89  187 1  
   191   89  188 1  
   192   93  189 1  
   193   93  190 1  
@<TRIPOS>SUBSTRUCTURE
     1 VAL         1

