3twu_ligand
  -I-interpret- 

191194  0  0  0  0  0  0  0  0999 V2000
   24.5470   15.0170   22.1560 N   0  3  0  0  0
   24.1950   14.4670   20.8410 C   0  0  0  0  0
   22.9710   15.1750   20.2460 C   0  0  0  0  0
   21.9030   15.2260   20.8560 O   0  0  0  0  0
   23.9510   12.9500   20.8810 C   0  0  0  0  0
   23.5940   12.4380   19.4960 C   0  0  0  0  0
   25.1850   12.2180   21.4010 C   0  0  0  0  0
   23.1460   15.7250   19.0500 N   0  0  0  0  0
   22.1170   16.5530   18.4450 C   0  0  0  0  0
   21.0790   15.6560   17.7990 C   0  0  0  0  0
   21.3800   14.5320   17.3720 O   0  0  0  0  0
   22.7280   17.5250   17.4260 C   0  0  0  0  0
   19.8450   16.1420   17.7630 N   0  0  0  0  0
   18.7580   15.4110   17.1250 C   0  0  0  0  0
   18.8220   15.6760   15.6280 C   0  0  0  0  0
   18.7760   16.8210   15.2100 O   0  0  0  0  0
   17.4220   15.8830   17.6870 C   0  0  0  0  0
   16.1940   15.1980   17.0890 C   0  0  0  0  0
   14.9380   15.8030   17.6950 C   0  0  0  0  0
   13.7340   15.0560   17.3460 N   0  0  0  0  0
   12.9370   15.3730   16.3360 C   0  0  0  0  0
   11.8570   14.6470   16.0940 N   0  0  0  0  0
   13.2210   16.4210   15.5690 N   0  0  0  0  0
   18.9430   14.6150   14.8160 N   0  0  0  0  0
   19.0160   14.8420   13.3670 C   0  0  0  0  0
   17.6410   15.0940   12.7510 C   0  0  0  0  0
   16.6270   14.7230   13.3370 O   0  0  0  0  0
   19.6020   13.5300   12.8380 C   0  0  0  0  0
   19.1930   12.5100   13.8430 C   0  0  0  0  0
   19.2130   13.2160   15.1750 C   0  0  0  0  0
   17.6020   15.7380   11.5810 N   0  0  0  0  0
   16.3030   15.8650   10.9150 C   0  0  0  0  0
   15.7300   14.4740   10.6350 C   0  0  0  0  0
   16.4880   13.5700   10.2960 O   0  0  0  0  0
   16.6480   16.5850    9.6050 C   0  0  0  0  0
   18.1110   16.3140    9.3840 C   0  0  0  0  0
   18.7110   16.2550   10.7630 C   0  0  0  0  0
   14.4060   14.2990   10.7890 N   0  0  0  0  0
   13.8100   12.9960   10.4750 C   0  0  0  0  0
   14.0370   12.6350    9.0250 C   0  0  0  0  0
   14.1990   13.5130    8.1810 O   0  0  0  0  0
   12.3180   13.2300   10.7200 C   0  0  0  0  0
   12.3090   14.3160   11.8100 C   0  0  0  0  0
   13.4370   15.2240   11.3970 C   0  0  0  0  0
   14.0530   11.3400    8.7450 N   0  0  0  0  0
   14.1720   10.8570    7.3870 C   0  0  0  0  0
   12.9160   11.1980    6.5920 C   0  0  0  0  0
   11.8040   10.9670    7.0460 O   0  0  0  0  0
   14.3960    9.3460    7.3700 C   0  0  0  0  0
   15.7930    9.0210    7.9000 C   0  0  0  0  0
   14.2530    8.8060    5.9560 C   0  0  0  0  0
   16.0440    7.5540    8.0840 C   0  0  0  0  0
   13.1080   11.7540    5.4020 N   0  0  0  0  0
   12.0070   12.1270    4.5350 C   0  0  0  0  0
   12.3360   13.3680    3.7270 C   0  0  0  0  0
   13.4490   13.9000    3.7940 O   0  0  0  0  0
   11.3640   13.8390    2.9610 N   0  0  0  0  0
   11.5400   15.0560    2.1830 C   0  0  0  0  0
   10.1790   15.6180    1.8090 C   0  0  0  0  0
    9.1600   14.9310    1.9240 O   0  0  0  0  0
   12.3650   14.7720    0.9300 C   0  0  0  0  0
   10.1640   16.8650    1.3520 N   0  0  0  0  0
    8.9240   17.4900    0.9150 C   0  0  0  0  0
    8.5320   17.0560   -0.4950 C   0  0  0  0  0
    8.4180   17.8760   -1.4090 O   0  0  0  0  0
    9.0310   19.0070    1.0140 C   0  0  0  0  0
    9.4250   19.4810    2.4030 C   0  0  0  0  0
    8.5150   20.5630    2.9280 C   0  0  0  0  0
    7.5740   20.9540    2.2060 O   0  0  0  0  0
    8.7420   21.0230    4.0630 O   0  0  0  0  0
    8.3400   15.7500   -0.6510 N   0  0  0  0  0
    7.8780   15.1400   -1.8850 C   0  0  0  0  0
    6.4170   15.4790   -2.1540 C   0  0  0  0  0
    5.5520   15.1800   -1.3360 O   0  0  0  0  0
    7.9950   13.6040   -1.7840 C   0  0  0  0  0
    7.5050   12.9370   -3.0620 C   0  0  0  0  0
    9.4330   13.2000   -1.4510 C   0  0  0  0  0
    6.1280   16.0820   -3.3140 N   0  0  0  0  0
    4.7320   16.4140   -3.6220 C   0  0  0  0  0
    3.8740   15.1560   -3.7080 C   0  0  0  0  0
    4.3770   14.1000   -4.1070 O   0  0  0  0  0
    4.8250   17.0770   -5.0010 C   0  0  0  0  0
    6.0670   16.5060   -5.6090 C   0  0  0  0  0
    7.0270   16.3470   -4.4530 C   0  0  0  0  0
    1.7300   13.7490   -4.9730 C   0  0  0  0  0
    2.6010   15.2620   -3.3320 N   0  0  0  0  0
    1.8490   14.6110   -5.8460 O   0  0  0  0  0
    1.6740   14.1350   -3.4970 C   0  0  0  0  0
    0.2300   14.4960   -3.1170 C   0  0  0  0  0
    0.1220   14.8540   -1.6190 C   0  0  0  0  0
   -0.9060   14.4660   -1.0190 O   0  0  0  0  0
    1.0600   15.4970   -1.1020 O   0  0  0  0  0
    1.6510   12.4400   -5.2150 N   0  0  0  0  0
   24.6976   16.0224   22.0734 H   0  0  0  0  0
   23.7869   14.8386   22.8124 H   0  0  0  0  0
   25.4002   14.5707   22.4926 H   0  0  0  0  0
   25.0570   14.6484   20.1991 H   0  0  0  0  0
   23.1195   12.7567   21.5588 H   0  0  0  0  0
   24.4298   12.6134   18.8186 H   0  0  0  0  0
   23.3847   11.3695   19.5478 H   0  0  0  0  0
   22.7123   12.9650   19.1313 H   0  0  0  0  0
   24.9766   11.1494   21.4539 H   0  0  0  0  0
   26.0217   12.3932   20.7247 H   0  0  0  0  0
   25.4350   12.5904   22.3945 H   0  0  0  0  0
   24.0186   15.5632   18.5471 H   0  0  0  0  0
   21.6351   17.1565   19.2142 H   0  0  0  0  0
   23.4487   18.1703   17.9283 H   0  0  0  0  0
   23.2302   16.9588   16.6416 H   0  0  0  0  0
   21.9374   18.1336   16.9871 H   0  0  0  0  0
   19.6530   17.0475   18.1915 H   0  0  0  0  0
   18.8538   14.3424   17.3172 H   0  0  0  0  0
   17.3376   16.9438   17.4510 H   0  0  0  0  0
   17.4270   15.6484   18.7514 H   0  0  0  0  0
   16.2279   14.1308   17.3082 H   0  0  0  0  0
   16.1847   15.3427   16.0087 H   0  0  0  0  0
   14.8306   16.8154   17.3056 H   0  0  0  0  0
   15.0442   15.7824   18.7796 H   0  0  0  0  0
   13.4919   14.2429   17.9122 H   0  0  0  0  0
   11.6390   13.8445   16.6847 H   0  0  0  0  0
   12.6063   16.6665   14.7929 H   0  0  0  0  0
   14.0536   16.9796   15.7566 H   0  0  0  0  0
   19.6068   15.7238   13.1191 H   0  0  0  0  0
   20.6848   13.5816   12.7242 H   0  0  0  0  0
   19.2357   13.2910   11.8396 H   0  0  0  0  0
   19.8681   11.6543   13.8373 H   0  0  0  0  0
   18.2041   12.1088   13.6213 H   0  0  0  0  0
   18.4824   12.8128   15.8762 H   0  0  0  0  0
   20.1584   13.0918   15.7031 H   0  0  0  0  0
   15.5570   16.3979   11.5046 H   0  0  0  0  0
   16.4401   17.6533    9.6649 H   0  0  0  0  0
   16.0409   16.2246    8.7745 H   0  0  0  0  0
   18.5769   17.0882    8.7744 H   0  0  0  0  0
   18.2707   15.3861    8.8348 H   0  0  0  0  0
   19.6012   15.6279   10.8112 H   0  0  0  0  0
   19.0766   17.2223   11.1077 H   0  0  0  0  0
   14.2334   12.1845   11.0668 H   0  0  0  0  0
   11.7938   12.3239   11.0238 H   0  0  0  0  0
   11.7856   13.5335    9.8186 H   0  0  0  0  0
   12.4417   13.9083   12.8121 H   0  0  0  0  0
   11.3534   14.8358   11.8790 H   0  0  0  0  0
   13.1165   16.0084   10.7114 H   0  0  0  0  0
   13.8561   15.7822   12.2342 H   0  0  0  0  0
   13.9795   10.6661    9.5072 H   0  0  0  0  0
   15.0311   11.3453    6.9270 H   0  0  0  0  0
   13.6466    8.8767    8.0074 H   0  0  0  0  0
   15.8874    9.4923    8.8783 H   0  0  0  0  0
   16.5120    9.3843    7.1658 H   0  0  0  0  0
   13.2507    9.0215    5.5858 H   0  0  0  0  0
   14.9905    9.2825    5.3102 H   0  0  0  0  0
   14.4156    7.7282    5.9619 H   0  0  0  0  0
   15.3247    7.1502    8.7965 H   0  0  0  0  0
   15.9338    7.0449    7.1265 H   0  0  0  0  0
   17.0553    7.4044    8.4623 H   0  0  0  0  0
   14.0628   11.9248    5.0865 H   0  0  0  0  0
   11.1347   12.3375    5.1537 H   0  0  0  0  0
   11.8154   11.3051    3.8452 H   0  0  0  0  0
   10.4758   13.3397    2.9155 H   0  0  0  0  0
   12.0769   15.7911    2.7826 H   0  0  0  0  0
   13.3441   14.3905    1.2199 H   0  0  0  0  0
   11.8511   14.0303    0.3186 H   0  0  0  0  0
   12.4867   15.6932    0.3602 H   0  0  0  0  0
   11.0354   17.3933    1.3065 H   0  0  0  0  0
    8.1300   17.1537    1.5817 H   0  0  0  0  0
    8.0515   19.4261    0.7840 H   0  0  0  0  0
    9.8045   19.3329    0.3185 H   0  0  0  0  0
   10.4332   19.8910    2.3435 H   0  0  0  0  0
    9.3571   18.6290    3.0794 H   0  0  0  0  0
    7.5839   20.4679    1.3782 H   0  0  0  0  0
    8.5286   15.1395    0.1441 H   0  0  0  0  0
    8.4971   15.5262   -2.6947 H   0  0  0  0  0
    7.3548   13.2581   -0.9724 H   0  0  0  0  0
    6.4604   13.1993   -3.2298 H   0  0  0  0  0
    8.1069   13.2805   -3.9034 H   0  0  0  0  0
    7.5982   11.8554   -2.9646 H   0  0  0  0  0
   10.1003   13.5569   -2.2355 H   0  0  0  0  0
    9.7218   13.6424   -0.4976 H   0  0  0  0  0
    9.4976   12.1140   -1.3835 H   0  0  0  0  0
    4.2735   17.0451   -2.8607 H   0  0  0  0  0
    4.8679   18.1638   -4.9294 H   0  0  0  0  0
    3.9434   16.8776   -5.6101 H   0  0  0  0  0
    6.4724   17.1539   -6.3861 H   0  0  0  0  0
    5.8739   15.5568   -6.1088 H   0  0  0  0  0
    7.7545   15.5512   -4.6127 H   0  0  0  0  0
    7.6563   17.2239   -4.3011 H   0  0  0  0  0
    2.2662   16.1353   -2.9250 H   0  0  0  0  0
    1.9699   13.3198   -2.8367 H   0  0  0  0  0
   -0.4086   13.6356   -3.3168 H   0  0  0  0  0
   -0.0797   15.3599   -3.7051 H   0  0  0  0  0
   -1.4745   13.9948   -1.6325 H   0  0  0  0  0
    1.6883   12.0956   -6.1744 H   0  0  0  0  0
    1.5533   11.7832   -4.4407 H   0  0  0  0  0
  2  1  1  0  0  0
  3  2  1  0  0  0
  2  5  1  0  0  0
  3  4  2  0  0  0
  8  3  1  0  0  0
  5  6  1  0  0  0
  5  7  1  0  0  0
  9  8  1  0  0  0
 10  9  1  0  0  0
  9 12  1  0  0  0
 10 11  2  0  0  0
 13 10  1  0  0  0
 14 13  1  0  0  0
 15 14  1  0  0  0
 14 17  1  0  0  0
 15 16  2  0  0  0
 24 15  1  0  0  0
 17 18  1  0  0  0
 18 19  1  0  0  0
 19 20  1  0  0  0
 20 21  1  0  0  0
 21 22  2  0  0  0
 21 23  1  0  0  0
 25 24  1  0  0  0
 24 30  1  0  0  0
 26 25  1  0  0  0
 25 28  1  0  0  0
 26 27  2  0  0  0
 31 26  1  0  0  0
 28 29  1  0  0  0
 29 30  1  0  0  0
 32 31  1  0  0  0
 31 37  1  0  0  0
 33 32  1  0  0  0
 32 35  1  0  0  0
 33 34  2  0  0  0
 38 33  1  0  0  0
 35 36  1  0  0  0
 36 37  1  0  0  0
 39 38  1  0  0  0
 38 44  1  0  0  0
 40 39  1  0  0  0
 39 42  1  0  0  0
 40 41  2  0  0  0
 45 40  1  0  0  0
 42 43  1  0  0  0
 43 44  1  0  0  0
 46 45  1  0  0  0
 47 46  1  0  0  0
 46 49  1  0  0  0
 47 48  2  0  0  0
 53 47  1  0  0  0
 49 50  1  0  0  0
 49 51  1  0  0  0
 50 52  1  0  0  0
 54 53  1  0  0  0
 55 54  1  0  0  0
 55 56  2  0  0  0
 57 55  1  0  0  0
 58 57  1  0  0  0
 59 58  1  0  0  0
 58 61  1  0  0  0
 59 60  2  0  0  0
 62 59  1  0  0  0
 63 62  1  0  0  0
 64 63  1  0  0  0
 63 66  1  0  0  0
 64 65  2  0  0  0
 71 64  1  0  0  0
 66 67  1  0  0  0
 67 68  1  0  0  0
 68 69  1  0  0  0
 68 70  2  0  0  0
 72 71  1  0  0  0
 73 72  1  0  0  0
 72 75  1  0  0  0
 73 74  2  0  0  0
 78 73  1  0  0  0
 75 76  1  0  0  0
 75 77  1  0  0  0
 79 78  1  0  0  0
 78 84  1  0  0  0
 80 79  1  0  0  0
 79 82  1  0  0  0
 80 81  2  0  0  0
 86 80  1  0  0  0
 82 83  1  0  0  0
 83 84  1  0  0  0
 85 87  2  0  0  0
 88 85  1  0  0  0
 85 93  1  0  0  0
 86 88  1  0  0  0
 88 89  1  0  0  0
 89 90  1  0  0  0
 90 91  1  0  0  0
 90 92  2  0  0  0
  1 94  1  0  0  0
  1 95  1  0  0  0
  1 96  1  0  0  0
  2 97  1  0  0  0
  5 98  1  0  0  0
  6 99  1  0  0  0
  6100  1  0  0  0
  6101  1  0  0  0
  7102  1  0  0  0
  7103  1  0  0  0
  7104  1  0  0  0
  8105  1  0  0  0
  9106  1  0  0  0
 12107  1  0  0  0
 12108  1  0  0  0
 12109  1  0  0  0
 13110  1  0  0  0
 14111  1  0  0  0
 17112  1  0  0  0
 17113  1  0  0  0
 18114  1  0  0  0
 18115  1  0  0  0
 19116  1  0  0  0
 19117  1  0  0  0
 20118  1  0  0  0
 22119  1  0  0  0
 23120  1  0  0  0
 23121  1  0  0  0
 25122  1  0  0  0
 28123  1  0  0  0
 28124  1  0  0  0
 29125  1  0  0  0
 29126  1  0  0  0
 30127  1  0  0  0
 30128  1  0  0  0
 32129  1  0  0  0
 35130  1  0  0  0
 35131  1  0  0  0
 36132  1  0  0  0
 36133  1  0  0  0
 37134  1  0  0  0
 37135  1  0  0  0
 39136  1  0  0  0
 42137  1  0  0  0
 42138  1  0  0  0
 43139  1  0  0  0
 43140  1  0  0  0
 44141  1  0  0  0
 44142  1  0  0  0
 45143  1  0  0  0
 46144  1  0  0  0
 49145  1  0  0  0
 50146  1  0  0  0
 50147  1  0  0  0
 51148  1  0  0  0
 51149  1  0  0  0
 51150  1  0  0  0
 52151  1  0  0  0
 52152  1  0  0  0
 52153  1  0  0  0
 53154  1  0  0  0
 54155  1  0  0  0
 54156  1  0  0  0
 57157  1  0  0  0
 58158  1  0  0  0
 61159  1  0  0  0
 61160  1  0  0  0
 61161  1  0  0  0
 62162  1  0  0  0
 63163  1  0  0  0
 66164  1  0  0  0
 66165  1  0  0  0
 67166  1  0  0  0
 67167  1  0  0  0
 69168  1  0  0  0
 71169  1  0  0  0
 72170  1  0  0  0
 75171  1  0  0  0
 76172  1  0  0  0
 76173  1  0  0  0
 76174  1  0  0  0
 77175  1  0  0  0
 77176  1  0  0  0
 77177  1  0  0  0
 79178  1  0  0  0
 82179  1  0  0  0
 82180  1  0  0  0
 83181  1  0  0  0
 83182  1  0  0  0
 84183  1  0  0  0
 84184  1  0  0  0
 86185  1  0  0  0
 88186  1  0  0  0
 89187  1  0  0  0
 89188  1  0  0  0
 91189  1  0  0  0
 93190  1  0  0  0
 93191  1  0  0  0
M  END
$$$$
