5am0_ligand
  -I-interpret- 

 34 36  0  0  0  0  0  0  0  0999 V2000
   15.6750    9.7250    7.2220 C   0  0  0  0  0
   14.9710    8.9360    8.3010 C   0  0  0  0  0
   15.5430    9.1700    9.6550 C   0  0  0  0  0
   16.8200    8.9380   10.1340 C   0  0  0  0  0
   17.0900    9.2380   11.4590 C   0  0  0  0  0
   16.0880    9.7490   12.2810 C   0  0  0  0  0
   14.8170    9.9840   11.7890 C   0  0  0  0  0
   14.5740    9.6710   10.4770 C   0  0  0  0  0
   13.3800    9.8150    9.7850 N   0  0  0  0  0
   13.5470    9.4340    8.4710 C   0  0  0  0  0
   12.6970    9.5230    7.5950 O   0  0  0  0  0
   13.8340   10.4880   12.5620 F   0  0  0  0  0
   18.4200    8.9820   11.9660 C   0  0  0  0  0
   19.2510    7.9050   11.7290 C   0  0  0  0  0
   20.4550    8.0920   12.4570 C   0  0  0  0  0
   20.3400    9.2950   13.1150 C   0  0  0  0  0
   19.1130    9.8160   12.8110 N   0  0  0  0  0
   18.6640   11.1010   13.3110 C   0  0  0  0  0
   14.9820    7.4510    8.0330 C   0  0  0  0  0
   15.1403    9.6065    6.2796 H   0  0  0  0  0
   15.6959   10.7789    7.4994 H   0  0  0  0  0
   16.6949    9.3568    7.1113 H   0  0  0  0  0
   17.5944    8.5293    9.4848 H   0  0  0  0  0
   16.3087    9.9665   13.3260 H   0  0  0  0  0
   12.5068   10.1532   10.1894 H   0  0  0  0  0
   19.0207    7.0530   11.0893 H   0  0  0  0  0
   21.3071    7.4130   12.4887 H   0  0  0  0  0
   21.0907    9.7499   13.7612 H   0  0  0  0  0
   18.4837   11.7730   12.4720 H   0  0  0  0  0
   17.7414   10.9674   13.8759 H   0  0  0  0  0
   19.4305   11.5250   13.9596 H   0  0  0  0  0
   14.5207    6.9284    8.8710 H   0  0  0  0  0
   14.4220    7.2435    7.1211 H   0  0  0  0  0
   16.0111    7.1122    7.9139 H   0  0  0  0  0
  1  2  1  0  0  0
  2  3  1  0  0  0
  2 10  1  0  0  0
  2 19  1  0  0  0
  3  4  4  0  0  0
  3  8  4  0  0  0
  4  5  4  0  0  0
  5  6  4  0  0  0
  5 13  1  0  0  0
  6  7  4  0  0  0
  7  8  4  0  0  0
  7 12  1  0  0  0
  8  9  1  0  0  0
  9 10  1  0  0  0
 10 11  2  0  0  0
 13 14  4  0  0  0
 13 17  4  0  0  0
 14 15  4  0  0  0
 15 16  4  0  0  0
 16 17  4  0  0  0
 17 18  1  0  0  0
  1 20  1  0  0  0
  1 21  1  0  0  0
  1 22  1  0  0  0
  4 23  1  0  0  0
  6 24  1  0  0  0
  9 25  1  0  0  0
 14 26  1  0  0  0
 15 27  1  0  0  0
 16 28  1  0  0  0
 18 29  1  0  0  0
 18 30  1  0  0  0
 18 31  1  0  0  0
 19 32  1  0  0  0
 19 33  1  0  0  0
 19 34  1  0  0  0
M  END
$$$$
