### 
### Created by X-TOOL on Mon Sep 10 21:13:20 2018
### 

@<TRIPOS>MOLECULE
4u7t_ligand
  171   170     1     0     0
SMALL
GAST_HUCK


@<TRIPOS>ATOM
      1 N          16.0830  106.0810   -0.0920 N.4       1 ALA         0.2377
      2 CA         14.8800  105.6130   -0.7630 C.3       1 ALA         0.0621
      3 C          13.9970  104.8520    0.2020 C.2       1 ALA         0.2264
      4 O          13.5350  105.4020    1.1990 O.2       1 ALA        -0.3907
      5 CB         15.2350  104.7320   -1.9700 C.3       1 ALA        -0.0040
      6 N          13.7730  103.5780   -0.1020 N.am      1 ARG        -0.2610
      7 CA         12.9180  102.7290    0.7160 C.3       1 ARG         0.1312
      8 C          13.5280  102.3970    2.0720 C.2       1 ARG         0.2040
      9 O          14.7480  102.3970    2.2420 O.2       1 ARG        -0.3944
     10 CB         12.5830  101.4500   -0.0370 C.3       1 ARG        -0.0092
     11 CG         11.7340  101.6920   -1.2720 C.3       1 ARG        -0.0156
     12 CD         11.4120  100.3780   -1.9600 C.3       1 ARG         0.0627
     13 NE         10.8650   99.4100   -1.0140 N.pl3     1 ARG        -0.2723
     14 CZ         10.8840   98.0940   -1.2000 C.cat     1 ARG         0.2882
     15 NH1        11.4330   97.5880   -2.2980 N.pl3     1 ARG        -0.2849
     16 NH2        10.3610   97.2860   -0.2860 N.pl3     1 ARG        -0.2849
     17 N          12.6530  102.1020    3.0290 N.am      1 THR        -0.2613
     18 CA         13.0380  101.9050    4.4220 C.3       1 THR         0.1565
     19 C          12.3350  100.7010    5.0240 C.2       1 THR         0.2065
     20 O          11.1370  100.5010    4.8060 O.2       1 THR        -0.3943
     21 CB         12.6960  103.1460    5.2660 C.3       1 THR         0.0924
     22 OG1        13.7330  104.1310    5.1300 O.3       1 THR        -0.3874
     23 CG2        12.4850  102.7740    6.7460 C.3       1 THR        -0.0346
     24 N          13.0770   99.8920    5.7740 N.am      1 LYS        -0.2637
     25 CA         12.4450   98.8360    6.5550 C.3       1 LYS         0.1310
     26 C          12.9390   98.8140    8.0010 C.2       1 LYS         0.2039
     27 O          13.8030   99.6050    8.4020 O.2       1 LYS        -0.3944
     28 CB         12.6620   97.4700    5.8950 C.3       1 LYS        -0.0122
     29 CG         14.0390   96.8830    6.0790 C.3       1 LYS        -0.0440
     30 CD         14.1340   95.5130    5.4300 C.3       1 LYS        -0.0124
     31 CE         15.5450   94.9600    5.5000 C.3       1 LYS        -0.0354
     32 NZ         15.6150   93.5960    4.9050 N.4       1 LYS         0.2185
     33 N          12.3570   97.9130    8.7830 N.am      1 GLN        -0.2636
     34 CA         12.7460   97.7450   10.1690 C.3       1 GLN         0.1330
     35 C          13.3080   96.3390   10.3550 C.2       1 GLN         0.2041
     36 O          12.7360   95.3660    9.8620 O.2       1 GLN        -0.3944
     37 CB         11.5530   97.9860   11.0920 C.3       1 GLN         0.0045
     38 CG         11.8920   98.7400   12.3760 C.3       1 GLN         0.0412
     39 CD         12.0460  100.2430   12.1650 C.2       1 GLN         0.1737
     40 OE1        12.0050  100.7310   11.0350 O.2       1 GLN        -0.3973
     41 NE2        12.2120  100.9850   13.2620 N.am      1 GLN        -0.3009
     42 N          14.4170   96.2420   11.0850 N.am      1 THR        -0.2613
     43 CA         15.1770   94.9970   11.2230 C.3       1 THR         0.1565
     44 C          14.5420   93.9870   12.1680 C.2       1 THR         0.2065
     45 O          13.7860   94.3550   13.0690 O.2       1 THR        -0.3943
     46 CB         16.5880   95.2890   11.7350 C.3       1 THR         0.0924
     47 OG1        16.4870   96.0650   12.9350 O.3       1 THR        -0.3874
     48 CG2        17.3790   96.0840   10.7020 C.3       1 THR        -0.0346
     49 N          14.8840   92.7150   11.9820 N.am      1 ALA        -0.2639
     50 CA         14.3930   91.6530   12.8630 C.3       1 ALA         0.1282
     51 C          15.3340   91.4570   14.0470 C.2       1 ALA         0.2036
     52 O          16.5170   91.1880   13.8480 O.2       1 ALA        -0.3944
     53 CB         14.2290   90.3490   12.0940 C.3       1 ALA        -0.0244
     54 N          14.8120   91.5850   15.2700 N.am      1 ARG        -0.2637
     55 CA         15.6540   91.5080   16.4700 C.3       1 ARG         0.1311
     56 C          16.3350   90.1540   16.4890 C.2       1 ARG         0.2039
     57 O          15.8110   89.1830   15.9300 O.2       1 ARG        -0.3944
     58 CB         14.8610   91.7060   17.7690 C.3       1 ARG        -0.0092
     59 CG         13.9750   90.5320   18.1600 C.3       1 ARG        -0.0156
     60 CD         13.3760   90.7300   19.5440 C.3       1 ARG         0.0627
     61 NE         12.3700   91.7870   19.5730 N.pl3     1 ARG        -0.2723
     62 CZ         11.7450   92.1960   20.6730 C.cat     1 ARG         0.2882
     63 NH1        12.0280   91.6420   21.8460 N.pl3     1 ARG        -0.2849
     64 NH2        10.8370   93.1630   20.6020 N.pl3     1 ARG        -0.2849
     65 N          17.5020   90.0930   17.1240 N.am      1 LYS        -0.2637
     66 CA         18.3970   88.9560   16.9480 C.3       1 LYS         0.1309
     67 C          18.4640   88.0380   18.1710 C.2       1 LYS         0.2035
     68 O          18.3040   88.4820   19.3110 O.2       1 LYS        -0.3944
     69 CB         19.7930   89.4820   16.5980 C.3       1 LYS        -0.0122
     70 CG         19.7540   90.8220   15.8550 C.3       1 LYS        -0.0440
     71 CD         21.0990   91.5480   15.8320 C.3       1 LYS        -0.0124
     72 CE         22.1050   90.9100   14.8840 C.3       1 LYS        -0.0354
     73 NZ         23.2870   91.8030   14.6310 N.4       1 LYS         0.2185
     74 N          18.7360   86.7610   17.9130 N.am      1 SER        -0.2648
     75 CA         18.8300   85.7380   18.9540 C.3       1 SER         0.1454
     76 C          19.9410   86.0290   19.9670 C.2       1 SER         0.2172
     77 O          19.7180   86.6760   20.9900 O.co2     1 SER        -0.4119
     78 CB         19.0600   84.3670   18.3120 C.3       1 SER         0.0812
     79 OG         18.1210   84.1090   17.2750 O.3       1 SER        -0.3909
     80 H          16.6591  106.5850   -0.7479 H         1 ALA         0.2015
     81 H          16.5958  105.2914    0.2679 H         1 ALA         0.2015
     82 H          15.8277  106.6909    0.6688 H         1 ALA         0.2015
     83 H          14.3234  106.4896   -1.1260 H         1 ALA         0.1095
     84 H          14.3108  104.3912   -2.4596 H         1 ALA         0.0310
     85 H          15.8129  103.8599   -1.6301 H         1 ALA         0.0310
     86 H          15.8355  105.3139   -2.6847 H         1 ALA         0.0310
     87 H          14.2044  103.1906   -0.9168 H         1 ARG         0.1884
     88 H          11.9812  103.2760    0.8979 H         1 ARG         0.0800
     89 H          12.0337  100.7789    0.6396 H         1 ARG         0.0313
     90 H          13.5228  100.9695   -0.3467 H         1 ARG         0.0313
     91 H          12.2851  102.3403   -1.9691 H         1 ARG         0.0301
     92 H          10.7963  102.1852   -0.9761 H         1 ARG         0.0301
     93 H          12.3326   99.9684   -2.4012 H         1 ARG         0.0689
     94 H          10.6738  100.5601   -2.7549 H         1 ARG         0.0689
     95 H          10.4377   99.7692   -0.1484 H         1 ARG         0.2642
     96 H          11.4483   96.5684   -2.4433 H         1 ARG         0.2615
     97 H          11.8435   98.2151   -3.0045 H         1 ARG         0.2615
     98 H           9.9352   97.6789    0.5656 H         1 ARG         0.2615
     99 H          10.3809   96.2661   -0.4283 H         1 ARG         0.2615
    100 H          11.6881  102.0112    2.7826 H         1 THR         0.1884
    101 H          14.1244  101.7368    4.4605 H         1 THR         0.0826
    102 H          11.7579  103.5752    4.8843 H         1 THR         0.0639
    103 H          13.5148  104.8932    5.6534 H         1 THR         0.2101
    104 H          12.2428  103.6800    7.3208 H         1 THR         0.0257
    105 H          13.4048  102.3216    7.1451 H         1 THR         0.0257
    106 H          11.6567  102.0549    6.8289 H         1 THR         0.0257
    107 H          14.0698  100.0081    5.8023 H         1 LYS         0.1883
    108 H          11.3636   99.0365    6.5738 H         1 LYS         0.0800
    109 H          12.4797   97.5800    4.8158 H         1 LYS         0.0312
    110 H          11.9317   96.7660    6.3204 H         1 LYS         0.0312
    111 H          14.2493   96.7876    7.1545 H         1 LYS         0.0269
    112 H          14.7805   97.5522    5.6183 H         1 LYS         0.0269
    113 H          13.8349   95.5961    4.3747 H         1 LYS         0.0317
    114 H          13.4537   94.8231    5.9507 H         1 LYS         0.0317
    115 H          15.8596   94.9095    6.5528 H         1 LYS         0.0813
    116 H          16.2211   95.6286    4.9469 H         1 LYS         0.0813
    117 H          16.5606   93.2519    4.9638 H         1 LYS         0.1994
    118 H          15.3315   93.6360    3.9385 H         1 LYS         0.1994
    119 H          15.0003   92.9771    5.4101 H         1 LYS         0.1994
    120 H          11.6323   97.3359    8.4065 H         1 GLN         0.1883
    121 H          13.5302   98.4770   10.4122 H         1 GLN         0.0801
    122 H          11.1287   97.0094   11.3682 H         1 GLN         0.0337
    123 H          10.8020   98.5689   10.5387 H         1 GLN         0.0337
    124 H          12.8374   98.3440   12.7752 H         1 GLN         0.0504
    125 H          11.0861   98.5697   13.1051 H         1 GLN         0.0504
    126 H          12.3181  101.9763   13.1838 H         1 GLN         0.1814
    127 H          12.2302  100.5496   14.1621 H         1 GLN         0.1814
    128 H          14.7468   97.0570   11.5615 H         1 THR         0.1884
    129 H          15.2477   94.5370   10.2263 H         1 THR         0.0826
    130 H          17.1064   94.3417   11.9445 H         1 THR         0.0639
    131 H          17.3584   96.2532   13.2634 H         1 THR         0.2101
    132 H          18.3894   96.2837   11.0882 H         1 THR         0.0257
    133 H          16.8676   97.0373   10.5028 H         1 THR         0.0257
    134 H          17.4508   95.5046    9.7698 H         1 THR         0.0257
    135 H          15.4905   92.4784   11.2229 H         1 ALA         0.1883
    136 H          13.4079   91.9531   13.2496 H         1 ALA         0.0797
    137 H          13.8600   89.5666   12.7735 H         1 ALA         0.0277
    138 H          15.2003   90.0444   11.6772 H         1 ALA         0.0277
    139 H          13.5081   90.4939   11.2759 H         1 ALA         0.0277
    140 H          13.8286   91.7362   15.3700 H         1 ARG         0.1883
    141 H          16.4193   92.2959   16.4105 H         1 ARG         0.0800
    142 H          14.2210   92.5924   17.6477 H         1 ARG         0.0313
    143 H          15.5781   91.8803   18.5847 H         1 ARG         0.0313
    144 H          14.5777   89.6118   18.1586 H         1 ARG         0.0301
    145 H          13.1603   90.4379   17.4269 H         1 ARG         0.0301
    146 H          14.1834   90.9926   20.2433 H         1 ARG         0.0689
    147 H          12.9065   89.7878   19.8631 H         1 ARG         0.0689
    148 H          12.1284   92.2461   18.6832 H         1 ARG         0.2642
    149 H          11.5424   91.9607   22.6966 H         1 ARG         0.2615
    150 H          12.7331   90.8936   21.9053 H         1 ARG         0.2615
    151 H          10.6148   93.5951   19.6938 H         1 ARG         0.2615
    152 H          10.3551   93.4806   21.4551 H         1 ARG         0.2615
    153 H          17.7700   90.8399   17.7326 H         1 LYS         0.1883
    154 H          18.0250   88.3585   16.1026 H         1 LYS         0.0800
    155 H          20.2980   88.7413   15.9605 H         1 LYS         0.0312
    156 H          20.3629   89.6133   17.5297 H         1 LYS         0.0312
    157 H          19.0164   91.4720   16.3484 H         1 LYS         0.0269
    158 H          19.4419   90.6352   14.8169 H         1 LYS         0.0269
    159 H          21.5200   91.5376   16.8482 H         1 LYS         0.0317
    160 H          20.9303   92.5879   15.5155 H         1 LYS         0.0317
    161 H          21.6067   90.7010   13.9259 H         1 LYS         0.0813
    162 H          22.4605   89.9674   15.3257 H         1 LYS         0.0813
    163 H          23.9260   91.3441   14.0008 H         1 LYS         0.1994
    164 H          23.7552   91.9958   15.5026 H         1 LYS         0.1994
    165 H          22.9727   92.6680   14.2199 H         1 LYS         0.1994
    166 H          18.8831   86.4880   16.9623 H         1 SER         0.1877
    167 H          17.8731   85.7151   19.4960 H         1 SER         0.0774
    168 O1         21.1048   85.5981   19.7492 O.co2     1 SER        -0.4119
    169 H          18.9608   83.5902   19.0844 H         1 SER         0.0600
    170 H          20.0752   84.3366   17.8896 H         1 SER         0.0600
    171 H          18.2922   83.2531   16.9000 H         1 SER         0.2096
@<TRIPOS>BOND
     1    1    2 1  
     2    2    3 1  
     3    2    5 1  
     4    3    4 2  
     5    3    6 am 
     6    6    7 1  
     7    7    8 1  
     8    7   10 1  
     9    8    9 2  
    10    8   17 am 
    11   10   11 1  
    12   11   12 1  
    13   12   13 1  
    14   13   14 ar 
    15   14   15 ar 
    16   14   16 ar 
    17   17   18 1  
    18   18   19 1  
    19   18   21 1  
    20   19   20 2  
    21   19   24 am 
    22   21   22 1  
    23   21   23 1  
    24   24   25 1  
    25   25   26 1  
    26   25   28 1  
    27   26   27 2  
    28   26   33 am 
    29   28   29 1  
    30   29   30 1  
    31   30   31 1  
    32   31   32 1  
    33   33   34 1  
    34   34   35 1  
    35   34   37 1  
    36   35   36 2  
    37   35   42 am 
    38   37   38 1  
    39   38   39 1  
    40   39   40 2  
    41   39   41 am 
    42   42   43 1  
    43   43   44 1  
    44   43   46 1  
    45   44   45 2  
    46   44   49 am 
    47   46   47 1  
    48   46   48 1  
    49   49   50 1  
    50   50   51 1  
    51   50   53 1  
    52   51   52 2  
    53   51   54 am 
    54   54   55 1  
    55   55   56 1  
    56   55   58 1  
    57   56   57 2  
    58   56   65 am 
    59   58   59 1  
    60   59   60 1  
    61   60   61 1  
    62   61   62 ar 
    63   62   63 ar 
    64   62   64 ar 
    65   65   66 1  
    66   66   67 1  
    67   66   69 1  
    68   67   68 2  
    69   67   74 am 
    70   69   70 1  
    71   70   71 1  
    72   71   72 1  
    73   72   73 1  
    74   74   75 1  
    75   75   76 1  
    76   75   78 1  
    77   76   77 ar 
    78   78   79 1  
    79    1   80 1  
    80    1   81 1  
    81    1   82 1  
    82    2   83 1  
    83    5   84 1  
    84    5   85 1  
    85    5   86 1  
    86    6   87 1  
    87    7   88 1  
    88   10   89 1  
    89   10   90 1  
    90   11   91 1  
    91   11   92 1  
    92   12   93 1  
    93   12   94 1  
    94   13   95 1  
    95   15   96 1  
    96   15   97 1  
    97   16   98 1  
    98   16   99 1  
    99   17  100 1  
   100   18  101 1  
   101   21  102 1  
   102   22  103 1  
   103   23  104 1  
   104   23  105 1  
   105   23  106 1  
   106   24  107 1  
   107   25  108 1  
   108   28  109 1  
   109   28  110 1  
   110   29  111 1  
   111   29  112 1  
   112   30  113 1  
   113   30  114 1  
   114   31  115 1  
   115   31  116 1  
   116   32  117 1  
   117   32  118 1  
   118   32  119 1  
   119   33  120 1  
   120   34  121 1  
   121   37  122 1  
   122   37  123 1  
   123   38  124 1  
   124   38  125 1  
   125   41  126 1  
   126   41  127 1  
   127   42  128 1  
   128   43  129 1  
   129   46  130 1  
   130   47  131 1  
   131   48  132 1  
   132   48  133 1  
   133   48  134 1  
   134   49  135 1  
   135   50  136 1  
   136   53  137 1  
   137   53  138 1  
   138   53  139 1  
   139   54  140 1  
   140   55  141 1  
   141   58  142 1  
   142   58  143 1  
   143   59  144 1  
   144   59  145 1  
   145   60  146 1  
   146   60  147 1  
   147   61  148 1  
   148   63  149 1  
   149   63  150 1  
   150   64  151 1  
   151   64  152 1  
   152   65  153 1  
   153   66  154 1  
   154   69  155 1  
   155   69  156 1  
   156   70  157 1  
   157   70  158 1  
   158   71  159 1  
   159   71  160 1  
   160   72  161 1  
   161   72  162 1  
   162   73  163 1  
   163   73  164 1  
   164   73  165 1  
   165   74  166 1  
   166   75  167 1  
   167   76  168 ar 
   168   78  169 1  
   169   78  170 1  
   170   79  171 1  
@<TRIPOS>SUBSTRUCTURE
     1 ALA         1

