4u7t_ligand
  -I-interpret- 

170169  0  0  0  0  0  0  0  0999 V2000
   16.0830  106.0810   -0.0920 N   0  3  0  0  0
   14.8800  105.6130   -0.7630 C   0  0  0  0  0
   13.9970  104.8520    0.2020 C   0  0  0  0  0
   13.5350  105.4020    1.1990 O   0  0  0  0  0
   15.2350  104.7320   -1.9700 C   0  0  0  0  0
   13.7730  103.5780   -0.1020 N   0  0  0  0  0
   12.9180  102.7290    0.7160 C   0  0  0  0  0
   13.5280  102.3970    2.0720 C   0  0  0  0  0
   14.7480  102.3970    2.2420 O   0  0  0  0  0
   12.5830  101.4500   -0.0370 C   0  0  0  0  0
   11.7340  101.6920   -1.2720 C   0  0  0  0  0
   11.4120  100.3780   -1.9600 C   0  0  0  0  0
   10.8650   99.4100   -1.0140 N   0  0  0  0  0
   10.8840   98.0940   -1.2000 C   0  0  0  0  0
   11.4330   97.5880   -2.2980 N   0  0  0  0  0
   10.3610   97.2860   -0.2860 N   0  0  0  0  0
   12.6530  102.1020    3.0290 N   0  0  0  0  0
   13.0380  101.9050    4.4220 C   0  0  0  0  0
   12.3350  100.7010    5.0240 C   0  0  0  0  0
   11.1370  100.5010    4.8060 O   0  0  0  0  0
   12.6960  103.1460    5.2660 C   0  0  0  0  0
   13.7330  104.1310    5.1300 O   0  0  0  0  0
   12.4850  102.7740    6.7460 C   0  0  0  0  0
   13.0770   99.8920    5.7740 N   0  0  0  0  0
   12.4450   98.8360    6.5550 C   0  0  0  0  0
   12.9390   98.8140    8.0010 C   0  0  0  0  0
   13.8030   99.6050    8.4020 O   0  0  0  0  0
   12.6620   97.4700    5.8950 C   0  0  0  0  0
   14.0390   96.8830    6.0790 C   0  0  0  0  0
   14.1340   95.5130    5.4300 C   0  0  0  0  0
   15.5450   94.9600    5.5000 C   0  0  0  0  0
   15.6150   93.5960    4.9050 N   0  3  0  0  0
   12.3570   97.9130    8.7830 N   0  0  0  0  0
   12.7460   97.7450   10.1690 C   0  0  0  0  0
   13.3080   96.3390   10.3550 C   0  0  0  0  0
   12.7360   95.3660    9.8620 O   0  0  0  0  0
   11.5530   97.9860   11.0920 C   0  0  0  0  0
   11.8920   98.7400   12.3760 C   0  0  0  0  0
   12.0460  100.2430   12.1650 C   0  0  0  0  0
   12.0050  100.7310   11.0350 O   0  0  0  0  0
   12.2120  100.9850   13.2620 N   0  0  0  0  0
   14.4170   96.2420   11.0850 N   0  0  0  0  0
   15.1770   94.9970   11.2230 C   0  0  0  0  0
   14.5420   93.9870   12.1680 C   0  0  0  0  0
   13.7860   94.3550   13.0690 O   0  0  0  0  0
   16.5880   95.2890   11.7350 C   0  0  0  0  0
   16.4870   96.0650   12.9350 O   0  0  0  0  0
   17.3790   96.0840   10.7020 C   0  0  0  0  0
   14.8840   92.7150   11.9820 N   0  0  0  0  0
   14.3930   91.6530   12.8630 C   0  0  0  0  0
   15.3340   91.4570   14.0470 C   0  0  0  0  0
   16.5170   91.1880   13.8480 O   0  0  0  0  0
   14.2290   90.3490   12.0940 C   0  0  0  0  0
   14.8120   91.5850   15.2700 N   0  0  0  0  0
   15.6540   91.5080   16.4700 C   0  0  0  0  0
   16.3350   90.1540   16.4890 C   0  0  0  0  0
   15.8110   89.1830   15.9300 O   0  0  0  0  0
   14.8610   91.7060   17.7690 C   0  0  0  0  0
   13.9750   90.5320   18.1600 C   0  0  0  0  0
   13.3760   90.7300   19.5440 C   0  0  0  0  0
   12.3700   91.7870   19.5730 N   0  0  0  0  0
   11.7450   92.1960   20.6730 C   0  0  0  0  0
   12.0280   91.6420   21.8460 N   0  0  0  0  0
   10.8370   93.1630   20.6020 N   0  0  0  0  0
   17.5020   90.0930   17.1240 N   0  0  0  0  0
   18.3970   88.9560   16.9480 C   0  0  0  0  0
   18.4640   88.0380   18.1710 C   0  0  0  0  0
   18.3040   88.4820   19.3110 O   0  0  0  0  0
   19.7930   89.4820   16.5980 C   0  0  0  0  0
   19.7540   90.8220   15.8550 C   0  0  0  0  0
   21.0990   91.5480   15.8320 C   0  0  0  0  0
   22.1050   90.9100   14.8840 C   0  0  0  0  0
   23.2870   91.8030   14.6310 N   0  3  0  0  0
   18.7360   86.7610   17.9130 N   0  0  0  0  0
   18.8300   85.7380   18.9540 C   0  0  0  0  0
   19.9410   86.0290   19.9670 C   0  0  0  0  0
   19.7180   86.6760   20.9900 O   0  0  0  0  0
   19.0600   84.3670   18.3120 C   0  0  0  0  0
   18.1210   84.1090   17.2750 O   0  0  0  0  0
   21.1048   85.5981   19.7492 O   0  0  0  0  0
   15.8223  106.6626    0.7043 H   0  0  0  0  0
   16.6231  105.2793    0.2334 H   0  0  0  0  0
   16.6441  106.6281   -0.7449 H   0  0  0  0  0
   14.3326  106.4837   -1.1241 H   0  0  0  0  0
   15.7654  103.8439   -1.6265 H   0  0  0  0  0
   14.3202  104.4348   -2.4828 H   0  0  0  0  0
   15.8704  105.2943   -2.6543 H   0  0  0  0  0
   14.2130  103.1829   -0.9331 H   0  0  0  0  0
   12.0069  103.2937    0.9137 H   0  0  0  0  0
   12.0140  100.8085    0.6359 H   0  0  0  0  0
   13.5216  101.0015   -0.3626 H   0  0  0  0  0
   12.2869  102.3280   -1.9633 H   0  0  0  0  0
   10.8028  102.1734   -0.9734 H   0  0  0  0  0
   12.3305   99.9715   -2.3832 H   0  0  0  0  0
   10.6706  100.5636   -2.7372 H   0  0  0  0  0
   10.4418   99.7657   -0.1568 H   0  0  0  0  0
   11.4529   96.5780   -2.4393 H   0  0  0  0  0
   11.8348   98.2093   -3.0001 H   0  0  0  0  0
    9.9441   97.6748    0.5598 H   0  0  0  0  0
   11.6688  102.0094    2.7777 H   0  0  0  0  0
   14.1148  101.7365    4.4337 H   0  0  0  0  0
   11.7601  103.5659    4.8975 H   0  0  0  0  0
   13.5125  104.9012    5.6589 H   0  0  0  0  0
   11.6641  102.0614    6.8267 H   0  0  0  0  0
   13.3970  102.3258    7.1402 H   0  0  0  0  0
   12.2451  103.6725    7.3145 H   0  0  0  0  0
   14.0897  100.0104    5.8029 H   0  0  0  0  0
   11.3768   99.0515    6.5791 H   0  0  0  0  0
   12.5221   97.6131    4.8235 H   0  0  0  0  0
   11.9610   96.7796    6.3641 H   0  0  0  0  0
   14.2371   96.7804    7.1459 H   0  0  0  0  0
   14.7679   97.5445    5.6108 H   0  0  0  0  0
   13.8524   95.6079    4.3813 H   0  0  0  0  0
   13.4700   94.8323    5.9627 H   0  0  0  0  0
   15.8455   94.9006    6.5461 H   0  0  0  0  0
   16.2071   95.6200    4.9395 H   0  0  0  0  0
   16.5722   93.2489    4.9650 H   0  0  0  0  0
   14.9926   92.9707    5.4169 H   0  0  0  0  0
   15.3279   93.6378    3.9271 H   0  0  0  0  0
   11.6178   97.3244    8.3990 H   0  0  0  0  0
   13.5130   98.4748   10.4282 H   0  0  0  0  0
   11.1730   97.0076   11.3861 H   0  0  0  0  0
   10.8397   98.5982   10.5401 H   0  0  0  0  0
   12.8447   98.3578   12.7426 H   0  0  0  0  0
   11.0712   98.5864   13.0766 H   0  0  0  0  0
   12.3107  101.9971   13.1830 H   0  0  0  0  0
   12.2402  100.5399   14.1793 H   0  0  0  0  0
   14.7534   97.0733   11.5710 H   0  0  0  0  0
   15.1923   94.5600   10.2246 H   0  0  0  0  0
   17.1010   94.3460   11.9239 H   0  0  0  0  0
   17.3675   96.2552   13.2668 H   0  0  0  0  0
   17.4493   95.5088    9.7788 H   0  0  0  0  0
   16.8712   97.0283   10.5055 H   0  0  0  0  0
   18.3799   96.2813   11.0858 H   0  0  0  0  0
   15.5026   92.4736   11.2078 H   0  0  0  0  0
   13.4171   91.9532   13.2445 H   0  0  0  0  0
   13.5145   90.4939   11.2837 H   0  0  0  0  0
   15.1921   90.0484   11.6815 H   0  0  0  0  0
   13.8634   89.5746   12.7683 H   0  0  0  0  0
   13.8089   91.7392   15.3720 H   0  0  0  0  0
   16.3827   92.3172   16.4229 H   0  0  0  0  0
   14.2031   92.5607   17.6114 H   0  0  0  0  0
   15.5902   91.8328   18.5691 H   0  0  0  0  0
   14.5823   89.6269   18.1706 H   0  0  0  0  0
   13.1624   90.4544   17.4377 H   0  0  0  0  0
   14.1815   91.0144   20.2210 H   0  0  0  0  0
   12.8925   89.7981   19.8371 H   0  0  0  0  0
   12.1308   92.2417   18.6918 H   0  0  0  0  0
   12.7263   90.9008   21.9048 H   0  0  0  0  0
   10.3598   93.4776   21.4468 H   0  0  0  0  0
   10.6170   93.5910   19.7026 H   0  0  0  0  0
   17.7754   90.8548   17.7447 H   0  0  0  0  0
   17.9983   88.3435   16.1393 H   0  0  0  0  0
   20.2706   88.7519   15.9446 H   0  0  0  0  0
   20.3362   89.6333   17.5308 H   0  0  0  0  0
   19.0446   91.4645   16.3766 H   0  0  0  0  0
   19.4766   90.6148   14.8215 H   0  0  0  0  0
   21.5169   91.5036   16.8377 H   0  0  0  0  0
   20.9199   92.5669   15.4886 H   0  0  0  0  0
   21.6068   90.7269   13.9320 H   0  0  0  0  0
   22.4662   89.9886   15.3408 H   0  0  0  0  0
   23.9328   91.3377   13.9932 H   0  0  0  0  0
   22.9677   92.6779   14.2151 H   0  0  0  0  0
   23.7598   91.9974   15.5136 H   0  0  0  0  0
   18.8860   86.4826   16.9433 H   0  0  0  0  0
   17.8866   85.7448   19.4999 H   0  0  0  0  0
   18.9422   83.6031   19.0806 H   0  0  0  0  0
   20.0611   84.3526   17.8810 H   0  0  0  0  0
   18.2940   83.2441   16.8961 H   0  0  0  0  0
   21.1165   85.1172   18.9184 H   0  0  0  0  0
  1  2  1  0  0  0
  2  3  1  0  0  0
  2  5  1  0  0  0
  3  4  2  0  0  0
  3  6  1  0  0  0
  6  7  1  0  0  0
  7  8  1  0  0  0
  7 10  1  0  0  0
  8  9  2  0  0  0
  8 17  1  0  0  0
 10 11  1  0  0  0
 11 12  1  0  0  0
 12 13  1  0  0  0
 13 14  1  0  0  0
 14 15  1  0  0  0
 14 16  2  0  0  0
 17 18  1  0  0  0
 18 19  1  0  0  0
 18 21  1  0  0  0
 19 20  2  0  0  0
 19 24  1  0  0  0
 21 22  1  0  0  0
 21 23  1  0  0  0
 24 25  1  0  0  0
 25 26  1  0  0  0
 25 28  1  0  0  0
 26 27  2  0  0  0
 26 33  1  0  0  0
 28 29  1  0  0  0
 29 30  1  0  0  0
 30 31  1  0  0  0
 31 32  1  0  0  0
 33 34  1  0  0  0
 34 35  1  0  0  0
 34 37  1  0  0  0
 35 36  2  0  0  0
 35 42  1  0  0  0
 37 38  1  0  0  0
 38 39  1  0  0  0
 39 40  2  0  0  0
 39 41  1  0  0  0
 42 43  1  0  0  0
 43 44  1  0  0  0
 43 46  1  0  0  0
 44 45  2  0  0  0
 44 49  1  0  0  0
 46 47  1  0  0  0
 46 48  1  0  0  0
 49 50  1  0  0  0
 50 51  1  0  0  0
 50 53  1  0  0  0
 51 52  2  0  0  0
 51 54  1  0  0  0
 54 55  1  0  0  0
 55 56  1  0  0  0
 55 58  1  0  0  0
 56 57  2  0  0  0
 56 65  1  0  0  0
 58 59  1  0  0  0
 59 60  1  0  0  0
 60 61  1  0  0  0
 61 62  1  0  0  0
 62 63  2  0  0  0
 62 64  1  0  0  0
 65 66  1  0  0  0
 66 67  1  0  0  0
 66 69  1  0  0  0
 67 68  2  0  0  0
 67 74  1  0  0  0
 69 70  1  0  0  0
 70 71  1  0  0  0
 71 72  1  0  0  0
 72 73  1  0  0  0
 74 75  1  0  0  0
 75 76  1  0  0  0
 75 78  1  0  0  0
 76 77  2  0  0  0
 78 79  1  0  0  0
 76 80  1  0  0  0
  1 81  1  0  0  0
  1 82  1  0  0  0
  1 83  1  0  0  0
  2 84  1  0  0  0
  5 85  1  0  0  0
  5 86  1  0  0  0
  5 87  1  0  0  0
  6 88  1  0  0  0
  7 89  1  0  0  0
 10 90  1  0  0  0
 10 91  1  0  0  0
 11 92  1  0  0  0
 11 93  1  0  0  0
 12 94  1  0  0  0
 12 95  1  0  0  0
 13 96  1  0  0  0
 15 97  1  0  0  0
 15 98  1  0  0  0
 16 99  1  0  0  0
 17100  1  0  0  0
 18101  1  0  0  0
 21102  1  0  0  0
 22103  1  0  0  0
 23104  1  0  0  0
 23105  1  0  0  0
 23106  1  0  0  0
 24107  1  0  0  0
 25108  1  0  0  0
 28109  1  0  0  0
 28110  1  0  0  0
 29111  1  0  0  0
 29112  1  0  0  0
 30113  1  0  0  0
 30114  1  0  0  0
 31115  1  0  0  0
 31116  1  0  0  0
 32117  1  0  0  0
 32118  1  0  0  0
 32119  1  0  0  0
 33120  1  0  0  0
 34121  1  0  0  0
 37122  1  0  0  0
 37123  1  0  0  0
 38124  1  0  0  0
 38125  1  0  0  0
 41126  1  0  0  0
 41127  1  0  0  0
 42128  1  0  0  0
 43129  1  0  0  0
 46130  1  0  0  0
 47131  1  0  0  0
 48132  1  0  0  0
 48133  1  0  0  0
 48134  1  0  0  0
 49135  1  0  0  0
 50136  1  0  0  0
 53137  1  0  0  0
 53138  1  0  0  0
 53139  1  0  0  0
 54140  1  0  0  0
 55141  1  0  0  0
 58142  1  0  0  0
 58143  1  0  0  0
 59144  1  0  0  0
 59145  1  0  0  0
 60146  1  0  0  0
 60147  1  0  0  0
 61148  1  0  0  0
 63149  1  0  0  0
 64150  1  0  0  0
 64151  1  0  0  0
 65152  1  0  0  0
 66153  1  0  0  0
 69154  1  0  0  0
 69155  1  0  0  0
 70156  1  0  0  0
 70157  1  0  0  0
 71158  1  0  0  0
 71159  1  0  0  0
 72160  1  0  0  0
 72161  1  0  0  0
 73162  1  0  0  0
 73163  1  0  0  0
 73164  1  0  0  0
 74165  1  0  0  0
 75166  1  0  0  0
 78167  1  0  0  0
 78168  1  0  0  0
 79169  1  0  0  0
 80170  1  0  0  0
M  END
$$$$
