4b84_ligand
  -I-interpret- 

 41 41  0  0  0  0  0  0  0  0999 V2000
   30.6880   18.7140   12.0240 O   0  0  0  0  0
   29.8860   19.8950   12.0730 S   0  0  0  0  0
   29.9630   20.6260   13.6100 N   0  0  0  0  0
   28.7700   21.4280   13.8930 C   0  0  0  0  0
   27.8370   20.8800   14.9360 C   0  0  0  0  0
   26.9160   19.7970   14.5310 N   0  3  0  0  0
   25.5610   20.2560   14.2020 C   0  0  0  0  0
   25.2780   20.5480   12.7540 C   0  0  0  0  0
   26.9220   18.6590   15.4510 C   0  0  0  0  0
   27.6230   17.4340   14.9560 C   0  0  0  0  0
   30.2930   21.0490   10.8220 C   0  0  0  0  0
   31.5290   21.0210   10.1730 C   0  0  0  0  0
   31.8180   21.9530    9.1650 C   0  0  0  0  0
   33.1440   21.9410    8.4330 C   0  0  0  0  0
   33.8060   23.0540    8.7950 F   0  0  0  0  0
   32.9500   21.8850    7.0990 F   0  0  0  0  0
   33.8400   20.8670    8.7970 F   0  0  0  0  0
   30.8610   22.9260    8.8190 C   0  0  0  0  0
   29.6280   22.9510    9.4710 C   0  0  0  0  0
   29.3430   22.0160   10.4680 C   0  0  0  0  0
   28.6070   19.3090   11.7770 O   0  0  0  0  0
   30.7454   20.5183   14.2554 H   0  0  0  0  0
   28.2008   21.4665   12.9642 H   0  0  0  0  0
   29.1284   22.3836   14.2758 H   0  0  0  0  0
   27.1979   21.7147   15.2239 H   0  0  0  0  0
   28.4785   20.4464   15.7032 H   0  0  0  0  0
   27.2994   19.4502   13.6517 H   0  0  0  0  0
   25.4282   21.2005   14.7297 H   0  0  0  0  0
   24.8928   19.4407   14.4794 H   0  0  0  0  0
   25.9493   21.3327   12.4050 H   0  0  0  0  0
   25.4357   19.6446   12.1649 H   0  0  0  0  0
   24.2446   20.8777   12.6464 H   0  0  0  0  0
   25.8799   18.3792   15.6051 H   0  0  0  0  0
   27.4577   18.9839   16.3429 H   0  0  0  0  0
   27.1434   17.0874   14.0406 H   0  0  0  0  0
   28.6673   17.6715   14.7531 H   0  0  0  0  0
   27.5674   16.6535   15.7148 H   0  0  0  0  0
   32.2715   20.2728   10.4504 H   0  0  0  0  0
   31.0832   23.6585    8.0430 H   0  0  0  0  0
   28.8855   23.7021    9.2015 H   0  0  0  0  0
   28.3773   22.0385   10.9731 H   0  0  0  0  0
  1  2  2  0  0  0
  2  3  1  0  0  0
  2 11  1  0  0  0
  2 21  2  0  0  0
  3  4  1  0  0  0
  4  5  1  0  0  0
  5  6  1  0  0  0
  6  7  1  0  0  0
  6  9  1  0  0  0
  7  8  1  0  0  0
  9 10  1  0  0  0
 11 12  4  0  0  0
 11 20  4  0  0  0
 12 13  4  0  0  0
 13 14  1  0  0  0
 13 18  4  0  0  0
 14 15  1  0  0  0
 14 16  1  0  0  0
 14 17  1  0  0  0
 18 19  4  0  0  0
 19 20  4  0  0  0
  3 22  1  0  0  0
  4 23  1  0  0  0
  4 24  1  0  0  0
  5 25  1  0  0  0
  5 26  1  0  0  0
  6 27  1  0  0  0
  7 28  1  0  0  0
  7 29  1  0  0  0
  8 30  1  0  0  0
  8 31  1  0  0  0
  8 32  1  0  0  0
  9 33  1  0  0  0
  9 34  1  0  0  0
 10 35  1  0  0  0
 10 36  1  0  0  0
 10 37  1  0  0  0
 12 38  1  0  0  0
 18 39  1  0  0  0
 19 40  1  0  0  0
 20 41  1  0  0  0
M  END
$$$$
