5am5_ligand
  -I-interpret- 

 37 38  0  0  0  0  0  0  0  0999 V2000
   14.5680    6.4140    6.0000 C   0  0  0  0  0
   15.6800    6.9170    6.9350 C   0  0  0  0  0
   15.6630    8.4460    7.0770 C   0  0  0  0  0
   15.4130    8.8680    8.5120 C   0  0  0  0  0
   16.4000    8.7610    9.4890 C   0  0  0  0  0
   16.1510    9.1830   10.8280 C   0  0  0  0  0
   14.9180    9.6940   11.1190 C   0  0  0  0  0
   13.9450    9.7950   10.1650 N   0  0  0  0  0
   14.1500    9.4040    8.8810 C   0  0  0  0  0
   13.2440    9.5280    8.0580 O   0  0  0  0  0
   17.1790    9.0980   11.9520 C   0  0  0  0  0
   18.2970    8.0450   11.7060 C   0  0  0  0  0
   19.5060    8.1270   12.6710 C   0  0  0  0  0
   19.9710    9.5790   12.9170 C   0  0  0  0  0
   18.7950   10.4380   13.4090 C   0  0  0  0  0
   17.7330   10.4990   12.2950 C   0  0  0  0  0
   13.5978    6.7089    6.3998 H   0  0  0  0  0
   14.7023    6.8503    5.0102 H   0  0  0  0  0
   14.6182    5.3274    5.9294 H   0  0  0  0  0
   16.6406    6.6244    6.5110 H   0  0  0  0  0
   15.5199    6.4810    7.9211 H   0  0  0  0  0
   14.8595    8.8416    6.4557 H   0  0  0  0  0
   16.6341    8.8324    6.7676 H   0  0  0  0  0
   17.3747    8.3496    9.2267 H   0  0  0  0  0
   14.7057   10.0285   12.1345 H   0  0  0  0  0
   13.0356   10.1763   10.4258 H   0  0  0  0  0
   16.6522    8.7254   12.8305 H   0  0  0  0  0
   18.6841    8.2286   10.7037 H   0  0  0  0  0
   17.8426    7.0658   11.8568 H   0  0  0  0  0
   20.3341    7.5813   12.2188 H   0  0  0  0  0
   19.2004    7.7056   13.6286 H   0  0  0  0  0
   20.3501    9.9948   11.9835 H   0  0  0  0  0
   20.7540    9.5789   13.6753 H   0  0  0  0  0
   19.1429   11.4434   13.6463 H   0  0  0  0  0
   18.3648    9.9986   14.3089 H   0  0  0  0  0
   16.9064   11.1181   12.6436 H   0  0  0  0  0
   18.1989   10.9114   11.4001 H   0  0  0  0  0
  1  2  1  0  0  0
  2  3  1  0  0  0
  3  4  1  0  0  0
  4  5  2  0  0  0
  4  9  1  0  0  0
  5  6  1  0  0  0
  6  7  2  0  0  0
  6 11  1  0  0  0
  7  8  1  0  0  0
  8  9  1  0  0  0
  9 10  2  0  0  0
 11 12  1  0  0  0
 11 16  1  0  0  0
 12 13  1  0  0  0
 13 14  1  0  0  0
 14 15  1  0  0  0
 15 16  1  0  0  0
  1 17  1  0  0  0
  1 18  1  0  0  0
  1 19  1  0  0  0
  2 20  1  0  0  0
  2 21  1  0  0  0
  3 22  1  0  0  0
  3 23  1  0  0  0
  5 24  1  0  0  0
  7 25  1  0  0  0
  8 26  1  0  0  0
 11 27  1  0  0  0
 12 28  1  0  0  0
 12 29  1  0  0  0
 13 30  1  0  0  0
 13 31  1  0  0  0
 14 32  1  0  0  0
 14 33  1  0  0  0
 15 34  1  0  0  0
 15 35  1  0  0  0
 16 36  1  0  0  0
 16 37  1  0  0  0
M  END
$$$$
