### 
### Created by X-TOOL on Mon Sep 10 21:12:52 2018
### 

@<TRIPOS>MOLECULE
1x7q_ligand
  152   155     1     0     0
SMALL
GAST_HUCK


@<TRIPOS>ATOM
      1 N           1.4240   41.2080   34.7880 N.4       1 LYS         0.2379
      2 CA          0.8730   42.5350   34.6040 C.3       1 LYS         0.0650
      3 C           1.4520   43.5340   35.6050 C.2       1 LYS         0.2268
      4 O           1.6160   43.2000   36.7800 O.2       1 LYS        -0.3907
      5 CB         -0.6330   42.5150   34.8100 C.3       1 LYS         0.0080
      6 CG         -1.3770   42.0720   33.5660 C.3       1 LYS        -0.0410
      7 CD         -2.8380   42.4430   33.6090 C.3       1 LYS        -0.0123
      8 CE         -3.5330   41.9530   32.3390 C.3       1 LYS        -0.0354
      9 NZ         -4.9540   42.4580   32.3280 N.4       1 LYS         0.2185
     10 N           1.7130   44.7370   35.1000 N.am      1 THR        -0.2586
     11 CA          2.3220   45.8140   35.8730 C.3       1 THR         0.1566
     12 C           1.3670   46.4080   36.9040 C.2       1 THR         0.2066
     13 O           0.1370   46.2840   36.8150 O.2       1 THR        -0.3943
     14 CB          2.8000   46.9420   34.9660 C.3       1 THR         0.0924
     15 OG1         1.7340   47.3360   34.0730 O.3       1 THR        -0.3874
     16 CG2         4.0160   46.5440   34.1570 C.3       1 THR        -0.0346
     17 N           1.9590   47.0350   37.9070 N.am      1 PHE        -0.2618
     18 CA          1.2480   47.8810   38.8650 C.3       1 PHE         0.1406
     19 C           1.1820   49.2970   38.3230 C.2       1 PHE         0.2085
     20 O           2.1900   49.7970   37.8010 O.2       1 PHE        -0.3940
     21 CB          2.0330   47.8170   40.1630 C.3       1 PHE         0.0214
     22 CG          1.5160   48.6170   41.3460 C.ar      1 PHE        -0.0386
     23 CD1         0.2370   48.4080   41.8260 C.ar      1 PHE        -0.0601
     24 CD2         2.3060   49.5760   41.9810 C.ar      1 PHE        -0.0601
     25 CE1        -0.2690   49.1220   42.9100 C.ar      1 PHE        -0.0686
     26 CE2         1.8270   50.2850   43.0570 C.ar      1 PHE        -0.0686
     27 CZ          0.5440   50.0520   43.5330 C.ar      1 PHE        -0.0687
     28 N           0.0800   50.0510   38.3490 N.am      1 PRO        -0.2497
     29 CA          0.0990   51.4280   37.8520 C.3       1 PRO         0.1340
     30 C           1.0460   52.3070   38.6670 C.2       1 PRO         0.2066
     31 O           1.4750   51.9330   39.7380 O.2       1 PRO        -0.3942
     32 CB         -1.3000   51.9330   38.0410 C.3       1 PRO        -0.0104
     33 CG         -2.1480   50.7770   38.4200 C.3       1 PRO        -0.0281
     34 CD         -1.2680   49.6390   38.7930 C.3       1 PRO         0.0369
     35 N           1.4490   53.4440   38.1180 N.am      1 PRO        -0.2498
     36 CA          2.4530   54.2710   38.8030 C.3       1 PRO         0.1338
     37 C           2.0790   54.6200   40.2310 C.2       1 PRO         0.2042
     38 O           0.9510   54.9620   40.5560 O.2       1 PRO        -0.3944
     39 CB          2.5390   55.5060   37.9090 C.3       1 PRO        -0.0104
     40 CG          1.9050   55.1470   36.6310 C.3       1 PRO        -0.0281
     41 CD          1.0070   53.9490   36.8070 C.3       1 PRO         0.0369
     42 N           3.0080   54.5170   41.1970 N.am      1 THR        -0.2613
     43 CA          2.6180   54.9240   42.5430 C.3       1 THR         0.1565
     44 C           2.8380   56.4300   42.7210 C.2       1 THR         0.2065
     45 O           3.1550   57.1830   41.7810 O.2       1 THR        -0.3943
     46 CB          3.4100   54.1420   43.6030 C.3       1 THR         0.0924
     47 OG1         2.7130   54.1190   44.8480 O.3       1 THR        -0.3874
     48 CG2         4.7620   54.8290   43.7510 C.3       1 THR        -0.0346
     49 N           2.5980   56.8900   43.9530 N.am      1 GLU        -0.2635
     50 CA          2.5440   58.2790   44.3310 C.3       1 GLU         0.1327
     51 C           3.9100   58.8980   43.9930 C.2       1 GLU         0.2065
     52 O           4.9520   58.2530   44.1530 O.2       1 GLU        -0.3942
     53 CB          2.1770   58.5310   45.8130 C.3       1 GLU        -0.0008
     54 CG          0.7710   59.1340   45.9410 C.3       1 GLU         0.0044
     55 CD          0.8140   60.6260   46.1960 C.2       1 GLU         0.0350
     56 OE1         1.4070   61.0700   47.2110 O.co2     1 GLU        -0.5690
     57 OE2         0.2690   61.4200   45.3990 O.co2     1 GLU        -0.5690
     58 N           3.9210   60.1260   43.5350 N.am      1 PRO        -0.2498
     59 CA          5.1980   60.8150   43.3490 C.3       1 PRO         0.1337
     60 C           6.0110   60.8710   44.6370 C.2       1 PRO         0.2035
     61 O           5.4960   60.9030   45.7540 O.2       1 PRO        -0.3944
     62 CB          4.7720   62.2190   42.8880 C.3       1 PRO        -0.0104
     63 CG          3.4980   61.9150   42.1310 C.3       1 PRO        -0.0281
     64 CD          2.8060   60.9970   43.1020 C.3       1 PRO         0.0369
     65 N           7.3280   60.9100   44.4540 N.am      1 LYS        -0.2695
     66 CA          8.3010   60.9930   45.5320 C.3       1 LYS         0.0944
     67 C           8.4050   62.3830   46.1540 C.2       1 LYS         0.0601
     68 O           9.0340   62.4900   47.2620 O.co2     1 LYS        -0.5666
     69 CB          9.6650   60.5160   44.9930 C.3       1 LYS        -0.0177
     70 CG          9.6300   58.9880   44.7510 C.3       1 LYS        -0.0446
     71 CD         10.9180   58.4740   44.1450 C.3       1 LYS        -0.0125
     72 CE         11.0360   56.9810   44.3300 C.3       1 LYS        -0.0354
     73 NZ         10.8310   56.2510   43.1180 N.4       1 LYS         0.2185
     74 OXT         7.8600   63.3260   45.5330 O.co2     1 LYS        -0.5666
     75 H1          1.0193   40.5794   34.1118 H         1 LYS         0.2015
     76 H2          1.2125   40.8823   35.7182 H         1 LYS         0.2015
     77 H3          2.4236   41.2388   34.6619 H         1 LYS         0.2015
     78 H4          1.1006   42.8718   33.5819 H         1 LYS         0.1098
     79 H5         -0.9668   43.5277   35.0801 H         1 LYS         0.0346
     80 H6         -0.8689   41.8203   35.6296 H         1 LYS         0.0346
     81 H7         -1.2924   40.9792   33.4738 H         1 LYS         0.0270
     82 H8         -0.9164   42.5507   32.6893 H         1 LYS         0.0270
     83 H9         -2.9354   43.5364   33.6801 H         1 LYS         0.0317
     84 H10        -3.3082   41.9751   34.4865 H         1 LYS         0.0317
     85 H11        -3.5328   40.8532   32.3199 H         1 LYS         0.0813
     86 H12        -2.9995   42.3352   31.4562 H         1 LYS         0.0813
     87 H13        -5.4179   42.1379   31.4923 H         1 LYS         0.1994
     88 H14        -4.9526   43.4658   32.3464 H         1 LYS         0.1994
     89 H15        -5.4414   42.1078   33.1379 H         1 LYS         0.1994
     90 H16         1.4802   44.9115   34.1433 H         1 THR         0.1885
     91 H17         3.1905   45.3970   36.4039 H         1 THR         0.0826
     92 H18         3.0701   47.8017   35.5969 H         1 THR         0.0639
     93 H19         1.4765   46.5920   33.5414 H         1 THR         0.2101
     94 H20         4.3240   47.3860   33.5197 H         1 THR         0.0257
     95 H21         3.7690   45.6777   33.5258 H         1 THR         0.0257
     96 H22         4.8386   46.2792   34.8376 H         1 THR         0.0257
     97 H23         2.9469   46.9245   38.0162 H         1 PHE         0.1885
     98 H24         0.2274   47.5037   39.0259 H         1 PHE         0.0823
     99 H25         3.0517   48.1718   39.9477 H         1 PHE         0.0474
    100 H26         2.0698   46.7619   40.4720 H         1 PHE         0.0474
    101 H27        -0.3909   47.6668   41.3450 H         1 PHE         0.0557
    102 H28         3.3110   49.7645   41.6210 H         1 PHE         0.0557
    103 H29        -1.2811   48.9520   43.2589 H         1 PHE         0.0599
    104 H30         2.4536   51.0289   43.5356 H         1 PHE         0.0599
    105 H31         0.1786   50.5996   44.3942 H         1 PHE         0.0559
    106 H32         0.3888   51.4506   36.7911 H         1 PRO         0.0802
    107 H33        -1.6681   52.3767   37.1042 H         1 PRO         0.0313
    108 H34        -1.3206   52.6904   38.8384 H         1 PRO         0.0313
    109 H35        -2.7831   50.4897   37.5691 H         1 PRO         0.0287
    110 H36        -2.7830   51.0492   39.2760 H         1 PRO         0.0287
    111 H37        -1.2856   49.4745   39.8805 H         1 PRO         0.0524
    112 H38        -1.5827   48.7194   38.2779 H         1 PRO         0.0524
    113 H39         3.4203   53.7476   38.8217 H         1 PRO         0.0802
    114 H40         3.5908   55.7835   37.7457 H         1 PRO         0.0313
    115 H41         2.0054   56.3483   38.3735 H         1 PRO         0.0313
    116 H42         2.6857   54.9092   35.8935 H         1 PRO         0.0287
    117 H43         1.3076   55.9977   36.2713 H         1 PRO         0.0287
    118 H44        -0.0535   54.2405   36.8249 H         1 PRO         0.0524
    119 H45         1.1694   53.2046   36.0136 H         1 PRO         0.0524
    120 H46         3.9275   54.1759   41.0015 H         1 THR         0.1884
    121 H47         1.5480   54.7069   42.6771 H         1 THR         0.0826
    122 H48         3.5587   53.1071   43.2612 H         1 THR         0.0639
    123 H49         3.2214   53.6311   45.4853 H         1 THR         0.2101
    124 H50         5.3627   54.2978   44.5040 H         1 THR         0.0257
    125 H51         4.6110   55.8706   44.0706 H         1 THR         0.0257
    126 H52         5.2884   54.8144   42.7853 H         1 THR         0.0257
    127 H53         2.4429   56.2131   44.6726 H         1 GLU         0.1883
    128 H54         1.7735   58.7676   43.7166 H         1 GLU         0.0801
    129 H55         2.9074   59.2276   46.2503 H         1 GLU         0.0330
    130 H56         2.2090   57.5761   46.3581 H         1 GLU         0.0330
    131 H57         0.2501   58.6457   46.7778 H         1 GLU         0.0433
    132 H58         0.2191   58.9492   45.0076 H         1 GLU         0.0433
    133 H59         5.7960   60.3165   42.5719 H         1 PRO         0.0802
    134 H60         5.5296   62.6738   42.2330 H         1 PRO         0.0313
    135 H61         4.5817   62.8825   43.7444 H         1 PRO         0.0313
    136 H62         3.7052   61.4115   41.1752 H         1 PRO         0.0287
    137 H63         2.9099   62.8259   41.9457 H         1 PRO         0.0287
    138 H64         2.3808   61.5555   43.9489 H         1 PRO         0.0524
    139 H65         2.0117   60.4170   42.6094 H         1 PRO         0.0524
    140 H66         7.6711   60.8804   43.5152 H         1 LYS         0.1875
    141 H67         7.9832   60.3024   46.3270 H         1 LYS         0.0726
    142 H68        10.4498   60.7512   45.7270 H         1 LYS         0.0305
    143 H69         9.8830   61.0305   44.0455 H         1 LYS         0.0305
    144 H70         8.8001   58.7568   44.0670 H         1 LYS         0.0269
    145 H71         9.4644   58.4809   45.7130 H         1 LYS         0.0269
    146 H72        11.7700   58.9671   44.6358 H         1 LYS         0.0317
    147 H73        10.9293   58.7066   43.0699 H         1 LYS         0.0317
    148 H74        10.2842   56.6582   45.0652 H         1 LYS         0.0813
    149 H75        12.0426   56.7532   44.7106 H         1 LYS         0.0813
    150 H76        10.9213   55.2639   43.3010 H         1 LYS         0.1994
    151 H77        11.5193   56.5307   42.4367 H         1 LYS         0.1994
    152 H78         9.9080   56.4436   42.7617 H         1 LYS         0.1994
@<TRIPOS>BOND
     1    1    2 1  
     2    2    3 1  
     3    2    5 1  
     4    3    4 2  
     5    3   10 am 
     6    5    6 1  
     7    6    7 1  
     8    7    8 1  
     9    8    9 1  
    10   10   11 1  
    11   11   12 1  
    12   11   14 1  
    13   12   13 2  
    14   12   17 am 
    15   14   15 1  
    16   14   16 1  
    17   17   18 1  
    18   18   19 1  
    19   18   21 1  
    20   19   20 2  
    21   19   28 am 
    22   21   22 1  
    23   22   23 ar 
    24   22   24 ar 
    25   23   25 ar 
    26   24   26 ar 
    27   25   27 ar 
    28   26   27 ar 
    29   28   29 1  
    30   28   34 1  
    31   29   30 1  
    32   29   32 1  
    33   30   31 2  
    34   30   35 am 
    35   32   33 1  
    36   33   34 1  
    37   35   36 1  
    38   35   41 1  
    39   36   37 1  
    40   36   39 1  
    41   37   38 2  
    42   37   42 am 
    43   39   40 1  
    44   40   41 1  
    45   42   43 1  
    46   43   44 1  
    47   43   46 1  
    48   44   45 2  
    49   44   49 am 
    50   46   47 1  
    51   46   48 1  
    52   49   50 1  
    53   50   51 1  
    54   50   53 1  
    55   51   52 2  
    56   51   58 am 
    57   53   54 1  
    58   54   55 1  
    59   55   56 ar 
    60   55   57 ar 
    61   58   59 1  
    62   58   64 1  
    63   59   60 1  
    64   59   62 1  
    65   60   61 2  
    66   60   65 am 
    67   62   63 1  
    68   63   64 1  
    69   65   66 1  
    70   66   67 1  
    71   66   69 1  
    72   67   68 ar 
    73   67   74 ar 
    74   69   70 1  
    75   70   71 1  
    76   71   72 1  
    77   72   73 1  
    78    1   75 1  
    79    1   76 1  
    80    1   77 1  
    81    2   78 1  
    82    5   79 1  
    83    5   80 1  
    84    6   81 1  
    85    6   82 1  
    86    7   83 1  
    87    7   84 1  
    88    8   85 1  
    89    8   86 1  
    90    9   87 1  
    91    9   88 1  
    92    9   89 1  
    93   10   90 1  
    94   11   91 1  
    95   14   92 1  
    96   15   93 1  
    97   16   94 1  
    98   16   95 1  
    99   16   96 1  
   100   17   97 1  
   101   18   98 1  
   102   21   99 1  
   103   21  100 1  
   104   23  101 1  
   105   24  102 1  
   106   25  103 1  
   107   26  104 1  
   108   27  105 1  
   109   29  106 1  
   110   32  107 1  
   111   32  108 1  
   112   33  109 1  
   113   33  110 1  
   114   34  111 1  
   115   34  112 1  
   116   36  113 1  
   117   39  114 1  
   118   39  115 1  
   119   40  116 1  
   120   40  117 1  
   121   41  118 1  
   122   41  119 1  
   123   42  120 1  
   124   43  121 1  
   125   46  122 1  
   126   47  123 1  
   127   48  124 1  
   128   48  125 1  
   129   48  126 1  
   130   49  127 1  
   131   50  128 1  
   132   53  129 1  
   133   53  130 1  
   134   54  131 1  
   135   54  132 1  
   136   59  133 1  
   137   62  134 1  
   138   62  135 1  
   139   63  136 1  
   140   63  137 1  
   141   64  138 1  
   142   64  139 1  
   143   65  140 1  
   144   66  141 1  
   145   69  142 1  
   146   69  143 1  
   147   70  144 1  
   148   70  145 1  
   149   71  146 1  
   150   71  147 1  
   151   72  148 1  
   152   72  149 1  
   153   73  150 1  
   154   73  151 1  
   155   73  152 1  
@<TRIPOS>SUBSTRUCTURE
     1 LYS         1

