1x7q_ligand
  -I-interpret- 

154157  0  0  0  0  0  0  0  0999 V2000
    1.4240   41.2080   34.7880 N   0  3  0  0  0
    0.8730   42.5350   34.6040 C   0  0  0  0  0
    1.4520   43.5340   35.6050 C   0  0  0  0  0
    1.6160   43.2000   36.7800 O   0  0  0  0  0
   -0.6330   42.5150   34.8100 C   0  0  0  0  0
   -1.3770   42.0720   33.5660 C   0  0  0  0  0
   -2.8380   42.4430   33.6090 C   0  0  0  0  0
   -3.5330   41.9530   32.3390 C   0  0  0  0  0
   -4.9540   42.4580   32.3280 N   0  3  0  0  0
    1.7130   44.7370   35.1000 N   0  0  0  0  0
    2.3220   45.8140   35.8730 C   0  0  0  0  0
    1.3670   46.4080   36.9040 C   0  0  0  0  0
    0.1370   46.2840   36.8150 O   0  0  0  0  0
    2.8000   46.9420   34.9660 C   0  0  0  0  0
    1.7340   47.3360   34.0730 O   0  0  0  0  0
    4.0160   46.5440   34.1570 C   0  0  0  0  0
    1.9590   47.0350   37.9070 N   0  0  0  0  0
    1.2480   47.8810   38.8650 C   0  0  0  0  0
    1.1820   49.2970   38.3230 C   0  0  0  0  0
    2.1900   49.7970   37.8010 O   0  0  0  0  0
    2.0330   47.8170   40.1630 C   0  0  0  0  0
    1.5160   48.6170   41.3460 C   0  0  0  0  0
    0.2370   48.4080   41.8260 C   0  0  0  0  0
    2.3060   49.5760   41.9810 C   0  0  0  0  0
   -0.2690   49.1220   42.9100 C   0  0  0  0  0
    1.8270   50.2850   43.0570 C   0  0  0  0  0
    0.5440   50.0520   43.5330 C   0  0  0  0  0
    0.0800   50.0510   38.3490 N   0  0  0  0  0
    0.0990   51.4280   37.8520 C   0  0  0  0  0
    1.0460   52.3070   38.6670 C   0  0  0  0  0
    1.4750   51.9330   39.7380 O   0  0  0  0  0
   -1.3000   51.9330   38.0410 C   0  0  0  0  0
   -2.1480   50.7770   38.4200 C   0  0  0  0  0
   -1.2680   49.6390   38.7930 C   0  0  0  0  0
    1.4490   53.4440   38.1180 N   0  0  0  0  0
    2.4530   54.2710   38.8030 C   0  0  0  0  0
    2.0790   54.6200   40.2310 C   0  0  0  0  0
    0.9510   54.9620   40.5560 O   0  0  0  0  0
    2.5390   55.5060   37.9090 C   0  0  0  0  0
    1.9050   55.1470   36.6310 C   0  0  0  0  0
    1.0070   53.9490   36.8070 C   0  0  0  0  0
    3.0080   54.5170   41.1970 N   0  0  0  0  0
    2.6180   54.9240   42.5430 C   0  0  0  0  0
    2.8380   56.4300   42.7210 C   0  0  0  0  0
    3.1550   57.1830   41.7810 O   0  0  0  0  0
    3.4100   54.1420   43.6030 C   0  0  0  0  0
    2.7130   54.1190   44.8480 O   0  0  0  0  0
    4.7620   54.8290   43.7510 C   0  0  0  0  0
    2.5980   56.8900   43.9530 N   0  0  0  0  0
    2.5440   58.2790   44.3310 C   0  0  0  0  0
    3.9100   58.8980   43.9930 C   0  0  0  0  0
    4.9520   58.2530   44.1530 O   0  0  0  0  0
    2.1770   58.5310   45.8130 C   0  0  0  0  0
    0.7710   59.1340   45.9410 C   0  0  0  0  0
    0.8140   60.6260   46.1960 C   0  0  0  0  0
    1.4070   61.0700   47.2110 O   0  0  0  0  0
    0.2690   61.4200   45.3990 O   0  0  0  0  0
    3.9210   60.1260   43.5350 N   0  0  0  0  0
    5.1980   60.8150   43.3490 C   0  0  0  0  0
    6.0110   60.8710   44.6370 C   0  0  0  0  0
    5.4960   60.9030   45.7540 O   0  0  0  0  0
    4.7720   62.2190   42.8880 C   0  0  0  0  0
    3.4980   61.9150   42.1310 C   0  0  0  0  0
    2.8060   60.9970   43.1020 C   0  0  0  0  0
    7.3280   60.9100   44.4540 N   0  0  0  0  0
    8.3010   60.9930   45.5320 C   0  0  0  0  0
    8.4050   62.3830   46.1540 C   0  0  0  0  0
    9.0340   62.4900   47.2620 O   0  0  0  0  0
    9.6650   60.5160   44.9930 C   0  0  0  0  0
    9.6300   58.9880   44.7510 C   0  0  0  0  0
   10.9180   58.4740   44.1450 C   0  0  0  0  0
   11.0360   56.9810   44.3300 C   0  0  0  0  0
   10.8310   56.2510   43.1180 N   0  3  0  0  0
    7.8600   63.3260   45.5330 O   0  0  0  0  0
    2.4337   41.2378   34.6467 H   0  0  0  0  0
    1.2213   40.8852   35.7341 H   0  0  0  0  0
    1.0036   40.5699   34.1123 H   0  0  0  0  0
    1.1289   42.8397   33.5892 H   0  0  0  0  0
   -0.9547   43.5274   35.0543 H   0  0  0  0  0
   -0.8561   41.8069   35.6080 H   0  0  0  0  0
   -1.3060   40.9864   33.4986 H   0  0  0  0  0
   -0.9270   42.5709   32.7077 H   0  0  0  0  0
   -2.9332   43.5267   33.6772 H   0  0  0  0  0
   -3.3032   41.9769   34.4776 H   0  0  0  0  0
   -3.5309   40.8632   32.3170 H   0  0  0  0  0
   -3.0037   42.3283   31.4632 H   0  0  0  0  0
   -5.4223   42.1335   31.4820 H   0  0  0  0  0
   -5.4461   42.1030   33.1479 H   0  0  0  0  0
   -4.9513   43.4778   32.3467 H   0  0  0  0  0
    1.4755   44.9150   34.1241 H   0  0  0  0  0
    3.1665   45.3614   36.3927 H   0  0  0  0  0
    3.0839   47.7786   35.6044 H   0  0  0  0  0
    2.0404   48.0462   33.5045 H   0  0  0  0  0
    4.8303   46.2818   34.8325 H   0  0  0  0  0
    3.7700   45.6855   33.5321 H   0  0  0  0  0
    4.3202   47.3791   33.5260 H   0  0  0  0  0
    2.9666   46.9223   38.0184 H   0  0  0  0  0
    0.2239   47.5476   39.0328 H   0  0  0  0  0
    3.0107   48.2398   39.9319 H   0  0  0  0  0
    1.9899   46.7741   40.4770 H   0  0  0  0  0
   -0.3944   47.6627   41.3423 H   0  0  0  0  0
    3.3165   49.7655   41.6190 H   0  0  0  0  0
   -1.2867   48.9510   43.2608 H   0  0  0  0  0
    2.4571   51.0330   43.5382 H   0  0  0  0  0
    0.1765   50.6026   44.3990 H   0  0  0  0  0
    0.4372   51.4574   36.8162 H   0  0  0  0  0
   -1.6671   52.3878   37.1209 H   0  0  0  0  0
   -1.3267   52.6951   38.8199 H   0  0  0  0  0
   -2.7824   50.4934   37.5803 H   0  0  0  0  0
   -2.7823   51.0456   39.2647 H   0  0  0  0  0
   -1.2998   49.4321   39.8627 H   0  0  0  0  0
   -1.5850   48.7073   38.3243 H   0  0  0  0  0
    3.4041   53.7522   38.9228 H   0  0  0  0  0
    3.5763   55.8048   37.7578 H   0  0  0  0  0
    2.0329   56.3547   38.3690 H   0  0  0  0  0
    2.6816   54.9046   35.9056 H   0  0  0  0  0
    1.3079   55.9896   36.2822 H   0  0  0  0  0
   -0.0554   54.1892   36.7665 H   0  0  0  0  0
    1.0930   53.2164   36.0045 H   0  0  0  0  0
    3.9459   54.1691   40.9976 H   0  0  0  0  0
    1.5594   54.7010   42.6762 H   0  0  0  0  0
    3.5381   53.1043   43.2951 H   0  0  0  0  0
    3.2267   53.6260   45.4920 H   0  0  0  0  0
    5.2825   54.8139   42.7934 H   0  0  0  0  0
    4.6110   55.8610   44.0677 H   0  0  0  0  0
    5.3562   54.3018   44.4974 H   0  0  0  0  0
    2.4398   56.1996   44.6869 H   0  0  0  0  0
    1.7341   58.7478   43.7720 H   0  0  0  0  0
    2.8965   59.2323   46.2355 H   0  0  0  0  0
    2.1973   57.5790   46.3435 H   0  0  0  0  0
    0.2720   58.6584   46.7853 H   0  0  0  0  0
    0.2408   58.9637   45.0040 H   0  0  0  0  0
    1.7679   60.3373   47.7154 H   0  0  0  0  0
    5.8503   60.3086   42.6375 H   0  0  0  0  0
    5.5255   62.7280   42.2870 H   0  0  0  0  0
    4.6345   62.9241   43.7077 H   0  0  0  0  0
    3.6614   61.4768   41.1465 H   0  0  0  0  0
    2.9179   62.7992   41.8668 H   0  0  0  0  0
    2.3183   61.5208   43.9241 H   0  0  0  0  0
    1.9711   60.4499   42.6642 H   0  0  0  0  0
    7.6780   60.8798   43.4964 H   0  0  0  0  0
    7.9644   60.3469   46.3428 H   0  0  0  0  0
    9.3568   61.6266   47.5301 H   0  0  0  0  0
   10.4409   60.7469   45.7230 H   0  0  0  0  0
    9.8778   61.0243   44.0526 H   0  0  0  0  0
    8.8191   58.7740   44.0547 H   0  0  0  0  0
    9.4885   58.4959   45.7133 H   0  0  0  0  0
   11.7589   58.9581   44.6416 H   0  0  0  0  0
   10.9195   58.6981   43.0783 H   0  0  0  0  0
   10.2672   56.6720   45.0383 H   0  0  0  0  0
   12.0463   56.7682   44.6794 H   0  0  0  0  0
   10.9226   55.2524   43.3044 H   0  0  0  0  0
    9.8967   56.4467   42.7585 H   0  0  0  0  0
   11.5279   56.5349   42.4295 H   0  0  0  0  0
  1  2  1  0  0  0
  2  3  1  0  0  0
  2  5  1  0  0  0
  3  4  2  0  0  0
  3 10  1  0  0  0
  5  6  1  0  0  0
  6  7  1  0  0  0
  7  8  1  0  0  0
  8  9  1  0  0  0
 10 11  1  0  0  0
 11 12  1  0  0  0
 11 14  1  0  0  0
 12 13  2  0  0  0
 12 17  1  0  0  0
 14 15  1  0  0  0
 14 16  1  0  0  0
 17 18  1  0  0  0
 18 19  1  0  0  0
 18 21  1  0  0  0
 19 20  2  0  0  0
 19 28  1  0  0  0
 21 22  1  0  0  0
 22 23  4  0  0  0
 22 24  4  0  0  0
 23 25  4  0  0  0
 24 26  4  0  0  0
 25 27  4  0  0  0
 26 27  4  0  0  0
 28 29  1  0  0  0
 28 34  1  0  0  0
 29 30  1  0  0  0
 29 32  1  0  0  0
 30 31  2  0  0  0
 30 35  1  0  0  0
 32 33  1  0  0  0
 33 34  1  0  0  0
 35 36  1  0  0  0
 35 41  1  0  0  0
 36 37  1  0  0  0
 36 39  1  0  0  0
 37 38  2  0  0  0
 37 42  1  0  0  0
 39 40  1  0  0  0
 40 41  1  0  0  0
 42 43  1  0  0  0
 43 44  1  0  0  0
 43 46  1  0  0  0
 44 45  2  0  0  0
 44 49  1  0  0  0
 46 47  1  0  0  0
 46 48  1  0  0  0
 49 50  1  0  0  0
 50 51  1  0  0  0
 50 53  1  0  0  0
 51 52  2  0  0  0
 51 58  1  0  0  0
 53 54  1  0  0  0
 54 55  1  0  0  0
 55 56  1  0  0  0
 55 57  2  0  0  0
 58 59  1  0  0  0
 58 64  1  0  0  0
 59 60  1  0  0  0
 59 62  1  0  0  0
 60 61  2  0  0  0
 60 65  1  0  0  0
 62 63  1  0  0  0
 63 64  1  0  0  0
 65 66  1  0  0  0
 66 67  1  0  0  0
 66 69  1  0  0  0
 67 68  1  0  0  0
 67 74  2  0  0  0
 69 70  1  0  0  0
 70 71  1  0  0  0
 71 72  1  0  0  0
 72 73  1  0  0  0
  1 75  1  0  0  0
  1 76  1  0  0  0
  1 77  1  0  0  0
  2 78  1  0  0  0
  5 79  1  0  0  0
  5 80  1  0  0  0
  6 81  1  0  0  0
  6 82  1  0  0  0
  7 83  1  0  0  0
  7 84  1  0  0  0
  8 85  1  0  0  0
  8 86  1  0  0  0
  9 87  1  0  0  0
  9 88  1  0  0  0
  9 89  1  0  0  0
 10 90  1  0  0  0
 11 91  1  0  0  0
 14 92  1  0  0  0
 15 93  1  0  0  0
 16 94  1  0  0  0
 16 95  1  0  0  0
 16 96  1  0  0  0
 17 97  1  0  0  0
 18 98  1  0  0  0
 21 99  1  0  0  0
 21100  1  0  0  0
 23101  1  0  0  0
 24102  1  0  0  0
 25103  1  0  0  0
 26104  1  0  0  0
 27105  1  0  0  0
 29106  1  0  0  0
 32107  1  0  0  0
 32108  1  0  0  0
 33109  1  0  0  0
 33110  1  0  0  0
 34111  1  0  0  0
 34112  1  0  0  0
 36113  1  0  0  0
 39114  1  0  0  0
 39115  1  0  0  0
 40116  1  0  0  0
 40117  1  0  0  0
 41118  1  0  0  0
 41119  1  0  0  0
 42120  1  0  0  0
 43121  1  0  0  0
 46122  1  0  0  0
 47123  1  0  0  0
 48124  1  0  0  0
 48125  1  0  0  0
 48126  1  0  0  0
 49127  1  0  0  0
 50128  1  0  0  0
 53129  1  0  0  0
 53130  1  0  0  0
 54131  1  0  0  0
 54132  1  0  0  0
 56133  1  0  0  0
 59134  1  0  0  0
 62135  1  0  0  0
 62136  1  0  0  0
 63137  1  0  0  0
 63138  1  0  0  0
 64139  1  0  0  0
 64140  1  0  0  0
 65141  1  0  0  0
 66142  1  0  0  0
 68143  1  0  0  0
 69144  1  0  0  0
 69145  1  0  0  0
 70146  1  0  0  0
 70147  1  0  0  0
 71148  1  0  0  0
 71149  1  0  0  0
 72150  1  0  0  0
 72151  1  0  0  0
 73152  1  0  0  0
 73153  1  0  0  0
 73154  1  0  0  0
M  END
$$$$
