1xh5_ligand
  -I-interpret- 

 83 87  0  0  0  0  0  0  0  0999 V2000
    7.3900    9.4140    1.5240 O   0  0  0  0  0
    7.2020    9.3580    2.7540 C   0  0  0  0  0
    5.8510    9.4950    3.3630 C   0  0  0  0  0
    4.7130    9.5200    2.5260 C   0  0  0  0  0
    3.4350    9.6350    3.0840 C   0  0  0  0  0
    3.2650    9.6370    4.4110 N   0  0  0  0  0
    4.3100    9.5980    5.2250 C   0  0  0  0  0
    5.6310    9.5570    4.7490 C   0  0  0  0  0
    8.3090    9.1380    3.5610 N   0  0  0  0  0
    9.6570    8.8670    3.0180 C   0  0  0  0  0
    9.9700    7.4310    3.4550 C   0  0  0  0  0
   11.2460    6.9640    2.9110 N   0  3  0  0  0
   12.4100    7.1760    3.8330 C   0  0  0  0  0
   12.8210    8.6380    3.8300 C   0  0  0  0  0
   11.7480    9.5740    4.4550 C   0  0  0  0  0
   10.6490    9.9820    3.4450 C   0  0  0  0  0
   11.2460   10.6180    2.2920 N   0  0  0  0  0
   11.8060   11.8770    2.2920 C   0  0  0  0  0
   11.6770   12.5820    3.3050 O   0  0  0  0  0
   12.7170   12.2980    1.2290 C   0  0  0  0  0
   13.1010   13.6530    1.1370 C   0  0  0  0  0
   14.0410   14.0660    0.2030 C   0  0  0  0  0
   13.3430   11.3620    0.3890 C   0  0  0  0  0
   14.2970   11.7750   -0.5250 C   0  0  0  0  0
   14.6260   13.1290   -0.6580 C   0  0  0  0  0
   15.7030   13.5010   -1.5770 C   0  0  0  0  0
   16.2950   14.5900   -1.3850 O   0  0  0  0  0
   16.2360   12.5360   -2.5400 C   0  0  0  0  0
   15.5330   12.1720   -3.6690 C   0  0  0  0  0
   14.3630   12.7960   -3.8180 O   0  0  0  0  0
   16.0100   11.2560   -4.5970 C   0  0  0  0  0
   17.2520   10.6560   -4.3780 C   0  0  0  0  0
   17.9960   10.9600   -3.2200 C   0  0  0  0  0
   17.4550   11.9040   -2.3500 C   0  0  0  0  0
   18.1180   12.2450   -1.2520 F   0  0  0  0  0
   19.3580   10.3270   -2.9820 C   0  0  0  0  0
   20.5590   11.1930   -3.5230 C   0  0  0  0  0
   20.6750   12.5880   -2.8390 C   0  0  0  0  0
   20.4400   11.3800   -5.0260 C   0  0  0  0  0
   21.8990   10.4480   -3.2650 C   0  0  0  0  0
   22.0320    9.9580   -1.7980 C   0  0  0  0  0
   20.7710    9.1690   -1.3510 C   0  0  0  0  0
   19.5140    9.9650   -1.5440 N   0  3  0  0  0
    4.8307    9.4496    1.4447 H   0  0  0  0  0
    2.5677    9.7240    2.4298 H   0  0  0  0  0
    4.1385    9.5977    6.3014 H   0  0  0  0  0
    6.4711    9.5730    5.4434 H   0  0  0  0  0
    8.1874    9.1644    4.5734 H   0  0  0  0  0
    9.7374    8.9079    1.9317 H   0  0  0  0  0
    9.1795    6.7793    3.0828 H   0  0  0  0  0
   10.0327    7.4096    4.5430 H   0  0  0  0  0
   11.4289    7.4986    2.0618 H   0  0  0  0  0
   11.1608    5.9597    2.7541 H   0  0  0  0  0
   13.2492    6.5685    3.4941 H   0  0  0  0  0
   12.1217    6.8882    4.8440 H   0  0  0  0  0
   12.9609    8.9408    2.7923 H   0  0  0  0  0
   13.7282    8.7284    4.4275 H   0  0  0  0  0
   12.2499   10.4824    4.7881 H   0  0  0  0  0
   11.2681    9.0343    5.2714 H   0  0  0  0  0
   10.0203   10.6860    3.9902 H   0  0  0  0  0
   11.2532   10.0970    1.4151 H   0  0  0  0  0
   12.6532   14.3853    1.8088 H   0  0  0  0  0
   14.3232   15.1169    0.1398 H   0  0  0  0  0
   13.0767   10.3072    0.4572 H   0  0  0  0  0
   14.7988   11.0359   -1.1495 H   0  0  0  0  0
   13.9382   12.4892   -4.6224 H   0  0  0  0  0
   15.4244   11.0091   -5.4825 H   0  0  0  0  0
   17.6482    9.9487   -5.1066 H   0  0  0  0  0
   19.3950    9.4107   -3.5711 H   0  0  0  0  0
   19.7594   13.1534   -3.0122 H   0  0  0  0  0
   20.8240   12.4546   -1.7675 H   0  0  0  0  0
   21.5225   13.1285   -3.2604 H   0  0  0  0  0
   20.4550   10.4057   -5.5144 H   0  0  0  0  0
   19.5031   11.8880   -5.2546 H   0  0  0  0  0
   21.2768   11.9800   -5.3836 H   0  0  0  0  0
   22.7146   11.1434   -3.4631 H   0  0  0  0  0
   21.9295    9.5743   -3.9160 H   0  0  0  0  0
   22.1454   10.8274   -1.1504 H   0  0  0  0  0
   22.8969    9.2983   -1.7293 H   0  0  0  0  0
   20.8702    8.9395   -0.2901 H   0  0  0  0  0
   20.7001    8.2665   -1.9580 H   0  0  0  0  0
   18.7134    9.4061   -1.2491 H   0  0  0  0  0
   19.5668   10.8175   -0.9864 H   0  0  0  0  0
  1  2  2  0  0  0
  2  3  1  0  0  0
  2  9  1  0  0  0
  3  4  4  0  0  0
  3  8  4  0  0  0
  4  5  4  0  0  0
  5  6  4  0  0  0
  6  7  4  0  0  0
  7  8  4  0  0  0
  9 10  1  0  0  0
 10 11  1  0  0  0
 10 16  1  0  0  0
 11 12  1  0  0  0
 12 13  1  0  0  0
 13 14  1  0  0  0
 14 15  1  0  0  0
 15 16  1  0  0  0
 16 17  1  0  0  0
 17 18  1  0  0  0
 18 19  2  0  0  0
 18 20  1  0  0  0
 20 21  4  0  0  0
 20 23  4  0  0  0
 21 22  4  0  0  0
 22 25  4  0  0  0
 23 24  4  0  0  0
 24 25  4  0  0  0
 25 26  1  0  0  0
 26 27  2  0  0  0
 26 28  1  0  0  0
 28 29  4  0  0  0
 28 34  4  0  0  0
 29 30  1  0  0  0
 29 31  4  0  0  0
 31 32  4  0  0  0
 32 33  4  0  0  0
 33 34  4  0  0  0
 33 36  1  0  0  0
 34 35  1  0  0  0
 36 37  1  0  0  0
 36 43  1  0  0  0
 37 38  1  0  0  0
 37 39  1  0  0  0
 37 40  1  0  0  0
 40 41  1  0  0  0
 41 42  1  0  0  0
 42 43  1  0  0  0
  4 44  1  0  0  0
  5 45  1  0  0  0
  7 46  1  0  0  0
  8 47  1  0  0  0
  9 48  1  0  0  0
 10 49  1  0  0  0
 11 50  1  0  0  0
 11 51  1  0  0  0
 12 52  1  0  0  0
 12 53  1  0  0  0
 13 54  1  0  0  0
 13 55  1  0  0  0
 14 56  1  0  0  0
 14 57  1  0  0  0
 15 58  1  0  0  0
 15 59  1  0  0  0
 16 60  1  0  0  0
 17 61  1  0  0  0
 21 62  1  0  0  0
 22 63  1  0  0  0
 23 64  1  0  0  0
 24 65  1  0  0  0
 30 66  1  0  0  0
 31 67  1  0  0  0
 32 68  1  0  0  0
 36 69  1  0  0  0
 38 70  1  0  0  0
 38 71  1  0  0  0
 38 72  1  0  0  0
 39 73  1  0  0  0
 39 74  1  0  0  0
 39 75  1  0  0  0
 40 76  1  0  0  0
 40 77  1  0  0  0
 41 78  1  0  0  0
 41 79  1  0  0  0
 42 80  1  0  0  0
 42 81  1  0  0  0
 43 82  1  0  0  0
 43 83  1  0  0  0
M  END
$$$$
