4zj8_ligand
  -I-interpret- 

 55 59  0  0  0  0  0  0  0  0999 V2000
   -8.0670   -1.5380  -55.0270 C   0  0  0  0  0
   -9.1820   -0.8810  -54.7610 N   0  0  0  0  0
   -7.4280   -2.0600  -53.9480 O   0  0  0  0  0
   -3.0280   -4.3530  -56.9700 Cl  0  0  0  0  0
   -7.5010   -1.7520  -56.1770 N   0  0  0  0  0
   -7.7730    3.0020  -55.0760 O   0  0  0  0  0
   -6.3620   -2.4940  -55.8530 C   0  0  0  0  0
   -9.0870    1.6180  -53.9070 N   0  0  0  0  0
   -5.3470   -3.0150  -56.6460 C   0  0  0  0  0
   -7.4890    2.7860  -51.2700 N   0  0  0  0  0
   -4.3280   -3.7050  -56.0090 C   0  0  0  0  0
   -7.9640    2.3380  -50.1040 N   0  0  0  0  0
   -4.3010   -3.8890  -54.6310 C   0  0  0  0  0
   -8.0020    3.9510  -51.6840 N   0  0  0  0  0
   -5.3200   -3.3660  -53.8500 C   0  0  0  0  0
   -6.3260   -2.6770  -54.4920 C   0  0  0  0  0
   -9.6570   -0.7180  -53.3820 C   0  0  0  0  0
   -9.3210    0.6270  -52.8530 C   0  0  0  0  0
  -10.2460    2.0030  -54.7390 C   0  0  0  0  0
  -10.9600    0.7950  -55.3290 C   0  0  0  0  0
   -9.9960   -0.2810  -55.8250 C   0  0  0  0  0
   -7.8930    2.1780  -54.1880 C   0  0  0  0  0
   -6.6950    1.7630  -53.3800 C   0  0  0  0  0
   -6.5080    2.0750  -52.0250 C   0  0  0  0  0
   -5.3440    1.6760  -51.3790 C   0  0  0  0  0
   -4.3780    0.9720  -52.0730 C   0  0  0  0  0
   -4.5380    0.6460  -53.4100 C   0  0  0  0  0
   -5.7010    1.0470  -54.0480 C   0  0  0  0  0
   -8.8430    3.2540  -49.7200 C   0  0  0  0  0
   -8.8670    4.2950  -50.7400 C   0  0  0  0  0
   -3.4750   -0.1270  -54.1530 C   0  0  0  0  0
  -11.2080    2.9020  -53.9830 C   0  0  0  0  0
   -5.3521   -2.8858  -57.7283 H   0  0  0  0  0
   -3.4834   -4.4412  -54.1676 H   0  0  0  0  0
   -5.3253   -3.4951  -52.7677 H   0  0  0  0  0
   -9.1729   -1.4682  -52.7567 H   0  0  0  0  0
  -10.7407   -0.8347  -53.3716 H   0  0  0  0  0
  -10.1678    0.9698  -52.2584 H   0  0  0  0  0
   -8.4014    0.5351  -52.2750 H   0  0  0  0  0
   -9.8501    2.5775  -55.5764 H   0  0  0  0  0
  -11.5445    1.1378  -56.1828 H   0  0  0  0  0
  -11.5747    0.3551  -54.5437 H   0  0  0  0  0
  -10.5958   -1.0779  -56.2647 H   0  0  0  0  0
   -9.3128    0.1936  -56.5293 H   0  0  0  0  0
   -5.1931    1.9178  -50.3269 H   0  0  0  0  0
   -3.4685    0.6660  -51.5560 H   0  0  0  0  0
   -5.8430    0.7965  -55.0993 H   0  0  0  0  0
   -9.4390    3.2323  -48.8076 H   0  0  0  0  0
   -9.4842    5.1934  -50.7287 H   0  0  0  0  0
   -2.5413    0.4352  -54.1378 H   0  0  0  0  0
   -3.3266   -1.0934  -53.6711 H   0  0  0  0  0
   -3.7923   -0.2789  -55.1847 H   0  0  0  0  0
  -11.5773    2.3773  -53.1019 H   0  0  0  0  0
  -10.6893    3.8102  -53.6758 H   0  0  0  0  0
  -12.0455    3.1617  -54.6305 H   0  0  0  0  0
  2  1  1  0  0  0
  1  3  4  0  0  0
  1  5  4  0  0  0
 17  2  1  0  0  0
 21  2  1  0  0  0
  3 16  4  0  0  0
 11  4  1  0  0  0
  5  7  4  0  0  0
 22  6  2  0  0  0
  7  9  4  0  0  0
  7 16  4  0  0  0
  8 18  1  0  0  0
  8 19  1  0  0  0
 22  8  1  0  0  0
  9 11  4  0  0  0
 10 12  4  0  0  0
 10 14  4  0  0  0
 24 10  1  0  0  0
 11 13  4  0  0  0
 12 29  4  0  0  0
 15 13  4  0  0  0
 14 30  4  0  0  0
 16 15  4  0  0  0
 18 17  1  0  0  0
 19 20  1  0  0  0
 19 32  1  0  0  0
 20 21  1  0  0  0
 23 22  1  0  0  0
 23 24  4  0  0  0
 23 28  4  0  0  0
 24 25  4  0  0  0
 25 26  4  0  0  0
 26 27  4  0  0  0
 27 28  4  0  0  0
 27 31  1  0  0  0
 29 30  4  0  0  0
  9 33  1  0  0  0
 13 34  1  0  0  0
 15 35  1  0  0  0
 17 36  1  0  0  0
 17 37  1  0  0  0
 18 38  1  0  0  0
 18 39  1  0  0  0
 19 40  1  0  0  0
 20 41  1  0  0  0
 20 42  1  0  0  0
 21 43  1  0  0  0
 21 44  1  0  0  0
 25 45  1  0  0  0
 26 46  1  0  0  0
 28 47  1  0  0  0
 29 48  1  0  0  0
 30 49  1  0  0  0
 31 50  1  0  0  0
 31 51  1  0  0  0
 31 52  1  0  0  0
 32 53  1  0  0  0
 32 54  1  0  0  0
 32 55  1  0  0  0
M  END
$$$$
