6chp_ligand
  -I-interpret- 

 59 62  0  0  0  0  0  0  0  0999 V2000
   12.5960  164.5850   36.1150 C   0  0  0  0  0
   11.9450  163.2960   34.1280 C   0  0  0  0  0
   11.1520  161.9960   34.1080 C   0  0  0  0  0
   11.9510  165.5530   35.7890 O   0  0  0  0  0
    9.3350  159.6970   32.7010 C   0  0  0  0  0
    7.3550  160.0800   31.1640 C   0  0  0  0  0
    6.2310  159.1420   31.6890 C   0  0  0  0  0
    6.2950  157.7990   31.1110 C   0  0  0  0  0
    7.9120  162.4950   31.6110 C   0  0  0  0  0
    9.5740  163.7940   30.9660 C   0  0  0  0  0
   10.6720  164.4350   30.4040 C   0  0  0  0  0
   10.9940  165.6930   30.8900 C   0  0  0  0  0
   10.2220  166.2730   31.9120 C   0  0  0  0  0
   10.5890  167.5970   32.5150 C   0  0  0  0  0
    8.8450  164.4190   31.9650 C   0  0  0  0  0
   12.7890  160.9720   35.6790 C   0  0  0  0  0
   13.5460  162.3070   35.7170 C   0  0  0  0  0
    6.3460  156.7510   30.7020 N   0  0  0  0  0
    7.1210  161.4090   31.7400 N   0  0  0  0  0
    7.8200  163.5890   32.3420 N   0  0  0  0  0
    9.1460  165.6480   32.4320 N   0  0  0  0  0
    8.9540  162.5760   30.7480 N   0  0  0  0  0
    8.7350  159.5080   31.4600 C   0  0  0  0  0
    9.4160  158.7690   30.4990 C   0  0  0  0  0
   10.6680  158.2320   30.7800 C   0  0  0  0  0
   11.2520  158.4380   32.0240 C   0  0  0  0  0
   10.5960  159.1790   32.9980 C   0  0  0  0  0
   11.2470  159.4700   34.3290 C   0  0  0  0  0
   12.0480  160.7800   34.3570 C   0  0  0  0  0
   12.6710  163.4460   35.3950 N   0  0  0  0  0
   13.3470  164.5110   37.2260 O   0  0  0  0  0
   13.5830  165.7690   37.9030 C   0  0  0  0  0
   11.2529  164.1310   34.0192 H   0  0  0  0  0
   12.6656  163.2801   33.3104 H   0  0  0  0  0
   10.6943  161.8888   33.1246 H   0  0  0  0  0
   10.4041  162.0385   34.8998 H   0  0  0  0  0
    8.8042  160.2666   33.4638 H   0  0  0  0  0
    7.3268  160.1657   30.0777 H   0  0  0  0  0
    5.2732  159.5802   31.4085 H   0  0  0  0  0
    6.3534  159.0466   32.7679 H   0  0  0  0  0
   11.2569  163.9670   29.6122 H   0  0  0  0  0
   11.8469  166.2332   30.4791 H   0  0  0  0  0
   11.5818  167.5295   32.9599 H   0  0  0  0  0
   10.5889  168.3613   31.7378 H   0  0  0  0  0
    9.8620  167.8587   33.2838 H   0  0  0  0  0
   12.0569  160.9692   36.4866 H   0  0  0  0  0
   13.5123  160.1639   35.7877 H   0  0  0  0  0
   14.3428  162.2684   34.9742 H   0  0  0  0  0
   13.9347  162.4500   36.7253 H   0  0  0  0  0
    6.2731  161.5241   32.2952 H   0  0  0  0  0
    8.9659  158.6095   29.5192 H   0  0  0  0  0
   11.1920  157.6485   30.0230 H   0  0  0  0  0
   12.2334  158.0143   32.2370 H   0  0  0  0  0
   11.9457  158.6585   34.5324 H   0  0  0  0  0
   10.4497  159.5618   35.0666 H   0  0  0  0  0
   12.7790  160.7012   33.5523 H   0  0  0  0  0
   14.0977  166.4525   37.2278 H   0  0  0  0  0
   12.6293  166.2028   38.2037 H   0  0  0  0  0
   14.1990  165.5953   38.7853 H   0  0  0  0  0
  1  4  2  0  0  0
 30  1  1  0  0  0
  1 31  1  0  0  0
  3  2  1  0  0  0
  2 30  1  0  0  0
 29  3  1  0  0  0
  5 23  4  0  0  0
 27  5  4  0  0  0
  6  7  1  0  0  0
  6 19  1  0  0  0
 23  6  1  0  0  0
  7  8  1  0  0  0
  8 18  3  0  0  0
 19  9  1  0  0  0
  9 20  4  0  0  0
  9 22  4  0  0  0
 10 11  4  0  0  0
 10 15  4  0  0  0
 22 10  4  0  0  0
 11 12  4  0  0  0
 12 13  4  0  0  0
 13 14  1  0  0  0
 21 13  4  0  0  0
 20 15  4  0  0  0
 15 21  4  0  0  0
 16 17  1  0  0  0
 29 16  1  0  0  0
 17 30  1  0  0  0
 23 24  4  0  0  0
 25 24  4  0  0  0
 26 25  4  0  0  0
 27 26  4  0  0  0
 28 27  1  0  0  0
 28 29  1  0  0  0
 31 32  1  0  0  0
  2 33  1  0  0  0
  2 34  1  0  0  0
  3 35  1  0  0  0
  3 36  1  0  0  0
  5 37  1  0  0  0
  6 38  1  0  0  0
  7 39  1  0  0  0
  7 40  1  0  0  0
 11 41  1  0  0  0
 12 42  1  0  0  0
 14 43  1  0  0  0
 14 44  1  0  0  0
 14 45  1  0  0  0
 16 46  1  0  0  0
 16 47  1  0  0  0
 17 48  1  0  0  0
 17 49  1  0  0  0
 19 50  1  0  0  0
 24 51  1  0  0  0
 25 52  1  0  0  0
 26 53  1  0  0  0
 28 54  1  0  0  0
 28 55  1  0  0  0
 29 56  1  0  0  0
 32 57  1  0  0  0
 32 58  1  0  0  0
 32 59  1  0  0  0
M  END
$$$$
