### 
### Created by X-TOOL on Mon Sep 10 21:12:57 2018
### 

@<TRIPOS>MOLECULE
3bc3_ligand
  116   120     1     0     0
SMALL
GAST_HUCK


@<TRIPOS>ATOM
      1 C1        -19.7770    2.5430    4.2960 C.3       1 OPT         0.0675
      2 C2        -18.8430    2.6600    5.4050 C.2       1 OPT         0.1887
      3 C7        -20.1600    1.2510    3.6280 C.ar      1 OPT        -0.0308
      4 C8        -19.1430    0.6740    2.7160 C.ar      1 OPT        -0.0642
      5 C9        -19.4190   -0.5770    2.0430 C.ar      1 OPT        -0.0645
      6 C10       -21.3490   -5.2190    0.0380 C.3       1 OPT        -0.0356
      7 C11       -21.2850   -3.8640    2.3180 C.2       1 OPT        -0.0854
      8 C12       -20.9380   -2.6040    1.5190 C.3       1 OPT         0.0057
      9 C13       -21.4810   -5.1290    1.5710 C.2       1 OPT        -0.0961
     10 C14       -20.8030   -2.6630   -0.0140 C.3       1 OPT        -0.0333
     11 C15       -21.0100   -3.9680   -0.7360 C.3       1 OPT        -0.0428
     12 C20       -15.5220    3.3360    5.7700 C.3       1 OPT         0.0361
     13 C22       -14.3370    0.9430    4.6470 C.3       1 OPT         0.0276
     14 C24       -14.9410    0.9710    2.1360 C.ar      1 OPT        -0.0595
     15 C27       -12.5930    2.5030    1.4730 C.ar      1 OPT        -0.0685
     16 N29       -16.3370    5.9160    7.8180 N.am      1 OPT        -0.2583
     17 C30       -16.2390    7.2560    8.2240 C.3       1 OPT         0.1600
     18 C31       -15.0920    8.0890    7.4390 C.3       1 OPT         0.0787
     19 C32       -13.6880    7.4210    7.1130 C.2       1 OPT         0.0845
     20 C33       -12.6250    8.4090    7.3820 C.2       1 OPT         0.1620
     21 C35       -10.1880    7.7420    7.9240 C.cat     1 OPT         0.1708
     22 O3        -18.9500    1.8650    6.3670 O.2       1 OPT        -0.3942
     23 C4        -20.7280   -1.3210    2.2450 C.ar      1 OPT        -0.0387
     24 C5        -21.7880   -0.7310    3.1860 C.ar      1 OPT        -0.0645
     25 C6        -21.5070    0.5460    3.8750 C.ar      1 OPT        -0.0642
     26 N16       -17.7910    3.7880    5.2540 N.am      1 OPT        -0.2633
     27 C17       -16.8070    3.9850    6.3200 C.3       1 OPT         0.1401
     28 C18       -16.8100    5.4700    6.4340 C.2       1 OPT         0.2051
     29 O19       -17.1540    6.2980    5.5330 O.2       1 OPT        -0.3943
     30 SG2       -15.5750    1.5710    5.7000 S.3       1 OPT        -0.1422
     31 C23       -14.0480    1.3480    3.1700 C.ar      1 OPT        -0.0332
     32 C25       -12.8550    2.1290    2.8260 C.ar      1 OPT        -0.0595
     33 C26       -14.6820    1.3450    0.7760 C.ar      1 OPT        -0.0685
     34 C28       -13.5140    2.1070    0.4410 C.ar      1 OPT        -0.0687
     35 N34       -11.2760    8.1810    7.1760 N.pl3     1 OPT        -0.2291
     36 N36       -10.0940    7.7680    9.2850 N.pl3     1 OPT        -0.3481
     37 N37        -9.0780    7.2380    7.3160 N.pl3     1 OPT        -0.3481
     38 C38       -15.7830    7.4850    9.5850 C.2       1 OPT         0.2104
     39 O39       -16.1190    8.5870   10.0860 O.2       1 OPT        -0.3938
     40 N40       -15.0580    6.5590   10.1600 N.am      1 OPT        -0.2617
     41 C41       -14.6020    6.8100   11.4340 C.3       1 OPT         0.1389
     42 C42       -13.2940    7.6730   11.3110 C.2       1 OPT         0.2036
     43 O43       -12.3800    7.2440   10.5650 O.2       1 OPT        -0.3944
     44 C44       -14.2530    5.4690   12.2400 C.3       1 OPT         0.0163
     45 C45       -13.6980    5.7910   13.6630 C.ar      1 OPT        -0.0493
     46 C46       -14.6200    5.9290   14.8060 C.ar      1 OPT        -0.0685
     47 C47       -12.2180    5.9710   13.8760 C.ar      1 OPT        -0.0685
     48 C48       -14.0900    6.2380   16.1200 C.ar      1 OPT        -0.0398
     49 C49       -11.7070    6.2790   15.1850 C.ar      1 OPT        -0.0398
     50 C50       -12.6370    6.4130   16.3000 C.ar      1 OPT         0.0805
     51 O51       -12.1450    6.7040   17.5120 O.3       1 OPT        -0.3376
     52 C52       -13.5780   11.9030   11.5060 C.ar      1 OPT        -0.0411
     53 C53       -13.7100   12.5800   12.8730 C.ar      1 OPT        -0.0603
     54 C54       -14.7940   13.5590   13.0800 C.ar      1 OPT        -0.0686
     55 C55       -15.7320   13.8680   11.9690 C.ar      1 OPT        -0.0687
     56 C56       -15.5980   13.2090   10.6520 C.ar      1 OPT        -0.0686
     57 C57       -14.5280   12.2290   10.4090 C.ar      1 OPT        -0.0603
     58 C58       -12.4950   10.9050   11.2510 C.3       1 OPT         0.0011
     59 C59       -12.1210    9.8090   12.1760 C.3       1 OPT         0.0405
     60 N60       -13.3810    8.8870   12.1780 N.am      1 OPT        -0.2830
     61 H1        -19.3652    3.1765    3.4966 H         1 OPT         0.0647
     62 H2        -20.7202    2.9773    4.6588 H         1 OPT         0.0647
     63 H3        -18.2007    1.1850    2.5548 H         1 OPT         0.0544
     64 H4        -18.6721   -0.9942    1.3773 H         1 OPT         0.0543
     65 H5        -22.3105   -5.5880   -0.3485 H         1 OPT         0.0391
     66 H6        -20.5607   -5.9556   -0.1762 H         1 OPT         0.0391
     67 H7        -21.3846   -3.8313    3.4019 H         1 OPT         0.0468
     68 H8        -22.0082   -2.3728    1.4135 H         1 OPT         0.0570
     69 H9        -21.7283   -6.0316    2.1279 H         1 OPT         0.0460
     70 H10       -19.7855   -2.3231   -0.2570 H         1 OPT         0.0309
     71 H11       -21.5350   -1.9524   -0.4253 H         1 OPT         0.0309
     72 H12       -21.8294   -3.8070   -1.4520 H         1 OPT         0.0288
     73 H13       -20.0797   -4.1774   -1.2843 H         1 OPT         0.0288
     74 H14       -14.6825    3.6305    6.4169 H         1 OPT         0.0426
     75 H15       -15.3516    3.7166    4.7521 H         1 OPT         0.0426
     76 H16       -14.5246   -0.1402    4.6088 H         1 OPT         0.0538
     77 H17       -13.3934    1.1332    5.1794 H         1 OPT         0.0538
     78 H18       -15.8275    0.3949    2.3753 H         1 OPT         0.0557
     79 H19       -11.7089    3.0796    1.2259 H         1 OPT         0.0599
     80 H20       -16.0811    5.2077    8.4759 H         1 OPT         0.1888
     81 H21       -17.2265    7.7165    8.0731 H         1 OPT         0.0873
     82 H22       -14.8821    8.9830    8.0446 H         1 OPT         0.0808
     83 H23       -15.5273    8.3927    6.4755 H         1 OPT         0.0808
     84 H24       -13.5355    6.4050    6.7518 H         1 OPT         0.1626
     85 H25       -12.9224    9.3827    7.7685 H         1 OPT         0.1896
     86 H26       -22.7299   -1.2441    3.3429 H         1 OPT         0.0543
     87 H27       -22.2394    0.9808    4.5455 H         1 OPT         0.0544
     88 H28       -17.7844    4.3716    4.4420 H         1 OPT         0.1884
     89 H29       -17.0921    3.5177    7.2741 H         1 OPT         0.0808
     90 H30       -12.1647    2.4255    3.6074 H         1 OPT         0.0557
     91 H31       -15.3740    1.0497   -0.0044 H         1 OPT         0.0599
     92 H32       -13.3251    2.3846   -0.5897 H         1 OPT         0.0559
     93 H33       -11.0032    8.3940    6.2059 H         1 OPT         0.2519
     94 H34        -9.2434    7.4189    9.7492 H         1 OPT         0.1671
     95 H35       -10.8736    8.1368    9.8481 H         1 OPT         0.1671
     96 H36        -9.0388    7.1713    6.2889 H         1 OPT         0.1671
     97 H37        -8.2779    6.9236    7.8834 H         1 OPT         0.1671
     98 H38       -14.8437    5.7020    9.6914 H         1 OPT         0.1885
     99 H39       -15.3702    7.3697   11.9877 H         1 OPT         0.0821
    100 H40       -13.4954    4.9012   11.6800 H         1 OPT         0.0453
    101 H41       -15.1657    4.8632   12.3400 H         1 OPT         0.0453
    102 H42       -15.6870    5.8003   14.6647 H         1 OPT         0.0530
    103 H43       -11.5355    5.8681   13.0401 H         1 OPT         0.0530
    104 H44       -14.7594    6.3399   16.9665 H         1 OPT         0.0525
    105 H45       -10.6423    6.4100   15.3407 H         1 OPT         0.0525
    106 H46       -11.6878    7.5359   17.4755 H         1 OPT         0.2458
    107 H47       -13.0192   12.3441   13.6744 H         1 OPT         0.0557
    108 H48       -14.9061   14.0514   14.0392 H         1 OPT         0.0599
    109 H49       -16.5269   14.5879   12.1268 H         1 OPT         0.0559
    110 H50       -16.2951   13.4504    9.8577 H         1 OPT         0.0599
    111 H51       -14.4330   11.7499    9.4413 H         1 OPT         0.0557
    112 H52       -11.5780   11.4956   11.1083 H         1 OPT         0.0446
    113 H53       -12.7650   10.4127   10.3051 H         1 OPT         0.0446
    114 H54       -11.9171   10.1981   13.1845 H         1 OPT         0.0542
    115 H55       -11.2380    9.2670   11.8066 H         1 OPT         0.0542
    116 H56       -14.1928    9.0952   12.7236 H         1 OPT         0.1853
@<TRIPOS>BOND
     1    2    1 1  
     2    1    3 1  
     3    2   22 2  
     4   26    2 am 
     5    3    4 ar 
     6    3   25 ar 
     7    4    5 ar 
     8    5   23 ar 
     9    9    6 1  
    10   11    6 1  
    11    8    7 1  
    12    7    9 2  
    13    8   10 1  
    14   23    8 1  
    15   10   11 1  
    16   27   12 1  
    17   12   30 1  
    18   30   13 1  
    19   13   31 1  
    20   31   14 ar 
    21   14   33 ar 
    22   32   15 ar 
    23   15   34 ar 
    24   17   16 1  
    25   16   28 am 
    26   17   18 1  
    27   38   17 1  
    28   18   19 1  
    29   19   20 2  
    30   20   35 1  
    31   35   21 ar 
    32   21   36 ar 
    33   21   37 ar 
    34   24   23 ar 
    35   25   24 ar 
    36   27   26 1  
    37   28   27 1  
    38   28   29 2  
    39   31   32 ar 
    40   33   34 ar 
    41   38   39 2  
    42   40   38 am 
    43   41   40 1  
    44   42   41 1  
    45   41   44 1  
    46   42   43 2  
    47   60   42 am 
    48   44   45 1  
    49   45   46 ar 
    50   45   47 ar 
    51   46   48 ar 
    52   47   49 ar 
    53   48   50 ar 
    54   49   50 ar 
    55   50   51 1  
    56   52   53 ar 
    57   52   57 ar 
    58   58   52 1  
    59   53   54 ar 
    60   54   55 ar 
    61   56   55 ar 
    62   57   56 ar 
    63   59   58 1  
    64   59   60 1  
    65    1   61 1  
    66    1   62 1  
    67    4   63 1  
    68    5   64 1  
    69    6   65 1  
    70    6   66 1  
    71    7   67 1  
    72    8   68 1  
    73    9   69 1  
    74   10   70 1  
    75   10   71 1  
    76   11   72 1  
    77   11   73 1  
    78   12   74 1  
    79   12   75 1  
    80   13   76 1  
    81   13   77 1  
    82   14   78 1  
    83   15   79 1  
    84   16   80 1  
    85   17   81 1  
    86   18   82 1  
    87   18   83 1  
    88   19   84 1  
    89   20   85 1  
    90   24   86 1  
    91   25   87 1  
    92   26   88 1  
    93   27   89 1  
    94   32   90 1  
    95   33   91 1  
    96   34   92 1  
    97   35   93 1  
    98   36   94 1  
    99   36   95 1  
   100   37   96 1  
   101   37   97 1  
   102   40   98 1  
   103   41   99 1  
   104   44  100 1  
   105   44  101 1  
   106   46  102 1  
   107   47  103 1  
   108   48  104 1  
   109   49  105 1  
   110   51  106 1  
   111   53  107 1  
   112   54  108 1  
   113   55  109 1  
   114   56  110 1  
   115   57  111 1  
   116   58  112 1  
   117   58  113 1  
   118   59  114 1  
   119   59  115 1  
   120   60  116 1  
@<TRIPOS>SUBSTRUCTURE
     1 OPT         1

