3bc3_ligand
  -I-interpret- 

115119  0  0  0  0  0  0  0  0999 V2000
  -19.7770    2.5430    4.2960 C   0  0  0  0  0
  -18.8430    2.6600    5.4050 C   0  0  0  0  0
  -20.1600    1.2510    3.6280 C   0  0  0  0  0
  -19.1430    0.6740    2.7160 C   0  0  0  0  0
  -19.4190   -0.5770    2.0430 C   0  0  0  0  0
  -21.3490   -5.2190    0.0380 C   0  0  0  0  0
  -21.2850   -3.8640    2.3180 C   0  0  0  0  0
  -20.9380   -2.6040    1.5190 C   0  0  0  0  0
  -21.4810   -5.1290    1.5710 C   0  0  0  0  0
  -20.8030   -2.6630   -0.0140 C   0  0  0  0  0
  -21.0100   -3.9680   -0.7360 C   0  0  0  0  0
  -15.5220    3.3360    5.7700 C   0  0  0  0  0
  -14.3370    0.9430    4.6470 C   0  0  0  0  0
  -14.9410    0.9710    2.1360 C   0  0  0  0  0
  -12.5930    2.5030    1.4730 C   0  0  0  0  0
  -16.3370    5.9160    7.8180 N   0  0  0  0  0
  -16.2390    7.2560    8.2240 C   0  0  0  0  0
  -15.0920    8.0890    7.4390 C   0  0  0  0  0
  -13.6880    7.4210    7.1130 C   0  0  0  0  0
  -12.6250    8.4090    7.3820 C   0  0  0  0  0
  -10.1880    7.7420    7.9240 C   0  0  0  0  0
  -18.9500    1.8650    6.3670 O   0  0  0  0  0
  -20.7280   -1.3210    2.2450 C   0  0  0  0  0
  -21.7880   -0.7310    3.1860 C   0  0  0  0  0
  -21.5070    0.5460    3.8750 C   0  0  0  0  0
  -17.7910    3.7880    5.2540 N   0  0  0  0  0
  -16.8070    3.9850    6.3200 C   0  0  0  0  0
  -16.8100    5.4700    6.4340 C   0  0  0  0  0
  -17.1540    6.2980    5.5330 O   0  0  0  0  0
  -15.5750    1.5710    5.7000 S   0  0  0  0  0
  -14.0480    1.3480    3.1700 C   0  0  0  0  0
  -12.8550    2.1290    2.8260 C   0  0  0  0  0
  -14.6820    1.3450    0.7760 C   0  0  0  0  0
  -13.5140    2.1070    0.4410 C   0  0  0  0  0
  -11.2760    8.1810    7.1760 N   0  0  0  0  0
  -10.0940    7.7680    9.2850 N   0  0  0  0  0
   -9.0780    7.2380    7.3160 N   0  0  0  0  0
  -15.7830    7.4850    9.5850 C   0  0  0  0  0
  -16.1190    8.5870   10.0860 O   0  0  0  0  0
  -15.0580    6.5590   10.1600 N   0  0  0  0  0
  -14.6020    6.8100   11.4340 C   0  0  0  0  0
  -13.2940    7.6730   11.3110 C   0  0  0  0  0
  -12.3800    7.2440   10.5650 O   0  0  0  0  0
  -14.2530    5.4690   12.2400 C   0  0  0  0  0
  -13.6980    5.7910   13.6630 C   0  0  0  0  0
  -14.6200    5.9290   14.8060 C   0  0  0  0  0
  -12.2180    5.9710   13.8760 C   0  0  0  0  0
  -14.0900    6.2380   16.1200 C   0  0  0  0  0
  -11.7070    6.2790   15.1850 C   0  0  0  0  0
  -12.6370    6.4130   16.3000 C   0  0  0  0  0
  -12.1450    6.7040   17.5120 O   0  0  0  0  0
  -13.5780   11.9030   11.5060 C   0  0  0  0  0
  -13.7100   12.5800   12.8730 C   0  0  0  0  0
  -14.7940   13.5590   13.0800 C   0  0  0  0  0
  -15.7320   13.8680   11.9690 C   0  0  0  0  0
  -15.5980   13.2090   10.6520 C   0  0  0  0  0
  -14.5280   12.2290   10.4090 C   0  0  0  0  0
  -12.4950   10.9050   11.2510 C   0  0  0  0  0
  -12.1210    9.8090   12.1760 C   0  0  0  0  0
  -13.3810    8.8870   12.1780 N   0  0  0  0  0
  -19.2594    3.0745    3.4974 H   0  0  0  0  0
  -20.7170    2.8602    4.7476 H   0  0  0  0  0
  -18.1955    1.1879    2.5539 H   0  0  0  0  0
  -18.6680   -0.9965    1.3736 H   0  0  0  0  0
  -22.3383   -5.5105   -0.3146 H   0  0  0  0  0
  -20.5111   -5.8944   -0.1347 H   0  0  0  0  0
  -21.3847   -3.8313    3.4029 H   0  0  0  0  0
  -21.1067   -2.6628    0.4437 H   0  0  0  0  0
  -21.7286   -6.0324    2.1284 H   0  0  0  0  0
  -19.7614   -2.4062   -0.2068 H   0  0  0  0  0
  -21.5992   -2.0168   -0.3836 H   0  0  0  0  0
  -21.8830   -3.7939   -1.3650 H   0  0  0  0  0
  -20.0421   -4.1836   -1.1885 H   0  0  0  0  0
  -14.7104    3.6069    6.4452 H   0  0  0  0  0
  -15.3921    3.6947    4.7489 H   0  0  0  0  0
  -14.6669   -0.0885    4.5234 H   0  0  0  0  0
  -13.4348    1.2984    5.1448 H   0  0  0  0  0
  -15.8324    0.3917    2.3766 H   0  0  0  0  0
  -11.7040    3.0828    1.2245 H   0  0  0  0  0
  -16.0760    5.1935    8.4891 H   0  0  0  0  0
  -17.2700    7.5627    8.0478 H   0  0  0  0  0
  -14.8478    8.9094    8.1138 H   0  0  0  0  0
  -15.5279    8.2872    6.4598 H   0  0  0  0  0
  -13.5354    6.4041    6.7515 H   0  0  0  0  0
  -12.9227    9.3836    7.7689 H   0  0  0  0  0
  -22.7351   -1.2470    3.3438 H   0  0  0  0  0
  -22.2435    0.9832    4.5492 H   0  0  0  0  0
  -17.7843    4.3832    4.4257 H   0  0  0  0  0
  -16.9635    3.5525    7.3082 H   0  0  0  0  0
  -12.1609    2.4271    3.6117 H   0  0  0  0  0
  -15.3778    1.0480   -0.0087 H   0  0  0  0  0
  -13.3241    2.3861   -0.5954 H   0  0  0  0  0
  -11.0058    8.3919    6.2153 H   0  0  0  0  0
   -9.2487    7.4291    9.7444 H   0  0  0  0  0
  -10.8690    8.1264    9.8430 H   0  0  0  0  0
   -9.0364    7.1784    6.2986 H   0  0  0  0  0
  -14.8394    5.6848    9.6820 H   0  0  0  0  0
  -15.3898    7.3252   11.9835 H   0  0  0  0  0
  -13.4914    4.9197   11.6865 H   0  0  0  0  0
  -15.1649    4.8816   12.3478 H   0  0  0  0  0
  -15.6929    5.7995   14.6639 H   0  0  0  0  0
  -11.5317    5.8676   13.0355 H   0  0  0  0  0
  -14.7631    6.3405   16.9712 H   0  0  0  0  0
  -10.6364    6.4108   15.3416 H   0  0  0  0  0
  -11.1899    6.7843   17.4576 H   0  0  0  0  0
  -13.0154   12.3428   13.6788 H   0  0  0  0  0
  -14.9067   14.0542   14.0445 H   0  0  0  0  0
  -16.5313   14.5919   12.1276 H   0  0  0  0  0
  -16.2990   13.4517    9.8533 H   0  0  0  0  0
  -14.4325   11.7472    9.4359 H   0  0  0  0  0
  -11.5994   11.5263   11.2497 H   0  0  0  0  0
  -12.8758   10.3619   10.3861 H   0  0  0  0  0
  -11.8673   10.1716   13.1721 H   0  0  0  0  0
  -11.2200    9.2840   11.8587 H   0  0  0  0  0
  -14.2090    9.0993   12.7345 H   0  0  0  0  0
  2  1  1  0  0  0
  1  3  1  0  0  0
  2 22  2  0  0  0
 26  2  1  0  0  0
  3  4  4  0  0  0
  3 25  4  0  0  0
  4  5  4  0  0  0
  5 23  4  0  0  0
  9  6  1  0  0  0
 11  6  1  0  0  0
  8  7  1  0  0  0
  7  9  2  0  0  0
  8 10  1  0  0  0
 23  8  1  0  0  0
 10 11  1  0  0  0
 27 12  1  0  0  0
 12 30  1  0  0  0
 30 13  1  0  0  0
 13 31  1  0  0  0
 31 14  4  0  0  0
 14 33  4  0  0  0
 32 15  4  0  0  0
 15 34  4  0  0  0
 17 16  1  0  0  0
 16 28  1  0  0  0
 17 18  1  0  0  0
 38 17  1  0  0  0
 18 19  1  0  0  0
 19 20  2  0  0  0
 20 35  1  0  0  0
 35 21  1  0  0  0
 21 36  1  0  0  0
 21 37  2  0  0  0
 24 23  4  0  0  0
 25 24  4  0  0  0
 27 26  1  0  0  0
 28 27  1  0  0  0
 28 29  2  0  0  0
 31 32  4  0  0  0
 33 34  4  0  0  0
 38 39  2  0  0  0
 40 38  1  0  0  0
 41 40  1  0  0  0
 42 41  1  0  0  0
 41 44  1  0  0  0
 42 43  2  0  0  0
 60 42  1  0  0  0
 44 45  1  0  0  0
 45 46  4  0  0  0
 45 47  4  0  0  0
 46 48  4  0  0  0
 47 49  4  0  0  0
 48 50  4  0  0  0
 49 50  4  0  0  0
 50 51  1  0  0  0
 52 53  4  0  0  0
 52 57  4  0  0  0
 58 52  1  0  0  0
 53 54  4  0  0  0
 54 55  4  0  0  0
 56 55  4  0  0  0
 57 56  4  0  0  0
 59 58  1  0  0  0
 59 60  1  0  0  0
  1 61  1  0  0  0
  1 62  1  0  0  0
  4 63  1  0  0  0
  5 64  1  0  0  0
  6 65  1  0  0  0
  6 66  1  0  0  0
  7 67  1  0  0  0
  8 68  1  0  0  0
  9 69  1  0  0  0
 10 70  1  0  0  0
 10 71  1  0  0  0
 11 72  1  0  0  0
 11 73  1  0  0  0
 12 74  1  0  0  0
 12 75  1  0  0  0
 13 76  1  0  0  0
 13 77  1  0  0  0
 14 78  1  0  0  0
 15 79  1  0  0  0
 16 80  1  0  0  0
 17 81  1  0  0  0
 18 82  1  0  0  0
 18 83  1  0  0  0
 19 84  1  0  0  0
 20 85  1  0  0  0
 24 86  1  0  0  0
 25 87  1  0  0  0
 26 88  1  0  0  0
 27 89  1  0  0  0
 32 90  1  0  0  0
 33 91  1  0  0  0
 34 92  1  0  0  0
 35 93  1  0  0  0
 36 94  1  0  0  0
 36 95  1  0  0  0
 37 96  1  0  0  0
 40 97  1  0  0  0
 41 98  1  0  0  0
 44 99  1  0  0  0
 44100  1  0  0  0
 46101  1  0  0  0
 47102  1  0  0  0
 48103  1  0  0  0
 49104  1  0  0  0
 51105  1  0  0  0
 53106  1  0  0  0
 54107  1  0  0  0
 55108  1  0  0  0
 56109  1  0  0  0
 57110  1  0  0  0
 58111  1  0  0  0
 58112  1  0  0  0
 59113  1  0  0  0
 59114  1  0  0  0
 60115  1  0  0  0
M  END
$$$$
