3r0w_ligand
  -I-interpret- 

 87 88  0  0  0  0  0  0  0  0999 V2000
   15.4600   10.1450    4.6730 C   0  0  0  0  0
   16.7870    8.5970    5.8550 C   0  0  0  0  0
   15.8250    8.4860    6.8500 C   0  0  0  0  0
   15.2490   11.0550    3.4850 C   0  0  0  0  0
   14.6540    9.2260    6.7540 C   0  0  0  0  0
   14.4730   10.0590    5.6580 C   0  0  0  0  0
   14.2050   11.6880    3.4350 O   0  0  0  0  0
   16.5910    9.4070    4.8040 N   0  0  0  0  0
   16.1390   11.1990    2.4920 N   0  0  0  0  0
   17.4360   10.5370    2.3770 C   0  0  0  0  0
   18.4210   11.6450    1.9560 C   0  0  0  0  0
   18.3010   12.0810    0.4930 C   0  0  0  0  0
   19.8690   11.2920    2.2920 C   0  0  0  0  0
   17.4180    9.3620    1.4320 C   0  0  0  0  0
   18.1540    8.4200    1.6520 O   0  0  0  0  0
   16.5640    9.4180    0.4030 N   0  0  0  0  0
   16.3480    8.4350   -0.6710 C   0  0  0  0  0
   17.5520    8.5580   -1.6100 C   0  0  0  0  0
   17.1130    9.3090   -2.8430 C   0  0  0  0  0
   16.2120    8.7310   -3.7390 C   0  0  0  0  0
   17.6020   10.5910   -3.0780 C   0  0  0  0  0
   15.8050    9.4360   -4.8670 C   0  0  0  0  0
   17.1930   11.2940   -4.2050 C   0  0  0  0  0
   16.2990   10.7160   -5.1020 C   0  0  0  0  0
   16.1570    7.0020   -0.1470 C   0  0  0  0  0
   17.3840    6.4040    0.2980 O   0  0  0  0  0
   15.1010    6.9100    0.9500 C   0  0  0  0  0
   14.2400    5.7020    0.6830 C   0  0  0  0  0
   14.6890    4.5790    0.8520 O   0  0  0  0  0
   11.2690    5.2220   -1.2660 C   0  0  0  0  0
   12.9950    5.9500    0.2790 N   0  0  0  0  0
   11.3460    4.4880   -2.2360 O   0  0  0  0  0
    9.6140    3.9050    0.7990 Cl  0  0  0  0  0
   12.0380    4.8930   -0.0220 C   0  0  0  0  0
   11.1040    4.8230    1.1860 C   0  0  0  0  0
   10.5390    6.3390   -1.2230 N   0  0  0  0  0
    9.7040    6.8380   -2.3110 C   0  0  0  0  0
   10.3740    6.8140   -3.6600 C   0  0  0  0  0
   11.5570    7.0930   -3.7860 O   0  0  0  0  0
    9.3750    8.2790   -1.9120 C   0  0  0  0  0
    8.3720    8.4680   -0.7570 C   0  0  0  0  0
    7.5280    7.2260   -0.4270 C   0  0  0  0  0
    9.0990    8.9760    0.5020 C   0  0  0  0  0
    9.6060    6.4630   -4.6890 N   0  0  0  0  0
   17.7094    8.0210    5.9286 H   0  0  0  0  0
   15.9877    7.8231    7.6998 H   0  0  0  0  0
   13.8888    9.1541    7.5269 H   0  0  0  0  0
   13.5596   10.6466    5.5660 H   0  0  0  0  0
   15.8835   11.8373    1.7386 H   0  0  0  0  0
   17.7361   10.0847    3.3222 H   0  0  0  0  0
   18.1230   12.5060    2.5543 H   0  0  0  0  0
   18.4893   11.2259   -0.1562 H   0  0  0  0  0
   17.2967   12.4633    0.3104 H   0  0  0  0  0
   19.0319   12.8630    0.2871 H   0  0  0  0  0
   19.9655   11.1446    3.3677 H   0  0  0  0  0
   20.1483   10.3757    1.7719 H   0  0  0  0  0
   20.5226   12.1047    1.9753 H   0  0  0  0  0
   15.9840   10.2558    0.3568 H   0  0  0  0  0
   15.4173    8.6465   -1.1975 H   0  0  0  0  0
   17.9164    7.5679   -1.8840 H   0  0  0  0  0
   18.3615    9.0931   -1.1135 H   0  0  0  0  0
   15.8276    7.7278   -3.5548 H   0  0  0  0  0
   18.3052   11.0432   -2.3786 H   0  0  0  0  0
   15.0999    8.9865   -5.5662 H   0  0  0  0  0
   17.5728   12.2994   -4.3868 H   0  0  0  0  0
   15.9855   11.2662   -5.9892 H   0  0  0  0  0
   15.7994    6.4341   -1.0059 H   0  0  0  0  0
   17.2091    5.5144    0.6135 H   0  0  0  0  0
   14.4878    7.8112    0.9534 H   0  0  0  0  0
   15.5823    6.8167    1.9235 H   0  0  0  0  0
   12.6991    6.9207    0.1760 H   0  0  0  0  0
   12.5341    3.9387   -0.1992 H   0  0  0  0  0
   11.6238    4.3167    1.9994 H   0  0  0  0  0
   10.8243    5.8377    1.4694 H   0  0  0  0  0
   10.5670    6.8863   -0.3627 H   0  0  0  0  0
    8.8280    6.2008   -2.4318 H   0  0  0  0  0
    8.9124    8.7340   -2.7878 H   0  0  0  0  0
   10.3127    8.7162   -1.5689 H   0  0  0  0  0
    7.6592    9.2140   -1.1083 H   0  0  0  0  0
    6.9480    6.9389   -1.3041 H   0  0  0  0  0
    8.1868    6.4061   -0.1411 H   0  0  0  0  0
    6.8529    7.4556    0.3974 H   0  0  0  0  0
    9.8553    8.2503    0.8010 H   0  0  0  0  0
    9.5764    9.9313    0.2837 H   0  0  0  0  0
    8.3780    9.1048    1.3093 H   0  0  0  0  0
   10.0009    6.4189   -5.6284 H   0  0  0  0  0
    8.6226    6.2381   -4.5381 H   0  0  0  0  0
  4  1  1  0  0  0
  1  6  4  0  0  0
  1  8  4  0  0  0
  2  3  4  0  0  0
  8  2  4  0  0  0
  5  3  4  0  0  0
  4  7  2  0  0  0
  9  4  1  0  0  0
  6  5  4  0  0  0
 10  9  1  0  0  0
 10 11  1  0  0  0
 14 10  1  0  0  0
 11 12  1  0  0  0
 11 13  1  0  0  0
 14 15  2  0  0  0
 16 14  1  0  0  0
 17 16  1  0  0  0
 17 18  1  0  0  0
 25 17  1  0  0  0
 18 19  1  0  0  0
 19 20  4  0  0  0
 19 21  4  0  0  0
 20 22  4  0  0  0
 21 23  4  0  0  0
 22 24  4  0  0  0
 23 24  4  0  0  0
 25 26  1  0  0  0
 27 25  1  0  0  0
 28 27  1  0  0  0
 28 29  2  0  0  0
 31 28  1  0  0  0
 30 32  2  0  0  0
 34 30  1  0  0  0
 30 36  1  0  0  0
 34 31  1  0  0  0
 35 33  1  0  0  0
 34 35  1  0  0  0
 36 37  1  0  0  0
 37 38  1  0  0  0
 37 40  1  0  0  0
 38 39  2  0  0  0
 38 44  1  0  0  0
 40 41  1  0  0  0
 41 42  1  0  0  0
 41 43  1  0  0  0
  2 45  1  0  0  0
  3 46  1  0  0  0
  5 47  1  0  0  0
  6 48  1  0  0  0
  9 49  1  0  0  0
 10 50  1  0  0  0
 11 51  1  0  0  0
 12 52  1  0  0  0
 12 53  1  0  0  0
 12 54  1  0  0  0
 13 55  1  0  0  0
 13 56  1  0  0  0
 13 57  1  0  0  0
 16 58  1  0  0  0
 17 59  1  0  0  0
 18 60  1  0  0  0
 18 61  1  0  0  0
 20 62  1  0  0  0
 21 63  1  0  0  0
 22 64  1  0  0  0
 23 65  1  0  0  0
 24 66  1  0  0  0
 25 67  1  0  0  0
 26 68  1  0  0  0
 27 69  1  0  0  0
 27 70  1  0  0  0
 31 71  1  0  0  0
 34 72  1  0  0  0
 35 73  1  0  0  0
 35 74  1  0  0  0
 36 75  1  0  0  0
 37 76  1  0  0  0
 40 77  1  0  0  0
 40 78  1  0  0  0
 41 79  1  0  0  0
 42 80  1  0  0  0
 42 81  1  0  0  0
 42 82  1  0  0  0
 43 83  1  0  0  0
 43 84  1  0  0  0
 43 85  1  0  0  0
 44 86  1  0  0  0
 44 87  1  0  0  0
M  END
$$$$
