4mue_ligand
  -I-interpret- 

 46 48  0  0  0  0  0  0  0  0999 V2000
   19.3210   10.6360   -0.9330 O   0  0  0  0  0
   18.2080   11.1240   -1.0300 C   0  0  0  0  0
   17.8770   12.3410   -0.9020 O   0  0  0  0  0
   17.2260   10.1290   -1.5470 C   0  0  0  0  0
   15.7740   10.3490   -1.3840 N   0  0  0  0  0
   15.0200   10.2570   -2.4860 C   0  0  0  0  0
   15.4100   10.0530   -3.7630 C   0  0  0  0  0
   14.4480    9.9660   -4.7660 C   0  0  0  0  0
   13.1040   10.1520   -4.4420 C   0  0  0  0  0
   12.2330   10.0510   -5.4740 O   0  0  0  0  0
   10.8780    9.8070   -5.0040 C   0  0  0  0  0
   12.7200   10.3730   -3.0710 C   0  0  0  0  0
   13.7140   10.4310   -2.1290 C   0  0  0  0  0
   13.7050   10.6370   -0.7870 C   0  0  0  0  0
   14.9670   10.5660   -0.3210 C   0  0  0  0  0
   15.4640   10.7200    0.9530 C   0  0  0  0  0
   16.4530   10.0750    1.3220 O   0  0  0  0  0
   14.8810   11.6280    1.7610 N   0  0  0  0  0
   15.5890   11.9910    3.1300 S   0  0  0  0  0
   16.9340   11.5830    3.4550 O   0  0  0  0  0
   15.1630   13.2900    3.7590 O   0  0  0  0  0
   14.9910   10.6900    4.1970 C   0  0  0  0  0
   13.6420   10.4400    4.4250 C   0  0  0  0  0
   13.3000    9.4390    5.3620 C   0  0  0  0  0
   14.2490    8.6630    6.0730 C   0  0  0  0  0
   13.7950    7.7180    7.0560 C   0  0  0  0  0
   14.6520    7.5510    8.0790 F   0  0  0  0  0
   12.6770    8.3490    7.6760 F   0  0  0  0  0
   13.4280    6.5500    6.6270 F   0  0  0  0  0
   15.5930    8.9230    5.8210 C   0  0  0  0  0
   15.9420    9.9320    4.8910 C   0  0  0  0  0
   16.9300   12.4293   -1.0324 H   0  0  0  0  0
   17.4267    9.2288   -0.9661 H   0  0  0  0  0
   17.3783   10.1393   -2.6263 H   0  0  0  0  0
   16.4682    9.9573   -4.0062 H   0  0  0  0  0
   14.7422    9.7547   -5.7940 H   0  0  0  0  0
   10.8533    8.8760   -4.4377 H   0  0  0  0  0
   10.5627   10.6313   -4.3643 H   0  0  0  0  0
   10.2063    9.7316   -5.8591 H   0  0  0  0  0
   11.6729   10.4903   -2.7919 H   0  0  0  0  0
   12.8182   10.8292   -0.1831 H   0  0  0  0  0
   14.0018   12.0721    1.4959 H   0  0  0  0  0
   12.8708   11.0000    3.8962 H   0  0  0  0  0
   12.2425    9.2525    5.5492 H   0  0  0  0  0
   16.3691    8.3555    6.3345 H   0  0  0  0  0
   16.9984   10.1275    4.7070 H   0  0  0  0  0
  1  2  2  0  0  0
  2  3  1  0  0  0
  2  4  1  0  0  0
  4  5  1  0  0  0
  5  6  4  0  0  0
  5 15  4  0  0  0
  6  7  4  0  0  0
  6 13  4  0  0  0
  7  8  4  0  0  0
  8  9  4  0  0  0
  9 10  1  0  0  0
  9 12  4  0  0  0
 10 11  1  0  0  0
 12 13  4  0  0  0
 13 14  4  0  0  0
 14 15  4  0  0  0
 15 16  1  0  0  0
 16 17  2  0  0  0
 16 18  1  0  0  0
 18 19  1  0  0  0
 19 20  2  0  0  0
 19 21  2  0  0  0
 19 22  1  0  0  0
 22 23  4  0  0  0
 22 31  4  0  0  0
 23 24  4  0  0  0
 24 25  4  0  0  0
 25 26  1  0  0  0
 25 30  4  0  0  0
 26 27  1  0  0  0
 26 28  1  0  0  0
 26 29  1  0  0  0
 30 31  4  0  0  0
  3 32  1  0  0  0
  4 33  1  0  0  0
  4 34  1  0  0  0
  7 35  1  0  0  0
  8 36  1  0  0  0
 11 37  1  0  0  0
 11 38  1  0  0  0
 11 39  1  0  0  0
 12 40  1  0  0  0
 14 41  1  0  0  0
 18 42  1  0  0  0
 23 43  1  0  0  0
 24 44  1  0  0  0
 30 45  1  0  0  0
 31 46  1  0  0  0
M  END
$$$$
