3t07_ligand
  -I-interpret- 

 39 43  0  0  0  0  0  0  0  0999 V2000
   -9.4760    1.1630    3.1150 C   0  0  0  0  0
  -11.4350    1.1700    1.8630 N   0  0  0  0  0
   -8.8820    1.5090    4.1370 O   0  0  0  0  0
  -10.5650    2.0590    2.5930 C   0  0  0  0  0
   -9.1420   -0.0410    2.3980 N   0  0  0  0  0
  -14.7080   -0.6240    1.5210 N   0  0  0  0  0
  -13.5710    2.4070    4.6240 N   0  0  0  0  0
  -16.3390   -4.0040   -1.8690 Br  0  0  0  0  0
  -13.4040    6.3340    8.0210 Br  0  0  0  0  0
  -13.6020   -3.0480   -1.5220 C   0  0  0  0  0
  -11.3270    5.4640    6.0840 C   0  0  0  0  0
  -12.6490   -2.2430   -0.8770 C   0  0  0  0  0
  -10.8490    4.6130    5.0630 C   0  0  0  0  0
  -13.5460   -0.0720    1.8220 C   0  0  0  0  0
  -12.7790    1.8880    3.7060 C   0  0  0  0  0
  -15.3940   -2.2220   -0.1060 C   0  0  0  0  0
  -13.3950    4.2660    6.1690 C   0  0  0  0  0
   -9.8460   -0.4940    1.1390 C   0  0  0  0  0
  -11.2630    0.0070    1.2610 C   0  0  0  0  0
  -14.9480   -3.0160   -1.1190 C   0  0  0  0  0
  -12.6070    5.2870    6.6380 C   0  0  0  0  0
  -12.5440   -0.5020    1.0390 C   0  0  0  0  0
  -11.6050    2.5270    3.6580 C   0  0  0  0  0
  -14.4750   -1.4460    0.5240 C   0  0  0  0  0
  -12.9410    3.4310    5.1750 C   0  0  0  0  0
  -13.1050   -1.4330    0.1640 C   0  0  0  0  0
  -11.6690    3.5760    4.5980 C   0  0  0  0  0
  -10.0632    2.8983    2.1114 H   0  0  0  0  0
   -8.3863   -0.6219    2.7610 H   0  0  0  0  0
  -13.2962   -3.7010   -2.3394 H   0  0  0  0  0
  -10.6926    6.2718    6.4487 H   0  0  0  0  0
  -11.6008   -2.2505   -1.1759 H   0  0  0  0  0
   -9.8546    4.7610    4.6419 H   0  0  0  0  0
  -13.4147    0.6563    2.6223 H   0  0  0  0  0
  -13.0470    1.0459    3.0679 H   0  0  0  0  0
  -16.4440   -2.2101    0.1864 H   0  0  0  0  0
  -14.3899    4.1155    6.5882 H   0  0  0  0  0
   -9.8154   -1.5786    1.0348 H   0  0  0  0  0
   -9.3598   -0.0982    0.2474 H   0  0  0  0  0
  1  3  2  0  0  0
  4  1  1  0  0  0
  5  1  1  0  0  0
  2  4  1  0  0  0
 19  2  2  0  0  0
  4 23  1  0  0  0
 18  5  1  0  0  0
 14  6  4  0  0  0
  6 24  4  0  0  0
 15  7  4  0  0  0
  7 25  4  0  0  0
 20  8  1  0  0  0
 21  9  1  0  0  0
 10 12  4  0  0  0
 20 10  4  0  0  0
 11 13  4  0  0  0
 21 11  4  0  0  0
 12 26  4  0  0  0
 13 27  4  0  0  0
 22 14  4  0  0  0
 23 15  4  0  0  0
 16 20  4  0  0  0
 24 16  4  0  0  0
 17 21  4  0  0  0
 25 17  4  0  0  0
 19 18  1  0  0  0
 19 22  1  0  0  0
 22 26  4  0  0  0
 23 27  4  0  0  0
 24 26  4  0  0  0
 25 27  4  0  0  0
  4 28  1  0  0  0
  5 29  1  0  0  0
 10 30  1  0  0  0
 11 31  1  0  0  0
 12 32  1  0  0  0
 13 33  1  0  0  0
 14 34  1  0  0  0
 15 35  1  0  0  0
 16 36  1  0  0  0
 17 37  1  0  0  0
 18 38  1  0  0  0
 18 39  1  0  0  0
M  END
$$$$
