5vsb_ligand
  -I-interpret- 

 54 57  0  0  0  0  0  0  0  0999 V2000
  109.5840   -6.8610   93.1730 C   0  0  0  0  0
  108.6980   -5.8600   92.8050 C   0  0  0  0  0
  107.4400   -6.1890   92.3200 C   0  0  0  0  0
  107.0680   -7.5200   92.2070 C   0  0  0  0  0
  107.9600   -8.5210   92.5730 C   0  0  0  0  0
  109.2140   -8.1910   93.0590 C   0  0  0  0  0
  105.6800   -7.8890   91.6710 C   0  0  0  0  0
  104.6460   -8.0570   92.7870 C   0  0  0  0  0
  105.1960   -8.8870   93.9480 C   0  0  0  0  0
  105.4130  -10.0360   93.7790 O   0  0  0  0  0
  105.4710   -8.3010   95.2530 N   0  0  0  0  0
  106.0160   -9.0840   96.4180 C   0  0  0  0  0
  107.2610   -8.4310   97.0110 C   0  0  0  0  0
  106.9760   -7.0280   97.4280 C   0  0  0  0  0
  106.4810   -6.2230   96.2910 C   0  0  0  0  0
  105.2520   -6.8550   95.6390 C   0  0  0  0  0
  108.2420   -6.3820   97.9990 C   0  0  0  0  0
  107.8830   -5.1830   98.7460 N   0  0  0  0  0
  107.5050   -5.2950  100.0200 C   0  0  0  0  0
  107.1600   -4.2400  100.7550 N   0  0  0  0  0
  107.1910   -2.9870  100.2060 C   0  0  0  0  0
  106.8240   -1.8480  100.9870 C   0  0  0  0  0
  106.8580   -0.5780  100.4230 C   0  0  0  0  0
  107.2500   -0.4140   99.0920 C   0  0  0  0  0
  107.6080   -1.5250   98.3290 C   0  0  0  0  0
  107.5740   -2.8270   98.9070 C   0  0  0  0  0
  107.9320   -3.9900   98.1670 C   0  0  0  0  0
  108.2660   -3.8850   97.0370 O   0  0  0  0  0
  106.3990    0.8440  101.4010 Cl  0  0  0  0  0
  105.9420   -7.0680   98.4510 O   0  0  0  0  0
  110.5723   -6.6012   93.5523 H   0  0  0  0  0
  108.9898   -4.8138   92.8967 H   0  0  0  0  0
  106.7449   -5.4017   92.0281 H   0  0  0  0  0
  107.6719   -9.5679   92.4773 H   0  0  0  0  0
  109.9096   -8.9775   93.3517 H   0  0  0  0  0
  105.7646   -8.8400   91.1451 H   0  0  0  0  0
  105.3448   -7.0807   91.0210 H   0  0  0  0  0
  103.7785   -8.5737   92.3763 H   0  0  0  0  0
  104.3852   -7.0685   93.1650 H   0  0  0  0  0
  106.2878  -10.0784   96.0639 H   0  0  0  0  0
  105.2493   -9.1229   97.1918 H   0  0  0  0  0
  108.0460   -8.4202   96.2549 H   0  0  0  0  0
  107.5737   -9.0009   97.8859 H   0  0  0  0  0
  107.2723   -6.1636   95.5437 H   0  0  0  0  0
  106.2015   -5.2381   96.6651 H   0  0  0  0  0
  104.4369   -6.8224   96.3620 H   0  0  0  0  0
  105.0326   -6.2964   94.7291 H   0  0  0  0  0
  108.9122   -6.1135   97.1824 H   0  0  0  0  0
  108.7412   -7.0874   98.6633 H   0  0  0  0  0
  107.4776   -6.2849  100.4754 H   0  0  0  0  0
  106.5173   -1.9751  102.0252 H   0  0  0  0  0
  107.2760    0.5821   98.6501 H   0  0  0  0  0
  107.9138   -1.3975   97.2906 H   0  0  0  0  0
  105.7408   -6.1737   98.7362 H   0  0  0  0  0
  1  2  4  0  0  0
  1  6  4  0  0  0
  2  3  4  0  0  0
  3  4  4  0  0  0
  4  5  4  0  0  0
  4  7  1  0  0  0
  5  6  4  0  0  0
  7  8  1  0  0  0
  8  9  1  0  0  0
  9 10  2  0  0  0
  9 11  1  0  0  0
 11 12  1  0  0  0
 11 16  1  0  0  0
 12 13  1  0  0  0
 13 14  1  0  0  0
 14 15  1  0  0  0
 14 17  1  0  0  0
 14 30  1  0  0  0
 15 16  1  0  0  0
 17 18  1  0  0  0
 18 19  1  0  0  0
 18 27  1  0  0  0
 19 20  2  0  0  0
 20 21  1  0  0  0
 21 22  4  0  0  0
 21 26  4  0  0  0
 22 23  4  0  0  0
 23 24  4  0  0  0
 23 29  1  0  0  0
 24 25  4  0  0  0
 25 26  4  0  0  0
 26 27  1  0  0  0
 27 28  2  0  0  0
  1 31  1  0  0  0
  2 32  1  0  0  0
  3 33  1  0  0  0
  5 34  1  0  0  0
  6 35  1  0  0  0
  7 36  1  0  0  0
  7 37  1  0  0  0
  8 38  1  0  0  0
  8 39  1  0  0  0
 12 40  1  0  0  0
 12 41  1  0  0  0
 13 42  1  0  0  0
 13 43  1  0  0  0
 15 44  1  0  0  0
 15 45  1  0  0  0
 16 46  1  0  0  0
 16 47  1  0  0  0
 17 48  1  0  0  0
 17 49  1  0  0  0
 19 50  1  0  0  0
 22 51  1  0  0  0
 24 52  1  0  0  0
 25 53  1  0  0  0
 30 54  1  0  0  0
M  END
$$$$
