4mmp_ligand
  -I-interpret- 

 40 40  0  0  0  0  0  0  0  0999 V2000
   21.4500   30.2640   12.8010 C   0  0  0  0  0
   19.9550   30.1270   12.9040 C   0  0  0  0  0
   19.5600   28.8940   13.7070 C   0  0  0  0  0
   18.0560   28.7140   13.5890 C   0  0  0  0  0
   17.6290   28.5850   12.1340 C   0  0  0  0  0
   18.1260   29.9150   11.4110 C   0  0  0  0  0
   17.9160   29.9690    9.9150 C   0  0  0  0  0
   18.4120   31.2880    9.2660 C   0  0  0  0  0
   18.1150   31.4290    7.7820 C   0  0  0  0  0
   15.6760   27.2480   11.5380 C   0  0  0  0  0
   14.1610   27.2530   11.3670 C   0  0  0  0  0
   16.1910   28.4220   11.9390 N   0  0  0  0  0
   22.0060   31.2390   13.3540 O   0  0  0  0  0
   22.1090   29.4010   12.1610 O   0  0  0  0  0
   19.4220   31.3760   13.4870 O   0  0  0  0  0
   17.6180   27.5500   14.2900 O   0  0  0  0  0
   19.5870   30.0530   11.5380 O   0  0  0  0  0
   18.5650   28.8340    9.2540 O   0  0  0  0  0
   17.8390   32.3610    9.9950 O   0  0  0  0  0
   16.6590   31.2090    7.4970 O   0  0  0  0  0
   16.4190   26.2590   11.3270 O   0  0  0  0  0
   19.8418   29.0209   14.7523 H   0  0  0  0  0
   20.0746   28.0141   13.3209 H   0  0  0  0  0
   17.5993   29.6008   14.0285 H   0  0  0  0  0
   18.0694   27.6779   11.7200 H   0  0  0  0  0
   17.5340   30.6868   11.9030 H   0  0  0  0  0
   16.8366   29.9214    9.7711 H   0  0  0  0  0
   19.5008   31.2889    9.3181 H   0  0  0  0  0
   18.6927   30.6810    7.2389 H   0  0  0  0  0
   18.3824   32.4379    7.4680 H   0  0  0  0  0
   13.9126   27.0149   10.3327 H   0  0  0  0  0
   13.7195   26.5079   12.0288 H   0  0  0  0  0
   13.7716   28.2398   11.6176 H   0  0  0  0  0
   15.5682   29.2115   12.1099 H   0  0  0  0  0
   21.5102   28.7363   11.8127 H   0  0  0  0  0
   19.6708   31.4273   14.4128 H   0  0  0  0  0
   17.8798   27.6153   15.2113 H   0  0  0  0  0
   18.2604   28.0158    9.6531 H   0  0  0  0  0
   18.1282   33.1943    9.6161 H   0  0  0  0  0
   16.5006   31.3038    6.5549 H   0  0  0  0  0
  2  1  1  0  0  0
  1 13  2  0  0  0
  1 14  1  0  0  0
  3  2  1  0  0  0
  2 15  1  0  0  0
 17  2  1  0  0  0
  4  3  1  0  0  0
  5  4  1  0  0  0
  4 16  1  0  0  0
  5  6  1  0  0  0
 12  5  1  0  0  0
  6  7  1  0  0  0
  6 17  1  0  0  0
  7  8  1  0  0  0
  7 18  1  0  0  0
  8  9  1  0  0  0
  8 19  1  0  0  0
  9 20  1  0  0  0
 10 11  1  0  0  0
 10 12  1  0  0  0
 10 21  2  0  0  0
  3 22  1  0  0  0
  3 23  1  0  0  0
  4 24  1  0  0  0
  5 25  1  0  0  0
  6 26  1  0  0  0
  7 27  1  0  0  0
  8 28  1  0  0  0
  9 29  1  0  0  0
  9 30  1  0  0  0
 11 31  1  0  0  0
 11 32  1  0  0  0
 11 33  1  0  0  0
 12 34  1  0  0  0
 14 35  1  0  0  0
 15 36  1  0  0  0
 16 37  1  0  0  0
 18 38  1  0  0  0
 19 39  1  0  0  0
 20 40  1  0  0  0
M  END
$$$$
