3ogm_ligand
  -I-interpret- 

 50 52  0  0  0  0  0  0  0  0999 V2000
   -3.5790    7.3310   43.6610 C   0  0  0  0  0
   -2.3670    6.5560   44.2080 C   0  0  0  0  0
   -2.3270    6.2740   45.7250 C   0  0  0  0  0
   -1.5730    4.9860   45.9360 C   0  0  0  0  0
   -0.6310    4.8770   47.1230 C   0  0  0  0  0
    0.1380    3.5490   47.3190 C   0  0  0  0  0
   -0.3280    2.5840   46.8120 O   0  0  0  0  0
    1.1990    3.4440   48.3600 N   0  0  0  0  0
    1.9040    2.1520   48.6640 C   0  0  0  0  0
    1.2620    1.3440   49.1640 C   0  0  0  0  0
    0.3850    1.6720   49.9290 O   0  0  0  0  0
    1.2300    0.0320   48.5950 O   0  0  0  0  0
    2.7350    1.7870   47.7620 C   0  0  0  0  0
    3.2120    2.3740   48.8360 C   0  0  0  0  0
    3.4470    1.5000   50.0800 C   0  0  0  0  0
    4.7470    1.8000   50.8270 C   0  0  0  0  0
   -0.7500    5.8430   48.3270 C   0  0  0  0  0
    0.6420    6.1770   48.5190 C   0  0  0  0  0
    0.6800    7.6060   49.0960 C   0  0  0  0  0
   -0.6550    8.2010   48.7260 C   0  0  0  0  0
   -1.0520    9.2600   49.0820 O   0  0  0  0  0
   -1.4630    7.1330   48.0240 C   0  0  0  0  0
   -1.6220    7.4140   46.4730 C   0  0  0  0  0
   -4.4914    6.7745   43.8755 H   0  0  0  0  0
   -3.6282    8.3098   44.1381 H   0  0  0  0  0
   -3.4727    7.4556   42.5834 H   0  0  0  0  0
   -1.5003    7.1845   44.0035 H   0  0  0  0  0
   -2.4036    5.5778   43.7286 H   0  0  0  0  0
   -3.3431    6.1969   46.1119 H   0  0  0  0  0
   -0.9349    4.8846   45.0581 H   0  0  0  0  0
   -2.3417    4.2342   46.1148 H   0  0  0  0  0
    0.1317    5.4981   46.6532 H   0  0  0  0  0
    1.4562    4.2795   48.8855 H   0  0  0  0  0
    1.9848   -0.0815   48.0127 H   0  0  0  0  0
    2.8390    1.8886   46.6817 H   0  0  0  0  0
    2.9431    0.8874   47.1827 H   0  0  0  0  0
    3.9825    3.1398   48.9252 H   0  0  0  0  0
    3.5059    0.4667   49.7382 H   0  0  0  0  0
    2.6279    1.7002   50.7707 H   0  0  0  0  0
    5.5936    1.6383   50.1597 H   0  0  0  0  0
    4.7405    2.8369   51.1630 H   0  0  0  0  0
    4.8304    1.1379   51.6889 H   0  0  0  0  0
   -1.3019    5.3906   49.1509 H   0  0  0  0  0
    1.1873    6.1243   47.5767 H   0  0  0  0  0
    1.1203    5.4713   49.1982 H   0  0  0  0  0
    1.5104    8.1861   48.6935 H   0  0  0  0  0
    0.8416    7.6061   50.1740 H   0  0  0  0  0
   -2.4930    7.1030   48.3795 H   0  0  0  0  0
   -2.2302    8.3114   46.3592 H   0  0  0  0  0
   -0.6226    7.5195   46.0509 H   0  0  0  0  0
  1  2  1  0  0  0
  2  3  1  0  0  0
  3  4  1  0  0  0
  3 23  1  0  0  0
  4  5  1  0  0  0
  5  6  1  0  0  0
  5 17  1  0  0  0
  6  7  2  0  0  0
  6  8  1  0  0  0
  8  9  1  0  0  0
  9 10  1  0  0  0
  9 13  1  0  0  0
  9 14  1  0  0  0
 10 11  2  0  0  0
 10 12  1  0  0  0
 13 14  1  0  0  0
 14 15  1  0  0  0
 15 16  1  0  0  0
 17 18  1  0  0  0
 17 22  1  0  0  0
 18 19  1  0  0  0
 19 20  1  0  0  0
 20 21  2  0  0  0
 20 22  1  0  0  0
 22 23  1  0  0  0
  1 24  1  0  0  0
  1 25  1  0  0  0
  1 26  1  0  0  0
  2 27  1  0  0  0
  2 28  1  0  0  0
  3 29  1  0  0  0
  4 30  1  0  0  0
  4 31  1  0  0  0
  5 32  1  0  0  0
  8 33  1  0  0  0
 12 34  1  0  0  0
 13 35  1  0  0  0
 13 36  1  0  0  0
 14 37  1  0  0  0
 15 38  1  0  0  0
 15 39  1  0  0  0
 16 40  1  0  0  0
 16 41  1  0  0  0
 16 42  1  0  0  0
 17 43  1  0  0  0
 18 44  1  0  0  0
 18 45  1  0  0  0
 19 46  1  0  0  0
 19 47  1  0  0  0
 22 48  1  0  0  0
 23 49  1  0  0  0
 23 50  1  0  0  0
M  END
$$$$
