3wp1_ligand
  -I-interpret- 

227227  0  0  0  0  0  0  0  0999 V2000
  141.8710  140.6160   -5.2290 N   0  3  0  0  0
  142.8400  140.8310   -6.3010 C   0  0  0  0  0
  143.6890  142.0570   -5.9810 C   0  0  0  0  0
  144.8880  142.0850   -6.2520 O   0  0  0  0  0
  142.1330  141.0230   -7.6480 C   0  0  0  0  0
  142.6470  140.1370   -8.7650 C   0  0  0  0  0
  144.1580  139.9950   -8.7060 C   0  0  0  0  0
  144.7220  139.6580  -10.0780 C   0  0  0  0  0
  143.9690  138.5630  -10.7710 N   0  3  0  0  0
  143.0540  143.0770   -5.4140 N   0  0  0  0  0
  143.7720  144.2460   -4.9380 C   0  0  0  0  0
  144.5490  143.7910   -3.7070 C   0  0  0  0  0
  144.0640  142.9530   -2.9380 O   0  0  0  0  0
  142.7910  145.3670   -4.5760 C   0  0  0  0  0
  143.4360  146.6830   -4.1180 C   0  0  0  0  0
  142.4860  147.4810   -3.2060 C   0  0  0  0  0
  142.5910  148.9950   -3.4430 C   0  0  0  0  0
  141.7100  149.8300   -2.5510 N   0  3  0  0  0
  145.7520  144.3230   -3.5240 N   0  0  0  0  0
  146.5910  143.9320   -2.4020 C   0  0  0  0  0
  145.9190  144.2330   -1.0600 C   0  0  0  0  0
  145.1070  145.1410   -0.9570 O   0  0  0  0  0
  147.9490  144.6370   -2.4930 C   0  0  0  0  0
  148.4780  144.8810   -1.1980 O   0  0  0  0  0
  146.2300  143.4450   -0.0420 N   0  0  0  0  0
  145.7430  143.7220    1.3030 C   0  0  0  0  0
  146.6090  144.7550    2.0420 C   0  0  0  0  0
  146.2930  145.1340    3.1760 O   0  0  0  0  0
  145.7280  142.4460    2.1320 C   0  0  0  0  0
  145.0160  141.2330    1.5550 C   0  0  0  0  0
  145.2890  140.0170    2.4570 C   0  0  0  0  0
  143.5250  141.5150    1.4250 C   0  0  0  0  0
  147.7200  145.1580    1.4370 N   0  0  0  0  0
  148.6210  146.1340    2.0550 C   0  0  0  0  0
  148.8750  145.8900    3.5420 C   0  0  0  0  0
  148.7180  146.8070    4.3410 O   0  0  0  0  0
  148.0840  147.5550    1.8620 C   0  0  0  0  0
  147.8130  147.9170    0.4080 C   0  0  0  0  0
  147.0440  149.2100    0.2910 C   0  0  0  0  0
  146.7210  149.5250   -1.0970 N   0  0  0  0  0
  145.6000  150.1370   -1.4640 C   0  0  0  0  0
  144.7120  150.4850   -0.5440 N   0  0  0  0  0
  145.3580  150.3970   -2.7380 N   0  0  0  0  0
  149.2390  144.6700    3.9220 N   0  0  0  0  0
  149.3950  144.3610    5.3400 C   0  0  0  0  0
  150.5340  145.1270    5.9900 C   0  0  0  0  0
  150.4580  145.4580    7.1670 O   0  0  0  0  0
  149.5900  142.8670    5.5680 C   0  0  0  0  0
  148.4220  142.0100    5.1410 C   0  0  0  0  0
  148.7220  141.2360    3.8800 C   0  0  0  0  0
  149.1340  141.8140    2.8370 O   0  0  0  0  0
  148.5400  139.9100    3.9610 N   0  0  0  0  0
  151.5900  145.3920    5.2250 N   0  0  0  0  0
  152.7380  146.1440    5.7240 C   0  0  0  0  0
  153.7180  146.4110    4.5930 C   0  0  0  0  0
  154.3990  145.2440    4.2170 O   0  0  0  0  0
  152.2490  147.4910    6.2160 C   0  0  0  0  0
  152.6240  147.9900    7.2830 O   0  0  0  0  0
  153.9720  144.8510    2.7110 P   0  0  0  0  0
  154.9150  145.6950    1.7240 O   0  0  0  0  0
  152.4430  145.2890    2.4480 O   0  0  0  0  0
  154.1760  143.2630    2.5230 O   0  0  0  0  0
  151.3860  148.0770    5.4100 N   0  0  0  0  0
  150.9470  149.4180    5.6740 C   0  0  0  0  0
  150.1010  149.4840    6.9460 C   0  0  0  0  0
  150.3400  150.3280    7.8030 O   0  0  0  0  0
  150.1870  149.9580    4.4760 C   0  0  0  0  0
  149.7760  151.3720    4.6380 C   0  0  0  0  0
  150.7260  152.3720    4.6420 C   0  0  0  0  0
  148.4430  151.7070    4.8040 C   0  0  0  0  0
  150.3580  153.6920    4.7960 C   0  0  0  0  0
  148.0700  153.0150    4.9620 C   0  0  0  0  0
  149.0300  154.0130    4.9570 C   0  0  0  0  0
  149.1250  148.5930    7.0810 N   0  0  0  0  0
  148.3140  148.6010    8.2910 C   0  0  0  0  0
  149.2030  148.2920    9.4750 C   0  0  0  0  0
  149.0040  148.8050   10.5750 O   0  0  0  0  0
  147.1790  147.5730    8.2400 C   0  0  0  0  0
  147.0320  146.8310    6.9370 C   0  0  0  0  0
  146.0080  145.7000    7.0590 C   0  0  0  0  0
  144.6770  146.1340    6.6490 N   0  0  0  0  0
  143.7880  146.6900    7.4670 C   0  0  0  0  0
  144.0860  146.8790    8.7470 N   0  0  0  0  0
  142.6010  147.0570    7.0060 N   0  0  0  0  0
  150.1980  147.4550    9.2390 N   0  0  0  0  0
  151.0470  147.0140   10.3240 C   0  0  0  0  0
  151.9560  148.1140   10.7980 C   0  0  0  0  0
  152.4110  148.0860   11.9400 O   0  0  0  0  0
  151.8860  145.8200    9.9100 C   0  0  0  0  0
  151.9280  144.8470   11.0220 C   0  0  0  0  0
  152.4370  143.5240   10.5920 C   0  0  0  0  0
  152.5470  142.6440   11.7500 N   0  0  0  0  0
  151.5070  142.0640   12.3410 C   0  0  0  0  0
  150.2730  142.2700   11.8770 N   0  0  0  0  0
  151.7040  141.2760   13.3930 N   0  0  0  0  0
  152.2270  149.0750    9.9180 N   0  0  0  0  0
  153.1770  150.1340   10.2180 C   0  0  0  0  0
  152.8110  150.9210   11.4950 C   0  0  0  0  0
  151.6390  151.2600   11.7190 O   0  0  0  0  0
  153.3110  151.0710    9.0140 C   0  0  0  0  0
  154.4620  152.0610    9.1430 C   0  0  0  0  0
  154.3950  153.2710    7.8390 S   0  0  0  0  0
  152.8600  154.1310    8.2160 C   0  0  0  0  0
  153.8200  151.1900   12.3290 N   0  0  0  0  0
  153.6340  151.8990   13.5970 C   0  0  0  0  0
  153.3480  153.3710   13.3390 C   0  0  0  0  0
  154.0490  154.0110   12.5560 O   0  0  0  0  0
  154.8710  151.7590   14.4990 C   0  0  0  0  0
  152.3895  153.9369   13.9295 O   0  0  0  0  0
  142.3653  140.4913   -4.3455 H   0  0  0  0  0
  141.2534  141.4251   -5.1632 H   0  0  0  0  0
  141.3202  139.7820   -5.4325 H   0  0  0  0  0
  143.4790  139.9510   -6.3743 H   0  0  0  0  0
  142.3089  142.0541   -7.9545 H   0  0  0  0  0
  141.0848  140.7656   -7.4957 H   0  0  0  0  0
  142.3781  140.5904   -9.7191 H   0  0  0  0  0
  142.2011  139.1483   -8.6566 H   0  0  0  0  0
  144.4090  139.1902   -8.0151 H   0  0  0  0  0
  144.5873  140.9394   -8.3715 H   0  0  0  0  0
  145.7482  139.3178   -9.9396 H   0  0  0  0  0
  144.6475  140.5531  -10.6955 H   0  0  0  0  0
  144.3930  138.3838  -11.6812 H   0  0  0  0  0
  144.0058  137.7155  -10.2046 H   0  0  0  0  0
  142.9975  138.8471  -10.8971 H   0  0  0  0  0
  142.0400  143.0381   -5.3108 H   0  0  0  0  0
  144.4397  144.6435   -5.7024 H   0  0  0  0  0
  142.1973  145.0027   -3.7376 H   0  0  0  0  0
  142.2293  145.5941   -5.4821 H   0  0  0  0  0
  143.6606  147.2852   -4.9983 H   0  0  0  0  0
  144.3418  146.4501   -3.5581 H   0  0  0  0  0
  142.7608  147.2797   -2.1706 H   0  0  0  0  0
  141.4642  147.1728   -3.4276 H   0  0  0  0  0
  142.2726  149.1799   -4.4689 H   0  0  0  0  0
  143.6214  149.2802   -3.2307 H   0  0  0  0  0
  141.8408  150.8168   -2.7734 H   0  0  0  0  0
  140.7345  149.5727   -2.7015 H   0  0  0  0  0
  141.9602  149.6639   -1.5762 H   0  0  0  0  0
  146.0949  145.0207   -4.1843 H   0  0  0  0  0
  146.7423  142.8539   -2.4555 H   0  0  0  0  0
  147.8165  145.5906   -3.0040 H   0  0  0  0  0
  148.6411  143.9974   -3.0407 H   0  0  0  0  0
  149.3268  145.3222   -1.2782 H   0  0  0  0  0
  146.8212  142.6294   -0.2024 H   0  0  0  0  0
  144.7373  144.1261    1.1870 H   0  0  0  0  0
  145.1831  142.6971    3.0420 H   0  0  0  0  0
  146.7727  142.1506    2.2295 H   0  0  0  0  0
  145.3940  141.0145    0.5562 H   0  0  0  0  0
  146.3620  139.8298    2.4973 H   0  0  0  0  0
  144.9163  140.2200    3.4610 H   0  0  0  0  0
  144.7814  139.1427    2.0495 H   0  0  0  0  0
  143.1118  141.7392    2.4084 H   0  0  0  0  0
  143.3742  142.3678    0.7631 H   0  0  0  0  0
  143.0256  140.6391    1.0107 H   0  0  0  0  0
  147.9520  144.7786    0.5190 H   0  0  0  0  0
  149.5773  146.0119    1.5464 H   0  0  0  0  0
  148.8442  148.2429    2.2321 H   0  0  0  0  0
  147.1356  147.6194    2.3953 H   0  0  0  0  0
  147.2181  147.1210   -0.0398 H   0  0  0  0  0
  148.7694  148.0381   -0.1006 H   0  0  0  0  0
  147.6629  150.0139    0.6896 H   0  0  0  0  0
  146.1109  149.1049    0.8445 H   0  0  0  0  0
  147.3891  149.2623   -1.8216 H   0  0  0  0  0
  143.8475  150.9507   -0.8200 H   0  0  0  0  0
  144.8930  150.2872    0.4401 H   0  0  0  0  0
  146.0355  150.1272   -3.4512 H   0  0  0  0  0
  149.4097  143.9482    3.2218 H   0  0  0  0  0
  148.4666  144.6793    5.8142 H   0  0  0  0  0
  149.7163  142.7221    6.6409 H   0  0  0  0  0
  150.4461  142.5618    4.9663 H   0  0  0  0  0
  147.5719  142.6638    4.9463 H   0  0  0  0  0
  148.2126  141.2965    5.9380 H   0  0  0  0  0
  148.7370  139.3179    3.1541 H   0  0  0  0  0
  148.2045  139.4934    4.8295 H   0  0  0  0  0
  151.5978  145.0597    4.2607 H   0  0  0  0  0
  153.2212  145.5719    6.5160 H   0  0  0  0  0
  154.4497  147.1427    4.9356 H   0  0  0  0  0
  153.1597  146.7778    3.7317 H   0  0  0  0  0
  151.8643  144.7927    3.0314 H   0  0  0  0  0
  153.5973  142.7933    3.1280 H   0  0  0  0  0
  151.0291  147.5761    4.5963 H   0  0  0  0  0
  151.8232  150.0449    5.8394 H   0  0  0  0  0
  149.2822  149.3611    4.3611 H   0  0  0  0  0
  150.8485  149.9022    3.6115 H   0  0  0  0  0
  151.7787  152.1161    4.5222 H   0  0  0  0  0
  147.6849  150.9238    4.8090 H   0  0  0  0  0
  151.1148  154.4764    4.7902 H   0  0  0  0  0
  147.0183  153.2704    5.0916 H   0  0  0  0  0
  148.7330  155.0544    5.0808 H   0  0  0  0  0
  148.9453  147.9102    6.3449 H   0  0  0  0  0
  147.8614  149.5884    8.3820 H   0  0  0  0  0
  146.2521  148.1273    8.3872 H   0  0  0  0  0
  147.4048  146.8242    8.9992 H   0  0  0  0  0
  147.9971  146.4003    6.6703 H   0  0  0  0  0
  146.6898  147.5304    6.1742 H   0  0  0  0  0
  145.9623  145.3880    8.1024 H   0  0  0  0  0
  146.3190  144.8823    6.4089 H   0  0  0  0  0
  144.4113  146.0027    5.6730 H   0  0  0  0  0
  143.4022  147.3055    9.3722 H   0  0  0  0  0
  144.9987  146.5977    9.1051 H   0  0  0  0  0
  142.3688  146.9131    6.0233 H   0  0  0  0  0
  150.3675  147.1196    8.2908 H   0  0  0  0  0
  150.3871  146.7258   11.1423 H   0  0  0  0  0
  152.8979  146.1484    9.6727 H   0  0  0  0  0
  151.4460  145.3511    9.0299 H   0  0  0  0  0
  150.9120  144.7141   11.3938 H   0  0  0  0  0
  152.6004  145.2360   11.7866 H   0  0  0  0  0
  153.4184  143.6444   10.1333 H   0  0  0  0  0
  151.7479  143.0877    9.8689 H   0  0  0  0  0
  153.4766  142.4630   12.1287 H   0  0  0  0  0
  149.4764  141.8220   12.3299 H   0  0  0  0  0
  150.1263  142.8755   11.0694 H   0  0  0  0  0
  152.6492  141.1190   13.7427 H   0  0  0  0  0
  151.7575  149.0684    9.0125 H   0  0  0  0  0
  154.1396  149.6627   10.4163 H   0  0  0  0  0
  152.3885  151.6472    8.9417 H   0  0  0  0  0
  153.5054  150.4535    8.1371 H   0  0  0  0  0
  155.4047  151.5182    9.0736 H   0  0  0  0  0
  154.3837  152.5711   10.1031 H   0  0  0  0  0
  152.0319  153.4228    8.1879 H   0  0  0  0  0
  152.9276  154.5736    9.2098 H   0  0  0  0  0
  152.6939  154.9157    7.4779 H   0  0  0  0  0
  154.7598  150.8887   12.0715 H   0  0  0  0  0
  152.7834  151.4503   14.1101 H   0  0  0  0  0
  155.0463  150.7045   14.7120 H   0  0  0  0  0
  155.7394  152.1774   13.9901 H   0  0  0  0  0
  154.7013  152.2962   15.4321 H   0  0  0  0  0
  151.9476  153.3035   14.4997 H   0  0  0  0  0
  1  2  1  0  0  0
  2  3  1  0  0  0
  2  5  1  0  0  0
  3  4  2  0  0  0
  3 10  1  0  0  0
  5  6  1  0  0  0
  6  7  1  0  0  0
  7  8  1  0  0  0
  8  9  1  0  0  0
 10 11  1  0  0  0
 11 12  1  0  0  0
 11 14  1  0  0  0
 12 13  2  0  0  0
 12 19  1  0  0  0
 14 15  1  0  0  0
 15 16  1  0  0  0
 16 17  1  0  0  0
 17 18  1  0  0  0
 19 20  1  0  0  0
 20 21  1  0  0  0
 20 23  1  0  0  0
 21 22  2  0  0  0
 21 25  1  0  0  0
 23 24  1  0  0  0
 25 26  1  0  0  0
 26 27  1  0  0  0
 26 29  1  0  0  0
 27 28  2  0  0  0
 27 33  1  0  0  0
 29 30  1  0  0  0
 30 31  1  0  0  0
 30 32  1  0  0  0
 33 34  1  0  0  0
 34 35  1  0  0  0
 34 37  1  0  0  0
 35 36  2  0  0  0
 35 44  1  0  0  0
 37 38  1  0  0  0
 38 39  1  0  0  0
 39 40  1  0  0  0
 40 41  1  0  0  0
 41 42  1  0  0  0
 41 43  2  0  0  0
 44 45  1  0  0  0
 45 46  1  0  0  0
 45 48  1  0  0  0
 46 47  2  0  0  0
 46 53  1  0  0  0
 48 49  1  0  0  0
 49 50  1  0  0  0
 50 51  2  0  0  0
 50 52  1  0  0  0
 53 54  1  0  0  0
 54 55  1  0  0  0
 54 57  1  0  0  0
 55 56  1  0  0  0
 56 59  1  0  0  0
 57 58  2  0  0  0
 57 63  1  0  0  0
 59 60  2  0  0  0
 59 61  1  0  0  0
 59 62  1  0  0  0
 63 64  1  0  0  0
 64 65  1  0  0  0
 64 67  1  0  0  0
 65 66  2  0  0  0
 65 74  1  0  0  0
 67 68  1  0  0  0
 68 69  4  0  0  0
 68 70  4  0  0  0
 69 71  4  0  0  0
 70 72  4  0  0  0
 71 73  4  0  0  0
 72 73  4  0  0  0
 74 75  1  0  0  0
 75 76  1  0  0  0
 75 78  1  0  0  0
 76 77  2  0  0  0
 76 85  1  0  0  0
 78 79  1  0  0  0
 79 80  1  0  0  0
 80 81  1  0  0  0
 81 82  1  0  0  0
 82 83  1  0  0  0
 82 84  2  0  0  0
 85 86  1  0  0  0
 86 87  1  0  0  0
 86 89  1  0  0  0
 87 88  2  0  0  0
 87 96  1  0  0  0
 89 90  1  0  0  0
 90 91  1  0  0  0
 91 92  1  0  0  0
 92 93  1  0  0  0
 93 94  1  0  0  0
 93 95  2  0  0  0
 96 97  1  0  0  0
 97 98  1  0  0  0
 97100  1  0  0  0
 98 99  2  0  0  0
 98104  1  0  0  0
100101  1  0  0  0
101102  1  0  0  0
102103  1  0  0  0
104105  1  0  0  0
105106  1  0  0  0
105108  1  0  0  0
106107  2  0  0  0
106109  1  0  0  0
  1110  1  0  0  0
  1111  1  0  0  0
  1112  1  0  0  0
  2113  1  0  0  0
  5114  1  0  0  0
  5115  1  0  0  0
  6116  1  0  0  0
  6117  1  0  0  0
  7118  1  0  0  0
  7119  1  0  0  0
  8120  1  0  0  0
  8121  1  0  0  0
  9122  1  0  0  0
  9123  1  0  0  0
  9124  1  0  0  0
 10125  1  0  0  0
 11126  1  0  0  0
 14127  1  0  0  0
 14128  1  0  0  0
 15129  1  0  0  0
 15130  1  0  0  0
 16131  1  0  0  0
 16132  1  0  0  0
 17133  1  0  0  0
 17134  1  0  0  0
 18135  1  0  0  0
 18136  1  0  0  0
 18137  1  0  0  0
 19138  1  0  0  0
 20139  1  0  0  0
 23140  1  0  0  0
 23141  1  0  0  0
 24142  1  0  0  0
 25143  1  0  0  0
 26144  1  0  0  0
 29145  1  0  0  0
 29146  1  0  0  0
 30147  1  0  0  0
 31148  1  0  0  0
 31149  1  0  0  0
 31150  1  0  0  0
 32151  1  0  0  0
 32152  1  0  0  0
 32153  1  0  0  0
 33154  1  0  0  0
 34155  1  0  0  0
 37156  1  0  0  0
 37157  1  0  0  0
 38158  1  0  0  0
 38159  1  0  0  0
 39160  1  0  0  0
 39161  1  0  0  0
 40162  1  0  0  0
 42163  1  0  0  0
 42164  1  0  0  0
 43165  1  0  0  0
 44166  1  0  0  0
 45167  1  0  0  0
 48168  1  0  0  0
 48169  1  0  0  0
 49170  1  0  0  0
 49171  1  0  0  0
 52172  1  0  0  0
 52173  1  0  0  0
 53174  1  0  0  0
 54175  1  0  0  0
 55176  1  0  0  0
 55177  1  0  0  0
 61178  1  0  0  0
 62179  1  0  0  0
 63180  1  0  0  0
 64181  1  0  0  0
 67182  1  0  0  0
 67183  1  0  0  0
 69184  1  0  0  0
 70185  1  0  0  0
 71186  1  0  0  0
 72187  1  0  0  0
 73188  1  0  0  0
 74189  1  0  0  0
 75190  1  0  0  0
 78191  1  0  0  0
 78192  1  0  0  0
 79193  1  0  0  0
 79194  1  0  0  0
 80195  1  0  0  0
 80196  1  0  0  0
 81197  1  0  0  0
 83198  1  0  0  0
 83199  1  0  0  0
 84200  1  0  0  0
 85201  1  0  0  0
 86202  1  0  0  0
 89203  1  0  0  0
 89204  1  0  0  0
 90205  1  0  0  0
 90206  1  0  0  0
 91207  1  0  0  0
 91208  1  0  0  0
 92209  1  0  0  0
 94210  1  0  0  0
 94211  1  0  0  0
 95212  1  0  0  0
 96213  1  0  0  0
 97214  1  0  0  0
100215  1  0  0  0
100216  1  0  0  0
101217  1  0  0  0
101218  1  0  0  0
103219  1  0  0  0
103220  1  0  0  0
103221  1  0  0  0
104222  1  0  0  0
105223  1  0  0  0
108224  1  0  0  0
108225  1  0  0  0
108226  1  0  0  0
109227  1  0  0  0
M  END
$$$$
