### 
### Created by X-TOOL on Mon Sep 10 21:13:19 2018
### 

@<TRIPOS>MOLECULE
3wp1_ligand
  227   227     1     0     0
SMALL
GAST_HUCK


@<TRIPOS>ATOM
      1 N         141.8710  140.6160   -5.2290 N.4       1 LYS         0.2379
      2 CA        142.8400  140.8310   -6.3010 C.3       1 LYS         0.0650
      3 C         143.6890  142.0570   -5.9810 C.2       1 LYS         0.2267
      4 O         144.8880  142.0850   -6.2520 O.2       1 LYS        -0.3907
      5 CB        142.1330  141.0230   -7.6480 C.3       1 LYS         0.0080
      6 CG        142.6470  140.1370   -8.7650 C.3       1 LYS        -0.0410
      7 CD        144.1580  139.9950   -8.7060 C.3       1 LYS        -0.0123
      8 CE        144.7220  139.6580  -10.0780 C.3       1 LYS        -0.0354
      9 NZ        143.9690  138.5630  -10.7710 N.4       1 LYS         0.2185
     10 N         143.0540  143.0770   -5.4140 N.am      1 LYS        -0.2610
     11 CA        143.7720  144.2460   -4.9380 C.3       1 LYS         0.1311
     12 C         144.5490  143.7910   -3.7070 C.2       1 LYS         0.2040
     13 O         144.0640  142.9530   -2.9380 O.2       1 LYS        -0.3944
     14 CB        142.7910  145.3670   -4.5760 C.3       1 LYS        -0.0122
     15 CG        143.4360  146.6830   -4.1180 C.3       1 LYS        -0.0440
     16 CD        142.4860  147.4810   -3.2060 C.3       1 LYS        -0.0124
     17 CE        142.5910  148.9950   -3.4430 C.3       1 LYS        -0.0354
     18 NZ        141.7100  149.8300   -2.5510 N.4       1 LYS         0.2185
     19 N         145.7520  144.3230   -3.5240 N.am      1 SER        -0.2616
     20 CA        146.5910  143.9320   -2.4020 C.3       1 SER         0.1539
     21 C         145.9190  144.2330   -1.0600 C.2       1 SER         0.2062
     22 O         145.1070  145.1410   -0.9570 O.2       1 SER        -0.3943
     23 CB        147.9490  144.6370   -2.4930 C.3       1 SER         0.0843
     24 OG        148.4780  144.8810   -1.1980 O.3       1 SER        -0.3903
     25 N         146.2300  143.4450   -0.0420 N.am      1 LEU        -0.2636
     26 CA        145.7430  143.7220    1.3030 C.3       1 LEU         0.1312
     27 C         146.6090  144.7550    2.0420 C.2       1 LEU         0.2039
     28 O         146.2930  145.1340    3.1760 O.2       1 LEU        -0.3944
     29 CB        145.7280  142.4460    2.1320 C.3       1 LEU        -0.0101
     30 CG        145.0160  141.2330    1.5550 C.3       1 LEU        -0.0425
     31 CD1       145.2890  140.0170    2.4570 C.3       1 LEU        -0.0625
     32 CD2       143.5250  141.5150    1.4250 C.3       1 LEU        -0.0625
     33 N         147.7200  145.1580    1.4370 N.am      1 ARG        -0.2637
     34 CA        148.6210  146.1340    2.0550 C.3       1 ARG         0.1311
     35 C         148.8750  145.8900    3.5420 C.2       1 ARG         0.2039
     36 O         148.7180  146.8070    4.3410 O.2       1 ARG        -0.3944
     37 CB        148.0840  147.5550    1.8620 C.3       1 ARG        -0.0092
     38 CG        147.8130  147.9170    0.4080 C.3       1 ARG        -0.0156
     39 CD        147.0440  149.2100    0.2910 C.3       1 ARG         0.0627
     40 NE        146.7210  149.5250   -1.0970 N.pl3     1 ARG        -0.2723
     41 CZ        145.6000  150.1370   -1.4640 C.cat     1 ARG         0.2882
     42 NH1       144.7120  150.4850   -0.5440 N.pl3     1 ARG        -0.2849
     43 NH2       145.3580  150.3970   -2.7380 N.pl3     1 ARG        -0.2849
     44 N         149.2390  144.6700    3.9220 N.am      1 GLN        -0.2636
     45 CA        149.3950  144.3610    5.3400 C.3       1 GLN         0.1330
     46 C         150.5340  145.1270    5.9900 C.2       1 GLN         0.2041
     47 O         150.4580  145.4580    7.1670 O.2       1 GLN        -0.3944
     48 CB        149.5900  142.8670    5.5680 C.3       1 GLN         0.0045
     49 CG        148.4220  142.0100    5.1410 C.3       1 GLN         0.0412
     50 CD        148.7220  141.2360    3.8800 C.2       1 GLN         0.1737
     51 OE1       149.1340  141.8140    2.8370 O.2       1 GLN        -0.3973
     52 NE2       148.5400  139.9100    3.9610 N.am      1 GLN        -0.3009
     53 N         151.5900  145.3920    5.2250 N.am      1 SEP        -0.2613
     54 CA        152.7380  146.1440    5.7240 C.3       1 SEP         0.1586
     55 CB        153.7180  146.4110    4.5930 C.3       1 SEP         0.1184
     56 OG        154.3990  145.2440    4.2170 O.3       1 SEP        -0.2714
     57 C         152.2490  147.4910    6.2160 C.2       1 SEP         0.2067
     58 O         152.6240  147.9900    7.2830 O.2       1 SEP        -0.3943
     59 P         153.9720  144.8510    2.7110 P.3       1 SEP         0.2010
     60 O1P       154.9150  145.6950    1.7240 O.co2     1 SEP        -0.5537
     61 O2P       152.4430  145.2890    2.4480 O.co2     1 SEP        -0.5537
     62 O3P       154.1760  143.2630    2.5230 O.co2     1 SEP        -0.5537
     63 N         151.3860  148.0770    5.4100 N.am      1 PHE        -0.2619
     64 CA        150.9470  149.4180    5.6740 C.3       1 PHE         0.1404
     65 C         150.1010  149.4840    6.9460 C.2       1 PHE         0.2060
     66 O         150.3400  150.3280    7.8030 O.2       1 PHE        -0.3942
     67 CB        150.1870  149.9580    4.4760 C.3       1 PHE         0.0214
     68 CG        149.7760  151.3720    4.6380 C.ar      1 PHE        -0.0386
     69 CD1       150.7260  152.3720    4.6420 C.ar      1 PHE        -0.0601
     70 CD2       148.4430  151.7070    4.8040 C.ar      1 PHE        -0.0601
     71 CE1       150.3580  153.6920    4.7960 C.ar      1 PHE        -0.0686
     72 CE2       148.0700  153.0150    4.9620 C.ar      1 PHE        -0.0686
     73 CZ        149.0300  154.0130    4.9570 C.ar      1 PHE        -0.0687
     74 N         149.1250  148.5930    7.0810 N.am      1 ARG        -0.2636
     75 CA        148.3140  148.6010    8.2910 C.3       1 ARG         0.1311
     76 C         149.2030  148.2920    9.4750 C.2       1 ARG         0.2039
     77 O         149.0040  148.8050   10.5750 O.2       1 ARG        -0.3944
     78 CB        147.1790  147.5730    8.2400 C.3       1 ARG        -0.0092
     79 CG        147.0320  146.8310    6.9370 C.3       1 ARG        -0.0156
     80 CD        146.0080  145.7000    7.0590 C.3       1 ARG         0.0627
     81 NE        144.6770  146.1340    6.6490 N.pl3     1 ARG        -0.2723
     82 CZ        143.7880  146.6900    7.4670 C.cat     1 ARG         0.2882
     83 NH1       144.0860  146.8790    8.7470 N.pl3     1 ARG        -0.2849
     84 NH2       142.6010  147.0570    7.0060 N.pl3     1 ARG        -0.2849
     85 N         150.1980  147.4550    9.2390 N.am      1 ARG        -0.2637
     86 CA        151.0470  147.0140   10.3240 C.3       1 ARG         0.1311
     87 C         151.9560  148.1140   10.7980 C.2       1 ARG         0.2039
     88 O         152.4110  148.0860   11.9400 O.2       1 ARG        -0.3944
     89 CB        151.8860  145.8200    9.9100 C.3       1 ARG        -0.0092
     90 CG        151.9280  144.8470   11.0220 C.3       1 ARG        -0.0156
     91 CD        152.4370  143.5240   10.5920 C.3       1 ARG         0.0627
     92 NE        152.5470  142.6440   11.7500 N.pl3     1 ARG        -0.2723
     93 CZ        151.5070  142.0640   12.3410 C.cat     1 ARG         0.2882
     94 NH1       150.2730  142.2700   11.8770 N.pl3     1 ARG        -0.2849
     95 NH2       151.7040  141.2760   13.3930 N.pl3     1 ARG        -0.2849
     96 N         152.2270  149.0750    9.9180 N.am      1 MET        -0.2637
     97 CA        153.1770  150.1340   10.2180 C.3       1 MET         0.1317
     98 C         152.8110  150.9210   11.4950 C.2       1 MET         0.2034
     99 O         151.6390  151.2600   11.7190 O.2       1 MET        -0.3944
    100 CB        153.3110  151.0710    9.0140 C.3       1 MET        -0.0034
    101 CG        154.4620  152.0610    9.1430 C.3       1 MET        -0.0024
    102 SD        154.3950  153.2710    7.8390 S.3       1 MET        -0.1639
    103 CE        152.8600  154.1310    8.2160 C.3       1 MET        -0.0181
    104 N         153.8200  151.1900   12.3290 N.am      1 ARG        -0.2673
    105 CA        153.6340  151.8990   13.5970 C.3       1 ARG         0.1198
    106 C         153.3480  153.3710   13.3390 C.2       1 ARG         0.2147
    107 O         154.0490  154.0110   12.5560 O.co2     1 ARG        -0.4120
    108 CB        154.8710  151.7590   14.4990 C.3       1 ARG        -0.0276
    109 H         141.3100  139.8057   -5.4407 H         1 LYS         0.2015
    110 H         141.2753  141.4250   -5.1473 H         1 LYS         0.2015
    111 H         142.3591  140.4689   -4.3594 H         1 LYS         0.2015
    112 H         143.4948  139.9498   -6.3687 H         1 LYS         0.1098
    113 H         142.2610  142.0713   -7.9558 H         1 LYS         0.0346
    114 H         141.0631  140.8103   -7.5068 H         1 LYS         0.0346
    115 H         142.3663  140.5802   -9.7318 H         1 LYS         0.0270
    116 H         142.1897  139.1410   -8.6716 H         1 LYS         0.0270
    117 H         144.4176  139.1908   -8.0018 H         1 LYS         0.0317
    118 H         144.5961  140.9423   -8.3586 H         1 LYS         0.0317
    119 H         145.7686  139.3414   -9.9581 H         1 LYS         0.0813
    120 H         144.6816  140.5612  -10.7045 H         1 LYS         0.0813
    121 H         144.3872  138.3850  -11.6707 H         1 LYS         0.1994
    122 H         143.0087  138.8427  -10.8962 H         1 LYS         0.1994
    123 H         144.0047  137.7248  -10.2122 H         1 LYS         0.1994
    124 H         142.0599  143.0389   -5.3128 H         1 LYS         0.1884
    125 H         144.4656  144.6067   -5.7118 H         1 LYS         0.0800
    126 H         142.1458  145.0040   -3.7624 H         1 LYS         0.0312
    127 H         142.1771  145.5806   -5.4634 H         1 LYS         0.0312
    128 H         143.6788  147.2904   -5.0023 H         1 LYS         0.0269
    129 H         144.3590  146.4565   -3.5641 H         1 LYS         0.0269
    130 H         142.7397  147.2681   -2.1571 H         1 LYS         0.0317
    131 H         141.4523  147.1620   -3.4053 H         1 LYS         0.0317
    132 H         142.3139  149.1992   -4.4877 H         1 LYS         0.0813
    133 H         143.6351  149.2974   -3.2748 H         1 LYS         0.0813
    134 H         141.8385  150.8055   -2.7699 H         1 LYS         0.1994
    135 H         141.9564  149.6667   -1.5873 H         1 LYS         0.1994
    136 H         140.7456  149.5767   -2.6989 H         1 LYS         0.1994
    137 H         146.0882  145.0070   -4.1714 H         1 SER         0.1884
    138 H         146.7593  142.8466   -2.4624 H         1 SER         0.0823
    139 H         147.8233  145.5956   -3.0177 H         1 SER         0.0606
    140 H         148.6489  144.0006   -3.0544 H         1 SER         0.0606
    141 H         149.3180  145.3176   -1.2774 H         1 SER         0.2097
    142 H         146.8096  142.6454   -0.1993 H         1 LEU         0.1883
    143 H         144.7179  144.1131    1.2241 H         1 LEU         0.0800
    144 H         145.2453  142.6839    3.0913 H         1 LEU         0.0315
    145 H         146.7747  142.1580    2.3096 H         1 LEU         0.0315
    146 H         145.4190  141.0249    0.5529 H         1 LEU         0.0298
    147 H         144.7772  139.1339    2.0468 H         1 LEU         0.0232
    148 H         144.9133  140.2206    3.4706 H         1 LEU         0.0232
    149 H         146.3716  139.8269    2.4985 H         1 LEU         0.0232
    150 H         143.3725  142.3888    0.7744 H         1 LEU         0.0232
    151 H         143.1025  141.7203    2.4197 H         1 LEU         0.0232
    152 H         143.0231  140.6397    0.9869 H         1 LEU         0.0232
    153 H         147.9475  144.7861    0.5370 H         1 ARG         0.1883
    154 H         149.5886  146.0588    1.5373 H         1 ARG         0.0800
    155 H         148.8239  148.2630    2.2636 H         1 ARG         0.0313
    156 H         147.1432  147.6496    2.4241 H         1 ARG         0.0313
    157 H         147.2277  147.1103   -0.0575 H         1 ARG         0.0301
    158 H         148.7731  148.0240   -0.1181 H         1 ARG         0.0301
    159 H         147.6528  150.0254    0.7087 H         1 ARG         0.0689
    160 H         146.1085  149.1209    0.8628 H         1 ARG         0.0689
    161 H         147.3957  149.2597   -1.8287 H         1 ARG         0.2642
    162 H         143.8412  150.9596   -0.8222 H         1 ARG         0.2615
    163 H         144.8926  150.2809    0.4493 H         1 ARG         0.2615
    164 H         146.0443  150.1290   -3.4577 H         1 ARG         0.2615
    165 H         144.4832  150.8675   -3.0104 H         1 ARG         0.2615
    166 H         149.4063  143.9624    3.2355 H         1 GLN         0.1883
    167 H         148.4635  144.6604    5.8427 H         1 GLN         0.0801
    168 H         149.7617  142.7030    6.6421 H         1 GLN         0.0337
    169 H         150.4767  142.5460    5.0016 H         1 GLN         0.0337
    170 H         147.5520  142.6587    4.9614 H         1 GLN         0.0504
    171 H         148.1891  141.2991    5.9475 H         1 GLN         0.0504
    172 H         148.7186  139.3313    3.1653 H         1 GLN         0.1814
    173 H         148.2256  139.4998    4.8171 H         1 GLN         0.1814
    174 H         151.5977  145.0663    4.2796 H         1 SEP         0.1884
    175 H         153.2310  145.5885    6.5354 H         1 SEP         0.0827
    176 H         154.4508  147.1613    4.9246 H         1 SEP         0.0662
    177 H         153.1648  146.7976    3.7244 H         1 SEP         0.0662
    178 H         151.0361  147.5859    4.6123 H         1 PHE         0.1885
    179 H         151.8367  150.0464    5.8270 H         1 PHE         0.0823
    180 H         149.2850  149.3459    4.3287 H         1 PHE         0.0474
    181 H         150.8319  149.8804    3.5882 H         1 PHE         0.0474
    182 H         151.7730  152.1176    4.5228 H         1 PHE         0.0557
    183 H         147.6891  150.9281    4.8089 H         1 PHE         0.0557
    184 H         151.1107  154.4721    4.7902 H         1 PHE         0.0599
    185 H         147.0241  153.2690    5.0909 H         1 PHE         0.0599
    186 H         148.7346  155.0487    5.0801 H         1 PHE         0.0559
    187 H         148.9488  147.9236    6.3593 H         1 ARG         0.1883
    188 H         147.8761  149.6024    8.4150 H         1 ARG         0.0800
    189 H         146.2345  148.1013    8.4372 H         1 ARG         0.0313
    190 H         147.3573  146.8321    9.0333 H         1 ARG         0.0313
    191 H         148.0059  146.4048    6.6545 H         1 ARG         0.0301
    192 H         146.6997  147.5339    6.1589 H         1 ARG         0.0301
    193 H         145.9677  145.3664    8.1064 H         1 ARG         0.0689
    194 H         146.3232  144.8625    6.4192 H         1 ARG         0.0689
    195 H         144.4087  146.0014    5.6634 H         1 ARG         0.2642
    196 H         143.3956  147.3099    9.3783 H         1 ARG         0.2615
    197 H         145.0076  146.5948    9.1086 H         1 ARG         0.2615
    198 H         142.3666  146.9118    6.0136 H         1 ARG         0.2615
    199 H         141.9128  147.4874    7.6401 H         1 ARG         0.2615
    200 H         150.3642  147.1261    8.3094 H         1 ARG         0.1883
    201 H         150.4003  146.7128   11.1613 H         1 ARG         0.0800
    202 H         152.9075  146.1524    9.6731 H         1 ARG         0.0313
    203 H         151.4396  145.3463    9.0233 H         1 ARG         0.0313
    204 H         150.9107  144.7219   11.4213 H         1 ARG         0.0301
    205 H         152.5860  145.2398   11.8112 H         1 ARG         0.0301
    206 H         153.4272  143.6453   10.1287 H         1 ARG         0.0689
    207 H         151.7420  143.0836    9.8619 H         1 ARG         0.0689
    208 H         153.4858  142.4612   12.1324 H         1 ARG         0.2642
    209 H         149.4683  141.8198   12.3361 H         1 ARG         0.2615
    210 H         150.1251  142.8792   11.0597 H         1 ARG         0.2615
    211 H         152.6582  141.1197   13.7479 H         1 ARG         0.2615
    212 H         150.9025  140.8216   13.8534 H         1 ARG         0.2615
    213 H         151.7667  149.0685    9.0302 H         1 MET         0.1883
    214 H         154.1559  149.6633   10.3915 H         1 MET         0.0800
    215 H         152.3742  151.6375    8.9070 H         1 MET         0.0320
    216 H         153.4753  150.4607    8.1137 H         1 MET         0.0320
    217 H         155.4159  151.5166    9.0826 H         1 MET         0.0378
    218 H         154.3924  152.5721   10.1146 H         1 MET         0.0378
    219 H         152.6913  154.9232    7.4717 H         1 MET         0.0340
    220 H         152.9270  154.5783    9.2187 H         1 MET         0.0340
    221 H         152.0234  153.4173    8.1879 H         1 MET         0.0340
    222 H         154.7414  150.8946   12.0765 H         1 ARG         0.1876
    223 H         152.7711  151.4585   14.1179 H         1 ARG         0.0748
    224 O1        152.3895  153.9369   13.9295 O.co2     1 ARG        -0.4120
    225 H         154.7010  152.3008   15.4411 H         1 ARG         0.0271
    226 H         155.7481  152.1810   13.9866 H         1 ARG         0.0271
    227 H         155.0490  150.6952   14.7148 H         1 ARG         0.0271
@<TRIPOS>BOND
     1    1    2 1  
     2    2    3 1  
     3    2    5 1  
     4    3    4 2  
     5    3   10 am 
     6    5    6 1  
     7    6    7 1  
     8    7    8 1  
     9    8    9 1  
    10   10   11 1  
    11   11   12 1  
    12   11   14 1  
    13   12   13 2  
    14   12   19 am 
    15   14   15 1  
    16   15   16 1  
    17   16   17 1  
    18   17   18 1  
    19   19   20 1  
    20   20   21 1  
    21   20   23 1  
    22   21   22 2  
    23   21   25 am 
    24   23   24 1  
    25   25   26 1  
    26   26   27 1  
    27   26   29 1  
    28   27   28 2  
    29   27   33 am 
    30   29   30 1  
    31   30   31 1  
    32   30   32 1  
    33   33   34 1  
    34   34   35 1  
    35   34   37 1  
    36   35   36 2  
    37   35   44 am 
    38   37   38 1  
    39   38   39 1  
    40   39   40 1  
    41   40   41 ar 
    42   41   42 ar 
    43   41   43 ar 
    44   44   45 1  
    45   45   46 1  
    46   45   48 1  
    47   46   47 2  
    48   46   53 am 
    49   48   49 1  
    50   49   50 1  
    51   50   51 2  
    52   50   52 am 
    53   53   54 1  
    54   54   55 1  
    55   54   57 1  
    56   55   56 1  
    57   56   59 1  
    58   57   58 2  
    59   57   63 am 
    60   59   60 ar 
    61   59   61 ar 
    62   59   62 ar 
    63   63   64 1  
    64   64   65 1  
    65   64   67 1  
    66   65   66 2  
    67   65   74 am 
    68   67   68 1  
    69   68   69 ar 
    70   68   70 ar 
    71   69   71 ar 
    72   70   72 ar 
    73   71   73 ar 
    74   72   73 ar 
    75   74   75 1  
    76   75   76 1  
    77   75   78 1  
    78   76   77 2  
    79   76   85 am 
    80   78   79 1  
    81   79   80 1  
    82   80   81 1  
    83   81   82 ar 
    84   82   83 ar 
    85   82   84 ar 
    86   85   86 1  
    87   86   87 1  
    88   86   89 1  
    89   87   88 2  
    90   87   96 am 
    91   89   90 1  
    92   90   91 1  
    93   91   92 1  
    94   92   93 ar 
    95   93   94 ar 
    96   93   95 ar 
    97   96   97 1  
    98   97   98 1  
    99   97  100 1  
   100   98   99 2  
   101   98  104 am 
   102  100  101 1  
   103  101  102 1  
   104  102  103 1  
   105  104  105 1  
   106  105  106 1  
   107  105  108 1  
   108  106  107 ar 
   109    1  109 1  
   110    1  110 1  
   111    1  111 1  
   112    2  112 1  
   113    5  113 1  
   114    5  114 1  
   115    6  115 1  
   116    6  116 1  
   117    7  117 1  
   118    7  118 1  
   119    8  119 1  
   120    8  120 1  
   121    9  121 1  
   122    9  122 1  
   123    9  123 1  
   124   10  124 1  
   125   11  125 1  
   126   14  126 1  
   127   14  127 1  
   128   15  128 1  
   129   15  129 1  
   130   16  130 1  
   131   16  131 1  
   132   17  132 1  
   133   17  133 1  
   134   18  134 1  
   135   18  135 1  
   136   18  136 1  
   137   19  137 1  
   138   20  138 1  
   139   23  139 1  
   140   23  140 1  
   141   24  141 1  
   142   25  142 1  
   143   26  143 1  
   144   29  144 1  
   145   29  145 1  
   146   30  146 1  
   147   31  147 1  
   148   31  148 1  
   149   31  149 1  
   150   32  150 1  
   151   32  151 1  
   152   32  152 1  
   153   33  153 1  
   154   34  154 1  
   155   37  155 1  
   156   37  156 1  
   157   38  157 1  
   158   38  158 1  
   159   39  159 1  
   160   39  160 1  
   161   40  161 1  
   162   42  162 1  
   163   42  163 1  
   164   43  164 1  
   165   43  165 1  
   166   44  166 1  
   167   45  167 1  
   168   48  168 1  
   169   48  169 1  
   170   49  170 1  
   171   49  171 1  
   172   52  172 1  
   173   52  173 1  
   174   53  174 1  
   175   54  175 1  
   176   55  176 1  
   177   55  177 1  
   178   63  178 1  
   179   64  179 1  
   180   67  180 1  
   181   67  181 1  
   182   69  182 1  
   183   70  183 1  
   184   71  184 1  
   185   72  185 1  
   186   73  186 1  
   187   74  187 1  
   188   75  188 1  
   189   78  189 1  
   190   78  190 1  
   191   79  191 1  
   192   79  192 1  
   193   80  193 1  
   194   80  194 1  
   195   81  195 1  
   196   83  196 1  
   197   83  197 1  
   198   84  198 1  
   199   84  199 1  
   200   85  200 1  
   201   86  201 1  
   202   89  202 1  
   203   89  203 1  
   204   90  204 1  
   205   90  205 1  
   206   91  206 1  
   207   91  207 1  
   208   92  208 1  
   209   94  209 1  
   210   94  210 1  
   211   95  211 1  
   212   95  212 1  
   213   96  213 1  
   214   97  214 1  
   215  100  215 1  
   216  100  216 1  
   217  101  217 1  
   218  101  218 1  
   219  103  219 1  
   220  103  220 1  
   221  103  221 1  
   222  104  222 1  
   223  105  223 1  
   224  106  224 ar 
   225  108  225 1  
   226  108  226 1  
   227  108  227 1  
@<TRIPOS>SUBSTRUCTURE
     1 LYS         1

