4oba_ligand
  -I-interpret- 

 68 71  0  0  0  0  0  0  0  0999 V2000
   15.8350    2.9330  -37.6230 C   0  0  0  0  0
   16.7780    3.9400  -37.8260 C   0  0  0  0  0
   16.3980    5.2620  -38.8670 Cl  0  0  0  0  0
   18.0210    3.8820  -37.2020 C   0  0  0  0  0
   18.3250    2.8140  -36.3590 C   0  0  0  0  0
   17.3800    1.8070  -36.1510 C   0  0  0  0  0
   16.1330    1.8630  -36.7810 C   0  0  0  0  0
   15.0930    0.7530  -36.5510 C   0  0  0  0  0
   15.7240   -0.5360  -36.6160 O   0  0  0  0  0
   14.7780   -1.6420  -36.6090 C   0  0  0  0  0
   14.1710   -1.8300  -38.0170 C   0  0  0  0  0
   15.2300   -2.2980  -39.0260 C   0  0  0  0  0
   15.4340   -1.5790  -40.0310 O   0  0  0  0  0
   15.8230   -3.3650  -38.7740 O   0  0  0  0  0
   13.7120   -1.4680  -35.5020 C   0  0  0  0  0
   13.0090   -2.4360  -35.2090 O   0  0  0  0  0
   13.5390   -0.2210  -34.8350 N   0  0  0  0  0
   12.5590   -0.0820  -33.7190 C   0  0  0  0  0
   11.1210   -0.3570  -34.1820 C   0  0  0  0  0
   10.2540    0.8780  -34.4020 C   0  0  0  0  0
   10.0510    0.0130  -33.1640 C   0  0  0  0  0
   12.9350   -0.9770  -32.5250 C   0  0  0  0  0
   14.6770   -0.7710  -32.0070 S   0  0  0  0  0
   15.5430   -1.5320  -32.9710 O   0  0  0  0  0
   15.0450    0.6860  -31.9820 O   0  0  0  0  0
   14.9610   -1.4390  -30.3300 C   0  0  0  0  0
   14.4690   -2.8850  -30.2690 C   0  0  0  0  0
   16.4600   -1.3610  -30.0170 C   0  0  0  0  0
   14.2070   -0.5700  -29.3290 C   0  0  0  0  0
   14.4360    0.9170  -35.1660 C   0  0  0  0  0
   13.7200    2.2730  -35.0960 C   0  0  0  0  0
   14.1600    3.2120  -34.1660 C   0  0  0  0  0
   13.5360    4.4530  -34.0880 C   0  0  0  0  0
   12.4790    4.7350  -34.9480 C   0  0  0  0  0
   11.6990    6.2630  -34.8450 Cl  0  0  0  0  0
   12.0330    3.8030  -35.8800 C   0  0  0  0  0
   12.6640    2.5670  -35.9640 C   0  0  0  0  0
   14.8670    2.9825  -38.1217 H   0  0  0  0  0
   18.7549    4.6697  -37.3721 H   0  0  0  0  0
   19.2953    2.7652  -35.8648 H   0  0  0  0  0
   17.6163    0.9711  -35.4926 H   0  0  0  0  0
   14.3322    0.8295  -37.3278 H   0  0  0  0  0
   15.3078   -2.5623  -36.3632 H   0  0  0  0  0
   13.7723   -0.8727  -38.3527 H   0  0  0  0  0
   13.3897   -2.5878  -37.9587 H   0  0  0  0  0
   14.8549   -0.8140  -39.9986 H   0  0  0  0  0
   12.6017    0.9552  -33.3865 H   0  0  0  0  0
   11.3610   -1.2402  -34.7740 H   0  0  0  0  0
    9.6543    1.3261  -35.1943 H   0  0  0  0  0
   10.3791    1.9314  -34.6525 H   0  0  0  0  0
    9.9586    0.1394  -32.0853 H   0  0  0  0  0
    9.2322   -0.4673  -32.6284 H   0  0  0  0  0
   12.7973   -2.0147  -32.8289 H   0  0  0  0  0
   12.3009   -0.6960  -31.6841 H   0  0  0  0  0
   13.4037   -2.9149  -30.4977 H   0  0  0  0  0
   15.0152   -3.4843  -30.9974 H   0  0  0  0  0
   14.6385   -3.2832  -29.2686 H   0  0  0  0  0
   17.0138   -1.9489  -30.7490 H   0  0  0  0  0
   16.7857   -0.3218  -30.0623 H   0  0  0  0  0
   16.6424   -1.7571  -29.0180 H   0  0  0  0  0
   14.5750    0.4542  -29.3894 H   0  0  0  0  0
   13.1425   -0.5893  -29.5625 H   0  0  0  0  0
   14.3665   -0.9560  -28.3222 H   0  0  0  0  0
   15.2149    0.9033  -34.4036 H   0  0  0  0  0
   14.9908    2.9752  -33.5013 H   0  0  0  0  0
   13.8707    5.1947  -33.3627 H   0  0  0  0  0
   11.1969    4.0397  -36.5380 H   0  0  0  0  0
   12.3380    1.8329  -36.7008 H   0  0  0  0  0
  1  2  4  0  0  0
  1  7  4  0  0  0
  2  3  1  0  0  0
  2  4  4  0  0  0
  4  5  4  0  0  0
  5  6  4  0  0  0
  6  7  4  0  0  0
  7  8  1  0  0  0
  8  9  1  0  0  0
  8 30  1  0  0  0
  9 10  1  0  0  0
 10 11  1  0  0  0
 10 15  1  0  0  0
 11 12  1  0  0  0
 12 13  1  0  0  0
 12 14  2  0  0  0
 15 16  2  0  0  0
 15 17  1  0  0  0
 17 18  1  0  0  0
 17 30  1  0  0  0
 18 19  1  0  0  0
 18 22  1  0  0  0
 19 20  1  0  0  0
 19 21  1  0  0  0
 20 21  1  0  0  0
 22 23  1  0  0  0
 23 24  2  0  0  0
 23 25  2  0  0  0
 23 26  1  0  0  0
 26 27  1  0  0  0
 26 28  1  0  0  0
 26 29  1  0  0  0
 30 31  1  0  0  0
 31 32  4  0  0  0
 31 37  4  0  0  0
 32 33  4  0  0  0
 33 34  4  0  0  0
 34 35  1  0  0  0
 34 36  4  0  0  0
 36 37  4  0  0  0
  1 38  1  0  0  0
  4 39  1  0  0  0
  5 40  1  0  0  0
  6 41  1  0  0  0
  8 42  1  0  0  0
 10 43  1  0  0  0
 11 44  1  0  0  0
 11 45  1  0  0  0
 13 46  1  0  0  0
 18 47  1  0  0  0
 19 48  1  0  0  0
 20 49  1  0  0  0
 20 50  1  0  0  0
 21 51  1  0  0  0
 21 52  1  0  0  0
 22 53  1  0  0  0
 22 54  1  0  0  0
 27 55  1  0  0  0
 27 56  1  0  0  0
 27 57  1  0  0  0
 28 58  1  0  0  0
 28 59  1  0  0  0
 28 60  1  0  0  0
 29 61  1  0  0  0
 29 62  1  0  0  0
 29 63  1  0  0  0
 30 64  1  0  0  0
 32 65  1  0  0  0
 33 66  1  0  0  0
 36 67  1  0  0  0
 37 68  1  0  0  0
M  END
$$$$
