2pze_ligand
  -I-interpret- 

 47 49  0  0  0  0  0  0  0  0999 V2000
    4.7290   11.3860   66.7250 P   0  0  0  0  0
    3.2550   11.4140   67.0610 O   0  0  0  0  0
    5.3970   10.1560   67.1990 O   0  0  0  0  0
    5.0000   11.6920   65.2620 O   0  0  0  0  0
    5.7660   12.9540   68.9870 P   0  0  0  0  0
    4.7310   13.8440   69.5970 O   0  0  0  0  0
    6.1270   11.6330   69.5850 O   0  0  0  0  0
    5.3470   12.6900   67.4350 O   0  0  0  0  0
    8.6120   13.6340   69.3320 P   0  0  0  0  0
    9.2110   12.3750   68.8440 O   0  0  0  0  0
    8.5480   13.9380   70.7850 O   0  0  0  0  0
    7.1030   13.8360   68.7990 O   0  0  0  0  0
    9.3810   14.8780   68.6200 O   0  0  0  0  0
    9.1610   16.2370   68.9420 C   0  0  0  0  0
   10.1960   16.9780   68.0950 C   0  0  0  0  0
   11.5010   16.7330   68.6310 O   0  0  0  0  0
   10.2470   16.4930   66.6450 C   0  0  0  0  0
   10.3130   17.6380   65.7830 O   0  0  0  0  0
   11.5030   15.6530   66.5110 C   0  0  0  0  0
   12.1900   15.8570   65.2720 O   0  0  0  0  0
   12.3700   16.1240   67.6600 C   0  0  0  0  0
   13.1160   15.0060   68.2850 N   0  0  0  0  0
   12.5860   13.8880   68.7990 C   0  0  0  0  0
   13.5500   13.0870   69.3210 N   0  0  0  0  0
   14.7280   13.7160   69.1560 C   0  0  0  0  0
   16.1490   13.4280   69.4680 C   0  0  0  0  0
   16.4950   12.2800   70.0910 N   0  0  0  0  0
   17.0760   14.3570   69.1010 N   0  0  0  0  0
   16.7420   15.5020   68.4690 C   0  0  0  0  0
   15.4690   15.8190   68.1520 N   0  0  0  0  0
   14.4410   14.9820   68.4660 C   0  0  0  0  0
    2.8687   12.2295   66.7333 H   0  0  0  0  0
    4.5415   12.4983   65.0146 H   0  0  0  0  0
    4.6442   14.6409   69.0687 H   0  0  0  0  0
    8.1294   14.7922   70.9139 H   0  0  0  0  0
    9.2735   16.4369   70.0076 H   0  0  0  0  0
    8.1410   16.5566   68.7285 H   0  0  0  0  0
    9.9068   18.0287   68.1161 H   0  0  0  0  0
    9.3688   15.9066   66.3748 H   0  0  0  0  0
   10.3455   17.3473   64.8686 H   0  0  0  0  0
   11.2660   14.5893   66.5307 H   0  0  0  0  0
   12.9723   15.3012   65.2459 H   0  0  0  0  0
   13.1115   16.8309   67.2877 H   0  0  0  0  0
   11.5217   13.6526   68.7982 H   0  0  0  0  0
   15.7766   11.6039   70.3503 H   0  0  0  0  0
   17.4746   12.0895   70.3020 H   0  0  0  0  0
   17.5349   16.2010   68.2031 H   0  0  0  0  0
  1  2  1  0  0  0
  1  3  2  0  0  0
  1  4  1  0  0  0
  8  1  1  0  0  0
  5  6  1  0  0  0
  5  7  2  0  0  0
  5  8  1  0  0  0
 12  5  1  0  0  0
  9 10  2  0  0  0
  9 11  1  0  0  0
  9 12  1  0  0  0
  9 13  1  0  0  0
 13 14  1  0  0  0
 14 15  1  0  0  0
 15 16  1  0  0  0
 15 17  1  0  0  0
 16 21  1  0  0  0
 17 18  1  0  0  0
 17 19  1  0  0  0
 19 20  1  0  0  0
 19 21  1  0  0  0
 21 22  1  0  0  0
 22 23  4  0  0  0
 22 31  4  0  0  0
 23 24  4  0  0  0
 24 25  4  0  0  0
 25 26  4  0  0  0
 25 31  4  0  0  0
 26 27  1  0  0  0
 26 28  4  0  0  0
 28 29  4  0  0  0
 29 30  4  0  0  0
 30 31  4  0  0  0
  2 32  1  0  0  0
  4 33  1  0  0  0
  6 34  1  0  0  0
 11 35  1  0  0  0
 14 36  1  0  0  0
 14 37  1  0  0  0
 15 38  1  0  0  0
 17 39  1  0  0  0
 18 40  1  0  0  0
 19 41  1  0  0  0
 20 42  1  0  0  0
 21 43  1  0  0  0
 23 44  1  0  0  0
 27 45  1  0  0  0
 27 46  1  0  0  0
 29 47  1  0  0  0
M  END
$$$$
