### 
### Created by X-TOOL on Mon Sep 10 21:12:56 2018
### 

@<TRIPOS>MOLECULE
2pze_ligand
   43    45     1     0     0
SMALL
GAST_HUCK


@<TRIPOS>ATOM
      1 PG          4.7290   11.3860   66.7250 P.3       1 ATP         0.1879
      2 O1G         3.2550   11.4140   67.0610 O.co2     1 ATP        -0.6091
      3 O2G         5.3970   10.1560   67.1990 O.co2     1 ATP        -0.6091
      4 O3G         5.0000   11.6920   65.2620 O.co2     1 ATP        -0.6091
      5 PB          5.7660   12.9540   68.9870 P.3       1 ATP         0.3553
      6 O1B         4.7310   13.8440   69.5970 O.co2     1 ATP        -0.5652
      7 O2B         6.1270   11.6330   69.5850 O.co2     1 ATP        -0.5652
      8 O3B         5.3470   12.6900   67.4350 O.3       1 ATP        -0.1546
      9 PA          8.6120   13.6340   69.3320 P.3       1 ATP         0.3266
     10 O1A         9.2110   12.3750   68.8440 O.co2     1 ATP        -0.5692
     11 O2A         8.5480   13.9380   70.7850 O.co2     1 ATP        -0.5692
     12 O3A         7.1030   13.8360   68.7990 O.3       1 ATP        -0.1171
     13 O5'         9.3810   14.8780   68.6200 O.3       1 ATP        -0.2441
     14 C5'         9.1610   16.2370   68.9420 C.3       1 ATP         0.1131
     15 C4'        10.1960   16.9780   68.0950 C.3       1 ATP         0.1189
     16 O4'        11.5010   16.7330   68.6310 O.3       1 ATP        -0.3364
     17 C3'        10.2470   16.4930   66.6450 C.3       1 ATP         0.1149
     18 O3'        10.3130   17.6380   65.7830 O.3       1 ATP        -0.3864
     19 C2'        11.5030   15.6530   66.5110 C.3       1 ATP         0.1385
     20 O2'        12.1900   15.8570   65.2720 O.3       1 ATP        -0.3836
     21 C1'        12.3700   16.1240   67.6600 C.3       1 ATP         0.2010
     22 N9         13.1160   15.0060   68.2850 N.pl3     1 ATP        -0.1919
     23 C8         12.5860   13.8880   68.7990 C.2       1 ATP         0.1123
     24 N7         13.5500   13.0870   69.3210 N.2       1 ATP        -0.2958
     25 C5         14.7280   13.7160   69.1560 C.ar      1 ATP         0.1045
     26 C6         16.1490   13.4280   69.4680 C.ar      1 ATP         0.1298
     27 N6         16.4950   12.2800   70.0910 N.pl3     1 ATP        -0.3152
     28 N1         17.0760   14.3570   69.1010 N.ar      1 ATP        -0.2698
     29 C2         16.7420   15.5020   68.4690 C.ar      1 ATP         0.0533
     30 N3         15.4690   15.8190   68.1520 N.ar      1 ATP        -0.2714
     31 C4         14.4410   14.9820   68.4660 C.ar      1 ATP         0.1613
     32 H1          9.3277   16.4188   70.0140 H         1 ATP         0.0648
     33 H2          8.1398   16.5444   68.6724 H         1 ATP         0.0648
     34 H3          9.9687   18.0541   68.1155 H         1 ATP         0.0651
     35 H4          9.3578   15.8921   66.4037 H         1 ATP         0.0648
     36 H5         10.3452   17.3503   64.8781 H         1 ATP         0.2100
     37 H6         11.2591   14.5854   66.6142 H         1 ATP         0.0676
     38 H7         12.4456   16.7691   65.1994 H         1 ATP         0.2101
     39 H8         13.0910   16.8676   67.2896 H         1 ATP         0.0996
     40 H9         11.5227   13.6529   68.7982 H         1 ATP         0.1349
     41 H10        17.4842   12.0876   70.3041 H         1 ATP         0.1820
     42 H11        15.7696   11.5973   70.3528 H         1 ATP         0.1820
     43 H12        17.5306   16.1972   68.2045 H         1 ATP         0.0996
@<TRIPOS>BOND
     1    1    2 ar 
     2    1    3 ar 
     3    1    4 ar 
     4    8    1 1  
     5    5    6 ar 
     6    5    7 ar 
     7    5    8 1  
     8   12    5 1  
     9    9   10 ar 
    10    9   11 ar 
    11    9   12 1  
    12    9   13 1  
    13   13   14 1  
    14   14   15 1  
    15   15   16 1  
    16   15   17 1  
    17   16   21 1  
    18   17   18 1  
    19   17   19 1  
    20   19   20 1  
    21   19   21 1  
    22   21   22 1  
    23   22   23 1  
    24   22   31 1  
    25   23   24 2  
    26   24   25 1  
    27   25   26 ar 
    28   25   31 ar 
    29   26   27 1  
    30   26   28 ar 
    31   28   29 ar 
    32   29   30 ar 
    33   30   31 ar 
    34   14   32 1  
    35   14   33 1  
    36   15   34 1  
    37   17   35 1  
    38   18   36 1  
    39   19   37 1  
    40   20   38 1  
    41   21   39 1  
    42   23   40 1  
    43   27   41 1  
    44   27   42 1  
    45   29   43 1  
@<TRIPOS>SUBSTRUCTURE
     1 ATP         1

