### 
### Created by X-TOOL on Mon Aug  2 16:12:51 2021
### 

@<TRIPOS>MOLECULE
6d17_ligand
   26    28     1     0     0
SMALL
GAST_HUCK


@<TRIPOS>ATOM
      1 C05        20.1710   18.1210    9.8000 C.3       1 VKE         0.0580
      2 C06        19.9670   17.9040    8.3280 C.2       1 VKE        -0.0154
      3 C07        19.0470   18.5980    7.6310 C.2       1 VKE         0.0072
      4 C08        18.8720   18.4320    6.2880 C.2       1 VKE         0.2420
      5 C11        20.7130   17.1390    6.2210 C.ar      1 VKE         0.1251
      6 C12        21.6400   16.5120    5.3920 C.ar      1 VKE         0.0031
      7 C13        22.7580   15.9540    5.9720 C.ar      1 VKE         0.1255
      8 C15        24.7390   14.9930    6.4010 C.3       1 VKE         0.1871
      9 C17        22.9560   16.0480    7.3010 C.ar      1 VKE         0.1207
     10 C18        22.0090   16.6680    8.1370 C.ar      1 VKE        -0.0313
     11 C19        20.8840   17.2250    7.5500 C.ar      1 VKE         0.0152
     12 O01        17.6500   17.2840   10.2070 O.co2     1 VKE        -0.5604
     13 O03        19.1360   17.2270   12.0280 O.co2     1 VKE        -0.5604
     14 O04        19.4410   15.6110   10.4600 O.co2     1 VKE        -0.5604
     15 O09        18.0380   18.9180    5.6820 O.2       1 VKE        -0.3893
     16 O10        19.6720   17.6670    5.6430 O.3       1 VKE        -0.2227
     17 O14        23.8370   15.2570    5.3860 O.3       1 VKE        -0.2875
     18 O16        24.1420   15.3780    7.6030 O.3       1 VKE        -0.2948
     19 P02        18.9950   17.0180   10.7340 P.3       1 VKE         0.0730
     20 H1         19.9700   19.1730   10.0506 H         1 VKE         0.0654
     21 H2         21.2074   17.8711   10.0711 H         1 VKE         0.0654
     22 H3         18.4209   19.3167    8.1576 H         1 VKE         0.0408
     23 H4         21.4860   16.4644    4.3200 H         1 VKE         0.0468
     24 H5         25.6638   15.5665    6.2403 H         1 VKE         0.0974
     25 H6         24.9734   13.9185    6.4253 H         1 VKE         0.0974
     26 H7         22.1554   16.7088    9.2103 H         1 VKE         0.0519
@<TRIPOS>BOND
     1    2    1 1  
     2    1   19 1  
     3    2    3 2  
     4   11    2 1  
     5    3    4 1  
     6    4   15 2  
     7    4   16 1  
     8    5    6 ar 
     9    5   11 ar 
    10    5   16 1  
    11    6    7 ar 
    12    7    9 ar 
    13    7   17 1  
    14   17    8 1  
    15    8   18 1  
    16    9   10 ar 
    17    9   18 1  
    18   10   11 ar 
    19   19   12 ar 
    20   19   13 ar 
    21   19   14 ar 
    22    1   20 1  
    23    1   21 1  
    24    3   22 1  
    25    6   23 1  
    26    8   24 1  
    27    8   25 1  
    28   10   26 1  
@<TRIPOS>SUBSTRUCTURE
     1 VKE         1

