6d17_ligand
  -I-interpret- 

 28 30  0  0  0  0  0  0  0  0999 V2000
   20.1710   18.1210    9.8000 C   0  0  0  0  0
   19.9670   17.9040    8.3280 C   0  0  0  0  0
   19.0470   18.5980    7.6310 C   0  0  0  0  0
   18.8720   18.4320    6.2880 C   0  0  0  0  0
   20.7130   17.1390    6.2210 C   0  0  0  0  0
   21.6400   16.5120    5.3920 C   0  0  0  0  0
   22.7580   15.9540    5.9720 C   0  0  0  0  0
   24.7390   14.9930    6.4010 C   0  0  0  0  0
   22.9560   16.0480    7.3010 C   0  0  0  0  0
   22.0090   16.6680    8.1370 C   0  0  0  0  0
   20.8840   17.2250    7.5500 C   0  0  0  0  0
   17.6500   17.2840   10.2070 O   0  0  0  0  0
   19.1360   17.2270   12.0280 O   0  0  0  0  0
   19.4410   15.6110   10.4600 O   0  0  0  0  0
   18.0380   18.9180    5.6820 O   0  0  0  0  0
   19.6720   17.6670    5.6430 O   0  0  0  0  0
   23.8370   15.2570    5.3860 O   0  0  0  0  0
   24.1420   15.3780    7.6030 O   0  0  0  0  0
   18.9950   17.0180   10.7340 P   0  0  0  0  0
   19.9790   19.1642   10.0509 H   0  0  0  0  0
   21.1990   17.8805   10.0711 H   0  0  0  0  0
   18.4203   19.3174    8.1581 H   0  0  0  0  0
   21.4852   16.4641    4.3141 H   0  0  0  0  0
   25.6652   15.5450    6.2412 H   0  0  0  0  0
   24.9896   13.9324    6.4222 H   0  0  0  0  0
   22.1562   16.7090    9.2162 H   0  0  0  0  0
   17.6365   17.1073    9.2635 H   0  0  0  0  0
   19.3510   15.4248    9.5225 H   0  0  0  0  0
  2  1  1  0  0  0
  1 19  1  0  0  0
  2  3  2  0  0  0
 11  2  1  0  0  0
  3  4  1  0  0  0
  4 15  2  0  0  0
  4 16  1  0  0  0
  5  6  4  0  0  0
  5 11  4  0  0  0
  5 16  1  0  0  0
  6  7  4  0  0  0
  7  9  4  0  0  0
  7 17  1  0  0  0
 17  8  1  0  0  0
  8 18  1  0  0  0
  9 10  4  0  0  0
  9 18  1  0  0  0
 10 11  4  0  0  0
 19 12  1  0  0  0
 19 13  2  0  0  0
 19 14  1  0  0  0
  1 20  1  0  0  0
  1 21  1  0  0  0
  3 22  1  0  0  0
  6 23  1  0  0  0
  8 24  1  0  0  0
  8 25  1  0  0  0
 10 26  1  0  0  0
 12 27  1  0  0  0
 14 28  1  0  0  0
M  END
$$$$
