5klz_ligand
  -I-interpret- 

 37 39  0  0  0  0  0  0  0  0999 V2000
   40.3600   31.5260   49.8570 P   0  0  0  0  0
   41.2670   31.5210   48.6470 O   0  0  0  0  0
   40.2160   32.8790   50.5090 O   0  0  0  0  0
   39.0570   30.7980   49.6640 O   0  0  0  0  0
   41.1420   30.6470   50.9330 O   0  0  0  0  0
   40.5490   30.3230   52.1900 C   0  0  0  0  0
   41.2310   31.0310   53.3370 C   0  0  0  0  0
   40.6830   30.5340   54.5880 O   0  0  0  0  0
   42.7490   30.8370   53.4140 C   0  0  0  0  0
   43.3840   32.0850   53.7110 O   0  0  0  0  0
   42.9210   29.8490   54.5730 C   0  0  0  0  0
   44.1480   29.9430   55.2640 O   0  0  0  0  0
   41.7300   30.1910   55.4650 C   0  0  0  0  0
   41.2740   29.0810   56.3080 N   0  0  0  0  0
   40.9600   27.8420   55.8840 C   0  0  0  0  0
   40.5830   27.0550   56.9250 N   0  0  0  0  0
   40.6590   27.7990   58.0480 C   0  0  0  0  0
   40.3990   27.5980   59.4930 C   0  0  0  0  0
   39.9830   26.3960   59.9540 N   0  0  0  0  0
   40.6020   28.6440   60.3250 N   0  0  0  0  0
   41.0210   29.8430   59.8680 C   0  0  0  0  0
   41.2750   30.0970   58.5680 N   0  0  0  0  0
   41.1100   29.1350   57.6310 C   0  0  0  0  0
   42.0722   32.0027   48.8500 H   0  0  0  0  0
   41.0821   33.2830   50.5998 H   0  0  0  0  0
   40.6469   29.2487   52.3461 H   0  0  0  0  0
   39.5061   30.6390   52.1663 H   0  0  0  0  0
   41.0475   32.0916   53.1653 H   0  0  0  0  0
   43.1912   30.4771   52.4850 H   0  0  0  0  0
   44.3342   31.9562   53.7577 H   0  0  0  0  0
   42.9463   28.8172   54.2226 H   0  0  0  0  0
   44.1680   29.2911   55.9685 H   0  0  0  0  0
   42.0263   30.9873   56.1478 H   0  0  0  0  0
   41.0026   27.5147   54.8452 H   0  0  0  0  0
   39.8463   25.6206   59.3056 H   0  0  0  0  0
   39.8061   26.2652   60.9500 H   0  0  0  0  0
   41.1616   30.6491   60.5881 H   0  0  0  0  0
  1  2  1  0  0  0
  1  3  1  0  0  0
  1  4  2  0  0  0
  1  5  1  0  0  0
  5  6  1  0  0  0
  6  7  1  0  0  0
  7  8  1  0  0  0
  7  9  1  0  0  0
  8 13  1  0  0  0
  9 10  1  0  0  0
  9 11  1  0  0  0
 11 12  1  0  0  0
 11 13  1  0  0  0
 13 14  1  0  0  0
 14 15  4  0  0  0
 14 23  4  0  0  0
 15 16  4  0  0  0
 16 17  4  0  0  0
 17 18  4  0  0  0
 17 23  4  0  0  0
 18 19  1  0  0  0
 18 20  4  0  0  0
 20 21  4  0  0  0
 21 22  4  0  0  0
 22 23  4  0  0  0
  2 24  1  0  0  0
  3 25  1  0  0  0
  6 26  1  0  0  0
  6 27  1  0  0  0
  7 28  1  0  0  0
  9 29  1  0  0  0
 10 30  1  0  0  0
 11 31  1  0  0  0
 12 32  1  0  0  0
 13 33  1  0  0  0
 15 34  1  0  0  0
 19 35  1  0  0  0
 19 36  1  0  0  0
 21 37  1  0  0  0
M  END
$$$$
