### 
### Created by X-TOOL on Mon Sep 10 21:13:31 2018
### 

@<TRIPOS>MOLECULE
5klz_ligand
   35    37     1     0     0
SMALL
GAST_HUCK


@<TRIPOS>ATOM
      1 P          40.3600   31.5260   49.8570 P.3       1 AMP         0.2008
      2 O1P        41.2670   31.5210   48.6470 O.co2     1 AMP        -0.5537
      3 O2P        40.2160   32.8790   50.5090 O.co2     1 AMP        -0.5537
      4 O3P        39.0570   30.7980   49.6640 O.co2     1 AMP        -0.5537
      5 O5'        41.1420   30.6470   50.9330 O.3       1 AMP        -0.2734
      6 C5'        40.5490   30.3230   52.1900 C.3       1 AMP         0.1072
      7 C4'        41.2310   31.0310   53.3370 C.3       1 AMP         0.1182
      8 O4'        40.6830   30.5340   54.5880 O.3       1 AMP        -0.3365
      9 C3'        42.7490   30.8370   53.4140 C.3       1 AMP         0.1149
     10 O3'        43.3840   32.0850   53.7110 O.3       1 AMP        -0.3864
     11 C2'        42.9210   29.8490   54.5730 C.3       1 AMP         0.1385
     12 O2'        44.1480   29.9430   55.2640 O.3       1 AMP        -0.3836
     13 C1'        41.7300   30.1910   55.4650 C.3       1 AMP         0.2010
     14 N9         41.2740   29.0810   56.3080 N.pl3     1 AMP        -0.1919
     15 C8         40.9600   27.8420   55.8840 C.2       1 AMP         0.1123
     16 N7         40.5830   27.0550   56.9250 N.2       1 AMP        -0.2958
     17 C5         40.6590   27.7990   58.0480 C.ar      1 AMP         0.1045
     18 C6         40.3990   27.5980   59.4930 C.ar      1 AMP         0.1298
     19 N6         39.9830   26.3960   59.9540 N.pl3     1 AMP        -0.3152
     20 N1         40.6020   28.6440   60.3250 N.ar      1 AMP        -0.2698
     21 C2         41.0210   29.8430   59.8680 C.ar      1 AMP         0.0533
     22 N3         41.2750   30.0970   58.5680 N.ar      1 AMP        -0.2714
     23 C4         41.1100   29.1350   57.6310 C.ar      1 AMP         0.1613
     24 H1         40.6235   29.2370   52.3484 H         1 AMP         0.0639
     25 H2         39.4897   30.6188   52.1697 H         1 AMP         0.0639
     26 H3         41.0232   32.1071   53.2431 H         1 AMP         0.0650
     27 H4         43.1501   30.4252   52.4762 H         1 AMP         0.0648
     28 H5         43.0660   32.4102   54.5450 H         1 AMP         0.2100
     29 H6         42.8292   28.8198   54.1959 H         1 AMP         0.0676
     30 H7         44.2359   30.8135   55.6340 H         1 AMP         0.2101
     31 H8         41.9900   31.0438   56.1093 H         1 AMP         0.0996
     32 H9         41.0026   27.5150   54.8461 H         1 AMP         0.1349
     33 H10        39.8043   26.2639   60.9597 H         1 AMP         0.1820
     34 H11        39.8450   25.6130   59.2992 H         1 AMP         0.1820
     35 H12        41.1608   30.6446   60.5842 H         1 AMP         0.0996
@<TRIPOS>BOND
     1    1    2 ar 
     2    1    3 ar 
     3    1    4 ar 
     4    1    5 1  
     5    5    6 1  
     6    6    7 1  
     7    7    8 1  
     8    7    9 1  
     9    8   13 1  
    10    9   10 1  
    11    9   11 1  
    12   11   12 1  
    13   11   13 1  
    14   13   14 1  
    15   14   15 1  
    16   14   23 1  
    17   15   16 2  
    18   16   17 1  
    19   17   18 ar 
    20   17   23 ar 
    21   18   19 1  
    22   18   20 ar 
    23   20   21 ar 
    24   21   22 ar 
    25   22   23 ar 
    26    6   24 1  
    27    6   25 1  
    28    7   26 1  
    29    9   27 1  
    30   10   28 1  
    31   11   29 1  
    32   12   30 1  
    33   13   31 1  
    34   15   32 1  
    35   19   33 1  
    36   19   34 1  
    37   21   35 1  
@<TRIPOS>SUBSTRUCTURE
     1 AMP         1

