3ocb_ligand
  -I-interpret- 

 51 54  0  0  0  0  0  0  0  0999 V2000
   14.5350   -1.9910   15.8820 C   0  0  0  0  0
    8.4060    4.0740   14.3960 Cl  0  0  0  0  0
   15.6670   -1.2180   15.5290 C   0  0  0  0  0
   15.8660    0.2010   15.5120 C   0  0  0  0  0
   17.1710    0.3050   15.0770 C   0  0  0  0  0
   12.2340   -0.4080   21.2740 N   0  3  0  0  0
   17.7460   -0.9530   14.8400 N   0  0  0  0  0
   16.8180   -1.8940   15.1190 C   0  0  0  0  0
   14.6370   -3.3350   15.8050 N   0  0  0  0  0
   15.8090   -3.8580   15.3910 C   0  0  0  0  0
   16.9380   -3.2240   15.0320 N   0  0  0  0  0
   13.3700   -1.3760   16.3110 N   0  0  0  0  0
   12.2780   -2.2660   16.7660 C   0  0  0  0  0
   10.9200   -1.5910   17.0790 C   0  0  0  0  0
   11.0580   -0.3670   17.8970 N   0  0  0  0  0
   12.0910    0.5690   17.4010 C   0  0  0  0  0
   13.4420   -0.1430   17.1290 C   0  0  0  0  0
   10.4120   -0.2000   19.0820 C   0  0  0  0  0
    9.5460   -0.9950   19.4620 O   0  0  0  0  0
   10.6560    1.0610   19.9540 C   0  0  0  0  0
    9.4130    1.9840   19.9870 C   0  0  0  0  0
   11.2650    0.7110   21.3290 C   0  0  0  0  0
    9.1450    2.5140   18.5910 C   0  0  0  0  0
    8.3180    1.7790   17.7090 C   0  0  0  0  0
    8.0870    2.2690   16.4050 C   0  0  0  0  0
    8.6900    3.4840   15.9950 C   0  0  0  0  0
    9.5240    4.2160   16.8740 C   0  0  0  0  0
    9.7520    3.7220   18.1760 C   0  0  0  0  0
   15.1662    0.9942   15.7751 H   0  0  0  0  0
   17.6931    1.2512   14.9344 H   0  0  0  0  0
   12.5973   -0.5878   22.2100 H   0  0  0  0  0
   11.7667   -1.2439   20.9230 H   0  0  0  0  0
   13.0029   -0.1601   20.6513 H   0  0  0  0  0
   15.8455   -4.9462   15.3406 H   0  0  0  0  0
   12.6188   -2.7064   17.7030 H   0  0  0  0  0
   12.0891   -2.9560   15.9436 H   0  0  0  0  0
   10.3183   -2.3023   17.6447 H   0  0  0  0  0
   10.4641   -1.3068   16.1306 H   0  0  0  0  0
   12.2553    1.3294   18.1645 H   0  0  0  0  0
   11.7384    0.9984   16.4633 H   0  0  0  0  0
   14.0535    0.5630   16.5671 H   0  0  0  0  0
   13.8328   -0.4421   18.1016 H   0  0  0  0  0
   11.4273    1.6652   19.4764 H   0  0  0  0  0
    9.5954    2.8177   20.6651 H   0  0  0  0  0
    8.5482    1.4192   20.3352 H   0  0  0  0  0
   11.7991    1.5915   21.6861 H   0  0  0  0  0
   10.4478    0.4068   21.9830 H   0  0  0  0  0
    7.8633    0.8429   18.0332 H   0  0  0  0  0
    7.4479    1.7153   15.7171 H   0  0  0  0  0
    9.9841    5.1492   16.5493 H   0  0  0  0  0
   10.3963    4.2717   18.8622 H   0  0  0  0  0
  1  3  4  0  0  0
  1  9  4  0  0  0
 12  1  1  0  0  0
 26  2  1  0  0  0
  3  4  4  0  0  0
  3  8  4  0  0  0
  4  5  4  0  0  0
  7  5  4  0  0  0
 22  6  1  0  0  0
  8  7  4  0  0  0
  8 11  4  0  0  0
  9 10  4  0  0  0
 10 11  4  0  0  0
 13 12  1  0  0  0
 17 12  1  0  0  0
 14 13  1  0  0  0
 15 14  1  0  0  0
 15 16  1  0  0  0
 18 15  1  0  0  0
 16 17  1  0  0  0
 18 19  2  0  0  0
 20 18  1  0  0  0
 21 20  1  0  0  0
 20 22  1  0  0  0
 23 21  1  0  0  0
 24 23  4  0  0  0
 23 28  4  0  0  0
 25 24  4  0  0  0
 25 26  4  0  0  0
 26 27  4  0  0  0
 27 28  4  0  0  0
  4 29  1  0  0  0
  5 30  1  0  0  0
  6 31  1  0  0  0
  6 32  1  0  0  0
  6 33  1  0  0  0
 10 34  1  0  0  0
 13 35  1  0  0  0
 13 36  1  0  0  0
 14 37  1  0  0  0
 14 38  1  0  0  0
 16 39  1  0  0  0
 16 40  1  0  0  0
 17 41  1  0  0  0
 17 42  1  0  0  0
 20 43  1  0  0  0
 21 44  1  0  0  0
 21 45  1  0  0  0
 22 46  1  0  0  0
 22 47  1  0  0  0
 24 48  1  0  0  0
 25 49  1  0  0  0
 27 50  1  0  0  0
 28 51  1  0  0  0
M  END
$$$$
