### 
### Created by X-TOOL on Mon Sep 10 21:13:15 2018
### 

@<TRIPOS>MOLECULE
4lil_ligand
   13    12     1     0     0
SMALL
GAST_HUCK


@<TRIPOS>ATOM
      1 PA         13.3920   57.8980    5.8870 P.3       1 UTP         0.2231
      2 O1A        13.7690   57.0840    7.0770 O.co2     1 UTP        -0.5731
      3 O2A        12.4700   57.0810    4.9490 O.co2     1 UTP        -0.5731
      4 O3A        12.6240   59.1770    6.3420 O.3       1 UTP        -0.1463
      5 O5'        14.7040   58.2750    5.1120 O.co2     1 UTP        -0.5731
      6 PB         12.4500   59.6150    7.8540 P.3       1 UTP         0.3646
      7 O1B        13.3380   58.7400    8.7390 O.co2     1 UTP        -0.5400
      8 O2B        12.9060   60.9960    7.9820 O.co2     1 UTP        -0.5400
      9 O3B        10.9250   59.5380    8.3120 O.3       1 UTP        -0.1463
     10 PG         10.0820   58.2540    8.6630 P.3       1 UTP         0.2231
     11 O1G         9.4280   58.3950   10.0640 O.co2     1 UTP        -0.5731
     12 O2G        10.9930   57.0250    8.6500 O.co2     1 UTP        -0.5731
     13 O3G         8.9610   58.0630    7.6690 O.co2     1 UTP        -0.5731
@<TRIPOS>BOND
     1    1    2 ar 
     2    1    3 ar 
     3    1    4 1  
     4    1    5 ar 
     5    4    6 1  
     6    6    7 ar 
     7    6    8 ar 
     8    6    9 1  
     9    9   10 1  
    10   10   11 ar 
    11   10   12 ar 
    12   10   13 ar 
@<TRIPOS>SUBSTRUCTURE
     1 UTP         1

