4lil_ligand
  -I-interpret- 

 18 17  0  0  0  0  0  0  0  0999 V2000
   13.3920   57.8980    5.8870 P   0  0  0  0  0
   13.7690   57.0840    7.0770 O   0  0  0  0  0
   12.4700   57.0810    4.9490 O   0  0  0  0  0
   12.6240   59.1770    6.3420 O   0  0  0  0  0
   14.7040   58.2750    5.1120 O   0  0  0  0  0
   12.4500   59.6150    7.8540 P   0  0  0  0  0
   13.3380   58.7400    8.7390 O   0  0  0  0  0
   12.9060   60.9960    7.9820 O   0  0  0  0  0
   10.9250   59.5380    8.3120 O   0  0  0  0  0
   10.0820   58.2540    8.6630 P   0  0  0  0  0
    9.4280   58.3950   10.0640 O   0  0  0  0  0
   10.9930   57.0250    8.6500 O   0  0  0  0  0
    8.9610   58.0630    7.6690 O   0  0  0  0  0
   12.2349   57.6162    4.1875 H   0  0  0  0  0
   14.4790   58.8006    4.3408 H   0  0  0  0  0
   13.0548   57.8253    8.6697 H   0  0  0  0  0
   10.1133   58.5185   10.7248 H   0  0  0  0  0
   11.7045   57.1488    9.2824 H   0  0  0  0  0
  1  2  2  0  0  0
  1  3  1  0  0  0
  1  4  1  0  0  0
  1  5  1  0  0  0
  4  6  1  0  0  0
  6  7  1  0  0  0
  6  8  2  0  0  0
  6  9  1  0  0  0
  9 10  1  0  0  0
 10 11  1  0  0  0
 10 12  1  0  0  0
 10 13  2  0  0  0
  3 14  1  0  0  0
  5 15  1  0  0  0
  7 16  1  0  0  0
 11 17  1  0  0  0
 12 18  1  0  0  0
M  END
$$$$
