1swr_ligand
  -I-interpret- 

 32 33  0  0  0  0  0  0  0  0999 V2000
    7.4080  -16.0990   24.0450 C   0  0  0  0  0
    7.0070  -14.9830   24.4470 O   0  0  0  0  0
    6.7640  -16.7410   23.1830 O   0  0  0  0  0
    8.6590  -16.6300   24.6440 C   0  0  0  0  0
    9.5830  -15.4990   25.1190 C   0  0  0  0  0
   10.3040  -14.8620   23.9330 C   0  0  0  0  0
   11.1450  -13.6110   24.3200 C   0  0  0  0  0
   11.9520  -12.9880   23.2080 C   0  0  0  0  0
   13.1150  -14.1100   22.3480 S   0  0  0  0  0
   13.7500  -12.7120   21.3850 C   0  0  0  0  0
   13.8110  -11.5200   22.3220 C   0  0  0  0  0
   15.0560  -11.4480   23.0560 N   0  0  0  0  0
   14.8650  -11.5730   24.3750 C   0  0  0  0  0
   15.7480  -11.5180   25.2520 O   0  0  0  0  0
   13.5530  -11.7380   24.6300 N   0  0  0  0  0
   12.7470  -11.7210   23.4340 C   0  0  0  0  0
    7.2160  -17.5673   22.9972 H   0  0  0  0  0
    9.1854  -17.2089   23.8851 H   0  0  0  0  0
    8.3949  -17.2435   25.5054 H   0  0  0  0  0
   10.3242  -15.9117   25.8034 H   0  0  0  0  0
    8.9830  -14.7382   25.6183 H   0  0  0  0  0
    9.5441  -14.5396   23.2212 H   0  0  0  0  0
   10.9895  -15.6060   23.5272 H   0  0  0  0  0
   11.8625  -13.9441   25.0698 H   0  0  0  0  0
   10.4334  -12.8518   24.6446 H   0  0  0  0  0
   11.0719  -12.7232   22.6221 H   0  0  0  0  0
   13.1005  -12.5020   20.5352 H   0  0  0  0  0
   14.7376  -12.9375   20.9826 H   0  0  0  0  0
   13.6732  -10.6344   21.7016 H   0  0  0  0  0
   15.9692  -11.3177   22.6207 H   0  0  0  0  0
   13.1706  -11.8616   25.5675 H   0  0  0  0  0
   11.9773  -10.9502   23.4732 H   0  0  0  0  0
  1  4  1  0  0  0
  1  3  1  0  0  0
  1  2  2  0  0  0
  4  5  1  0  0  0
  5  6  1  0  0  0
  6  7  1  0  0  0
  7  8  1  0  0  0
  8 16  1  0  0  0
  8  9  1  0  0  0
  9 10  1  0  0  0
 10 11  1  0  0  0
 11 16  1  0  0  0
 11 12  1  0  0  0
 12 13  1  0  0  0
 13 15  1  0  0  0
 13 14  2  0  0  0
 15 16  1  0  0  0
  3 17  1  0  0  0
  4 18  1  0  0  0
  4 19  1  0  0  0
  5 20  1  0  0  0
  5 21  1  0  0  0
  6 22  1  0  0  0
  6 23  1  0  0  0
  7 24  1  0  0  0
  7 25  1  0  0  0
  8 26  1  0  0  0
 10 27  1  0  0  0
 10 28  1  0  0  0
 11 29  1  0  0  0
 12 30  1  0  0  0
 15 31  1  0  0  0
 16 32  1  0  0  0
M  END
$$$$
