3gen_ligand
  -I-interpret- 

 50 54  0  0  0  0  0  0  0  0999 V2000
  -19.3930    4.7490  -16.8150 N   0  0  0  0  0
  -18.3580    5.0350  -17.6220 C   0  0  0  0  0
  -18.4720    4.6780  -18.9310 N   0  0  0  0  0
  -17.5020    4.9300  -19.8220 C   0  0  0  0  0
  -16.3840    5.5440  -19.4320 N   0  0  0  0  0
  -16.2230    5.9140  -18.1310 C   0  0  0  0  0
  -17.2010    5.6710  -17.1740 C   0  0  0  0  0
  -15.2090    6.5290  -17.5510 N   0  0  0  0  0
  -14.0520    6.9970  -18.3400 C   0  0  0  0  0
  -14.0670    8.5010  -18.5480 C   0  0  0  0  0
  -12.6050    8.9100  -18.6180 C   0  0  0  0  0
  -11.7680    7.6640  -18.3770 C   0  0  0  0  0
  -12.7040    6.6720  -17.7220 C   0  0  0  0  0
  -15.4730    6.7000  -16.2500 C   0  0  0  0  0
  -16.7230    6.1820  -15.9620 C   0  0  0  0  0
  -17.2900    6.1110  -14.6740 C   0  0  0  0  0
  -17.6700    4.8840  -14.1250 C   0  0  0  0  0
  -18.1110    4.7870  -12.8040 C   0  0  0  0  0
  -18.2030    5.9130  -11.9900 C   0  0  0  0  0
  -17.8060    7.1410  -12.5140 C   0  0  0  0  0
  -17.3660    7.2350  -13.8380 C   0  0  0  0  0
  -18.8410    5.7800  -10.7740 O   0  0  0  0  0
  -19.8030    6.6210  -10.2870 C   0  0  0  0  0
  -20.8560    7.0490  -11.0900 C   0  0  0  0  0
  -21.8240    7.8810  -10.5460 C   0  0  0  0  0
  -21.7460    8.2850   -9.2220 C   0  0  0  0  0
  -20.6910    7.8570   -8.4300 C   0  0  0  0  0
  -19.7290    7.0060   -8.9480 C   0  0  0  0  0
  -20.2191    4.2833  -17.1906 H   0  0  0  0  0
  -19.3529    4.9975  -15.8266 H   0  0  0  0  0
  -17.6270    4.6335  -20.8634 H   0  0  0  0  0
  -14.1626    6.4592  -19.2816 H   0  0  0  0  0
  -14.5888    9.0129  -17.7394 H   0  0  0  0  0
  -14.6045    8.7754  -19.4557 H   0  0  0  0  0
  -12.3853    9.6674  -17.8656 H   0  0  0  0  0
  -12.3762    9.3393  -19.5934 H   0  0  0  0  0
  -10.9052    7.8772  -17.7460 H   0  0  0  0  0
  -11.3564    7.2721  -19.3071 H   0  0  0  0  0
  -12.4039    5.6382  -17.8930 H   0  0  0  0  0
  -12.7105    6.7578  -16.6354 H   0  0  0  0  0
  -14.8065    7.1738  -15.5293 H   0  0  0  0  0
  -17.6213    3.9852  -14.7397 H   0  0  0  0  0
  -18.3883    3.8123  -12.4026 H   0  0  0  0  0
  -17.8385    8.0333  -11.8888 H   0  0  0  0  0
  -17.0740    8.2087  -14.2314 H   0  0  0  0  0
  -20.9194    6.7350  -12.1319 H   0  0  0  0  0
  -22.6540    8.2204  -11.1657 H   0  0  0  0  0
  -22.5125    8.9378   -8.8043 H   0  0  0  0  0
  -20.6187    8.1919   -7.3952 H   0  0  0  0  0
  -18.9207    6.6400   -8.3149 H   0  0  0  0  0
  1  2  1  0  0  0
  2  3  4  0  0  0
  2  7  4  0  0  0
  3  4  4  0  0  0
  4  5  4  0  0  0
  5  6  4  0  0  0
  6  7  4  0  0  0
  6  8  4  0  0  0
  7 15  4  0  0  0
  8  9  1  0  0  0
  8 14  4  0  0  0
  9 10  1  0  0  0
  9 13  1  0  0  0
 10 11  1  0  0  0
 11 12  1  0  0  0
 12 13  1  0  0  0
 14 15  4  0  0  0
 15 16  1  0  0  0
 16 17  4  0  0  0
 16 21  4  0  0  0
 17 18  4  0  0  0
 18 19  4  0  0  0
 19 20  4  0  0  0
 19 22  1  0  0  0
 20 21  4  0  0  0
 22 23  1  0  0  0
 23 24  4  0  0  0
 23 28  4  0  0  0
 24 25  4  0  0  0
 25 26  4  0  0  0
 26 27  4  0  0  0
 27 28  4  0  0  0
  1 29  1  0  0  0
  1 30  1  0  0  0
  4 31  1  0  0  0
  9 32  1  0  0  0
 10 33  1  0  0  0
 10 34  1  0  0  0
 11 35  1  0  0  0
 11 36  1  0  0  0
 12 37  1  0  0  0
 12 38  1  0  0  0
 13 39  1  0  0  0
 13 40  1  0  0  0
 14 41  1  0  0  0
 17 42  1  0  0  0
 18 43  1  0  0  0
 20 44  1  0  0  0
 21 45  1  0  0  0
 24 46  1  0  0  0
 25 47  1  0  0  0
 26 48  1  0  0  0
 27 49  1  0  0  0
 28 50  1  0  0  0
M  END
$$$$
