1om2_ligand
  -I-interpret- 

181182  0  0  0  0  0  0  0  0999 V2000
  -13.9620   20.8670  -21.8130 N   0  3  0  0  0
  -13.9810   20.9880  -20.3450 C   0  0  0  0  0
  -12.5610   21.1680  -19.8120 C   0  0  0  0  0
  -11.6230   20.9840  -20.5830 O   0  0  0  0  0
  -12.3980   21.5230  -18.5260 N   0  0  0  0  0
  -11.1110   21.7580  -17.8760 C   0  0  0  0  0
  -10.3400   20.4590  -17.5880 C   0  0  0  0  0
  -10.0120   20.1640  -16.4400 O   0  0  0  0  0
  -11.4780   22.5230  -16.5980 C   0  0  0  0  0
  -12.8580   21.9820  -16.2350 C   0  0  0  0  0
  -13.4980   21.7580  -17.6020 C   0  0  0  0  0
  -10.0490   19.6820  -18.6360 N   0  0  0  0  0
   -9.3170   18.4260  -18.5910 C   0  0  0  0  0
   -8.5920   18.2690  -19.9280 C   0  0  0  0  0
   -9.0990   17.6170  -20.8400 O   0  0  0  0  0
  -10.2400   17.2200  -18.3260 C   0  0  0  0  0
  -10.6990   17.0970  -16.8650 C   0  0  0  0  0
  -12.0150   17.8300  -16.5700 C   0  0  0  0  0
  -11.9200   18.5680  -15.2980 N   0  0  0  0  0
  -12.7430   18.5020  -14.2370 C   0  0  0  0  0
  -13.8070   17.6870  -14.2300 N   0  0  0  0  0
  -12.5010   19.2720  -13.1700 N   0  0  0  0  0
   -7.3960   18.8570  -20.0340 N   0  0  0  0  0
   -6.5560   18.8150  -21.2260 C   0  0  0  0  0
   -6.0120   17.4030  -21.4990 C   0  0  0  0  0
   -5.3230   17.1940  -22.4940 O   0  0  0  0  0
   -5.4420   19.8670  -21.0580 C   0  0  0  0  0
   -4.4040   19.9930  -22.1900 C   0  0  0  0  0
   -5.0270   20.1610  -23.5760 C   0  0  0  0  0
   -3.4960   21.2050  -21.9290 C   0  0  0  0  0
   -6.3060   16.4110  -20.6490 N   0  0  0  0  0
   -5.8390   15.0430  -20.8130 C   0  0  0  0  0
   -6.6090   14.2600  -21.8820 C   0  0  0  0  0
   -7.0710   13.1500  -21.6230 O   0  0  0  0  0
   -5.8690   14.3500  -19.4530 C   0  0  0  0  0
   -7.1970   14.2560  -18.9830 O   0  0  0  0  0
   -6.7230   14.8260  -23.0870 N   0  0  0  0  0
   -7.3720   14.2040  -24.2280 C   0  0  0  0  0
   -6.2460   13.5010  -24.9830 C   0  0  0  0  0
   -6.1560   12.2740  -24.9800 O   0  0  0  0  0
   -8.1060   15.2760  -25.0490 C   0  0  0  0  0
   -8.9070   14.6630  -26.2020 C   0  0  0  0  0
   -9.6410   15.7670  -26.9750 C   0  0  0  0  0
  -10.5400   15.2140  -28.0000 N   0  0  0  0  0
  -11.7730   14.7260  -27.7740 C   0  0  0  0  0
  -12.2660   14.6650  -26.5300 N   0  0  0  0  0
  -12.5160   14.2950  -28.8020 N   0  0  0  0  0
   -5.3590   14.2980  -25.5910 N   0  0  0  0  0
   -4.1860   13.8180  -26.3010 C   0  0  0  0  0
   -3.3260   12.9370  -25.4120 C   0  0  0  0  0
   -2.7760   11.9690  -25.9090 O   0  0  0  0  0
   -3.4120   14.9750  -26.9680 C   0  0  0  0  0
   -2.7610   16.1150  -26.1460 C   0  0  0  0  0
   -3.6650   16.8970  -25.2040 C   0  0  0  0  0
   -1.5140   15.6970  -25.3630 C   0  0  0  0  0
   -3.2060   13.2450  -24.1180 N   0  0  0  0  0
   -2.3500   12.5000  -23.2060 C   0  0  0  0  0
   -2.7530   11.0310  -23.0640 C   0  0  0  0  0
   -1.9520   10.2310  -22.5880 O   0  0  0  0  0
   -2.1490   13.2120  -21.8650 C   0  0  0  0  0
   -1.3970   14.5700  -21.8490 C   0  0  0  0  0
   -0.0460   14.6040  -22.5890 C   0  0  0  0  0
   -2.3110   15.7550  -22.1820 C   0  0  0  0  0
   -3.9540   10.6460  -23.5170 N   0  0  0  0  0
   -4.3630    9.2480  -23.5060 C   0  0  0  0  0
   -3.4450    8.4230  -24.4300 C   0  0  0  0  0
   -3.4340    7.1970  -24.3460 O   0  0  0  0  0
   -5.8260    9.1380  -23.9480 C   0  0  0  0  0
   -6.2850    7.8120  -23.7850 O   0  0  0  0  0
   -2.6830    9.0950  -25.3070 N   0  0  0  0  0
   -1.7470    8.5180  -26.2590 C   0  0  0  0  0
   -0.4480    7.9900  -25.6300 C   0  0  0  0  0
    0.3820    7.4450  -26.3550 O   0  0  0  0  0
   -1.4230    9.5940  -27.3200 C   0  0  0  0  0
   -0.5320   10.7830  -26.9360 C   0  0  0  0  0
   -0.1750   11.0770  -25.6010 C   0  0  0  0  0
   -0.0660   11.6350  -27.9530 C   0  0  0  0  0
    0.6460   12.1680  -25.2860 C   0  0  0  0  0
    0.7570   12.7290  -27.6390 C   0  0  0  0  0
    1.1210   12.9960  -26.3100 C   0  0  0  0  0
    1.9190   14.0620  -26.0140 O   0  0  0  0  0
   -0.2380    8.1780  -24.3180 N   0  0  0  0  0
    0.9950    7.8030  -23.6470 C   0  0  0  0  0
    0.7470    7.6350  -22.1480 C   0  0  0  0  0
    1.0870    6.5440  -21.6410 O   0  0  0  0  0
    2.0290    8.9100  -23.9130 C   0  0  0  0  0
    0.4440    8.6640  -21.5050 O   0  0  0  0  0
  -14.9153   20.7474  -22.1555 H   0  0  0  0  0
  -13.5576   21.7116  -22.2174 H   0  0  0  0  0
  -13.4000   20.0585  -22.0791 H   0  0  0  0  0
  -14.4101   20.0816  -19.9179 H   0  0  0  0  0
  -14.5793   21.8554  -20.0663 H   0  0  0  0  0
  -10.4265   22.3187  -18.5125 H   0  0  0  0  0
  -11.4810   23.6028  -16.7466 H   0  0  0  0  0
  -10.7501   22.3732  -15.8006 H   0  0  0  0  0
  -13.4295   22.6619  -15.6032 H   0  0  0  0  0
  -12.8150   21.0757  -15.6310 H   0  0  0  0  0
  -14.1850   20.9120  -17.5825 H   0  0  0  0  0
  -14.0918   22.6200  -17.9060 H   0  0  0  0  0
  -10.3696   19.9989  -19.5510 H   0  0  0  0  0
   -8.6084   18.4502  -17.7631 H   0  0  0  0  0
   -9.6739   16.3197  -18.5650 H   0  0  0  0  0
  -11.1330   17.3549  -18.9362 H   0  0  0  0  0
   -9.9271   17.5476  -16.2411 H   0  0  0  0  0
  -10.8620   16.0386  -16.6618 H   0  0  0  0  0
  -12.8194   17.0982  -16.4959 H   0  0  0  0  0
  -12.2154   18.5365  -17.3755 H   0  0  0  0  0
  -11.1313   19.2090  -15.2118 H   0  0  0  0  0
  -14.4222   17.6584  -13.4169 H   0  0  0  0  0
  -14.0015   17.0953  -15.0378 H   0  0  0  0  0
  -11.6983   19.9014  -13.1668 H   0  0  0  0  0
   -7.0465   19.3708  -19.2251 H   0  0  0  0  0
   -7.1466   19.0592  -22.1090 H   0  0  0  0  0
   -4.8788   19.5591  -20.1771 H   0  0  0  0  0
   -5.9517   20.8297  -21.0194 H   0  0  0  0  0
   -3.8431   19.0584  -22.1875 H   0  0  0  0  0
   -5.6504   19.2954  -23.8001 H   0  0  0  0  0
   -5.6376   21.0638  -23.5915 H   0  0  0  0  0
   -4.2357   20.2432  -24.3211 H   0  0  0  0  0
   -4.1021   22.1102  -21.8918 H   0  0  0  0  0
   -2.9798   21.0726  -20.9782 H   0  0  0  0  0
   -2.7643   21.2889  -22.7325 H   0  0  0  0  0
   -6.8902   16.6266  -19.8411 H   0  0  0  0  0
   -4.8148   15.0728  -21.1848 H   0  0  0  0  0
   -5.2796   14.9308  -18.7435 H   0  0  0  0  0
   -5.4545   13.3470  -19.5544 H   0  0  0  0  0
   -7.2026   13.8190  -18.1283 H   0  0  0  0  0
   -6.3277   15.7576  -23.2142 H   0  0  0  0  0
   -8.1417   13.4791  -23.9632 H   0  0  0  0  0
   -7.3624   15.9522  -25.4708 H   0  0  0  0  0
   -8.8002   15.7962  -24.3891 H   0  0  0  0  0
   -9.6369   13.9611  -25.7987 H   0  0  0  0  0
   -8.2257   14.1446  -26.8767 H   0  0  0  0  0
   -8.8967   16.3887  -27.4726 H   0  0  0  0  0
  -10.2407   16.3392  -26.2671 H   0  0  0  0  0
  -10.2002   15.1994  -28.9616 H   0  0  0  0  0
  -11.7052   14.9905  -25.7426 H   0  0  0  0  0
  -13.4510   13.9232  -28.6349 H   0  0  0  0  0
  -12.1467   14.3386  -29.7518 H   0  0  0  0  0
   -5.5165   15.3051  -25.5535 H   0  0  0  0  0
   -4.5181   13.1803  -27.1202 H   0  0  0  0  0
   -4.1752   15.4874  -27.5537 H   0  0  0  0  0
   -2.5603   14.4774  -27.4318 H   0  0  0  0  0
   -2.4901   16.7872  -26.9601 H   0  0  0  0  0
   -4.4629   17.3694  -25.7770 H   0  0  0  0  0
   -4.0968   16.2174  -24.4693 H   0  0  0  0  0
   -3.0805   17.6623  -24.6934 H   0  0  0  0  0
   -1.7761   14.9066  -24.6597 H   0  0  0  0  0
   -0.7566   15.3316  -26.0565 H   0  0  0  0  0
   -1.1243   16.5562  -24.8172 H   0  0  0  0  0
   -3.7367   14.0359  -23.7531 H   0  0  0  0  0
   -1.3656   12.4776  -23.6735 H   0  0  0  0  0
   -1.5285   12.5370  -21.2755 H   0  0  0  0  0
   -3.1545   13.4402  -21.5113 H   0  0  0  0  0
   -1.0972   14.6874  -20.8076 H   0  0  0  0  0
    0.6312   13.8775  -22.1399 H   0  0  0  0  0
   -0.2020   14.3565  -23.6390 H   0  0  0  0  0
    0.3852   15.6019  -22.5098 H   0  0  0  0  0
   -2.7336   15.6178  -23.1773 H   0  0  0  0  0
   -3.1156   15.8090  -21.4486 H   0  0  0  0  0
   -1.7314   16.6778  -22.1560 H   0  0  0  0  0
   -4.5979   11.3496  -23.8786 H   0  0  0  0  0
   -4.2743    8.8497  -22.4953 H   0  0  0  0  0
   -5.9037    9.4164  -24.9990 H   0  0  0  0  0
   -6.4349    9.8045  -23.3372 H   0  0  0  0  0
   -7.2016    7.7552  -24.0647 H   0  0  0  0  0
   -2.7689   10.1114  -25.3057 H   0  0  0  0  0
   -2.2268    7.6438  -26.6991 H   0  0  0  0  0
   -2.3868   10.0377  -27.5697 H   0  0  0  0  0
   -0.8636    9.0647  -28.0913 H   0  0  0  0  0
   -0.5467   10.4407  -24.7978 H   0  0  0  0  0
   -0.3447   11.4456  -28.9896 H   0  0  0  0  0
    0.9134   12.3709  -24.2490 H   0  0  0  0  0
    1.1173   13.3784  -28.4369 H   0  0  0  0  0
    2.1533   14.5197  -26.8247 H   0  0  0  0  0
   -0.9806    8.6052  -23.7645 H   0  0  0  0  0
    1.3663    6.8510  -24.0263 H   0  0  0  0  0
    2.1940    9.0009  -24.9866 H   0  0  0  0  0
    1.6560    9.8558  -23.5201 H   0  0  0  0  0
    2.9672    8.6551  -23.4202 H   0  0  0  0  0
    0.2200    9.3684  -22.1176 H   0  0  0  0  0
  1  2  1  0  0  0
  2  3  1  0  0  0
  3  4  2  0  0  0
  3  5  1  0  0  0
  5  6  1  0  0  0
  5 11  1  0  0  0
  6  7  1  0  0  0
  6  9  1  0  0  0
  7  8  2  0  0  0
  7 12  1  0  0  0
  9 10  1  0  0  0
 10 11  1  0  0  0
 12 13  1  0  0  0
 13 14  1  0  0  0
 13 16  1  0  0  0
 14 15  2  0  0  0
 14 23  1  0  0  0
 16 17  1  0  0  0
 17 18  1  0  0  0
 18 19  1  0  0  0
 19 20  1  0  0  0
 20 21  1  0  0  0
 20 22  2  0  0  0
 23 24  1  0  0  0
 24 25  1  0  0  0
 24 27  1  0  0  0
 25 26  2  0  0  0
 25 31  1  0  0  0
 27 28  1  0  0  0
 28 29  1  0  0  0
 28 30  1  0  0  0
 31 32  1  0  0  0
 32 33  1  0  0  0
 32 35  1  0  0  0
 33 34  2  0  0  0
 33 37  1  0  0  0
 35 36  1  0  0  0
 37 38  1  0  0  0
 38 39  1  0  0  0
 38 41  1  0  0  0
 39 40  2  0  0  0
 39 48  1  0  0  0
 41 42  1  0  0  0
 42 43  1  0  0  0
 43 44  1  0  0  0
 44 45  1  0  0  0
 45 46  2  0  0  0
 45 47  1  0  0  0
 48 49  1  0  0  0
 49 50  1  0  0  0
 49 52  1  0  0  0
 50 51  2  0  0  0
 50 56  1  0  0  0
 52 53  1  0  0  0
 53 54  1  0  0  0
 53 55  1  0  0  0
 56 57  1  0  0  0
 57 58  1  0  0  0
 57 60  1  0  0  0
 58 59  2  0  0  0
 58 64  1  0  0  0
 60 61  1  0  0  0
 61 62  1  0  0  0
 61 63  1  0  0  0
 64 65  1  0  0  0
 65 66  1  0  0  0
 65 68  1  0  0  0
 66 67  2  0  0  0
 66 70  1  0  0  0
 68 69  1  0  0  0
 70 71  1  0  0  0
 71 72  1  0  0  0
 71 74  1  0  0  0
 72 73  2  0  0  0
 72 82  1  0  0  0
 74 75  1  0  0  0
 75 76  4  0  0  0
 75 77  4  0  0  0
 76 78  4  0  0  0
 77 79  4  0  0  0
 78 80  4  0  0  0
 79 80  4  0  0  0
 80 81  1  0  0  0
 82 83  1  0  0  0
 83 84  1  0  0  0
 83 86  1  0  0  0
 84 85  2  0  0  0
 84 87  1  0  0  0
  1 88  1  0  0  0
  1 89  1  0  0  0
  1 90  1  0  0  0
  2 91  1  0  0  0
  2 92  1  0  0  0
  6 93  1  0  0  0
  9 94  1  0  0  0
  9 95  1  0  0  0
 10 96  1  0  0  0
 10 97  1  0  0  0
 11 98  1  0  0  0
 11 99  1  0  0  0
 12100  1  0  0  0
 13101  1  0  0  0
 16102  1  0  0  0
 16103  1  0  0  0
 17104  1  0  0  0
 17105  1  0  0  0
 18106  1  0  0  0
 18107  1  0  0  0
 19108  1  0  0  0
 21109  1  0  0  0
 21110  1  0  0  0
 22111  1  0  0  0
 23112  1  0  0  0
 24113  1  0  0  0
 27114  1  0  0  0
 27115  1  0  0  0
 28116  1  0  0  0
 29117  1  0  0  0
 29118  1  0  0  0
 29119  1  0  0  0
 30120  1  0  0  0
 30121  1  0  0  0
 30122  1  0  0  0
 31123  1  0  0  0
 32124  1  0  0  0
 35125  1  0  0  0
 35126  1  0  0  0
 36127  1  0  0  0
 37128  1  0  0  0
 38129  1  0  0  0
 41130  1  0  0  0
 41131  1  0  0  0
 42132  1  0  0  0
 42133  1  0  0  0
 43134  1  0  0  0
 43135  1  0  0  0
 44136  1  0  0  0
 46137  1  0  0  0
 47138  1  0  0  0
 47139  1  0  0  0
 48140  1  0  0  0
 49141  1  0  0  0
 52142  1  0  0  0
 52143  1  0  0  0
 53144  1  0  0  0
 54145  1  0  0  0
 54146  1  0  0  0
 54147  1  0  0  0
 55148  1  0  0  0
 55149  1  0  0  0
 55150  1  0  0  0
 56151  1  0  0  0
 57152  1  0  0  0
 60153  1  0  0  0
 60154  1  0  0  0
 61155  1  0  0  0
 62156  1  0  0  0
 62157  1  0  0  0
 62158  1  0  0  0
 63159  1  0  0  0
 63160  1  0  0  0
 63161  1  0  0  0
 64162  1  0  0  0
 65163  1  0  0  0
 68164  1  0  0  0
 68165  1  0  0  0
 69166  1  0  0  0
 70167  1  0  0  0
 71168  1  0  0  0
 74169  1  0  0  0
 74170  1  0  0  0
 76171  1  0  0  0
 77172  1  0  0  0
 78173  1  0  0  0
 79174  1  0  0  0
 81175  1  0  0  0
 82176  1  0  0  0
 83177  1  0  0  0
 86178  1  0  0  0
 86179  1  0  0  0
 86180  1  0  0  0
 87181  1  0  0  0
M  END
$$$$
