### 
### Created by X-TOOL on Mon Sep 10 21:12:48 2018
### 

@<TRIPOS>MOLECULE
1om2_ligand
  182   183     1     0     0
SMALL
GAST_HUCK


@<TRIPOS>ATOM
      1 N         -13.9620   20.8670  -21.8130 N.4       1 GLY         0.2357
      2 CA        -13.9810   20.9880  -20.3450 C.3       1 GLY         0.0547
      3 C         -12.5610   21.1680  -19.8120 C.2       1 GLY         0.2261
      4 O         -11.6230   20.9840  -20.5830 O.2       1 GLY        -0.3908
      5 N         -12.3980   21.5230  -18.5260 N.am      1 PRO        -0.2474
      6 CA        -11.1110   21.7580  -17.8760 C.3       1 PRO         0.1339
      7 C         -10.3400   20.4590  -17.5880 C.2       1 PRO         0.2041
      8 O         -10.0120   20.1640  -16.4400 O.2       1 PRO        -0.3944
      9 CB        -11.4780   22.5230  -16.5980 C.3       1 PRO        -0.0104
     10 CG        -12.8580   21.9820  -16.2350 C.3       1 PRO        -0.0281
     11 CD        -13.4980   21.7580  -17.6020 C.3       1 PRO         0.0370
     12 N         -10.0490   19.6820  -18.6360 N.am      1 ARG        -0.2637
     13 CA         -9.3170   18.4260  -18.5910 C.3       1 ARG         0.1311
     14 C          -8.5920   18.2690  -19.9280 C.2       1 ARG         0.2039
     15 O          -9.0990   17.6170  -20.8400 O.2       1 ARG        -0.3944
     16 CB        -10.2400   17.2200  -18.3260 C.3       1 ARG        -0.0092
     17 CG        -10.6990   17.0970  -16.8650 C.3       1 ARG        -0.0156
     18 CD        -12.0150   17.8300  -16.5700 C.3       1 ARG         0.0627
     19 NE        -11.9200   18.5680  -15.2980 N.pl3     1 ARG        -0.2723
     20 CZ        -12.7430   18.5020  -14.2370 C.cat     1 ARG         0.2882
     21 NH1       -13.8070   17.6870  -14.2300 N.pl3     1 ARG        -0.2849
     22 NH2       -12.5010   19.2720  -13.1700 N.pl3     1 ARG        -0.2849
     23 N          -7.3960   18.8570  -20.0340 N.am      1 LEU        -0.2637
     24 CA         -6.5560   18.8150  -21.2260 C.3       1 LEU         0.1312
     25 C          -6.0120   17.4030  -21.4990 C.2       1 LEU         0.2040
     26 O          -5.3230   17.1940  -22.4940 O.2       1 LEU        -0.3944
     27 CB         -5.4420   19.8670  -21.0580 C.3       1 LEU        -0.0101
     28 CG         -4.4040   19.9930  -22.1900 C.3       1 LEU        -0.0425
     29 CD1        -5.0270   20.1610  -23.5760 C.3       1 LEU        -0.0625
     30 CD2        -3.4960   21.2050  -21.9290 C.3       1 LEU        -0.0625
     31 N          -6.3060   16.4110  -20.6490 N.am      1 SER        -0.2616
     32 CA         -5.8390   15.0430  -20.8130 C.3       1 SER         0.1539
     33 C          -6.6090   14.2600  -21.8820 C.2       1 SER         0.2062
     34 O          -7.0710   13.1500  -21.6230 O.2       1 SER        -0.3943
     35 CB         -5.8690   14.3500  -19.4530 C.3       1 SER         0.0843
     36 OG         -7.1970   14.2560  -18.9830 O.3       1 SER        -0.3903
     37 N          -6.7230   14.8260  -23.0870 N.am      1 ARG        -0.2637
     38 CA         -7.3720   14.2040  -24.2280 C.3       1 ARG         0.1311
     39 C          -6.2460   13.5010  -24.9830 C.2       1 ARG         0.2039
     40 O          -6.1560   12.2740  -24.9800 O.2       1 ARG        -0.3944
     41 CB         -8.1060   15.2760  -25.0490 C.3       1 ARG        -0.0092
     42 CG         -8.9070   14.6630  -26.2020 C.3       1 ARG        -0.0156
     43 CD         -9.6410   15.7670  -26.9750 C.3       1 ARG         0.0627
     44 NE        -10.5400   15.2140  -28.0000 N.pl3     1 ARG        -0.2723
     45 CZ        -11.7730   14.7260  -27.7740 C.cat     1 ARG         0.2882
     46 NH1       -12.2660   14.6650  -26.5300 N.pl3     1 ARG        -0.2849
     47 NH2       -12.5160   14.2950  -28.8020 N.pl3     1 ARG        -0.2849
     48 N          -5.3590   14.2980  -25.5910 N.am      1 LEU        -0.2637
     49 CA         -4.1860   13.8180  -26.3010 C.3       1 LEU         0.1312
     50 C          -3.3260   12.9370  -25.4120 C.2       1 LEU         0.2039
     51 O          -2.7760   11.9690  -25.9090 O.2       1 LEU        -0.3944
     52 CB         -3.4120   14.9750  -26.9680 C.3       1 LEU        -0.0101
     53 CG         -2.7610   16.1150  -26.1460 C.3       1 LEU        -0.0425
     54 CD1        -3.6650   16.8970  -25.2040 C.3       1 LEU        -0.0625
     55 CD2        -1.5140   15.6970  -25.3630 C.3       1 LEU        -0.0625
     56 N          -3.2060   13.2450  -24.1180 N.am      1 LEU        -0.2637
     57 CA         -2.3500   12.5000  -23.2060 C.3       1 LEU         0.1312
     58 C          -2.7530   11.0310  -23.0640 C.2       1 LEU         0.2040
     59 O          -1.9520   10.2310  -22.5880 O.2       1 LEU        -0.3944
     60 CB         -2.1490   13.2120  -21.8650 C.3       1 LEU        -0.0101
     61 CG         -1.3970   14.5700  -21.8490 C.3       1 LEU        -0.0425
     62 CD1        -0.0460   14.6040  -22.5890 C.3       1 LEU        -0.0625
     63 CD2        -2.3110   15.7550  -22.1820 C.3       1 LEU        -0.0625
     64 N          -3.9540   10.6460  -23.5170 N.am      1 SER        -0.2616
     65 CA         -4.3630    9.2480  -23.5060 C.3       1 SER         0.1539
     66 C          -3.4450    8.4230  -24.4300 C.2       1 SER         0.2063
     67 O          -3.4340    7.1970  -24.3460 O.2       1 SER        -0.3943
     68 CB         -5.8260    9.1380  -23.9480 C.3       1 SER         0.0843
     69 OG         -6.2850    7.8120  -23.7850 O.3       1 SER        -0.3903
     70 N          -2.6830    9.0950  -25.3070 N.am      1 TYR        -0.2621
     71 CA         -1.7470    8.5180  -26.2590 C.3       1 TYR         0.1390
     72 C          -0.4480    7.9900  -25.6300 C.2       1 TYR         0.2052
     73 O           0.3820    7.4450  -26.3550 O.2       1 TYR        -0.3943
     74 CB         -1.4230    9.5940  -27.3200 C.3       1 TYR         0.0163
     75 CG         -0.5320   10.7830  -26.9360 C.ar      1 TYR        -0.0493
     76 CD1        -0.1750   11.0770  -25.6010 C.ar      1 TYR        -0.0685
     77 CD2        -0.0660   11.6350  -27.9530 C.ar      1 TYR        -0.0685
     78 CE1         0.6460   12.1680  -25.2860 C.ar      1 TYR        -0.0398
     79 CE2         0.7570   12.7290  -27.6390 C.ar      1 TYR        -0.0398
     80 CZ          1.1210   12.9960  -26.3100 C.ar      1 TYR         0.0805
     81 OH          1.9190   14.0620  -26.0140 O.3       1 TYR        -0.3376
     82 N          -0.2380    8.1780  -24.3180 N.am      1 ALA        -0.2696
     83 CA          0.9950    7.8030  -23.6470 C.3       1 ALA         0.0916
     84 C           0.7470    7.6350  -22.1480 C.2       1 ALA         0.0598
     85 O           1.0870    6.5440  -21.6410 O.co2     1 ALA        -0.5666
     86 CB          2.0290    8.9100  -23.9130 C.3       1 ALA        -0.0300
     87 OXT         0.4440    8.6640  -21.5050 O.co2     1 ALA        -0.5666
     88 H1        -14.9037   20.7488  -22.1526 H         1 GLY         0.2012
     89 H2        -13.4068   20.0682  -22.0772 H         1 GLY         0.2012
     90 H3        -13.5626   21.7012  -22.2138 H         1 GLY         0.2012
     91 H4        -14.4192   20.0772  -19.9110 H         1 GLY         0.1061
     92 H5        -14.5891   21.8592  -20.0601 H         1 GLY         0.1061
     93 H6        -10.4815   22.3905  -18.5192 H         1 PRO         0.0802
     94 H7        -11.5188   23.6058  -16.7872 H         1 PRO         0.0313
     95 H8        -10.7532   22.3178  -15.7964 H         1 PRO         0.0313
     96 H9        -13.4287   22.7139  -15.6446 H         1 PRO         0.0287
     97 H10       -12.7799   21.0391  -15.6739 H         1 PRO         0.0287
     98 H11       -14.1660   20.8845  -17.5728 H         1 PRO         0.0524
     99 H12       -14.0698   22.6469  -17.9066 H         1 PRO         0.0524
    100 H13       -10.3633   19.9927  -19.5330 H         1 ARG         0.1883
    101 H14        -8.5746   18.4757  -17.7808 H         1 ARG         0.0800
    102 H15        -9.6974   16.3023  -18.5970 H         1 ARG         0.0313
    103 H16       -11.1319   17.3200  -18.9620 H         1 ARG         0.0313
    104 H17        -9.9148   17.5165  -16.2177 H         1 ARG         0.0301
    105 H18       -10.8353   16.0306  -16.6320 H         1 ARG         0.0301
    106 H19       -12.8313   17.0957  -16.5025 H         1 ARG         0.0689
    107 H20       -12.2255   18.5384  -17.3848 H         1 ARG         0.0689
    108 H21       -11.1235   19.2153  -15.2109 H         1 ARG         0.2642
    109 H22       -14.4241   17.6527  -13.4060 H         1 ARG         0.2615
    110 H23       -14.0076   17.0949  -15.0486 H         1 ARG         0.2615
    111 H24       -11.6864   19.9023  -13.1639 H         1 ARG         0.2615
    112 H25       -13.1293   19.2345  -12.3547 H         1 ARG         0.2615
    113 H26        -7.0533   19.3607  -19.2410 H         1 LEU         0.1883
    114 H27        -7.1702   19.1024  -22.0921 H         1 LEU         0.0800
    115 H28        -4.8950   19.6228  -20.1355 H         1 LEU         0.0315
    116 H29        -5.9288   20.8472  -20.9471 H         1 LEU         0.0315
    117 H30        -3.7925   19.0787  -22.1938 H         1 LEU         0.0298
    118 H31        -4.2293   20.2440  -24.3289 H         1 LEU         0.0232
    119 H32        -5.6434   21.0719  -23.5930 H         1 LEU         0.0232
    120 H33        -5.6564   19.2880  -23.8034 H         1 LEU         0.0232
    121 H34        -3.0336   21.1095  -20.9355 H         1 LEU         0.0232
    122 H35        -4.0948   22.1269  -21.9676 H         1 LEU         0.0232
    123 H36        -2.7096   21.2462  -22.6970 H         1 LEU         0.0232
    124 H37        -6.8787   16.6224  -19.8570 H         1 SER         0.1884
    125 H38        -4.7909   15.0878  -21.1439 H         1 SER         0.0823
    126 H39        -5.2701   14.9306  -18.7360 H         1 SER         0.0606
    127 H40        -5.4458   13.3394  -19.5507 H         1 SER         0.0606
    128 H41        -7.7154   13.7533  -19.6003 H         1 SER         0.2097
    129 H42        -6.3354   15.7394  -23.2117 H         1 ARG         0.1883
    130 H43        -8.1072   13.4585  -23.8908 H         1 ARG         0.0800
    131 H44        -7.3653   15.9759  -25.4632 H         1 ARG         0.0313
    132 H45        -8.7954   15.8208  -24.3872 H         1 ARG         0.0313
    133 H46        -9.6417   13.9512  -25.7975 H         1 ARG         0.0301
    134 H47        -8.2217   14.1359  -26.8821 H         1 ARG         0.0301
    135 H48        -8.8974   16.4126  -27.4651 H         1 ARG         0.0689
    136 H49       -10.2341   16.3634  -26.2661 H         1 ARG         0.0689
    137 H50       -10.1968   15.1993  -28.9710 H         1 ARG         0.2642
    138 H51       -13.2114   14.2894  -26.3685 H         1 ARG         0.2615
    139 H52       -11.6997   14.9936  -25.7349 H         1 ARG         0.2615
    140 H53       -12.1431   14.3390  -29.7611 H         1 ARG         0.2615
    141 H54       -13.4602   13.9196  -28.6333 H         1 ARG         0.2615
    142 H55        -5.5134   15.2853  -25.5542 H         1 LEU         0.1883
    143 H56        -4.5480   13.1763  -27.1178 H         1 LEU         0.0800
    144 H57        -4.1186   15.4592  -27.6581 H         1 LEU         0.0315
    145 H58        -2.5987   14.5086  -27.5434 H         1 LEU         0.0315
    146 H59        -2.4216   16.8389  -26.9015 H         1 LEU         0.0298
    147 H60        -3.0762   17.6698  -24.6881 H         1 LEU         0.0232
    148 H61        -4.1014   16.2123  -24.4619 H         1 LEU         0.0232
    149 H62        -4.4707   17.3743  -25.7810 H         1 LEU         0.0232
    150 H63        -0.8410   15.1284  -26.0216 H         1 LEU         0.0232
    151 H64        -1.8100   15.0683  -24.5103 H         1 LEU         0.0232
    152 H65        -0.9947   16.5939  -24.9944 H         1 LEU         0.0232
    153 H66        -3.7263   14.0204  -23.7603 H         1 LEU         0.1883
    154 H67        -1.3578   12.4850  -23.6807 H         1 LEU         0.0800
    155 H68        -1.5898   12.5243  -21.2135 H         1 LEU         0.0315
    156 H69        -3.1477   13.3896  -21.4395 H         1 LEU         0.0315
    157 H70        -1.1258   14.7158  -20.7930 H         1 LEU         0.0298
    158 H71         0.3902   15.6107  -22.5097 H         1 LEU         0.0232
    159 H72        -0.2021   14.3545  -23.6489 H         1 LEU         0.0232
    160 H73         0.6384   13.8712  -22.1367 H         1 LEU         0.0232
    161 H74        -3.2515   15.6621  -21.6191 H         1 LEU         0.0232
    162 H75        -2.5280   15.7590  -23.2604 H         1 LEU         0.0232
    163 H76        -1.8094   16.6941  -21.9054 H         1 LEU         0.0232
    164 H77        -4.5853   11.3358  -23.8715 H         1 SER         0.1884
    165 H78        -4.2732    8.8580  -22.4814 H         1 SER         0.0823
    166 H79        -5.9084    9.4237  -25.0070 H         1 SER         0.0606
    167 H80        -6.4423    9.8138  -23.3369 H         1 SER         0.0606
    168 H81        -5.7546    7.2273  -24.3135 H         1 SER         0.2097
    169 H82        -2.7672   10.0915  -25.3057 H         1 TYR         0.1885
    170 H83        -2.2447    7.6706  -26.7532 H         1 TYR         0.0821
    171 H84        -2.3833   10.0092  -27.6596 H         1 TYR         0.0453
    172 H85        -0.9289    9.0801  -28.1577 H         1 TYR         0.0453
    173 H86        -0.5446   10.4442  -24.8022 H         1 TYR         0.0530
    174 H87        -0.3432   11.4466  -28.9839 H         1 TYR         0.0530
    175 H88         0.9119   12.3698  -24.2547 H         1 TYR         0.0525
    176 H89         1.1153   13.3748  -28.4325 H         1 TYR         0.0525
    177 H90         2.0656   14.0956  -25.0760 H         1 TYR         0.2458
    178 H91        -0.9661    8.5969  -23.7753 H         1 ALA         0.1875
    179 H92         1.3639    6.8514  -24.0573 H         1 ALA         0.0723
    180 H93         2.9764    8.6539  -23.4161 H         1 ALA         0.0270
    181 H94         1.6538    9.8651  -23.5169 H         1 ALA         0.0270
    182 H95         2.1965    9.0027  -24.9962 H         1 ALA         0.0270
@<TRIPOS>BOND
     1    1    2 1  
     2    2    3 1  
     3    3    4 2  
     4    3    5 am 
     5    5    6 1  
     6    5   11 1  
     7    6    7 1  
     8    6    9 1  
     9    7    8 2  
    10    7   12 am 
    11    9   10 1  
    12   10   11 1  
    13   12   13 1  
    14   13   14 1  
    15   13   16 1  
    16   14   15 2  
    17   14   23 am 
    18   16   17 1  
    19   17   18 1  
    20   18   19 1  
    21   19   20 ar 
    22   20   21 ar 
    23   20   22 ar 
    24   23   24 1  
    25   24   25 1  
    26   24   27 1  
    27   25   26 2  
    28   25   31 am 
    29   27   28 1  
    30   28   29 1  
    31   28   30 1  
    32   31   32 1  
    33   32   33 1  
    34   32   35 1  
    35   33   34 2  
    36   33   37 am 
    37   35   36 1  
    38   37   38 1  
    39   38   39 1  
    40   38   41 1  
    41   39   40 2  
    42   39   48 am 
    43   41   42 1  
    44   42   43 1  
    45   43   44 1  
    46   44   45 ar 
    47   45   46 ar 
    48   45   47 ar 
    49   48   49 1  
    50   49   50 1  
    51   49   52 1  
    52   50   51 2  
    53   50   56 am 
    54   52   53 1  
    55   53   54 1  
    56   53   55 1  
    57   56   57 1  
    58   57   58 1  
    59   57   60 1  
    60   58   59 2  
    61   58   64 am 
    62   60   61 1  
    63   61   62 1  
    64   61   63 1  
    65   64   65 1  
    66   65   66 1  
    67   65   68 1  
    68   66   67 2  
    69   66   70 am 
    70   68   69 1  
    71   70   71 1  
    72   71   72 1  
    73   71   74 1  
    74   72   73 2  
    75   72   82 am 
    76   74   75 1  
    77   75   76 ar 
    78   75   77 ar 
    79   76   78 ar 
    80   77   79 ar 
    81   78   80 ar 
    82   79   80 ar 
    83   80   81 1  
    84   82   83 1  
    85   83   84 1  
    86   83   86 1  
    87   84   85 ar 
    88   84   87 ar 
    89    1   88 1  
    90    1   89 1  
    91    1   90 1  
    92    2   91 1  
    93    2   92 1  
    94    6   93 1  
    95    9   94 1  
    96    9   95 1  
    97   10   96 1  
    98   10   97 1  
    99   11   98 1  
   100   11   99 1  
   101   12  100 1  
   102   13  101 1  
   103   16  102 1  
   104   16  103 1  
   105   17  104 1  
   106   17  105 1  
   107   18  106 1  
   108   18  107 1  
   109   19  108 1  
   110   21  109 1  
   111   21  110 1  
   112   22  111 1  
   113   22  112 1  
   114   23  113 1  
   115   24  114 1  
   116   27  115 1  
   117   27  116 1  
   118   28  117 1  
   119   29  118 1  
   120   29  119 1  
   121   29  120 1  
   122   30  121 1  
   123   30  122 1  
   124   30  123 1  
   125   31  124 1  
   126   32  125 1  
   127   35  126 1  
   128   35  127 1  
   129   36  128 1  
   130   37  129 1  
   131   38  130 1  
   132   41  131 1  
   133   41  132 1  
   134   42  133 1  
   135   42  134 1  
   136   43  135 1  
   137   43  136 1  
   138   44  137 1  
   139   46  138 1  
   140   46  139 1  
   141   47  140 1  
   142   47  141 1  
   143   48  142 1  
   144   49  143 1  
   145   52  144 1  
   146   52  145 1  
   147   53  146 1  
   148   54  147 1  
   149   54  148 1  
   150   54  149 1  
   151   55  150 1  
   152   55  151 1  
   153   55  152 1  
   154   56  153 1  
   155   57  154 1  
   156   60  155 1  
   157   60  156 1  
   158   61  157 1  
   159   62  158 1  
   160   62  159 1  
   161   62  160 1  
   162   63  161 1  
   163   63  162 1  
   164   63  163 1  
   165   64  164 1  
   166   65  165 1  
   167   68  166 1  
   168   68  167 1  
   169   69  168 1  
   170   70  169 1  
   171   71  170 1  
   172   74  171 1  
   173   74  172 1  
   174   76  173 1  
   175   77  174 1  
   176   78  175 1  
   177   79  176 1  
   178   81  177 1  
   179   82  178 1  
   180   83  179 1  
   181   86  180 1  
   182   86  181 1  
   183   86  182 1  
@<TRIPOS>SUBSTRUCTURE
     1 GLY         1

