1gi7_ligand
  -I-interpret- 

 29 31  0  0  0  0  0  0  0  0999 V2000
    8.9630    0.7940   25.0180 C   0  0  0  0  0
    9.5610    1.0090   23.7500 C   0  0  0  0  0
    9.9900    2.2670   23.3380 C   0  0  0  0  0
    9.8150    3.3180   24.2040 C   0  0  0  0  0
    9.2550    3.1780   25.4140 C   0  0  0  0  0
    8.8170    1.9330   25.8500 C   0  0  0  0  0
    8.5420   -0.4870   25.4260 C   0  0  0  0  0
    7.8380   -0.6200   26.5240 N   0  0  0  0  0
    8.8560   -1.5390   24.7120 N   0  0  0  0  0
   10.1100    4.5660   24.1150 N   0  0  0  0  0
    9.1890    4.3050   26.0850 N   0  0  0  0  0
    9.7410    5.1530   25.2240 C   0  0  0  0  0
    9.8790    6.5270   25.4620 C   0  0  0  0  0
    9.6770    7.0270   26.7400 C   0  0  0  0  0
    9.8110    8.3740   26.9850 C   0  0  0  0  0
   10.1480    9.2360   25.9560 C   0  0  0  0  0
   10.3390    8.7610   24.7400 N   0  0  0  0  0
   10.2210    7.4720   24.4500 C   0  0  0  0  0
   10.3930    7.0970   23.3080 O   0  0  0  0  0
    9.6886    0.1615   23.0765 H   0  0  0  0  0
   10.4496    2.4132   22.3605 H   0  0  0  0  0
    8.3599    1.8319   26.8344 H   0  0  0  0  0
    7.5327   -1.5455   26.8251 H   0  0  0  0  0
    7.5956    0.2020   27.0771 H   0  0  0  0  0
    8.5527   -2.4663   25.0095 H   0  0  0  0  0
    9.4113    6.3507   27.5525 H   0  0  0  0  0
    9.6516    8.7629   27.9907 H   0  0  0  0  0
   10.2552   10.3033   26.1495 H   0  0  0  0  0
   10.5871    9.4104   23.9936 H   0  0  0  0  0
  7  1  1  0  0  0
  1  6  4  0  0  0
  1  2  4  0  0  0
  2  3  4  0  0  0
  3  4  4  0  0  0
  4 10  4  0  0  0
  4  5  4  0  0  0
  5 11  4  0  0  0
  6  5  4  0  0  0
 11 12  4  0  0  0
 12 13  1  0  0  0
 10 12  4  0  0  0
 13 18  1  0  0  0
 13 14  2  0  0  0
 14 15  1  0  0  0
 15 16  2  0  0  0
 16 17  1  0  0  0
 18 17  1  0  0  0
 18 19  2  0  0  0
  7  9  2  0  0  0
  7  8  1  0  0  0
  2 20  1  0  0  0
  3 21  1  0  0  0
  6 22  1  0  0  0
  8 23  1  0  0  0
  8 24  1  0  0  0
  9 25  1  0  0  0
 14 26  1  0  0  0
 15 27  1  0  0  0
 16 28  1  0  0  0
 17 29  1  0  0  0
M  END
$$$$
