### 
### Created by X-TOOL on Mon Sep 10 21:13:02 2018
### 

@<TRIPOS>MOLECULE
2knh_ligand
  273   274     1     0     0
SMALL
GAST_HUCK


@<TRIPOS>ATOM
      1 N          21.7610   -3.1200    5.9180 N.4       1 ILE         0.2381
      2 CA         22.2650   -2.6070    4.6390 C.3       1 ILE         0.0676
      3 C          21.4820   -1.3640    4.1800 C.2       1 ILE         0.2268
      4 O          20.5560   -0.9180    4.8560 O.2       1 ILE        -0.3907
      5 CB         22.2280   -3.7070    3.5470 C.3       1 ILE         0.0164
      6 CG1        23.1670   -3.3530    2.3860 C.3       1 ILE        -0.0460
      7 CG2        20.8070   -3.9350    3.0460 C.3       1 ILE        -0.0551
      8 CD1        24.1260   -4.4620    2.0110 C.3       1 ILE        -0.0647
      9 N          21.8640   -0.7970    3.0350 N.am      1 GLY        -0.2637
     10 CA         21.1850    0.3840    2.5330 C.3       1 GLY         0.1202
     11 C          20.6270    0.1860    1.1350 C.2       1 GLY         0.2008
     12 O          20.2670   -0.9300    0.7570 O.2       1 GLY        -0.3947
     13 N          20.5520    1.2700    0.3680 N.am      1 THR        -0.2616
     14 CA         20.0300    1.2130   -0.9950 C.3       1 THR         0.1565
     15 C          18.5800    0.7460   -0.9970 C.2       1 THR         0.2066
     16 O          18.2950   -0.4120   -0.6910 O.2       1 THR        -0.3943
     17 CB         20.8780    0.2770   -1.8600 C.3       1 THR         0.0924
     18 OG1        22.2590    0.4120   -1.5580 O.3       1 THR        -0.3874
     19 CG2        20.7070    0.5220   -3.3440 C.3       1 THR        -0.0346
     20 N          17.6690    1.6540   -1.3400 N.am      1 ASP        -0.2621
     21 CA         16.2430    1.3420   -1.3790 C.3       1 ASP         0.1423
     22 C          15.8240    0.5460   -0.1460 C.2       1 ASP         0.2056
     23 O          15.0900   -0.4370   -0.2470 O.2       1 ASP        -0.3943
     24 CB         15.8980    0.5620   -2.6520 C.3       1 ASP         0.0406
     25 CG         16.5350   -0.8140   -2.6860 C.2       1 ASP         0.0393
     26 OD1        15.9150   -1.7700   -2.1740 O.co2     1 ASP        -0.5688
     27 OD2        17.6550   -0.9360   -3.2250 O.co2     1 ASP        -0.5688
     28 N          16.2980    0.9770    1.0180 N.am      1 LYS        -0.2636
     29 CA         15.9740    0.3020    2.2660 C.3       1 LYS         0.1310
     30 C          14.4690    0.2600    2.4760 C.2       1 LYS         0.2039
     31 O          13.9250   -0.7420    2.9360 O.2       1 LYS        -0.3944
     32 CB         16.6430    1.0020    3.4500 C.3       1 LYS        -0.0122
     33 CG         17.8250    0.2350    4.0170 C.3       1 LYS        -0.0440
     34 CD         17.4260   -0.5890    5.2330 C.3       1 LYS        -0.0124
     35 CE         17.8970    0.0610    6.5250 C.3       1 LYS        -0.0354
     36 NZ         18.2350   -0.9490    7.5660 N.4       1 LYS         0.2185
     37 N          13.8010    1.3560    2.1380 N.am      1 GLU        -0.2636
     38 CA         12.3600    1.4370    2.2970 C.3       1 GLU         0.1325
     39 C          11.6530    0.4420    1.3830 C.2       1 GLU         0.2040
     40 O          10.5560   -0.0160    1.6900 O.2       1 GLU        -0.3944
     41 CB         11.8660    2.8620    2.0340 C.3       1 GLU        -0.0008
     42 CG         11.8530    3.2590    0.5690 C.3       1 GLU         0.0044
     43 CD         13.0390    4.1190    0.1860 C.2       1 GLU         0.0350
     44 OE1        14.1030    3.5530   -0.1390 O.co2     1 GLU        -0.5690
     45 OE2        12.9050    5.3610    0.2130 O.co2     1 GLU        -0.5690
     46 N          12.2830    0.1060    0.2610 N.am      1 LEU        -0.2637
     47 CA         11.6910   -0.8380   -0.6760 C.3       1 LEU         0.1312
     48 C          12.0710   -2.2730   -0.3170 C.2       1 LEU         0.2040
     49 O          11.3040   -3.2080   -0.5430 O.2       1 LEU        -0.3944
     50 CB         12.1430   -0.5140   -2.1020 C.3       1 LEU        -0.0101
     51 CG         11.0140   -0.1720   -3.0690 C.3       1 LEU        -0.0425
     52 CD1        10.0400   -1.3350   -3.1600 C.3       1 LEU        -0.0625
     53 CD2        10.3030    1.1000   -2.6260 C.3       1 LEU        -0.0625
     54 N          13.2620   -2.4370    0.2360 N.am      1 SER        -0.2616
     55 CA         13.7580   -3.7530    0.6280 C.3       1 SER         0.1539
     56 C          13.1770   -4.2020    1.9650 C.2       1 SER         0.2063
     57 O          12.8660   -5.3760    2.1480 O.2       1 SER        -0.3943
     58 CB         15.2860   -3.7550    0.6860 C.3       1 SER         0.0843
     59 OG         15.8320   -4.5140   -0.3790 O.3       1 SER        -0.3903
     60 N          13.0410   -3.2640    2.9040 N.am      1 ASP        -0.2621
     61 CA         12.5010   -3.5790    4.2290 C.3       1 ASP         0.1423
     62 C          11.0310   -3.9840    4.1540 C.2       1 ASP         0.2056
     63 O          10.4100   -4.2760    5.1760 O.2       1 ASP        -0.3943
     64 CB         12.6530   -2.3800    5.1700 C.3       1 ASP         0.0406
     65 CG         13.3700   -2.7430    6.4550 C.2       1 ASP         0.0393
     66 OD1        13.1510   -3.8660    6.9600 O.co2     1 ASP        -0.5688
     67 OD2        14.1500   -1.9070    6.9560 O.co2     1 ASP        -0.5688
     68 N          10.4800   -4.0050    2.9460 N.am      1 LEU        -0.2636
     69 CA          9.0890   -4.3770    2.7550 C.3       1 LEU         0.1312
     70 C           8.9280   -5.3300    1.5720 C.2       1 LEU         0.2039
     71 O           8.0820   -6.2150    1.6090 O.2       1 LEU        -0.3944
     72 CB          8.2390   -3.1310    2.5490 C.3       1 LEU        -0.0101
     73 CG          8.6450   -1.9240    3.3790 C.3       1 LEU        -0.0425
     74 CD1         8.0360   -0.6630    2.7910 C.3       1 LEU        -0.0625
     75 CD2         8.2160   -2.1160    4.8230 C.3       1 LEU        -0.0625
     76 N           9.7450   -5.1500    0.5300 N.am      1 LEU        -0.2637
     77 CA          9.6800   -6.0140   -0.6490 C.3       1 LEU         0.1312
     78 C          10.8610   -6.9760   -0.6740 C.2       1 LEU         0.2040
     79 O          11.9300   -6.6790   -0.1430 O.2       1 LEU        -0.3944
     80 CB          9.6610   -5.1890   -1.9470 C.3       1 LEU        -0.0101
     81 CG          8.4910   -5.4870   -2.8990 C.3       1 LEU        -0.0425
     82 CD1         8.4730   -4.5100   -4.0620 C.3       1 LEU        -0.0625
     83 CD2         8.5610   -6.9190   -3.4160 C.3       1 LEU        -0.0625
     84 N          10.6590   -8.1290   -1.3030 N.am      1 ASP        -0.2622
     85 CA         11.7050   -9.1380   -1.4100 C.3       1 ASP         0.1423
     86 C          12.0950   -9.6790   -0.0380 C.2       1 ASP         0.2057
     87 O          12.1170   -8.9470    0.9520 O.2       1 ASP        -0.3943
     88 CB         12.9290   -8.5530   -2.1190 C.3       1 ASP         0.0406
     89 CG         12.9050   -8.8180   -3.6120 C.2       1 ASP         0.0393
     90 OD1        12.3180   -7.9990   -4.3510 O.co2     1 ASP        -0.5688
     91 OD2        13.4700   -9.8450   -4.0410 O.co2     1 ASP        -0.5688
     92 N          12.4020  -10.9720    0.0080 N.am      1 PHE        -0.2618
     93 CA         12.7930  -11.6300    1.2500 C.3       1 PHE         0.1404
     94 C          13.5930  -12.8990    0.9610 C.2       1 PHE         0.2060
     95 O          14.5540  -13.2100    1.6650 O.2       1 PHE        -0.3942
     96 CB         11.5570  -11.9690    2.0870 C.3       1 PHE         0.0214
     97 CG         10.5660  -12.8390    1.3710 C.ar      1 PHE        -0.0386
     98 CD1         9.7290  -12.3080    0.4030 C.ar      1 PHE        -0.0601
     99 CD2        10.4710  -14.1900    1.6630 C.ar      1 PHE        -0.0601
    100 CE1         8.8170  -13.1070   -0.2580 C.ar      1 PHE        -0.0686
    101 CE2         9.5590  -14.9940    1.0050 C.ar      1 PHE        -0.0686
    102 CZ          8.7330  -14.4510    0.0430 C.ar      1 PHE        -0.0687
    103 N          13.1910  -13.6240   -0.0790 N.am      1 SER        -0.2614
    104 CA         13.8730  -14.8560   -0.4600 C.3       1 SER         0.1539
    105 C          15.1640  -14.5500   -1.2120 C.2       1 SER         0.2062
    106 O          16.1750  -15.2250   -1.0280 O.2       1 SER        -0.3943
    107 CB         12.9610  -15.7270   -1.3280 C.3       1 SER         0.0843
    108 OG         12.6010  -15.0580   -2.5250 O.3       1 SER        -0.3903
    109 N          15.1260  -13.5230   -2.0550 N.am      1 ALA        -0.2639
    110 CA         16.2980  -13.1290   -2.8270 C.3       1 ALA         0.1282
    111 C          17.4540  -12.7200   -1.9160 C.2       1 ALA         0.2036
    112 O          18.5960  -12.6150   -2.3620 O.2       1 ALA        -0.3944
    113 CB         15.9450  -12.0010   -3.7860 C.3       1 ALA        -0.0244
    114 N          17.1550  -12.4870   -0.6380 N.am      1 MET        -0.2637
    115 CA         18.1780  -12.0900    0.3220 C.3       1 MET         0.1317
    116 C          18.5690  -13.2610    1.2220 C.2       1 MET         0.2040
    117 O          19.7200  -13.3780    1.6410 O.2       1 MET        -0.3944
    118 CB         17.6820  -10.9170    1.1710 C.3       1 MET        -0.0034
    119 CG         18.6040   -9.7110    1.1320 C.3       1 MET        -0.0024
    120 SD         20.1010   -9.9500    2.1090 S.3       1 MET        -0.1639
    121 CE         21.1600  -10.7700    0.9200 C.3       1 MET        -0.0181
    122 N          17.6050  -14.1260    1.5170 N.am      1 PHE        -0.2619
    123 CA         17.8560  -15.2830    2.3690 C.3       1 PHE         0.1404
    124 C          18.0720  -16.5440    1.5340 C.2       1 PHE         0.2055
    125 O          17.8170  -17.6560    1.9950 O.2       1 PHE        -0.3942
    126 CB         16.6930  -15.4860    3.3420 C.3       1 PHE         0.0214
    127 CG         17.1290  -15.6720    4.7680 C.ar      1 PHE        -0.0386
    128 CD1        17.4150  -16.9370    5.2590 C.ar      1 PHE        -0.0601
    129 CD2        17.2530  -14.5840    5.6170 C.ar      1 PHE        -0.0601
    130 CE1        17.8160  -17.1120    6.5710 C.ar      1 PHE        -0.0686
    131 CE2        17.6540  -14.7530    6.9300 C.ar      1 PHE        -0.0686
    132 CZ         17.9360  -16.0190    7.4070 C.ar      1 PHE        -0.0687
    133 N          18.5470  -16.3640    0.3040 N.am      1 SER        -0.2671
    134 CA         18.7990  -17.4890   -0.5910 C.3       1 SER         0.1173
    135 C          20.0350  -17.2370   -1.4490 C.2       1 SER         0.0623
    136 O          20.3010  -16.1050   -1.8550 O.co2     1 SER        -0.5665
    137 CB         17.5850  -17.7390   -1.4880 C.3       1 SER         0.0789
    138 OG         17.4040  -19.1240   -1.7270 O.3       1 SER        -0.3910
    139 OXT        20.7910  -18.1610   -1.7530 O.co2     1 SER        -0.5665
    140 H1         21.7949   -2.3882    6.6103 H         1 ILE         0.2015
    141 H2         22.3330   -3.8936    6.2186 H         1 ILE         0.2015
    142 H3         20.8089   -3.4305    5.8038 H         1 ILE         0.2015
    143 H4         23.3138   -2.3098    4.7861 H         1 ILE         0.1101
    144 H5         22.5832   -4.6453    3.9980 H         1 ILE         0.0378
    145 H6         23.7554   -2.4694    2.6739 H         1 ILE         0.0269
    146 H7         22.5532   -3.1137    1.5051 H         1 ILE         0.0269
    147 H8         20.1548   -4.1867    3.8953 H         1 ILE         0.0236
    148 H9         20.8019   -4.7630    2.3218 H         1 ILE         0.0236
    149 H10        20.4385   -3.0199    2.5594 H         1 ILE         0.0236
    150 H11        24.7607   -4.1310    1.1757 H         1 ILE         0.0230
    151 H12        23.5561   -5.3527    1.7079 H         1 ILE         0.0230
    152 H13        24.7583   -4.7083    2.8767 H         1 ILE         0.0230
    153 H14        22.6248   -1.1887    2.5176 H         1 GLY         0.1882
    154 H15        21.9002    1.2195    2.5118 H         1 GLY         0.0763
    155 H16        20.3551    0.6288    3.2122 H         1 GLY         0.0763
    156 H17        20.8613    2.1476    0.7343 H         1 THR         0.1884
    157 H18        20.0733    2.2240   -1.4262 H         1 THR         0.0826
    158 H19        20.5666   -0.7549   -1.6407 H         1 THR         0.0639
    159 H20        22.7613   -0.1783   -2.1073 H         1 THR         0.2101
    160 H21        21.3402   -0.1797   -3.9068 H         1 THR         0.0257
    161 H22        21.0029    1.5544   -3.5817 H         1 THR         0.0257
    162 H23        19.6537    0.3692   -3.6219 H         1 THR         0.0257
    163 H24        17.9702    2.5774   -1.5781 H         1 ASP         0.1884
    164 H25        15.6826    2.2885   -1.3877 H         1 ASP         0.0819
    165 H26        16.2510    1.1348   -3.5222 H         1 ASP         0.0478
    166 H27        14.8056    0.4455   -2.7082 H         1 ASP         0.0478
    167 H28        16.8902    1.7826    1.0370 H         1 LYS         0.1883
    168 H29        16.3499   -0.7303    2.2109 H         1 LYS         0.0800
    169 H30        15.8957    1.1293    4.2471 H         1 LYS         0.0312
    170 H31        16.9958    1.9892    3.1170 H         1 LYS         0.0312
    171 H32        18.6069    0.9504    4.3114 H         1 LYS         0.0269
    172 H33        18.2180   -0.4394    3.2420 H         1 LYS         0.0269
    173 H34        17.8768   -1.5890    5.1509 H         1 LYS         0.0317
    174 H35        16.3302   -0.6817    5.2582 H         1 LYS         0.0317
    175 H36        17.0968    0.7115    6.9077 H         1 LYS         0.0813
    176 H37        18.7912    0.6656    6.3131 H         1 LYS         0.0813
    177 H38        18.5416   -0.4788    8.4033 H         1 LYS         0.1994
    178 H39        18.9725   -1.5469    7.2272 H         1 LYS         0.1994
    179 H40        17.4198   -1.5048    7.7721 H         1 LYS         0.1994
    180 H41        14.2990    2.1399    1.7672 H         1 GLU         0.1883
    181 H42        12.1162    1.1770    3.3376 H         1 GLU         0.0801
    182 H43        12.5233    3.5595    2.5739 H         1 GLU         0.0330
    183 H44        10.8408    2.9484    2.4232 H         1 GLU         0.0330
    184 H45        10.9300    3.8215    0.3650 H         1 GLU         0.0433
    185 H46        11.8685    2.3454   -0.0434 H         1 GLU         0.0433
    186 H47        13.1761    0.5075    0.0580 H         1 LEU         0.1883
    187 H48        10.5964   -0.7431   -0.6233 H         1 LEU         0.0800
    188 H49        12.6794   -1.3889   -2.4980 H         1 LEU         0.0315
    189 H50        12.8272    0.3461   -2.0570 H         1 LEU         0.0315
    190 H51        11.4457    0.0006   -4.0659 H         1 LEU         0.0298
    191 H52         9.2295   -1.0806   -3.8588 H         1 LEU         0.0232
    192 H53         9.6164   -1.5373   -2.1652 H         1 LEU         0.0232
    193 H54        10.5690   -2.2289   -3.5220 H         1 LEU         0.0232
    194 H55        11.0288    1.9246   -2.5683 H         1 LEU         0.0232
    195 H56         9.8494    0.9409   -1.6366 H         1 LEU         0.0232
    196 H57         9.5174    1.3532   -3.3532 H         1 LEU         0.0232
    197 H58        13.8397   -1.6354    0.3900 H         1 SER         0.1884
    198 H59        13.4423   -4.4757   -0.1388 H         1 SER         0.0823
    199 H60        15.6095   -4.1919    1.6423 H         1 SER         0.0606
    200 H61        15.6504   -2.7196    0.6140 H         1 SER         0.0606
    201 H62        15.5579   -4.1381   -1.2073 H         1 SER         0.2097
    202 H63        13.3140   -2.3241    2.6986 H         1 ASP         0.1884
    203 H64        13.0731   -4.4233    4.6412 H         1 ASP         0.0819
    204 H65        11.6524   -1.9974    5.4195 H         1 ASP         0.0478
    205 H66        13.2272   -1.5963    4.6541 H         1 ASP         0.0478
    206 H67        11.0345   -3.7595    2.1509 H         1 LEU         0.1883
    207 H68         8.7406   -4.8916    3.6626 H         1 LEU         0.0800
    208 H69         7.1988   -3.3834    2.8023 H         1 LEU         0.0315
    209 H70         8.3000   -2.8495    1.4874 H         1 LEU         0.0315
    210 H71         9.7405   -1.8287    3.3506 H         1 LEU         0.0298
    211 H72         8.3344    0.2052    3.3969 H         1 LEU         0.0232
    212 H73         6.9395   -0.7508    2.7912 H         1 LEU         0.0232
    213 H74         8.3931   -0.5300    1.7591 H         1 LEU         0.0232
    214 H75         8.6711   -3.0347    5.2216 H         1 LEU         0.0232
    215 H76         7.1202   -2.1986    4.8721 H         1 LEU         0.0232
    216 H77         8.5460   -1.2539    5.4213 H         1 LEU         0.0232
    217 H78        10.4155   -4.4086    0.5566 H         1 LEU         0.1883
    218 H79         8.7509   -6.6003   -0.5955 H         1 LEU         0.0800
    219 H80        10.5980   -5.3860   -2.4884 H         1 LEU         0.0315
    220 H81         9.6129   -4.1249   -1.6725 H         1 LEU         0.0315
    221 H82         7.5535   -5.3694   -2.3357 H         1 LEU         0.0298
    222 H83         7.6280   -4.7456   -4.7257 H         1 LEU         0.0232
    223 H84         9.4148   -4.5919   -4.6243 H         1 LEU         0.0232
    224 H85         8.3630   -3.4850   -3.6782 H         1 LEU         0.0232
    225 H86         8.5734   -7.6159   -2.5650 H         1 LEU         0.0232
    226 H87         9.4772   -7.0499   -4.0104 H         1 LEU         0.0232
    227 H88         7.6829   -7.1249   -4.0456 H         1 LEU         0.0232
    228 H89         9.7653   -8.3091   -1.7139 H         1 ASP         0.1884
    229 H90        11.3189   -9.9733   -2.0127 H         1 ASP         0.0819
    230 H91        13.8360   -9.0066   -1.6930 H         1 ASP         0.0478
    231 H92        12.9495   -7.4659   -1.9522 H         1 ASP         0.0478
    232 H93        12.3637  -11.5097   -0.8343 H         1 PHE         0.1885
    233 H94        13.4276  -10.9398    1.8251 H         1 PHE         0.0823
    234 H95        11.0573  -11.0295    2.3654 H         1 PHE         0.0474
    235 H96        11.8860  -12.4929    2.9965 H         1 PHE         0.0474
    236 H97         9.7907  -11.2530    0.1617 H         1 PHE         0.0557
    237 H98        11.1197  -14.6218    2.4165 H         1 PHE         0.0557
    238 H99         8.1675  -12.6786   -1.0128 H         1 PHE         0.0599
    239 H100        9.4931  -16.0491    1.2446 H         1 PHE         0.0599
    240 H101        8.0185  -15.0796   -0.4761 H         1 PHE         0.0559
    241 H102       12.4026  -13.3174   -0.6124 H         1 SER         0.1884
    242 H103       14.1238  -15.4124    0.4551 H         1 SER         0.0823
    243 H104       12.0485  -15.9661   -0.7622 H         1 SER         0.0606
    244 H105       13.4893  -16.6577   -1.5821 H         1 SER         0.0606
    245 H106       12.0366  -15.6198   -3.0430 H         1 SER         0.2097
    246 H107       14.2747  -13.0094   -2.1619 H         1 ALA         0.1883
    247 H108       16.6231  -13.9961   -3.4206 H         1 ALA         0.0797
    248 H109       16.8384  -11.7152   -4.3606 H         1 ALA         0.0277
    249 H110       15.5836  -11.1334   -3.2145 H         1 ALA         0.0277
    250 H111       15.1580  -12.3392   -4.4761 H         1 ALA         0.0277
    251 H112       16.2085  -12.5867   -0.3311 H         1 MET         0.1883
    252 H113       19.0698  -11.7668   -0.2350 H         1 MET         0.0800
    253 H114       17.5937  -11.2546    2.2142 H         1 MET         0.0320
    254 H115       16.6928  -10.6115    0.7994 H         1 MET         0.0320
    255 H116       18.0611   -8.8396    1.5269 H         1 MET         0.0378
    256 H117       18.8918   -9.5212    0.0874 H         1 MET         0.0378
    257 H118       22.1341  -10.9851    1.3836 H         1 MET         0.0340
    258 H119       21.3057  -10.1169    0.0470 H         1 MET         0.0340
    259 H120       20.6907  -11.7117    0.5992 H         1 MET         0.0340
    260 H121       16.6874  -13.9808    1.1470 H         1 PHE         0.1885
    261 H122       18.7695  -15.0925    2.9514 H         1 PHE         0.0823
    262 H123       16.1306  -16.3787    3.0308 H         1 PHE         0.0474
    263 H124       16.0382  -14.6037    3.2906 H         1 PHE         0.0474
    264 H125       17.3232  -17.7983    4.6072 H         1 PHE         0.0557
    265 H126       17.0332  -13.5887    5.2479 H         1 PHE         0.0557
    266 H127       18.0360  -18.1061    6.9430 H         1 PHE         0.0599
    267 H128       17.7469  -13.8935    7.5840 H         1 PHE         0.0599
    268 H129       18.2508  -16.1540    8.4355 H         1 PHE         0.0559
    269 H130       18.7359  -15.4352   -0.0149 H         1 SER         0.1876
    270 H131       18.9750  -18.3865    0.0201 H         1 SER         0.0749
    271 H132       17.7364  -17.2254   -2.4489 H         1 SER         0.0599
    272 H133       16.6862  -17.3389   -0.9960 H         1 SER         0.0599
    273 H134       16.6458  -19.2515   -2.2850 H         1 SER         0.2096
@<TRIPOS>BOND
     1    1    2 1  
     2    2    3 1  
     3    2    5 1  
     4    3    4 2  
     5    3    9 am 
     6    5    6 1  
     7    5    7 1  
     8    6    8 1  
     9    9   10 1  
    10   10   11 1  
    11   11   12 2  
    12   11   13 am 
    13   13   14 1  
    14   14   15 1  
    15   14   17 1  
    16   15   16 2  
    17   15   20 am 
    18   17   18 1  
    19   17   19 1  
    20   20   21 1  
    21   21   22 1  
    22   21   24 1  
    23   22   23 2  
    24   22   28 am 
    25   24   25 1  
    26   25   26 ar 
    27   25   27 ar 
    28   28   29 1  
    29   29   30 1  
    30   29   32 1  
    31   30   31 2  
    32   30   37 am 
    33   32   33 1  
    34   33   34 1  
    35   34   35 1  
    36   35   36 1  
    37   37   38 1  
    38   38   39 1  
    39   38   41 1  
    40   39   40 2  
    41   39   46 am 
    42   41   42 1  
    43   42   43 1  
    44   43   44 ar 
    45   43   45 ar 
    46   46   47 1  
    47   47   48 1  
    48   47   50 1  
    49   48   49 2  
    50   48   54 am 
    51   50   51 1  
    52   51   52 1  
    53   51   53 1  
    54   54   55 1  
    55   55   56 1  
    56   55   58 1  
    57   56   57 2  
    58   56   60 am 
    59   58   59 1  
    60   60   61 1  
    61   61   62 1  
    62   61   64 1  
    63   62   63 2  
    64   62   68 am 
    65   64   65 1  
    66   65   66 ar 
    67   65   67 ar 
    68   68   69 1  
    69   69   70 1  
    70   69   72 1  
    71   70   71 2  
    72   70   76 am 
    73   72   73 1  
    74   73   74 1  
    75   73   75 1  
    76   76   77 1  
    77   77   78 1  
    78   77   80 1  
    79   78   79 2  
    80   78   84 am 
    81   80   81 1  
    82   81   82 1  
    83   81   83 1  
    84   84   85 1  
    85   85   86 1  
    86   85   88 1  
    87   86   87 2  
    88   86   92 am 
    89   88   89 1  
    90   89   90 ar 
    91   89   91 ar 
    92   92   93 1  
    93   93   94 1  
    94   93   96 1  
    95   94   95 2  
    96   94  103 am 
    97   96   97 1  
    98   97   98 ar 
    99   97   99 ar 
   100   98  100 ar 
   101   99  101 ar 
   102  100  102 ar 
   103  101  102 ar 
   104  103  104 1  
   105  104  105 1  
   106  104  107 1  
   107  105  106 2  
   108  105  109 am 
   109  107  108 1  
   110  109  110 1  
   111  110  111 1  
   112  110  113 1  
   113  111  112 2  
   114  111  114 am 
   115  114  115 1  
   116  115  116 1  
   117  115  118 1  
   118  116  117 2  
   119  116  122 am 
   120  118  119 1  
   121  119  120 1  
   122  120  121 1  
   123  122  123 1  
   124  123  124 1  
   125  123  126 1  
   126  124  125 2  
   127  124  133 am 
   128  126  127 1  
   129  127  128 ar 
   130  127  129 ar 
   131  128  130 ar 
   132  129  131 ar 
   133  130  132 ar 
   134  131  132 ar 
   135  133  134 1  
   136  134  135 1  
   137  134  137 1  
   138  135  136 ar 
   139  135  139 ar 
   140  137  138 1  
   141    1  140 1  
   142    1  141 1  
   143    1  142 1  
   144    2  143 1  
   145    5  144 1  
   146    6  145 1  
   147    6  146 1  
   148    7  147 1  
   149    7  148 1  
   150    7  149 1  
   151    8  150 1  
   152    8  151 1  
   153    8  152 1  
   154    9  153 1  
   155   10  154 1  
   156   10  155 1  
   157   13  156 1  
   158   14  157 1  
   159   17  158 1  
   160   18  159 1  
   161   19  160 1  
   162   19  161 1  
   163   19  162 1  
   164   20  163 1  
   165   21  164 1  
   166   24  165 1  
   167   24  166 1  
   168   28  167 1  
   169   29  168 1  
   170   32  169 1  
   171   32  170 1  
   172   33  171 1  
   173   33  172 1  
   174   34  173 1  
   175   34  174 1  
   176   35  175 1  
   177   35  176 1  
   178   36  177 1  
   179   36  178 1  
   180   36  179 1  
   181   37  180 1  
   182   38  181 1  
   183   41  182 1  
   184   41  183 1  
   185   42  184 1  
   186   42  185 1  
   187   46  186 1  
   188   47  187 1  
   189   50  188 1  
   190   50  189 1  
   191   51  190 1  
   192   52  191 1  
   193   52  192 1  
   194   52  193 1  
   195   53  194 1  
   196   53  195 1  
   197   53  196 1  
   198   54  197 1  
   199   55  198 1  
   200   58  199 1  
   201   58  200 1  
   202   59  201 1  
   203   60  202 1  
   204   61  203 1  
   205   64  204 1  
   206   64  205 1  
   207   68  206 1  
   208   69  207 1  
   209   72  208 1  
   210   72  209 1  
   211   73  210 1  
   212   74  211 1  
   213   74  212 1  
   214   74  213 1  
   215   75  214 1  
   216   75  215 1  
   217   75  216 1  
   218   76  217 1  
   219   77  218 1  
   220   80  219 1  
   221   80  220 1  
   222   81  221 1  
   223   82  222 1  
   224   82  223 1  
   225   82  224 1  
   226   83  225 1  
   227   83  226 1  
   228   83  227 1  
   229   84  228 1  
   230   85  229 1  
   231   88  230 1  
   232   88  231 1  
   233   92  232 1  
   234   93  233 1  
   235   96  234 1  
   236   96  235 1  
   237   98  236 1  
   238   99  237 1  
   239  100  238 1  
   240  101  239 1  
   241  102  240 1  
   242  103  241 1  
   243  104  242 1  
   244  107  243 1  
   245  107  244 1  
   246  108  245 1  
   247  109  246 1  
   248  110  247 1  
   249  113  248 1  
   250  113  249 1  
   251  113  250 1  
   252  114  251 1  
   253  115  252 1  
   254  118  253 1  
   255  118  254 1  
   256  119  255 1  
   257  119  256 1  
   258  121  257 1  
   259  121  258 1  
   260  121  259 1  
   261  122  260 1  
   262  123  261 1  
   263  126  262 1  
   264  126  263 1  
   265  128  264 1  
   266  129  265 1  
   267  130  266 1  
   268  131  267 1  
   269  132  268 1  
   270  133  269 1  
   271  134  270 1  
   272  137  271 1  
   273  137  272 1  
   274  138  273 1  
@<TRIPOS>SUBSTRUCTURE
     1 ILE         1

