2knh_ligand
  -I-interpret- 

278279  0  0  0  0  0  0  0  0999 V2000
   21.7610   -3.1200    5.9180 N   0  3  0  0  0
   22.2650   -2.6070    4.6390 C   0  0  0  0  0
   21.4820   -1.3640    4.1800 C   0  0  0  0  0
   20.5560   -0.9180    4.8560 O   0  0  0  0  0
   22.2280   -3.7070    3.5470 C   0  0  0  0  0
   23.1670   -3.3530    2.3860 C   0  0  0  0  0
   20.8070   -3.9350    3.0460 C   0  0  0  0  0
   24.1260   -4.4620    2.0110 C   0  0  0  0  0
   21.8640   -0.7970    3.0350 N   0  0  0  0  0
   21.1850    0.3840    2.5330 C   0  0  0  0  0
   20.6270    0.1860    1.1350 C   0  0  0  0  0
   20.2670   -0.9300    0.7570 O   0  0  0  0  0
   20.5520    1.2700    0.3680 N   0  0  0  0  0
   20.0300    1.2130   -0.9950 C   0  0  0  0  0
   18.5800    0.7460   -0.9970 C   0  0  0  0  0
   18.2950   -0.4120   -0.6910 O   0  0  0  0  0
   20.8780    0.2770   -1.8600 C   0  0  0  0  0
   22.2590    0.4120   -1.5580 O   0  0  0  0  0
   20.7070    0.5220   -3.3440 C   0  0  0  0  0
   17.6690    1.6540   -1.3400 N   0  0  0  0  0
   16.2430    1.3420   -1.3790 C   0  0  0  0  0
   15.8240    0.5460   -0.1460 C   0  0  0  0  0
   15.0900   -0.4370   -0.2470 O   0  0  0  0  0
   15.8980    0.5620   -2.6520 C   0  0  0  0  0
   16.5350   -0.8140   -2.6860 C   0  0  0  0  0
   15.9150   -1.7700   -2.1740 O   0  0  0  0  0
   17.6550   -0.9360   -3.2250 O   0  0  0  0  0
   16.2980    0.9770    1.0180 N   0  0  0  0  0
   15.9740    0.3020    2.2660 C   0  0  0  0  0
   14.4690    0.2600    2.4760 C   0  0  0  0  0
   13.9250   -0.7420    2.9360 O   0  0  0  0  0
   16.6430    1.0020    3.4500 C   0  0  0  0  0
   17.8250    0.2350    4.0170 C   0  0  0  0  0
   17.4260   -0.5890    5.2330 C   0  0  0  0  0
   17.8970    0.0610    6.5250 C   0  0  0  0  0
   18.2350   -0.9490    7.5660 N   0  3  0  0  0
   13.8010    1.3560    2.1380 N   0  0  0  0  0
   12.3600    1.4370    2.2970 C   0  0  0  0  0
   11.6530    0.4420    1.3830 C   0  0  0  0  0
   10.5560   -0.0160    1.6900 O   0  0  0  0  0
   11.8660    2.8620    2.0340 C   0  0  0  0  0
   11.8530    3.2590    0.5690 C   0  0  0  0  0
   13.0390    4.1190    0.1860 C   0  0  0  0  0
   14.1030    3.5530   -0.1390 O   0  0  0  0  0
   12.9050    5.3610    0.2130 O   0  0  0  0  0
   12.2830    0.1060    0.2610 N   0  0  0  0  0
   11.6910   -0.8380   -0.6760 C   0  0  0  0  0
   12.0710   -2.2730   -0.3170 C   0  0  0  0  0
   11.3040   -3.2080   -0.5430 O   0  0  0  0  0
   12.1430   -0.5140   -2.1020 C   0  0  0  0  0
   11.0140   -0.1720   -3.0690 C   0  0  0  0  0
   10.0400   -1.3350   -3.1600 C   0  0  0  0  0
   10.3030    1.1000   -2.6260 C   0  0  0  0  0
   13.2620   -2.4370    0.2360 N   0  0  0  0  0
   13.7580   -3.7530    0.6280 C   0  0  0  0  0
   13.1770   -4.2020    1.9650 C   0  0  0  0  0
   12.8660   -5.3760    2.1480 O   0  0  0  0  0
   15.2860   -3.7550    0.6860 C   0  0  0  0  0
   15.8320   -4.5140   -0.3790 O   0  0  0  0  0
   13.0410   -3.2640    2.9040 N   0  0  0  0  0
   12.5010   -3.5790    4.2290 C   0  0  0  0  0
   11.0310   -3.9840    4.1540 C   0  0  0  0  0
   10.4100   -4.2760    5.1760 O   0  0  0  0  0
   12.6530   -2.3800    5.1700 C   0  0  0  0  0
   13.3700   -2.7430    6.4550 C   0  0  0  0  0
   13.1510   -3.8660    6.9600 O   0  0  0  0  0
   14.1500   -1.9070    6.9560 O   0  0  0  0  0
   10.4800   -4.0050    2.9460 N   0  0  0  0  0
    9.0890   -4.3770    2.7550 C   0  0  0  0  0
    8.9280   -5.3300    1.5720 C   0  0  0  0  0
    8.0820   -6.2150    1.6090 O   0  0  0  0  0
    8.2390   -3.1310    2.5490 C   0  0  0  0  0
    8.6450   -1.9240    3.3790 C   0  0  0  0  0
    8.0360   -0.6630    2.7910 C   0  0  0  0  0
    8.2160   -2.1160    4.8230 C   0  0  0  0  0
    9.7450   -5.1500    0.5300 N   0  0  0  0  0
    9.6800   -6.0140   -0.6490 C   0  0  0  0  0
   10.8610   -6.9760   -0.6740 C   0  0  0  0  0
   11.9300   -6.6790   -0.1430 O   0  0  0  0  0
    9.6610   -5.1890   -1.9470 C   0  0  0  0  0
    8.4910   -5.4870   -2.8990 C   0  0  0  0  0
    8.4730   -4.5100   -4.0620 C   0  0  0  0  0
    8.5610   -6.9190   -3.4160 C   0  0  0  0  0
   10.6590   -8.1290   -1.3030 N   0  0  0  0  0
   11.7050   -9.1380   -1.4100 C   0  0  0  0  0
   12.0950   -9.6790   -0.0380 C   0  0  0  0  0
   12.1170   -8.9470    0.9520 O   0  0  0  0  0
   12.9290   -8.5530   -2.1190 C   0  0  0  0  0
   12.9050   -8.8180   -3.6120 C   0  0  0  0  0
   12.3180   -7.9990   -4.3510 O   0  0  0  0  0
   13.4700   -9.8450   -4.0410 O   0  0  0  0  0
   12.4020  -10.9720    0.0080 N   0  0  0  0  0
   12.7930  -11.6300    1.2500 C   0  0  0  0  0
   13.5930  -12.8990    0.9610 C   0  0  0  0  0
   14.5540  -13.2100    1.6650 O   0  0  0  0  0
   11.5570  -11.9690    2.0870 C   0  0  0  0  0
   10.5660  -12.8390    1.3710 C   0  0  0  0  0
    9.7290  -12.3080    0.4030 C   0  0  0  0  0
   10.4710  -14.1900    1.6630 C   0  0  0  0  0
    8.8170  -13.1070   -0.2580 C   0  0  0  0  0
    9.5590  -14.9940    1.0050 C   0  0  0  0  0
    8.7330  -14.4510    0.0430 C   0  0  0  0  0
   13.1910  -13.6240   -0.0790 N   0  0  0  0  0
   13.8730  -14.8560   -0.4600 C   0  0  0  0  0
   15.1640  -14.5500   -1.2120 C   0  0  0  0  0
   16.1750  -15.2250   -1.0280 O   0  0  0  0  0
   12.9610  -15.7270   -1.3280 C   0  0  0  0  0
   12.6010  -15.0580   -2.5250 O   0  0  0  0  0
   15.1260  -13.5230   -2.0550 N   0  0  0  0  0
   16.2980  -13.1290   -2.8270 C   0  0  0  0  0
   17.4540  -12.7200   -1.9160 C   0  0  0  0  0
   18.5960  -12.6150   -2.3620 O   0  0  0  0  0
   15.9450  -12.0010   -3.7860 C   0  0  0  0  0
   17.1550  -12.4870   -0.6380 N   0  0  0  0  0
   18.1780  -12.0900    0.3220 C   0  0  0  0  0
   18.5690  -13.2610    1.2220 C   0  0  0  0  0
   19.7200  -13.3780    1.6410 O   0  0  0  0  0
   17.6820  -10.9170    1.1710 C   0  0  0  0  0
   18.6040   -9.7110    1.1320 C   0  0  0  0  0
   20.1010   -9.9500    2.1090 S   0  0  0  0  0
   21.1600  -10.7700    0.9200 C   0  0  0  0  0
   17.6050  -14.1260    1.5170 N   0  0  0  0  0
   17.8560  -15.2830    2.3690 C   0  0  0  0  0
   18.0720  -16.5440    1.5340 C   0  0  0  0  0
   17.8170  -17.6560    1.9950 O   0  0  0  0  0
   16.6930  -15.4860    3.3420 C   0  0  0  0  0
   17.1290  -15.6720    4.7680 C   0  0  0  0  0
   17.4150  -16.9370    5.2590 C   0  0  0  0  0
   17.2530  -14.5840    5.6170 C   0  0  0  0  0
   17.8160  -17.1120    6.5710 C   0  0  0  0  0
   17.6540  -14.7530    6.9300 C   0  0  0  0  0
   17.9360  -16.0190    7.4070 C   0  0  0  0  0
   18.5470  -16.3640    0.3040 N   0  0  0  0  0
   18.7990  -17.4890   -0.5910 C   0  0  0  0  0
   20.0350  -17.2370   -1.4490 C   0  0  0  0  0
   20.3010  -16.1050   -1.8550 O   0  0  0  0  0
   17.5850  -17.7390   -1.4880 C   0  0  0  0  0
   17.4040  -19.1240   -1.7270 O   0  0  0  0  0
   20.7910  -18.1610   -1.7530 O   0  0  0  0  0
   21.7958   -2.3787    6.6177 H   0  0  0  0  0
   20.7976   -3.4339    5.8011 H   0  0  0  0  0
   22.3405   -3.9027    6.2211 H   0  0  0  0  0
   23.3021   -2.3093    4.7939 H   0  0  0  0  0
   22.5771   -4.6372    3.9953 H   0  0  0  0  0
   23.7668   -2.5000    2.7034 H   0  0  0  0  0
   22.5434   -3.1558    1.5140 H   0  0  0  0  0
   20.4431   -3.0276    2.5640 H   0  0  0  0  0
   20.8033   -4.7556    2.3285 H   0  0  0  0  0
   20.1617   -4.1843    3.8884 H   0  0  0  0  0
   24.7519   -4.7051    2.8696 H   0  0  0  0  0
   23.5601   -5.3439    1.7109 H   0  0  0  0  0
   24.7543   -4.1329    1.1833 H   0  0  0  0  0
   22.6400   -1.1966    2.5073 H   0  0  0  0  0
   21.9104    1.1966    2.4928 H   0  0  0  0  0
   20.3504    0.6003    3.2000 H   0  0  0  0  0
   20.8675    2.1651    0.7416 H   0  0  0  0  0
   20.0763    2.2180   -1.4144 H   0  0  0  0  0
   20.5246   -0.7272   -1.6257 H   0  0  0  0  0
   22.7666   -0.1845   -2.1131 H   0  0  0  0  0
   19.6630    0.3703   -3.6181 H   0  0  0  0  0
   21.0005    1.5453   -3.5782 H   0  0  0  0  0
   21.3348   -0.1738   -3.9005 H   0  0  0  0  0
   17.9762    2.5958   -1.5828 H   0  0  0  0  0
   15.6935    2.2833   -1.3834 H   0  0  0  0  0
   16.2765    1.1272   -3.5037 H   0  0  0  0  0
   14.8163    0.4309   -2.6814 H   0  0  0  0  0
   15.0804   -1.4553   -1.8191 H   0  0  0  0  0
   16.9020    1.7987    1.0373 H   0  0  0  0  0
   16.3509   -0.7188    2.2035 H   0  0  0  0  0
   15.8991    1.0903    4.2418 H   0  0  0  0  0
   17.0154    1.9630    3.0951 H   0  0  0  0  0
   18.5871    0.9522    4.3217 H   0  0  0  0  0
   18.1969   -0.4426    3.2484 H   0  0  0  0  0
   17.8900   -1.5720    5.1516 H   0  0  0  0  0
   16.3388   -0.6619    5.2593 H   0  0  0  0  0
   17.0898    0.6866    6.9061 H   0  0  0  0  0
   18.7943    0.6404    6.3079 H   0  0  0  0  0
   18.5450   -0.4721    8.4127 H   0  0  0  0  0
   17.4094   -1.5108    7.7737 H   0  0  0  0  0
   18.9812   -1.5533    7.2221 H   0  0  0  0  0
   14.3090    2.1556    1.7598 H   0  0  0  0  0
   12.1188    1.1766    3.3276 H   0  0  0  0  0
   12.5526    3.5383    2.5432 H   0  0  0  0  0
   10.8370    2.9152    2.3896 H   0  0  0  0  0
   10.9474    3.8377    0.3871 H   0  0  0  0  0
   11.8956    2.3463   -0.0254 H   0  0  0  0  0
   12.0118    5.5794    0.4889 H   0  0  0  0  0
   13.1940    0.5155    0.0540 H   0  0  0  0  0
   10.6065   -0.7473   -0.6155 H   0  0  0  0  0
   12.6318   -1.4078   -2.4897 H   0  0  0  0  0
   12.7829    0.3661   -2.0388 H   0  0  0  0  0
   11.4347    0.0046   -4.0589 H   0  0  0  0  0
   10.5654   -2.2201   -3.5187 H   0  0  0  0  0
    9.6211   -1.5344   -2.1737 H   0  0  0  0  0
    9.2374   -1.0817   -3.8526 H   0  0  0  0  0
    9.8859    0.9534   -1.6297 H   0  0  0  0  0
   11.0156    1.9246   -2.6052 H   0  0  0  0  0
    9.5005    1.3292   -3.3272 H   0  0  0  0  0
   13.8512   -1.6194    0.3931 H   0  0  0  0  0
   13.4308   -4.4642   -0.1304 H   0  0  0  0  0
   15.6002   -4.1998    1.6302 H   0  0  0  0  0
   15.6411   -2.7279    0.6022 H   0  0  0  0  0
   16.7902   -4.5006   -0.3216 H   0  0  0  0  0
   13.3194   -2.3054    2.6945 H   0  0  0  0  0
   13.0709   -4.4221    4.6194 H   0  0  0  0  0
   11.6554   -2.0250    5.4286 H   0  0  0  0  0
   13.2431   -1.6207    4.6569 H   0  0  0  0  0
   12.5225   -4.3440    6.4141 H   0  0  0  0  0
   11.0456   -3.7546    2.1350 H   0  0  0  0  0
    8.7504   -4.8963    3.6515 H   0  0  0  0  0
    7.2247   -3.3913    2.8516 H   0  0  0  0  0
    8.3535   -2.8441    1.5037 H   0  0  0  0  0
    9.7299   -1.8210    3.3588 H   0  0  0  0  0
    8.3906   -0.5324    1.7686 H   0  0  0  0  0
    6.9496   -0.7513    2.7917 H   0  0  0  0  0
    8.3323    0.1965    3.3922 H   0  0  0  0  0
    7.1332   -2.2331    4.8665 H   0  0  0  0  0
    8.6957   -3.0072    5.2278 H   0  0  0  0  0
    8.5123   -1.2450    5.4076 H   0  0  0  0  0
   10.4289   -4.3937    0.5571 H   0  0  0  0  0
    8.7525   -6.5832   -0.5864 H   0  0  0  0  0
   10.5741   -5.4377   -2.4878 H   0  0  0  0  0
    9.5639   -4.1444   -1.6511 H   0  0  0  0  0
    7.5664   -5.3677   -2.3342 H   0  0  0  0  0
    8.3640   -3.4948   -3.6804 H   0  0  0  0  0
    9.4067   -4.5921   -4.6183 H   0  0  0  0  0
    7.6354   -4.7445   -4.7189 H   0  0  0  0  0
    9.4974   -7.0640   -3.9548 H   0  0  0  0  0
    8.5136   -7.6104   -2.5747 H   0  0  0  0  0
    7.7220   -7.1031   -4.0870 H   0  0  0  0  0
    9.7474   -8.3127   -1.7221 H   0  0  0  0  0
   11.3155   -9.9689   -1.9982 H   0  0  0  0  0
   13.8197   -9.0251   -1.7044 H   0  0  0  0  0
   12.9271   -7.4739   -1.9654 H   0  0  0  0  0
   11.9571   -7.2883   -3.8159 H   0  0  0  0  0
   12.3629  -11.5204   -0.8511 H   0  0  0  0  0
   13.4237  -10.9430    1.8143 H   0  0  0  0  0
   11.0560  -11.0306    2.3246 H   0  0  0  0  0
   11.8977  -12.5169    2.9655 H   0  0  0  0  0
    9.7911  -11.2472    0.1603 H   0  0  0  0  0
   11.1232  -14.6242    2.4207 H   0  0  0  0  0
    8.1639  -12.6763   -1.0170 H   0  0  0  0  0
    9.4928  -16.0550    1.2459 H   0  0  0  0  0
    8.0145  -15.0830   -0.4790 H   0  0  0  0  0
   12.3869  -13.3112   -0.6230 H   0  0  0  0  0
   14.1203  -15.3996    0.4518 H   0  0  0  0  0
   12.0533  -15.9480   -0.7664 H   0  0  0  0  0
   13.4961  -16.6405   -1.5873 H   0  0  0  0  0
   12.0306  -15.6257   -3.0484 H   0  0  0  0  0
   14.2577  -12.9991   -2.1641 H   0  0  0  0  0
   16.6244  -13.9924   -3.4067 H   0  0  0  0  0
   15.1651  -12.3373   -4.4691 H   0  0  0  0  0
   15.5870  -11.1420   -3.2185 H   0  0  0  0  0
   16.8310  -11.7187   -4.3547 H   0  0  0  0  0
   16.1896  -12.5887   -0.3249 H   0  0  0  0  0
   19.0613  -11.7774   -0.2349 H   0  0  0  0  0
   17.6315  -11.2583    2.2049 H   0  0  0  0  0
   16.7175  -10.6060    0.7697 H   0  0  0  0  0
   18.0631   -8.8618    1.5496 H   0  0  0  0  0
   18.9019   -9.5501    0.0959 H   0  0  0  0  0
   20.6939  -11.7029    0.6029 H   0  0  0  0  0
   21.3036  -10.1218    0.0555 H   0  0  0  0  0
   22.1248  -10.9826    1.3805 H   0  0  0  0  0
   16.6690  -13.9779    1.1396 H   0  0  0  0  0
   18.7660  -15.0933    2.9382 H   0  0  0  0  0
   16.1675  -16.3918    3.0396 H   0  0  0  0  0
   16.0736  -14.5899    3.3033 H   0  0  0  0  0
   17.3227  -17.8030    4.6036 H   0  0  0  0  0
   17.0320  -13.5832    5.2459 H   0  0  0  0  0
   18.0372  -18.1116    6.9450 H   0  0  0  0  0
   17.7474  -13.8887    7.5876 H   0  0  0  0  0
   18.2526  -16.1548    8.4411 H   0  0  0  0  0
   18.7397  -15.4166   -0.0212 H   0  0  0  0  0
   18.9774  -18.3728    0.0215 H   0  0  0  0  0
   17.7476  -17.2386   -2.4426 H   0  0  0  0  0
   16.6967  -17.3522   -0.9886 H   0  0  0  0  0
   16.6378  -19.2528   -2.2909 H   0  0  0  0  0
   20.4641  -18.9791   -1.3716 H   0  0  0  0  0
  1  2  1  0  0  0
  2  3  1  0  0  0
  2  5  1  0  0  0
  3  4  2  0  0  0
  3  9  1  0  0  0
  5  6  1  0  0  0
  5  7  1  0  0  0
  6  8  1  0  0  0
  9 10  1  0  0  0
 10 11  1  0  0  0
 11 12  2  0  0  0
 11 13  1  0  0  0
 13 14  1  0  0  0
 14 15  1  0  0  0
 14 17  1  0  0  0
 15 16  2  0  0  0
 15 20  1  0  0  0
 17 18  1  0  0  0
 17 19  1  0  0  0
 20 21  1  0  0  0
 21 22  1  0  0  0
 21 24  1  0  0  0
 22 23  2  0  0  0
 22 28  1  0  0  0
 24 25  1  0  0  0
 25 26  1  0  0  0
 25 27  2  0  0  0
 28 29  1  0  0  0
 29 30  1  0  0  0
 29 32  1  0  0  0
 30 31  2  0  0  0
 30 37  1  0  0  0
 32 33  1  0  0  0
 33 34  1  0  0  0
 34 35  1  0  0  0
 35 36  1  0  0  0
 37 38  1  0  0  0
 38 39  1  0  0  0
 38 41  1  0  0  0
 39 40  2  0  0  0
 39 46  1  0  0  0
 41 42  1  0  0  0
 42 43  1  0  0  0
 43 44  2  0  0  0
 43 45  1  0  0  0
 46 47  1  0  0  0
 47 48  1  0  0  0
 47 50  1  0  0  0
 48 49  2  0  0  0
 48 54  1  0  0  0
 50 51  1  0  0  0
 51 52  1  0  0  0
 51 53  1  0  0  0
 54 55  1  0  0  0
 55 56  1  0  0  0
 55 58  1  0  0  0
 56 57  2  0  0  0
 56 60  1  0  0  0
 58 59  1  0  0  0
 60 61  1  0  0  0
 61 62  1  0  0  0
 61 64  1  0  0  0
 62 63  2  0  0  0
 62 68  1  0  0  0
 64 65  1  0  0  0
 65 66  1  0  0  0
 65 67  2  0  0  0
 68 69  1  0  0  0
 69 70  1  0  0  0
 69 72  1  0  0  0
 70 71  2  0  0  0
 70 76  1  0  0  0
 72 73  1  0  0  0
 73 74  1  0  0  0
 73 75  1  0  0  0
 76 77  1  0  0  0
 77 78  1  0  0  0
 77 80  1  0  0  0
 78 79  2  0  0  0
 78 84  1  0  0  0
 80 81  1  0  0  0
 81 82  1  0  0  0
 81 83  1  0  0  0
 84 85  1  0  0  0
 85 86  1  0  0  0
 85 88  1  0  0  0
 86 87  2  0  0  0
 86 92  1  0  0  0
 88 89  1  0  0  0
 89 90  1  0  0  0
 89 91  2  0  0  0
 92 93  1  0  0  0
 93 94  1  0  0  0
 93 96  1  0  0  0
 94 95  2  0  0  0
 94103  1  0  0  0
 96 97  1  0  0  0
 97 98  4  0  0  0
 97 99  4  0  0  0
 98100  4  0  0  0
 99101  4  0  0  0
100102  4  0  0  0
101102  4  0  0  0
103104  1  0  0  0
104105  1  0  0  0
104107  1  0  0  0
105106  2  0  0  0
105109  1  0  0  0
107108  1  0  0  0
109110  1  0  0  0
110111  1  0  0  0
110113  1  0  0  0
111112  2  0  0  0
111114  1  0  0  0
114115  1  0  0  0
115116  1  0  0  0
115118  1  0  0  0
116117  2  0  0  0
116122  1  0  0  0
118119  1  0  0  0
119120  1  0  0  0
120121  1  0  0  0
122123  1  0  0  0
123124  1  0  0  0
123126  1  0  0  0
124125  2  0  0  0
124133  1  0  0  0
126127  1  0  0  0
127128  4  0  0  0
127129  4  0  0  0
128130  4  0  0  0
129131  4  0  0  0
130132  4  0  0  0
131132  4  0  0  0
133134  1  0  0  0
134135  1  0  0  0
134137  1  0  0  0
135136  2  0  0  0
135139  1  0  0  0
137138  1  0  0  0
  1140  1  0  0  0
  1141  1  0  0  0
  1142  1  0  0  0
  2143  1  0  0  0
  5144  1  0  0  0
  6145  1  0  0  0
  6146  1  0  0  0
  7147  1  0  0  0
  7148  1  0  0  0
  7149  1  0  0  0
  8150  1  0  0  0
  8151  1  0  0  0
  8152  1  0  0  0
  9153  1  0  0  0
 10154  1  0  0  0
 10155  1  0  0  0
 13156  1  0  0  0
 14157  1  0  0  0
 17158  1  0  0  0
 18159  1  0  0  0
 19160  1  0  0  0
 19161  1  0  0  0
 19162  1  0  0  0
 20163  1  0  0  0
 21164  1  0  0  0
 24165  1  0  0  0
 24166  1  0  0  0
 26167  1  0  0  0
 28168  1  0  0  0
 29169  1  0  0  0
 32170  1  0  0  0
 32171  1  0  0  0
 33172  1  0  0  0
 33173  1  0  0  0
 34174  1  0  0  0
 34175  1  0  0  0
 35176  1  0  0  0
 35177  1  0  0  0
 36178  1  0  0  0
 36179  1  0  0  0
 36180  1  0  0  0
 37181  1  0  0  0
 38182  1  0  0  0
 41183  1  0  0  0
 41184  1  0  0  0
 42185  1  0  0  0
 42186  1  0  0  0
 45187  1  0  0  0
 46188  1  0  0  0
 47189  1  0  0  0
 50190  1  0  0  0
 50191  1  0  0  0
 51192  1  0  0  0
 52193  1  0  0  0
 52194  1  0  0  0
 52195  1  0  0  0
 53196  1  0  0  0
 53197  1  0  0  0
 53198  1  0  0  0
 54199  1  0  0  0
 55200  1  0  0  0
 58201  1  0  0  0
 58202  1  0  0  0
 59203  1  0  0  0
 60204  1  0  0  0
 61205  1  0  0  0
 64206  1  0  0  0
 64207  1  0  0  0
 66208  1  0  0  0
 68209  1  0  0  0
 69210  1  0  0  0
 72211  1  0  0  0
 72212  1  0  0  0
 73213  1  0  0  0
 74214  1  0  0  0
 74215  1  0  0  0
 74216  1  0  0  0
 75217  1  0  0  0
 75218  1  0  0  0
 75219  1  0  0  0
 76220  1  0  0  0
 77221  1  0  0  0
 80222  1  0  0  0
 80223  1  0  0  0
 81224  1  0  0  0
 82225  1  0  0  0
 82226  1  0  0  0
 82227  1  0  0  0
 83228  1  0  0  0
 83229  1  0  0  0
 83230  1  0  0  0
 84231  1  0  0  0
 85232  1  0  0  0
 88233  1  0  0  0
 88234  1  0  0  0
 90235  1  0  0  0
 92236  1  0  0  0
 93237  1  0  0  0
 96238  1  0  0  0
 96239  1  0  0  0
 98240  1  0  0  0
 99241  1  0  0  0
100242  1  0  0  0
101243  1  0  0  0
102244  1  0  0  0
103245  1  0  0  0
104246  1  0  0  0
107247  1  0  0  0
107248  1  0  0  0
108249  1  0  0  0
109250  1  0  0  0
110251  1  0  0  0
113252  1  0  0  0
113253  1  0  0  0
113254  1  0  0  0
114255  1  0  0  0
115256  1  0  0  0
118257  1  0  0  0
118258  1  0  0  0
119259  1  0  0  0
119260  1  0  0  0
121261  1  0  0  0
121262  1  0  0  0
121263  1  0  0  0
122264  1  0  0  0
123265  1  0  0  0
126266  1  0  0  0
126267  1  0  0  0
128268  1  0  0  0
129269  1  0  0  0
130270  1  0  0  0
131271  1  0  0  0
132272  1  0  0  0
133273  1  0  0  0
134274  1  0  0  0
137275  1  0  0  0
137276  1  0  0  0
138277  1  0  0  0
139278  1  0  0  0
M  END
$$$$
