### 
### Created by X-TOOL on Mon Sep 10 21:12:53 2018
### 

@<TRIPOS>MOLECULE
1z4n_ligand
   27    27     1     0     0
SMALL
GAST_HUCK


@<TRIPOS>ATOM
      1 C1          5.3660   -5.0040   12.9930 C.3       1 GL1         0.2169
      2 C2          4.1770   -4.0390   12.9810 C.3       1 GL1         0.1384
      3 C3          4.3350   -3.0040   11.8920 C.3       1 GL1         0.1144
      4 C4          5.6880   -2.2170   12.0570 C.3       1 GL1         0.1119
      5 C5          6.8150   -3.2490   12.0690 C.3       1 GL1         0.1133
      6 C6          8.1570   -2.5360   12.2870 C.3       1 GL1         0.0730
      7 O1          5.4440   -5.7050   11.7610 O.3       1 GL1        -0.2426
      8 O2          2.9240   -4.7720   12.8030 O.3       1 GL1        -0.3838
      9 O3          3.2360   -2.1080   11.8970 O.3       1 GL1        -0.3864
     10 O4          5.6200   -1.4030   13.2770 O.3       1 GL1        -0.3865
     11 O5          6.6050   -4.2260   13.1260 O.3       1 GL1        -0.3370
     12 O6          8.5430   -2.1310   10.9990 O.3       1 GL1        -0.3924
     13 P           4.8800   -7.2420   11.5720 P.3       1 GL1         0.2046
     14 O1P         5.3460   -7.8810   10.2060 O.co2     1 GL1        -0.5536
     15 O2P         5.4980   -7.9990   12.8190 O.co2     1 GL1        -0.5536
     16 O3P         3.2940   -7.3390   11.6960 O.co2     1 GL1        -0.5536
     17 H1          5.2641   -5.7128   13.8279 H         1 GL1         0.0990
     18 H2          4.1425   -3.5204   13.9504 H         1 GL1         0.0674
     19 H3          4.3542   -3.5234   10.9225 H         1 GL1         0.0648
     20 H4          5.8333   -1.5449   11.1984 H         1 GL1         0.0647
     21 H5          6.8346   -3.7693   11.1000 H         1 GL1         0.0647
     22 H6          8.8990   -3.2238   12.7188 H         1 GL1         0.0584
     23 H7          8.0341   -1.6664   12.9493 H         1 GL1         0.0584
     24 H8          2.9301   -5.2069   11.9584 H         1 GL1         0.2101
     25 H9          3.2194   -1.6335   12.7198 H         1 GL1         0.2100
     26 H10         5.4779   -1.9691   14.0265 H         1 GL1         0.2100
     27 H11         9.3755   -1.6759   11.0476 H         1 GL1         0.2095
@<TRIPOS>BOND
     1    1    2 1  
     2    1    7 1  
     3    1   11 1  
     4    2    3 1  
     5    2    8 1  
     6    3    4 1  
     7    3    9 1  
     8    4    5 1  
     9    4   10 1  
    10    5    6 1  
    11    5   11 1  
    12    6   12 1  
    13    7   13 1  
    14   13   14 ar 
    15   13   15 ar 
    16   13   16 ar 
    17    1   17 1  
    18    2   18 1  
    19    3   19 1  
    20    4   20 1  
    21    5   21 1  
    22    6   22 1  
    23    6   23 1  
    24    8   24 1  
    25    9   25 1  
    26   10   26 1  
    27   12   27 1  
@<TRIPOS>SUBSTRUCTURE
     1 GL1         1

