1z4n_ligand
  -I-interpret- 

 29 29  0  0  0  0  0  0  0  0999 V2000
    5.3660   -5.0040   12.9930 C   0  0  0  0  0
    4.1770   -4.0390   12.9810 C   0  0  0  0  0
    4.3350   -3.0040   11.8920 C   0  0  0  0  0
    5.6880   -2.2170   12.0570 C   0  0  0  0  0
    6.8150   -3.2490   12.0690 C   0  0  0  0  0
    8.1570   -2.5360   12.2870 C   0  0  0  0  0
    5.4440   -5.7050   11.7610 O   0  0  0  0  0
    2.9240   -4.7720   12.8030 O   0  0  0  0  0
    3.2360   -2.1080   11.8970 O   0  0  0  0  0
    5.6200   -1.4030   13.2770 O   0  0  0  0  0
    6.6050   -4.2260   13.1260 O   0  0  0  0  0
    8.5430   -2.1310   10.9990 O   0  0  0  0  0
    4.8800   -7.2420   11.5720 P   0  0  0  0  0
    5.3460   -7.8810   10.2060 O   0  0  0  0  0
    5.4980   -7.9990   12.8190 O   0  0  0  0  0
    3.2940   -7.3390   11.6960 O   0  0  0  0  0
    5.2378   -5.7042   13.8185 H   0  0  0  0  0
    4.1490   -3.5253   13.9420 H   0  0  0  0  0
    4.3581   -3.5209   10.9326 H   0  0  0  0  0
    5.8761   -1.5236   11.2373 H   0  0  0  0  0
    6.8236   -3.7697   11.1115 H   0  0  0  0  0
    8.8975   -3.1854   12.7540 H   0  0  0  0  0
    8.0697   -1.6947   12.9746 H   0  0  0  0  0
    2.8353   -5.4259   13.5002 H   0  0  0  0  0
    2.4201   -2.6036   11.7956 H   0  0  0  0  0
    4.8943   -0.7788   13.2038 H   0  0  0  0  0
    9.3842   -1.6711   11.0481 H   0  0  0  0  0
    5.1925   -7.5826   13.6283 H   0  0  0  0  0
    3.0148   -6.9494   12.5278 H   0  0  0  0  0
  1  2  1  0  0  0
  1  7  1  0  0  0
  1 11  1  0  0  0
  2  3  1  0  0  0
  2  8  1  0  0  0
  3  4  1  0  0  0
  3  9  1  0  0  0
  4  5  1  0  0  0
  4 10  1  0  0  0
  5  6  1  0  0  0
  5 11  1  0  0  0
  6 12  1  0  0  0
  7 13  1  0  0  0
 13 14  2  0  0  0
 13 15  1  0  0  0
 13 16  1  0  0  0
  1 17  1  0  0  0
  2 18  1  0  0  0
  3 19  1  0  0  0
  4 20  1  0  0  0
  5 21  1  0  0  0
  6 22  1  0  0  0
  6 23  1  0  0  0
  8 24  1  0  0  0
  9 25  1  0  0  0
 10 26  1  0  0  0
 12 27  1  0  0  0
 15 28  1  0  0  0
 16 29  1  0  0  0
M  END
$$$$
