1aht_ligand
  -I-interpret- 

 27 27  0  0  0  0  0  0  0  0999 V2000
   14.9970  -10.8930   17.1980 C   0  0  0  0  0
   16.2500  -10.9640   17.2510 O   0  0  0  0  0
   14.3770  -11.1770   16.1580 O   0  0  0  0  0
   14.0670  -10.4430   18.3500 C   0  0  0  0  0
   12.7450  -10.4300   18.2630 O   0  0  0  0  0
   14.7520  -11.1470   19.5720 C   0  0  0  0  0
   13.7040  -11.4720   20.6530 C   0  0  0  0  0
   12.8970  -12.5940   20.7410 C   0  0  0  0  0
   11.9680  -12.7520   21.7720 C   0  0  0  0  0
   11.8160  -11.7670   22.7610 C   0  0  0  0  0
   12.6210  -10.6400   22.6810 C   0  0  0  0  0
   13.5350  -10.5240   21.6420 C   0  0  0  0  0
   10.8810  -11.7680   23.9710 C   0  0  0  0  0
   10.1680  -12.8530   24.2390 N   0  0  0  0  0
   10.6240  -10.6320   24.6310 N   0  0  0  0  0
   16.5471  -10.7089   18.1275 H   0  0  0  0  0
   14.0072   -9.3556   18.3957 H   0  0  0  0  0
   12.4825   -9.9650   17.4652 H   0  0  0  0  0
   15.5044  -10.4800   19.9929 H   0  0  0  0  0
   15.2175  -12.0735   19.2357 H   0  0  0  0  0
   12.9892  -13.3745   19.9857 H   0  0  0  0  0
   11.3533  -13.6513   21.8093 H   0  0  0  0  0
   12.5367   -9.8511   23.4284 H   0  0  0  0  0
   14.1570   -9.6297   21.6052 H   0  0  0  0  0
   10.2465  -13.6754   23.6408 H   0  0  0  0  0
    9.8848  -10.6063   25.3334 H   0  0  0  0  0
   11.1674   -9.7922   24.4315 H   0  0  0  0  0
  1  2  1  0  0  0
  1  3  2  0  0  0
  1  4  1  0  0  0
  4  5  1  0  0  0
  4  6  1  0  0  0
  6  7  1  0  0  0
  7  8  4  0  0  0
  7 12  4  0  0  0
  8  9  4  0  0  0
  9 10  4  0  0  0
 10 11  4  0  0  0
 10 13  1  0  0  0
 11 12  4  0  0  0
 13 14  2  0  0  0
 13 15  1  0  0  0
  2 16  1  0  0  0
  4 17  1  0  0  0
  5 18  1  0  0  0
  6 19  1  0  0  0
  6 20  1  0  0  0
  8 21  1  0  0  0
  9 22  1  0  0  0
 11 23  1  0  0  0
 12 24  1  0  0  0
 14 25  1  0  0  0
 15 26  1  0  0  0
 15 27  1  0  0  0
M  END
$$$$
