4nl1_ligand
  -I-interpret- 

 24 24  0  0  0  0  0  0  0  0999 V2000
  -23.4390   42.9250   11.5990 F   0  0  0  0  0
  -25.0930   41.5660   11.6530 F   0  0  0  0  0
  -25.4190   43.7360   11.6310 F   0  0  0  0  0
  -24.6250   42.7090   17.8860 C   0  0  0  0  0
  -23.6110   41.7640   18.2340 N   0  3  0  0  0
  -22.3020   42.3760   18.1480 C   0  0  0  0  0
  -23.6780   43.4750   15.6920 C   0  0  0  0  0
  -24.6750   42.7710   16.4230 C   0  0  0  0  0
  -25.6130   42.0340   15.6950 C   0  0  0  0  0
  -25.6040   42.0460   14.2910 C   0  0  0  0  0
  -23.6880   43.4910   14.3140 C   0  0  0  0  0
  -24.6600   42.7700   13.5660 C   0  0  0  0  0
  -24.6560   42.7620   12.0760 C   0  0  0  0  0
  -24.3963   43.6892   18.3043 H   0  0  0  0  0
  -25.5899   42.4034   18.2906 H   0  0  0  0  0
  -23.6535   40.9769   17.5867 H   0  0  0  0  0
  -23.7672   41.4454   19.1903 H   0  0  0  0  0
  -22.1308   42.7230   17.1290 H   0  0  0  0  0
  -22.2517   43.2213   18.8343 H   0  0  0  0  0
  -21.5412   41.6429   18.4161 H   0  0  0  0  0
  -22.8948   44.0095   16.2296 H   0  0  0  0  0
  -26.3607   41.4427   16.2236 H   0  0  0  0  0
  -26.3579   41.4719   13.7524 H   0  0  0  0  0
  -22.9323   44.0706   13.7839 H   0  0  0  0  0
 13  1  1  0  0  0
 13  2  1  0  0  0
 13  3  1  0  0  0
  4  5  1  0  0  0
  8  4  1  0  0  0
  5  6  1  0  0  0
  7  8  4  0  0  0
 11  7  4  0  0  0
  9  8  4  0  0  0
 10  9  4  0  0  0
 12 10  4  0  0  0
 12 11  4  0  0  0
 12 13  1  0  0  0
  4 14  1  0  0  0
  4 15  1  0  0  0
  5 16  1  0  0  0
  5 17  1  0  0  0
  6 18  1  0  0  0
  6 19  1  0  0  0
  6 20  1  0  0  0
  7 21  1  0  0  0
  9 22  1  0  0  0
 10 23  1  0  0  0
 11 24  1  0  0  0
M  END
$$$$
