1shd_ligand
  -I-interpret- 

 78 78  0  0  0  0  0  0  0  0999 V2000
   20.7640   10.9560    0.7630 C   0  0  0  0  0
   21.0510   10.5680    1.8950 O   0  0  0  0  0
   19.5190   10.9080    0.3160 N   0  0  0  0  0
   18.3880   10.5610    1.1440 C   0  0  0  0  0
   17.8530    9.2640    0.6210 C   0  0  0  0  0
   17.6700    9.1500   -0.5930 O   0  0  0  0  0
   17.3500   11.5990    1.0170 C   0  0  0  0  0
   17.8040   12.8650    1.6990 C   0  0  0  0  0
   17.6180   12.9890    3.0610 C   0  0  0  0  0
   18.4430   13.8600    0.9800 C   0  0  0  0  0
   18.0880   14.1120    3.7050 C   0  0  0  0  0
   18.9210   14.9840    1.6050 C   0  0  0  0  0
   18.7330   15.0940    2.9630 C   0  0  0  0  0
   19.1520   16.2890    3.6410 O   0  0  0  0  0
   17.6570    8.2820    1.5000 N   0  0  0  0  0
   17.1330    6.9650    1.1670 C   0  0  0  0  0
   15.6590    7.0440    0.8450 C   0  0  0  0  0
   14.8810    7.7650    1.4790 O   0  0  0  0  0
   17.2630    5.9760    2.3130 C   0  0  0  0  0
   18.7000    5.5520    2.6270 C   0  0  0  0  0
   19.3780    4.6690    1.6140 C   0  0  0  0  0
   18.6990    4.1790    0.7490 O   0  0  0  0  0
   20.5720    4.4410    1.6700 O   0  0  0  0  0
   15.2840    6.3560   -0.2200 N   0  0  0  0  0
   13.8890    6.2270   -0.5920 C   0  0  0  0  0
   13.4520    4.8890   -0.0220 C   0  0  0  0  0
   14.1630    3.8740   -0.0640 O   0  0  0  0  0
   13.7320    6.2610   -2.1060 C   0  0  0  0  0
   14.0980    7.6440   -2.6690 C   0  0  0  0  0
   13.3130    8.8500   -2.0980 C   0  0  0  0  0
   12.0650    8.7970   -2.0510 O   0  0  0  0  0
   13.9570    9.8470   -1.7010 O   0  0  0  0  0
   12.3670    4.9510    0.7060 N   0  0  0  0  0
   11.7610    3.7710    1.2790 C   0  0  0  0  0
   10.7130    3.3260    0.2190 C   0  0  0  0  0
   10.1510    4.1510   -0.5300 O   0  0  0  0  0
   11.2130    4.1980    2.6760 C   0  0  0  0  0
   10.2060    3.2340    3.2000 C   0  0  0  0  0
   10.5300    5.5300    2.5690 C   0  0  0  0  0
    9.5970    3.7230    4.5410 C   0  0  0  0  0
   10.5610    2.1130    0.0300 O   0  0  0  0  0
   21.6723   11.4074    0.0154 O   0  0  0  0  0
   19.3495   11.1278   -0.6655 H   0  0  0  0  0
   18.6773   10.4794    2.1917 H   0  0  0  0  0
   16.4310   11.2477    1.4861 H   0  0  0  0  0
   17.1730   11.8031   -0.0390 H   0  0  0  0  0
   17.1049   12.2069    3.6206 H   0  0  0  0  0
   18.5682   13.7492   -0.0971 H   0  0  0  0  0
   17.9560   14.2288    4.7807 H   0  0  0  0  0
   19.4334   15.7649    1.0432 H   0  0  0  0  0
   19.5804   16.8773    3.0149 H   0  0  0  0  0
   17.8907    8.4660    2.4757 H   0  0  0  0  0
   17.7206    6.6260    0.3138 H   0  0  0  0  0
   16.7220    5.0761    2.0202 H   0  0  0  0  0
   16.8740    6.4682    3.2044 H   0  0  0  0  0
   18.6481    4.9700    3.5472 H   0  0  0  0  0
   19.2841    6.4715    2.6640 H   0  0  0  0  0
   20.9516    4.9104    2.4164 H   0  0  0  0  0
   15.9951    5.9041   -0.7950 H   0  0  0  0  0
   13.2812    7.0456   -0.2066 H   0  0  0  0  0
   12.6923    6.0473   -2.3539 H   0  0  0  0  0
   14.3998    5.5185   -2.5428 H   0  0  0  0  0
   13.8657    7.6084   -3.7334 H   0  0  0  0  0
   15.1425    7.8110   -2.4058 H   0  0  0  0  0
   14.8961    9.6890   -1.8223 H   0  0  0  0  0
   11.9356    5.8598    0.8743 H   0  0  0  0  0
   12.4061    2.9142    1.4735 H   0  0  0  0  0
   10.3722    5.0412   -0.2467 H   0  0  0  0  0
   12.0686    4.2346    3.3504 H   0  0  0  0  0
   10.6998    2.2778    3.3727 H   0  0  0  0  0
    9.4029    3.1412    2.4689 H   0  0  0  0  0
   11.2434    6.2755    2.2179 H   0  0  0  0  0
    9.7023    5.4568    1.8636 H   0  0  0  0  0
   10.1500    5.8217    3.5481 H   0  0  0  0  0
   10.3902    3.8313    5.2807 H   0  0  0  0  0
    9.1081    4.6850    4.3872 H   0  0  0  0  0
    8.8665    2.9950    4.8937 H   0  0  0  0  0
   21.2923   11.6666   -0.8272 H   0  0  0  0  0
  1  2  2  0  0  0
  5  4  1  0  0  0
  4  7  1  0  0  0
  4  3  1  0  0  0
  7  8  1  0  0  0
  8 10  4  0  0  0
  8  9  4  0  0  0
  9 11  4  0  0  0
 11 13  4  0  0  0
 13 14  1  0  0  0
 12 13  4  0  0  0
 10 12  4  0  0  0
  5  6  2  0  0  0
 17 16  1  0  0  0
 16 19  1  0  0  0
 16 15  1  0  0  0
 19 20  1  0  0  0
 20 21  1  0  0  0
 21 22  2  0  0  0
 21 23  1  0  0  0
 17 18  2  0  0  0
 26 25  1  0  0  0
 25 28  1  0  0  0
 25 24  1  0  0  0
 28 29  1  0  0  0
 29 30  1  0  0  0
 30 31  2  0  0  0
 30 32  1  0  0  0
 26 27  2  0  0  0
 34 35  1  0  0  0
 34 37  1  0  0  0
 33 34  1  0  0  0
 37 38  1  0  0  0
 37 39  1  0  0  0
 38 40  1  0  0  0
 35 41  2  0  0  0
 35 36  1  0  0  0
  3  1  1  0  0  0
 15  5  1  0  0  0
 24 17  1  0  0  0
 26 33  1  0  0  0
  1 42  1  0  0  0
  3 43  1  0  0  0
  4 44  1  0  0  0
  7 45  1  0  0  0
  7 46  1  0  0  0
  9 47  1  0  0  0
 10 48  1  0  0  0
 11 49  1  0  0  0
 12 50  1  0  0  0
 14 51  1  0  0  0
 15 52  1  0  0  0
 16 53  1  0  0  0
 19 54  1  0  0  0
 19 55  1  0  0  0
 20 56  1  0  0  0
 20 57  1  0  0  0
 23 58  1  0  0  0
 24 59  1  0  0  0
 25 60  1  0  0  0
 28 61  1  0  0  0
 28 62  1  0  0  0
 29 63  1  0  0  0
 29 64  1  0  0  0
 32 65  1  0  0  0
 33 66  1  0  0  0
 34 67  1  0  0  0
 36 68  1  0  0  0
 37 69  1  0  0  0
 38 70  1  0  0  0
 38 71  1  0  0  0
 39 72  1  0  0  0
 39 73  1  0  0  0
 39 74  1  0  0  0
 40 75  1  0  0  0
 40 76  1  0  0  0
 40 77  1  0  0  0
 42 78  1  0  0  0
M  END
$$$$
