4gwi_ligand
  -I-interpret- 

 91 94  0  0  0  0  0  0  0  0999 V2000
   -5.2570   -3.5940  -18.9270 C   0  0  0  0  0
   -4.3260   -4.1190  -19.8100 O   0  0  0  0  0
   -4.8310   -4.1250  -17.5760 C   0  0  0  0  0
   -5.2370   -5.4380  -17.5150 O   0  0  0  0  0
   -5.5610   -3.3590  -16.4800 C   0  0  0  0  0
   -5.0440   -3.6550  -15.2090 O   0  0  0  0  0
   -5.4650   -1.8660  -16.6860 C   0  0  0  0  0
   -4.1450   -1.4590  -16.5330 O   0  0  0  0  0
   -5.9040   -1.5420  -18.0880 C   0  0  0  0  0
   -5.1080   -2.2240  -19.0300 O   0  0  0  0  0
   -5.7750   -0.0900  -18.3570 C   0  0  0  0  0
   -6.3680    0.1140  -19.6030 O   0  0  0  0  0
   -4.3730   -6.2610  -16.7320 C   0  0  0  0  0
   -5.0400   -7.6040  -16.5000 C   0  0  0  0  0
   -5.1710   -8.3720  -17.7790 C   0  0  0  0  0
   -3.7840   -8.5640  -18.3550 C   0  0  0  0  0
   -3.1940   -7.1840  -18.5510 C   0  0  0  0  0
   -1.8120   -7.2400  -19.1590 C   0  0  0  0  0
   -6.3260   -7.3860  -15.9430 O   0  0  0  0  0
   -5.7540   -9.5820  -17.5100 O   0  0  0  0  0
   -3.0320   -9.3390  -17.4600 O   0  0  0  0  0
   -3.1310   -6.4820  -17.3440 O   0  0  0  0  0
   -4.2180   -4.3300  -23.8990 C   0  0  0  0  0
   -3.5850   -3.1260  -23.2060 C   0  0  0  0  0
   -3.1810   -3.3580  -21.7830 C   0  0  0  0  0
   -4.4480   -3.8040  -21.1770 C   0  0  0  0  0
   -4.8140   -5.0710  -21.8470 C   0  0  0  0  0
   -5.9780   -5.2590  -20.9570 C   0  0  0  0  0
   -2.4030   -1.7900  -24.7840 C   0  0  0  0  0
   -3.7380   -1.0550  -24.8510 C   0  0  0  0  0
   -2.3930   -2.7820  -23.9290 N   0  0  0  0  0
   -4.7380   -3.7370  -25.0670 O   0  0  0  0  0
   -2.9190   -2.0800  -21.3630 O   0  0  0  0  0
   -5.2610   -4.8720  -23.1600 O   0  0  0  0  0
   -6.7780   -6.3030  -21.4430 O   0  0  0  0  0
   -1.4200   -1.4450  -25.4330 O   0  0  0  0  0
   -1.5650   -1.7620  -21.3050 C   0  0  0  0  0
   -1.5070   -0.2560  -21.0730 C   0  0  0  0  0
   -2.0540    0.0930  -19.7000 C   0  0  0  0  0
   -1.3810   -0.7440  -18.6280 C   0  0  0  0  0
   -1.5760   -2.1940  -18.9900 C   0  0  0  0  0
   -1.0050   -3.0440  -17.8830 C   0  0  0  0  0
   -2.3130    0.4140  -22.0370 O   0  0  0  0  0
   -1.8900    1.4630  -19.4290 O   0  0  0  0  0
   -0.0070   -0.4650  -18.5800 O   0  0  0  0  0
   -0.9140   -2.4140  -20.2130 O   0  0  0  0  0
   -6.3010   -3.8515  -19.1057 H   0  0  0  0  0
   -3.7539   -4.0224  -17.4441 H   0  0  0  0  0
   -6.6031   -3.6735  -16.5368 H   0  0  0  0  0
   -5.0953   -4.6014  -15.0564 H   0  0  0  0  0
   -6.0961   -1.3559  -15.9583 H   0  0  0  0  0
   -3.8507   -1.6597  -15.6415 H   0  0  0  0  0
   -6.9453   -1.8512  -18.1785 H   0  0  0  0  0
   -4.7314    0.2246  -18.3558 H   0  0  0  0  0
   -6.2604    0.5037  -17.5824 H   0  0  0  0  0
   -6.3145    1.0445  -19.8331 H   0  0  0  0  0
   -4.1936   -5.7357  -15.7939 H   0  0  0  0  0
   -4.4235   -8.1887  -15.8172 H   0  0  0  0  0
   -5.7916   -7.8379  -18.4985 H   0  0  0  0  0
   -3.7946   -9.0868  -19.3114 H   0  0  0  0  0
   -3.8589   -6.6631  -19.2400 H   0  0  0  0  0
   -1.1498   -7.8036  -18.5017 H   0  0  0  0  0
   -1.8638   -7.7298  -20.1314 H   0  0  0  0  0
   -1.4288   -6.2269  -19.2810 H   0  0  0  0  0
   -6.7558   -8.2311  -15.7927 H   0  0  0  0  0
   -5.8421  -10.0817  -18.3249 H   0  0  0  0  0
   -2.1491   -9.4682  -17.8140 H   0  0  0  0  0
   -3.5140   -5.1472  -24.0561 H   0  0  0  0  0
   -4.3452   -2.3449  -23.1981 H   0  0  0  0  0
   -2.3596   -4.0449  -21.5793 H   0  0  0  0  0
   -5.1730   -2.9976  -21.2876 H   0  0  0  0  0
   -4.0521   -5.8434  -21.9519 H   0  0  0  0  0
   -6.5623   -4.3394  -20.9258 H   0  0  0  0  0
   -5.6307   -5.5058  -19.9537 H   0  0  0  0  0
   -3.5983   -0.0211  -24.5354 H   0  0  0  0  0
   -4.1121   -1.0764  -25.8746 H   0  0  0  0  0
   -4.4542   -1.5442  -24.1908 H   0  0  0  0  0
   -1.5352   -3.3123  -23.7761 H   0  0  0  0  0
   -5.1714   -4.4080  -25.5995 H   0  0  0  0  0
   -7.5333   -6.4226  -20.8627 H   0  0  0  0  0
   -1.0641   -2.0787  -22.2198 H   0  0  0  0  0
   -0.4653    0.0544  -21.1541 H   0  0  0  0  0
   -3.1208   -0.1306  -19.6943 H   0  0  0  0  0
   -1.8150   -0.5181  -17.6540 H   0  0  0  0  0
   -2.6283   -2.4545  -19.1037 H   0  0  0  0  0
    0.0574   -2.8273  -17.7714 H   0  0  0  0  0
   -1.5228   -2.8197  -16.9505 H   0  0  0  0  0
   -1.1383   -4.0973  -18.1298 H   0  0  0  0  0
   -2.2715    1.3609  -21.8846 H   0  0  0  0  0
   -2.2421    1.6601  -18.5579 H   0  0  0  0  0
    0.4037   -1.0015  -17.8981 H   0  0  0  0  0
  2  1  1  0  0  0
  1  3  1  0  0  0
  1 10  1  0  0  0
 26  2  1  0  0  0
  3  4  1  0  0  0
  3  5  1  0  0  0
  4 13  1  0  0  0
  5  6  1  0  0  0
  5  7  1  0  0  0
  7  8  1  0  0  0
  9  7  1  0  0  0
 10  9  1  0  0  0
  9 11  1  0  0  0
 11 12  1  0  0  0
 13 14  1  0  0  0
 13 22  1  0  0  0
 14 15  1  0  0  0
 14 19  1  0  0  0
 15 16  1  0  0  0
 15 20  1  0  0  0
 17 16  1  0  0  0
 16 21  1  0  0  0
 17 18  1  0  0  0
 22 17  1  0  0  0
 24 23  1  0  0  0
 23 32  1  0  0  0
 23 34  1  0  0  0
 24 25  1  0  0  0
 31 24  1  0  0  0
 25 26  1  0  0  0
 25 33  1  0  0  0
 26 27  1  0  0  0
 27 28  1  0  0  0
 34 27  1  0  0  0
 28 35  1  0  0  0
 29 30  1  0  0  0
 29 31  1  0  0  0
 29 36  2  0  0  0
 33 37  1  0  0  0
 37 38  1  0  0  0
 37 46  1  0  0  0
 38 39  1  0  0  0
 38 43  1  0  0  0
 39 40  1  0  0  0
 39 44  1  0  0  0
 40 41  1  0  0  0
 40 45  1  0  0  0
 41 42  1  0  0  0
 41 46  1  0  0  0
  1 47  1  0  0  0
  3 48  1  0  0  0
  5 49  1  0  0  0
  6 50  1  0  0  0
  7 51  1  0  0  0
  8 52  1  0  0  0
  9 53  1  0  0  0
 11 54  1  0  0  0
 11 55  1  0  0  0
 12 56  1  0  0  0
 13 57  1  0  0  0
 14 58  1  0  0  0
 15 59  1  0  0  0
 16 60  1  0  0  0
 17 61  1  0  0  0
 18 62  1  0  0  0
 18 63  1  0  0  0
 18 64  1  0  0  0
 19 65  1  0  0  0
 20 66  1  0  0  0
 21 67  1  0  0  0
 23 68  1  0  0  0
 24 69  1  0  0  0
 25 70  1  0  0  0
 26 71  1  0  0  0
 27 72  1  0  0  0
 28 73  1  0  0  0
 28 74  1  0  0  0
 30 75  1  0  0  0
 30 76  1  0  0  0
 30 77  1  0  0  0
 31 78  1  0  0  0
 32 79  1  0  0  0
 35 80  1  0  0  0
 37 81  1  0  0  0
 38 82  1  0  0  0
 39 83  1  0  0  0
 40 84  1  0  0  0
 41 85  1  0  0  0
 42 86  1  0  0  0
 42 87  1  0  0  0
 42 88  1  0  0  0
 43 89  1  0  0  0
 44 90  1  0  0  0
 45 91  1  0  0  0
M  END
$$$$
