4qvl_ligand
  -I-interpret- 

 53 54  0  0  0  0  0  0  0  0999 V2000
   62.1320 -133.0510   35.7460 N   0  0  0  0  0
   61.6880 -134.2810   36.0530 C   0  0  0  0  0
   61.7530 -135.3110   35.1140 C   0  0  0  0  0
   62.2880 -135.0660   33.8450 N   0  0  0  0  0
   62.7490 -133.7850   33.5290 C   0  0  0  0  0
   62.6710 -132.7730   34.4820 C   0  0  0  0  0
   61.1640 -134.5050   37.3200 C   0  0  0  0  0
   60.4080 -133.6800   37.8320 O   0  0  0  0  0
   61.5490 -135.6500   37.9150 N   0  0  0  0  0
   61.1060 -136.0010   39.2700 C   0  0  0  0  0
   60.4360 -137.3530   39.3160 C   0  0  0  0  0
   59.2450 -137.2400   38.5780 C   0  0  0  0  0
   59.0750 -137.9570   37.3900 C   0  0  0  0  0
   57.8910 -137.8460   36.6620 C   0  0  0  0  0
   56.8650 -137.0210   37.1150 C   0  0  0  0  0
   57.0260 -136.3070   38.2990 C   0  0  0  0  0
   58.2080 -136.4180   39.0300 C   0  0  0  0  0
   62.3460 -136.0390   40.1460 C   0  0  0  0  0
   63.4670 -136.1160   39.6420 O   0  0  0  0  0
   62.0980 -135.9560   41.4610 N   0  0  0  0  0
   63.1870 -135.9340   42.4450 C   0  0  0  0  0
   63.1930 -134.6140   43.1820 C   0  0  0  0  0
   63.2390 -133.4660   42.1510 C   0  0  0  0  0
   62.8430 -132.1620   42.8490 C   0  0  0  0  0
   64.6320 -133.3480   41.5130 C   0  0  0  0  0
   63.0230 -137.0550   43.4810 B   0  0  0  0  0
   61.7770 -136.9160   44.1860 O   0  0  0  0  0
   63.0660 -138.3350   42.8380 O   0  0  0  0  0
   61.3872 -136.3056   35.3691 H   0  0  0  0  0
   63.1667 -133.5797   32.5434 H   0  0  0  0  0
   63.0271 -131.7700   34.2466 H   0  0  0  0  0
   62.1639 -136.2895   37.4117 H   0  0  0  0  0
   60.3778 -135.2651   39.6108 H   0  0  0  0  0
   60.2286 -137.6485   40.3445 H   0  0  0  0  0
   61.0832 -138.1213   38.8930 H   0  0  0  0  0
   59.8729 -138.6068   37.0306 H   0  0  0  0  0
   57.7683 -138.4068   35.7354 H   0  0  0  0  0
   55.9399 -136.9346   36.5451 H   0  0  0  0  0
   56.2254 -135.6590   38.6558 H   0  0  0  0  0
   58.3245 -135.8607   39.9595 H   0  0  0  0  0
   61.1319 -135.9071   41.7846 H   0  0  0  0  0
   64.1209 -136.0754   41.9011 H   0  0  0  0  0
   64.0653 -134.5596   43.8333 H   0  0  0  0  0
   62.2925 -134.5274   43.7901 H   0  0  0  0  0
   62.5359 -133.6762   41.3450 H   0  0  0  0  0
   61.8346 -132.2585   43.2514 H   0  0  0  0  0
   63.5416 -131.9592   43.6607 H   0  0  0  0  0
   62.8719 -131.3433   42.1300 H   0  0  0  0  0
   65.3703 -133.1486   42.2897 H   0  0  0  0  0
   64.8785 -134.2812   41.0066 H   0  0  0  0  0
   64.6318 -132.5308   40.7917 H   0  0  0  0  0
   61.6931 -137.6248   44.8280 H   0  0  0  0  0
   62.9624 -139.0261   43.4962 H   0  0  0  0  0
  1  2  4  0  0  0
  1  6  4  0  0  0
  2  3  4  0  0  0
  2  7  1  0  0  0
  3  4  4  0  0  0
  4  5  4  0  0  0
  5  6  4  0  0  0
  7  8  2  0  0  0
  7  9  1  0  0  0
  9 10  1  0  0  0
 10 11  1  0  0  0
 10 18  1  0  0  0
 11 12  1  0  0  0
 12 13  4  0  0  0
 12 17  4  0  0  0
 13 14  4  0  0  0
 14 15  4  0  0  0
 15 16  4  0  0  0
 16 17  4  0  0  0
 18 19  2  0  0  0
 18 20  1  0  0  0
 20 21  1  0  0  0
 21 22  1  0  0  0
 21 26  1  0  0  0
 22 23  1  0  0  0
 23 24  1  0  0  0
 23 25  1  0  0  0
 26 27  1  0  0  0
 26 28  1  0  0  0
  3 29  1  0  0  0
  5 30  1  0  0  0
  6 31  1  0  0  0
  9 32  1  0  0  0
 10 33  1  0  0  0
 11 34  1  0  0  0
 11 35  1  0  0  0
 13 36  1  0  0  0
 14 37  1  0  0  0
 15 38  1  0  0  0
 16 39  1  0  0  0
 17 40  1  0  0  0
 20 41  1  0  0  0
 21 42  1  0  0  0
 22 43  1  0  0  0
 22 44  1  0  0  0
 23 45  1  0  0  0
 24 46  1  0  0  0
 24 47  1  0  0  0
 24 48  1  0  0  0
 25 49  1  0  0  0
 25 50  1  0  0  0
 25 51  1  0  0  0
 27 52  1  0  0  0
 28 53  1  0  0  0
M  END
$$$$
