### 
### Created by X-TOOL on Mon Sep 10 21:13:23 2018
### 

@<TRIPOS>MOLECULE
4qvl_ligand
   53    54     1     0     0
SMALL
GAST_HUCK


@<TRIPOS>ATOM
      1 N1         62.1320 -133.0510   35.7460 N.ar      1 BO2        -0.2509
      2 C2         61.6880 -134.2810   36.0530 C.ar      1 BO2         0.1532
      3 C3         61.7530 -135.3110   35.1140 C.ar      1 BO2         0.0620
      4 N4         62.2880 -135.0660   33.8450 N.ar      1 BO2        -0.2653
      5 C5         62.7490 -133.7850   33.5290 C.ar      1 BO2         0.0462
      6 C6         62.6710 -132.7730   34.4820 C.ar      1 BO2         0.0475
      7 C7         61.1640 -134.5050   37.3200 C.2       1 BO2         0.2349
      8 O8         60.4080 -133.6800   37.8320 O.2       1 BO2        -0.3755
      9 N9         61.5490 -135.6500   37.9150 N.am      1 BO2        -0.2600
     10 C10        61.1060 -136.0010   39.2700 C.3       1 BO2         0.1378
     11 C11        60.4360 -137.3530   39.3160 C.3       1 BO2         0.0213
     12 C12        59.2450 -137.2400   38.5780 C.ar      1 BO2        -0.0385
     13 C13        59.0750 -137.9570   37.3900 C.ar      1 BO2        -0.0601
     14 C14        57.8910 -137.8460   36.6620 C.ar      1 BO2        -0.0686
     15 C15        56.8650 -137.0210   37.1150 C.ar      1 BO2        -0.0687
     16 C16        57.0260 -136.3070   38.2990 C.ar      1 BO2        -0.0686
     17 C17        58.2080 -136.4180   39.0300 C.ar      1 BO2        -0.0601
     18 C18        62.3460 -136.0390   40.1460 C.2       1 BO2         0.1755
     19 O19        63.4670 -136.1160   39.6420 O.2       1 BO2        -0.3969
     20 N20        62.0980 -135.9560   41.4610 N.am      1 BO2        -0.4361
     21 C21        63.1870 -135.9340   42.4450 C.3       1 BO2        -0.2261
     22 C22        63.1930 -134.6140   43.1820 C.3       1 BO2        -0.1585
     23 C23        63.2390 -133.4660   42.1510 C.3       1 BO2        -0.0721
     24 C24        62.8430 -132.1620   42.8490 C.3       1 BO2        -0.0649
     25 C25        64.6320 -133.3480   41.5130 C.3       1 BO2        -0.0649
     26 B26        63.0230 -137.0550   43.4810 B         1 BO2         3.0000
     27 O27        61.7770 -136.9160   44.1860 O.3       1 BO2        -0.8710
     28 O28        63.0660 -138.3350   42.8380 O.3       1 BO2        -0.8710
     29 H          61.3892 -136.3001   35.3677 H         1 BO2         0.0978
     30 H          63.1644 -133.5808   32.5488 H         1 BO2         0.0958
     31 H          63.0251 -131.7756   34.2479 H         1 BO2         0.0941
     32 H          62.1518 -136.2770   37.4215 H         1 BO2         0.1883
     33 H          60.4046 -135.2373   39.6372 H         1 BO2         0.0823
     34 H          60.2120 -137.6297   40.3568 H         1 BO2         0.0474
     35 H          61.0894 -138.1152   38.8665 H         1 BO2         0.0474
     36 H          59.8685 -138.6032   37.0326 H         1 BO2         0.0557
     37 H          57.7690 -138.4037   35.7405 H         1 BO2         0.0599
     38 H          55.9450 -136.9351   36.5482 H         1 BO2         0.0559
     39 H          56.2298 -135.6626   38.6538 H         1 BO2         0.0599
     40 H          58.3238 -135.8637   39.9544 H         1 BO2         0.0557
     41 H          61.1509 -135.9081   41.7782 H         1 BO2         0.1459
     42 H          64.1484 -136.0661   41.9271 H         1 BO2        -0.1822
     43 H          64.0766 -134.5596   43.8348 H         1 BO2        -0.0063
     44 H          62.2812 -134.5270   43.7911 H         1 BO2        -0.0063
     45 H          62.5107 -133.6768   41.3541 H         1 BO2         0.0272
     46 H          62.8718 -131.3349   42.1244 H         1 BO2         0.0232
     47 H          63.5473 -131.9562   43.6685 H         1 BO2         0.0232
     48 H          61.8254 -132.2580   43.2555 H         1 BO2         0.0232
     49 H          64.8908 -134.2965   41.0196 H         1 BO2         0.0232
     50 H          65.3750 -133.1258   42.2931 H         1 BO2         0.0232
     51 H          64.6273 -132.5373   40.7695 H         1 BO2         0.0232
     52 H          61.7057 -137.6022   44.8391 H         1 BO2        -0.1290
     53 H          62.9932 -139.0195   43.4926 H         1 BO2        -0.1290
@<TRIPOS>BOND
     1    1    2 ar 
     2    1    6 ar 
     3    2    3 ar 
     4    2    7 1  
     5    3    4 ar 
     6    4    5 ar 
     7    5    6 ar 
     8    7    8 2  
     9    7    9 am 
    10    9   10 1  
    11   10   11 1  
    12   10   18 1  
    13   11   12 1  
    14   12   13 ar 
    15   12   17 ar 
    16   13   14 ar 
    17   14   15 ar 
    18   15   16 ar 
    19   16   17 ar 
    20   18   19 2  
    21   18   20 am 
    22   20   21 1  
    23   21   22 1  
    24   21   26 1  
    25   22   23 1  
    26   23   24 1  
    27   23   25 1  
    28   26   27 1  
    29   26   28 1  
    30    3   29 1  
    31    5   30 1  
    32    6   31 1  
    33    9   32 1  
    34   10   33 1  
    35   11   34 1  
    36   11   35 1  
    37   13   36 1  
    38   14   37 1  
    39   15   38 1  
    40   16   39 1  
    41   17   40 1  
    42   20   41 1  
    43   21   42 1  
    44   22   43 1  
    45   22   44 1  
    46   23   45 1  
    47   24   46 1  
    48   24   47 1  
    49   24   48 1  
    50   25   49 1  
    51   25   50 1  
    52   25   51 1  
    53   27   52 1  
    54   28   53 1  
@<TRIPOS>SUBSTRUCTURE
     1 BO2         1

