2qmd_ligand
  -I-interpret- 

 88 91  0  0  0  0  0  0  0  0999 V2000
   26.8370   10.8260   19.1030 F   0  0  0  0  0
   22.8410   13.3440   18.5700 F   0  0  0  0  0
   23.6310   11.7300   23.5000 N   0  0  0  0  0
   22.5260   10.8030   23.1680 C   0  0  0  0  0
   22.0430    9.9720   24.3810 C   0  0  0  0  0
   21.5420   10.8500   25.5400 C   0  0  0  0  0
   20.9880    9.0870   23.9610 O   0  0  0  0  0
   21.2330    9.9770   26.6900 N   0  3  0  0  0
   20.4000   10.8270   27.5640 C   0  0  0  0  0
   19.5920   11.7390   26.6310 C   0  0  0  0  0
   20.2510   11.6260   25.2500 C   0  0  0  0  0
   22.9750    9.8510   22.0420 C   0  0  0  0  0
   23.6320   10.6270   20.9220 C   0  0  0  0  0
   24.9750   10.3410   20.5360 C   0  0  0  0  0
   25.5830   11.0830   19.4760 C   0  0  0  0  0
   24.8560   12.1020   18.8110 C   0  0  0  0  0
   23.5200   12.3850   19.1980 C   0  0  0  0  0
   22.9040   11.6520   20.2500 C   0  0  0  0  0
   27.0340   14.2570   23.7480 C   0  0  0  0  0
   26.8840   15.4720   24.4820 C   0  0  0  0  0
   25.5950   15.8880   24.9100 C   0  0  0  0  0
   24.4470   15.0910   24.6170 C   0  0  0  0  0
   24.5920   13.8720   23.8940 C   0  0  0  0  0
   25.8800   13.4560   23.4610 C   0  0  0  0  0
   28.3670   13.8080   23.3300 C   0  0  0  0  0
   23.4080   13.0680   23.5860 C   0  0  0  0  0
   22.3020   13.5650   23.4160 O   0  0  0  0  0
   25.4400   17.1470   25.6630 C   0  0  0  0  0
   28.6150   13.5940   22.0110 N   0  0  0  0  0
   29.2390   13.6170   24.1600 O   0  0  0  0  0
   18.2680   11.2360   26.5940 O   0  0  0  0  0
   17.4600   12.0880   25.7990 C   0  0  0  0  0
   16.5840   11.2590   24.8710 C   0  0  0  0  0
   16.5430    9.8340   24.9680 C   0  0  0  0  0
   15.7150    9.0810   24.0880 C   0  0  0  0  0
   14.9260    9.7490   23.1100 C   0  0  0  0  0
   14.9640   11.1690   23.0110 C   0  0  0  0  0
   15.7930   11.9230   23.8930 C   0  0  0  0  0
   29.9580   13.1320   21.6760 C   0  0  0  0  0
   29.9230   11.6540   21.2180 C   0  0  0  0  0
   29.1360   10.7260   22.1670 C   0  0  0  0  0
   27.6490   13.8060   20.9370 C   0  0  0  0  0
   28.2020   14.8470   19.9650 C   0  0  0  0  0
   28.8240   16.0540   20.6820 C   0  0  0  0  0
   24.5676   11.3617   23.6656 H   0  0  0  0  0
   21.6840   11.4158   22.8460 H   0  0  0  0  0
   22.8988    9.4067   24.7500 H   0  0  0  0  0
   22.3391   11.5714   25.7201 H   0  0  0  0  0
   21.3007    8.5389   23.2375 H   0  0  0  0  0
   22.0739    9.6427   27.1607 H   0  0  0  0  0
   20.7541    9.1211   26.4100 H   0  0  0  0  0
   21.0166   11.4112   28.2471 H   0  0  0  0  0
   19.7424   10.2225   28.1887 H   0  0  0  0  0
   19.5701   12.7796   26.9547 H   0  0  0  0  0
   19.6146   11.1256   24.5202 H   0  0  0  0  0
   20.4382   12.5976   24.7927 H   0  0  0  0  0
   22.1013    9.3320   21.6479 H   0  0  0  0  0
   23.6928    9.1376   22.4469 H   0  0  0  0  0
   25.5361    9.5590   21.0477 H   0  0  0  0  0
   25.3220   12.6673   18.0039 H   0  0  0  0  0
   21.8774   11.8736   20.5417 H   0  0  0  0  0
   27.7582   16.0803   24.7140 H   0  0  0  0  0
   23.4599   15.4152   24.9465 H   0  0  0  0  0
   25.9912   12.5233   22.9079 H   0  0  0  0  0
   26.0198   17.0915   26.5843 H   0  0  0  0  0
   25.7985   17.9784   25.0561 H   0  0  0  0  0
   24.3875   17.2981   25.9030 H   0  0  0  0  0
   18.1018   12.7359   25.2020 H   0  0  0  0  0
   16.8246   12.6888   26.4496 H   0  0  0  0  0
   17.1470    9.3223   25.7174 H   0  0  0  0  0
   15.6854    7.9940   24.1633 H   0  0  0  0  0
   14.2919    9.1730   22.4360 H   0  0  0  0  0
   14.3596   11.6795   22.2612 H   0  0  0  0  0
   15.8205   13.0100   23.8175 H   0  0  0  0  0
   30.5919   13.2147   22.5589 H   0  0  0  0  0
   30.3520   13.7451   20.8654 H   0  0  0  0  0
   30.9525   11.2968   21.1941 H   0  0  0  0  0
   29.4247   11.6258   20.2490 H   0  0  0  0  0
   29.5931   10.7480   23.1563 H   0  0  0  0  0
   28.1035   11.0688   22.2347 H   0  0  0  0  0
   29.1574    9.7080   21.7780 H   0  0  0  0  0
   26.7069   14.1596   21.3559 H   0  0  0  0  0
   27.4754   12.8680   20.4097 H   0  0  0  0  0
   27.3742   15.2094   19.3554 H   0  0  0  0  0
   28.9828   14.3705   19.3722 H   0  0  0  0  0
   28.0665   16.5394   21.2974 H   0  0  0  0  0
   29.6454   15.7160   21.3138 H   0  0  0  0  0
   29.2001   16.7604   19.9420 H   0  0  0  0  0
 15  1  1  0  0  0
 17  2  1  0  0  0
  3  4  1  0  0  0
 26  3  1  0  0  0
  4  5  1  0  0  0
  4 12  1  0  0  0
  5  6  1  0  0  0
  5  7  1  0  0  0
  6  8  1  0  0  0
  6 11  1  0  0  0
  8  9  1  0  0  0
 10  9  1  0  0  0
 11 10  1  0  0  0
 10 31  1  0  0  0
 12 13  1  0  0  0
 13 14  4  0  0  0
 13 18  4  0  0  0
 14 15  4  0  0  0
 15 16  4  0  0  0
 17 16  4  0  0  0
 18 17  4  0  0  0
 19 20  4  0  0  0
 24 19  4  0  0  0
 19 25  1  0  0  0
 21 20  4  0  0  0
 22 21  4  0  0  0
 21 28  1  0  0  0
 23 22  4  0  0  0
 23 24  4  0  0  0
 23 26  1  0  0  0
 25 29  1  0  0  0
 25 30  2  0  0  0
 26 27  2  0  0  0
 29 39  1  0  0  0
 29 42  1  0  0  0
 31 32  1  0  0  0
 32 33  1  0  0  0
 33 34  4  0  0  0
 33 38  4  0  0  0
 34 35  4  0  0  0
 35 36  4  0  0  0
 36 37  4  0  0  0
 37 38  4  0  0  0
 39 40  1  0  0  0
 40 41  1  0  0  0
 42 43  1  0  0  0
 43 44  1  0  0  0
  3 45  1  0  0  0
  4 46  1  0  0  0
  5 47  1  0  0  0
  6 48  1  0  0  0
  7 49  1  0  0  0
  8 50  1  0  0  0
  8 51  1  0  0  0
  9 52  1  0  0  0
  9 53  1  0  0  0
 10 54  1  0  0  0
 11 55  1  0  0  0
 11 56  1  0  0  0
 12 57  1  0  0  0
 12 58  1  0  0  0
 14 59  1  0  0  0
 16 60  1  0  0  0
 18 61  1  0  0  0
 20 62  1  0  0  0
 22 63  1  0  0  0
 24 64  1  0  0  0
 28 65  1  0  0  0
 28 66  1  0  0  0
 28 67  1  0  0  0
 32 68  1  0  0  0
 32 69  1  0  0  0
 34 70  1  0  0  0
 35 71  1  0  0  0
 36 72  1  0  0  0
 37 73  1  0  0  0
 38 74  1  0  0  0
 39 75  1  0  0  0
 39 76  1  0  0  0
 40 77  1  0  0  0
 40 78  1  0  0  0
 41 79  1  0  0  0
 41 80  1  0  0  0
 41 81  1  0  0  0
 42 82  1  0  0  0
 42 83  1  0  0  0
 43 84  1  0  0  0
 43 85  1  0  0  0
 44 86  1  0  0  0
 44 87  1  0  0  0
 44 88  1  0  0  0
M  END
$$$$
