1g52_ligand
  -I-interpret- 

 34 35  0  0  0  0  0  0  0  0999 V2000
   -3.8210    3.4480   14.5380 C   0  0  0  0  0
   -4.2180    2.3090   15.2750 C   0  0  0  0  0
   -5.5380    2.2650   15.7920 C   0  0  0  0  0
   -6.3820    3.3640   15.5370 C   0  0  0  0  0
   -5.9530    4.4790   14.7950 C   0  0  0  0  0
   -4.6780    4.5260   14.2970 C   0  0  0  0  0
   -4.1990    5.7150   13.5000 C   0  0  0  0  0
   -4.9770    6.6230   13.3030 O   0  0  0  0  0
   -2.8910    5.7600   13.0110 N   0  0  0  0  0
   -2.2370    6.8270   12.2320 C   0  0  0  0  0
   -6.0000    0.7710   16.7370 S   0  0  0  0  0
   -5.5220   -0.5230   16.0450 N   0  0  0  0  0
   -7.5050    1.0540   16.8380 O   0  0  0  0  0
   -5.4260    1.0530   18.0770 O   0  0  0  0  0
   -1.8690    8.0320   12.9060 C   0  0  0  0  0
   -1.5470    7.9600   14.2860 C   0  0  0  0  0
   -1.1740    9.1070   15.0430 C   0  0  0  0  0
   -1.1290   10.3510   14.3760 C   0  0  0  0  0
   -1.4480   10.4720   12.9820 C   0  0  0  0  0
   -1.8230    9.2930   12.2360 C   0  0  0  0  0
   -1.3930   11.6720   12.3880 F   0  0  0  0  0
   -2.1220    9.3960   10.9340 F   0  0  0  0  0
   -2.8063    3.4874   14.1418 H   0  0  0  0  0
   -3.5258    1.4837   15.4421 H   0  0  0  0  0
   -7.3997    3.3496   15.9272 H   0  0  0  0  0
   -6.6373    5.3083   14.6157 H   0  0  0  0  0
   -2.3120    4.9469   13.2208 H   0  0  0  0  0
   -2.9731    7.1294   11.4872 H   0  0  0  0  0
   -1.2980    6.3944   11.8867 H   0  0  0  0  0
   -4.8472   -1.1305   16.5098 H   0  0  0  0  0
   -5.8808   -0.7707   15.1229 H   0  0  0  0  0
   -1.5866    6.9916   14.7848 H   0  0  0  0  0
   -0.9312    9.0274   16.1026 H   0  0  0  0  0
   -0.8445   11.2427   14.9346 H   0  0  0  0  0
  1  6  4  0  0  0
  1  2  4  0  0  0
  2  3  4  0  0  0
  3 11  1  0  0  0
  3  4  4  0  0  0
  4  5  4  0  0  0
  5  6  4  0  0  0
  6  7  1  0  0  0
  7  9  1  0  0  0
  7  8  2  0  0  0
  9 10  1  0  0  0
 10 15  1  0  0  0
 15 20  4  0  0  0
 15 16  4  0  0  0
 16 17  4  0  0  0
 17 18  4  0  0  0
 18 19  4  0  0  0
 19 20  4  0  0  0
 11 14  2  0  0  0
 11 13  2  0  0  0
 11 12  1  0  0  0
 20 22  1  0  0  0
 19 21  1  0  0  0
  1 23  1  0  0  0
  2 24  1  0  0  0
  4 25  1  0  0  0
  5 26  1  0  0  0
  9 27  1  0  0  0
 10 28  1  0  0  0
 10 29  1  0  0  0
 12 30  1  0  0  0
 12 31  1  0  0  0
 16 32  1  0  0  0
 17 33  1  0  0  0
 18 34  1  0  0  0
M  END
$$$$
