5ota_ligand
  -I-interpret- 

 32 31  0  0  0  0  0  0  0  0999 V2000
    5.8840   19.2790  -12.2500 O   0  0  0  0  0
    5.7380   20.4790  -11.9630 C   0  0  0  0  0
    4.3180   21.0350  -11.6900 C   0  0  0  0  0
    3.7970   21.7700  -12.9240 C   0  0  0  0  0
    3.3440   19.9980  -11.2840 N   0  3  0  0  0
    3.6080   19.2440  -10.0910 C   0  0  0  0  0
    2.4760   18.2210   -9.9300 C   0  0  0  0  0
    2.5900   17.2110   -9.1740 O   0  0  0  0  0
    1.3780   18.4020  -10.5310 O   0  0  0  0  0
    3.6190   20.2040   -8.8850 C   0  0  0  0  0
    4.2380   19.7250   -7.5770 C   0  0  0  0  0
    4.0350   20.8160   -6.5390 C   0  0  0  0  0
    4.3150   20.3510   -5.1770 N   0  3  0  0  0
    6.7650   21.2220  -11.8990 O   0  0  0  0  0
    4.4161   21.7212  -10.8488 H   0  0  0  0  0
    3.6624   21.0589  -13.7390 H   0  0  0  0  0
    2.8422   22.2403  -12.6890 H   0  0  0  0  0
    4.5161   22.5333  -13.2212 H   0  0  0  0  0
    3.3508   19.3136  -12.0403 H   0  0  0  0  0
    2.4782   20.5031  -11.0954 H   0  0  0  0  0
    4.5712   18.7373  -10.1504 H   0  0  0  0  0
    3.4684   17.2000   -8.7868 H   0  0  0  0  0
    2.5688   20.3821   -8.6539 H   0  0  0  0  0
    4.2344   21.0472   -9.1986 H   0  0  0  0  0
    5.3009   19.5252   -7.7126 H   0  0  0  0  0
    3.7633   18.7996   -7.2507 H   0  0  0  0  0
    2.9922   21.1307   -6.5801 H   0  0  0  0  0
    4.7240   21.6296   -6.7658 H   0  0  0  0  0
    4.1649   21.1167   -4.5200 H   0  0  0  0  0
    3.6907   19.5776   -4.9480 H   0  0  0  0  0
    5.2835   20.0364   -5.1188 H   0  0  0  0  0
    6.4985   22.1152  -11.6693 H   0  0  0  0  0
  1  2  2  0  0  0
  2  3  1  0  0  0
  2 14  1  0  0  0
  3  4  1  0  0  0
  3  5  1  0  0  0
  5  6  1  0  0  0
  6  7  1  0  0  0
  6 10  1  0  0  0
  7  8  1  0  0  0
  7  9  2  0  0  0
 10 11  1  0  0  0
 11 12  1  0  0  0
 12 13  1  0  0  0
  3 15  1  0  0  0
  4 16  1  0  0  0
  4 17  1  0  0  0
  4 18  1  0  0  0
  5 19  1  0  0  0
  5 20  1  0  0  0
  6 21  1  0  0  0
  8 22  1  0  0  0
 10 23  1  0  0  0
 10 24  1  0  0  0
 11 25  1  0  0  0
 11 26  1  0  0  0
 12 27  1  0  0  0
 12 28  1  0  0  0
 13 29  1  0  0  0
 13 30  1  0  0  0
 13 31  1  0  0  0
 14 32  1  0  0  0
M  END
$$$$
