5czb_ligand
  -I-interpret- 

 64 68  0  0  0  0  0  0  0  0999 V2000
  -26.1150  -23.0580   16.8450 C   0  0  0  0  0
  -26.6050  -22.5790   18.0490 C   0  0  0  0  0
  -26.9620  -23.4460   15.8340 C   0  0  0  0  0
  -27.9610  -22.5160   18.2470 C   0  0  0  0  0
  -28.3250  -23.3740   16.0520 C   0  0  0  0  0
  -28.8340  -22.8960   17.2460 C   0  0  0  0  0
  -29.0940  -23.6850   13.7150 C   0  0  0  0  0
  -30.5680  -24.1680   11.7010 C   0  0  0  0  0
  -29.7720  -23.9430   10.8350 O   0  0  0  0  0
  -25.7240  -22.2300   19.1590 C   0  0  0  0  0
  -24.3930  -22.5240   19.2930 C   0  0  0  0  0
  -24.0670  -22.0590   20.5430 C   0  0  0  0  0
  -22.8720  -21.5220   22.4820 C   0  0  0  0  0
  -25.1780  -21.0280   22.2980 C   0  0  0  0  0
  -34.9980  -25.0290   15.0350 O   0  0  0  0  0
  -32.9700  -25.5150   16.5740 O   0  0  0  0  0
  -36.1040  -24.3700   15.6790 C   0  0  0  0  0
  -33.6360  -20.2290   16.5660 C   0  0  0  0  0
  -33.2220  -21.1760   17.4990 C   0  0  0  0  0
  -33.9920  -20.6440   15.2870 C   0  0  0  0  0
  -33.1670  -22.5270   17.1570 C   0  0  0  0  0
  -33.9450  -22.0080   14.9260 C   0  0  0  0  0
  -33.5240  -22.9700   15.8720 C   0  0  0  0  0
  -34.3850  -22.3400   13.5060 C   0  0  0  0  0
  -33.6850  -18.7580   16.9350 C   0  0  0  0  0
  -33.4800  -24.7650   15.4330 P   0  0  0  0  0
  -32.3900  -24.8280   14.2140 N   0  0  0  0  0
  -31.0660  -24.4130   14.2000 C   0  0  0  0  0
  -30.2630  -24.1030   13.1440 C   0  0  0  0  0
  -31.8400  -24.3810   11.3730 O   0  0  0  0  0
  -30.4290  -24.1500   15.3400 N   0  0  0  0  0
  -29.2800  -23.7480   15.0400 N   0  0  0  0  0
  -26.1490  -21.6780   20.3100 N   0  0  0  0  0
  -25.1690  -21.5830   21.0820 N   0  0  0  0  0
  -26.3720  -20.5290   22.7760 N   0  0  0  0  0
  -24.0260  -21.0020   23.0190 C   0  0  0  0  0
  -21.6030  -21.4820   23.2810 C   0  0  0  0  0
  -22.8700  -22.0540   21.2120 N   0  0  0  0  0
  -25.0375  -23.1286   16.6964 H   0  0  0  0  0
  -26.5677  -23.8022   14.8823 H   0  0  0  0  0
  -28.3525  -22.1635   19.2012 H   0  0  0  0  0
  -29.9110  -22.8200   17.3953 H   0  0  0  0  0
  -28.1907  -23.3644   13.1960 H   0  0  0  0  0
  -23.7407  -23.0155   18.5712 H   0  0  0  0  0
  -36.0968  -24.6068   16.7429 H   0  0  0  0  0
  -36.0113  -23.2923   15.5447 H   0  0  0  0  0
  -37.0384  -24.7137   15.2353 H   0  0  0  0  0
  -32.9391  -20.8595   18.5030 H   0  0  0  0  0
  -34.3121  -19.9050   14.5525 H   0  0  0  0  0
  -32.8407  -23.2536   17.9011 H   0  0  0  0  0
  -35.4188  -22.0248   13.3642 H   0  0  0  0  0
  -33.7438  -21.8168   12.7966 H   0  0  0  0  0
  -34.3062  -23.4151   13.3446 H   0  0  0  0  0
  -34.3705  -18.6170   17.7706 H   0  0  0  0  0
  -32.6879  -18.4230   17.2209 H   0  0  0  0  0
  -34.0316  -18.1810   16.0777 H   0  0  0  0  0
  -32.7323  -25.2291   13.3409 H   0  0  0  0  0
  -32.3512  -24.5460   12.1687 H   0  0  0  0  0
  -27.2151  -20.5896   22.2052 H   0  0  0  0  0
  -26.4117  -20.0994   23.7003 H   0  0  0  0  0
  -24.0171  -20.5702   24.0198 H   0  0  0  0  0
  -21.3512  -20.4463   23.5091 H   0  0  0  0  0
  -21.7419  -22.0363   24.2092 H   0  0  0  0  0
  -20.7970  -21.9344   22.7033 H   0  0  0  0  0
  1  2  4  0  0  0
  3  1  4  0  0  0
  4  2  4  0  0  0
  2 10  1  0  0  0
  5  3  4  0  0  0
  6  4  4  0  0  0
  5  6  4  0  0  0
 32  5  1  0  0  0
 29  7  4  0  0  0
  7 32  4  0  0  0
  8  9  2  0  0  0
 29  8  1  0  0  0
  8 30  1  0  0  0
 10 11  4  0  0  0
 10 33  4  0  0  0
 11 12  4  0  0  0
 12 34  4  0  0  0
 12 38  4  0  0  0
 13 36  4  0  0  0
 13 37  1  0  0  0
 38 13  4  0  0  0
 34 14  4  0  0  0
 14 35  1  0  0  0
 14 36  4  0  0  0
 15 17  1  0  0  0
 26 15  1  0  0  0
 26 16  2  0  0  0
 19 18  4  0  0  0
 20 18  4  0  0  0
 18 25  1  0  0  0
 21 19  4  0  0  0
 22 20  4  0  0  0
 23 21  4  0  0  0
 23 22  4  0  0  0
 22 24  1  0  0  0
 26 23  1  0  0  0
 27 26  1  0  0  0
 28 27  1  0  0  0
 28 29  4  0  0  0
 28 31  4  0  0  0
 31 32  4  0  0  0
 33 34  4  0  0  0
  1 39  1  0  0  0
  3 40  1  0  0  0
  4 41  1  0  0  0
  6 42  1  0  0  0
  7 43  1  0  0  0
 11 44  1  0  0  0
 17 45  1  0  0  0
 17 46  1  0  0  0
 17 47  1  0  0  0
 19 48  1  0  0  0
 20 49  1  0  0  0
 21 50  1  0  0  0
 24 51  1  0  0  0
 24 52  1  0  0  0
 24 53  1  0  0  0
 25 54  1  0  0  0
 25 55  1  0  0  0
 25 56  1  0  0  0
 27 57  1  0  0  0
 30 58  1  0  0  0
 35 59  1  0  0  0
 35 60  1  0  0  0
 36 61  1  0  0  0
 37 62  1  0  0  0
 37 63  1  0  0  0
 37 64  1  0  0  0
M  END
$$$$
