### 
### Created by X-TOOL on Mon Sep 10 21:13:26 2018
### 

@<TRIPOS>MOLECULE
5tdw_ligand
  194   193     1     0     0
SMALL
GAST_HUCK


@<TRIPOS>ATOM
      1 N          -0.2550   15.4970   88.9460 N.4       1 ALA         0.2377
      2 CA          1.1910   15.3490   88.8180 C.3       1 ALA         0.0621
      3 C           1.5430   14.2720   87.8030 C.2       1 ALA         0.2264
      4 O           0.6740   13.5210   87.3680 O.2       1 ALA        -0.3907
      5 CB          1.7960   15.0150   90.1580 C.3       1 ALA        -0.0040
      6 N           2.8210   14.1990   87.4440 N.am      1 ARG        -0.2610
      7 CA          3.3220   13.1800   86.5310 C.3       1 ARG         0.1312
      8 C           3.7380   11.9320   87.2970 C.2       1 ARG         0.2040
      9 O           4.5900   12.0010   88.1860 O.2       1 ARG        -0.3944
     10 CB          4.5040   13.7160   85.7340 C.3       1 ARG        -0.0092
     11 CG          4.1790   14.9400   84.9030 C.3       1 ARG        -0.0156
     12 CD          5.4440   15.6520   84.4730 C.3       1 ARG         0.0627
     13 NE          6.1430   16.2700   85.5960 N.pl3     1 ARG        -0.2723
     14 CZ          7.3130   16.8880   85.4830 C.cat     1 ARG         0.2882
     15 NH1         7.9100   16.9550   84.3020 N.pl3     1 ARG        -0.2849
     16 NH2         7.8940   17.4250   86.5480 N.pl3     1 ARG        -0.2849
     17 N           3.1440   10.7940   86.9440 N.am      1 THR        -0.2613
     18 CA          3.4110    9.5350   87.6490 C.3       1 THR         0.1565
     19 C           3.8200    8.3910   86.7140 C.2       1 THR         0.2065
     20 O           3.4910    8.3840   85.5320 O.2       1 THR        -0.3943
     21 CB          2.1720    9.0730   88.4620 C.3       1 THR         0.0924
     22 OG1         1.0890    8.7920   87.5630 O.3       1 THR        -0.3874
     23 CG2         1.7210   10.1520   89.4300 C.3       1 THR        -0.0346
     24 N           4.5480    7.4240   87.2660 N.am      1 M3L        -0.2637
     25 CA          4.8670    6.1890   86.5990 C.3       1 M3L         0.1310
     26 CB          6.3770    5.9260   86.4880 C.3       1 M3L        -0.0122
     27 CG          6.9770    6.2990   85.1600 C.3       1 M3L        -0.0440
     28 CD          8.4570    5.9380   85.1310 C.3       1 M3L        -0.0123
     29 CE          9.1890    6.3800   86.4030 C.3       1 M3L        -0.0309
     30 NZ         10.6980    6.2020   86.4020 N.4       1 M3L         0.2369
     31 C           4.4560    5.0550   87.5210 C.2       1 M3L         0.2039
     32 O           4.8530    5.0130   88.6870 O.2       1 M3L        -0.3944
     33 CM1        11.1130    4.8510   85.9250 C.3       1 M3L        -0.0418
     34 CM2        11.3080    6.4390   87.7460 C.3       1 M3L        -0.0418
     35 CM3        11.2530    7.2340   85.4820 C.3       1 M3L        -0.0418
     36 N           3.6540    4.1150   87.0230 N.am      1 GLN        -0.2636
     37 CA          3.2580    2.9810   87.8690 C.3       1 GLN         0.1330
     38 C           3.3480    1.6790   87.0920 C.2       1 GLN         0.2041
     39 O           2.8280    1.5710   85.9860 O.2       1 GLN        -0.3944
     40 CB          1.8470    3.1660   88.4360 C.3       1 GLN         0.0045
     41 CG          1.4980    2.1050   89.5080 C.3       1 GLN         0.0412
     42 CD          0.3070    2.4880   90.3830 C.2       1 GLN         0.1737
     43 OE1        -0.5820    3.2310   89.9640 O.2       1 GLN        -0.3973
     44 NE2         0.3030    1.9930   91.6190 N.am      1 GLN        -0.3009
     45 N           4.0060    0.6920   87.6860 N.am      1 THR        -0.2613
     46 CA          4.2110   -0.5800   87.0060 C.3       1 THR         0.1565
     47 C           3.3070   -1.6310   87.6260 C.2       1 THR         0.2065
     48 O           3.3240   -1.8460   88.8470 O.2       1 THR        -0.3943
     49 CB          5.6690   -1.0130   87.0870 C.3       1 THR         0.0924
     50 OG1         6.4740   -0.0480   86.3850 O.3       1 THR        -0.3874
     51 CG2         5.8520   -2.4080   86.4560 C.3       1 THR        -0.0346
     52 N           2.5090   -2.2690   86.7760 N.am      1 ALA        -0.2639
     53 CA          1.5980   -3.3280   87.2060 C.3       1 ALA         0.1282
     54 C           2.1600   -4.6670   86.7870 C.2       1 ALA         0.2036
     55 O           2.5960   -4.8220   85.6480 O.2       1 ALA        -0.3944
     56 CB          0.2000   -3.1330   86.6060 C.3       1 ALA        -0.0244
     57 N           2.1370   -5.6230   87.7060 N.am      1 ARG        -0.2637
     58 CA          2.6180   -6.9790   87.4480 C.3       1 ARG         0.1311
     59 C           1.4710   -7.9560   87.6140 C.2       1 ARG         0.2039
     60 O           0.8500   -8.0140   88.6640 O.2       1 ARG        -0.3944
     61 CB          3.7600   -7.3470   88.3880 C.3       1 ARG        -0.0092
     62 CG          5.0410   -6.5990   88.1160 C.3       1 ARG        -0.0156
     63 CD          6.0390   -6.8010   89.2330 C.3       1 ARG         0.0627
     64 NE          7.2350   -5.9890   89.0390 N.pl3     1 ARG        -0.2723
     65 CZ          8.3490   -6.4310   88.4650 C.cat     1 ARG         0.2882
     66 NH1         8.4230   -7.6840   88.0240 N.pl3     1 ARG        -0.2849
     67 NH2         9.3850   -5.6140   88.3310 N.pl3     1 ARG        -0.2849
     68 N           1.1910   -8.7230   86.5710 N.am      1 LYS        -0.2637
     69 CA          0.0360   -9.6020   86.5780 C.3       1 LYS         0.1310
     70 C           0.4010  -10.9980   86.0880 C.2       1 LYS         0.2040
     71 O           1.4340  -11.1870   85.4400 O.2       1 LYS        -0.3944
     72 CB         -1.0850   -9.0040   85.7340 C.3       1 LYS        -0.0122
     73 CG         -1.5570   -7.6440   86.2070 C.3       1 LYS        -0.0440
     74 CD         -2.5510   -7.0270   85.2290 C.3       1 LYS        -0.0124
     75 CE         -2.8410   -5.5730   85.5740 C.3       1 LYS        -0.0354
     76 NZ         -3.7310   -4.9260   84.5650 N.4       1 LYS         0.2185
     77 N          -0.4430  -11.9750   86.4130 N.am      1 SER        -0.2616
     78 CA         -0.1650  -13.3720   86.0920 C.3       1 SER         0.1539
     79 C          -1.4640  -14.0950   85.8020 C.2       1 SER         0.2057
     80 O          -2.3530  -14.1380   86.6510 O.2       1 SER        -0.3943
     81 CB          0.5620  -14.0710   87.2410 C.3       1 SER         0.0843
     82 OG          1.8310  -13.4910   87.4810 O.3       1 SER        -0.3903
     83 N          -1.5880  -14.6530   84.6040 N.am      1 THR        -0.2669
     84 CA         -2.8230  -15.3360   84.2150 C.3       1 THR         0.1198
     85 C          -2.5370  -16.7520   83.7420 C.2       1 THR         0.0626
     86 O          -1.4810  -17.0110   83.1640 O.co2     1 THR        -0.5665
     87 CB         -3.5600  -14.5810   83.0960 C.3       1 THR         0.0869
     88 OG1        -2.9440  -14.8710   81.8360 O.3       1 THR        -0.3880
     89 CG2        -3.5130  -13.0770   83.3460 C.3       1 THR        -0.0352
     90 OXT        -3.3600  -17.6480   83.9340 O.co2     1 THR        -0.5665
     91 H1         -0.4606   16.2150   89.6229 H         1 ALA         0.2015
     92 H2         -0.6566   14.6238   89.2499 H         1 ALA         0.2015
     93 H3         -0.6467   15.7545   88.0536 H         1 ALA         0.2015
     94 H4          1.6099   16.3050   88.4709 H         1 ALA         0.1095
     95 H5          2.8853   14.9055   90.0514 H         1 ALA         0.0310
     96 H6          1.3674   14.0724   90.5292 H         1 ALA         0.0310
     97 H7          1.5768   15.8234   90.8710 H         1 ALA         0.0310
     98 H8          3.4634   14.8695   87.8150 H         1 ARG         0.1884
     99 H9          2.5173   12.9113   85.8308 H         1 ARG         0.0800
    100 H10         4.8550   12.9220   85.0585 H         1 ARG         0.0313
    101 H11         5.3064   13.9790   86.4389 H         1 ARG         0.0313
    102 H12         3.5637   15.6284   85.5009 H         1 ARG         0.0301
    103 H13         3.6185   14.6299   84.0088 H         1 ARG         0.0301
    104 H14         5.1795   16.4351   83.7472 H         1 ARG         0.0689
    105 H15         6.1157   14.9226   83.9969 H         1 ARG         0.0689
    106 H16         5.7046   16.2241   86.5269 H         1 ARG         0.2642
    107 H17         8.8175   17.4334   84.2101 H         1 ARG         0.2615
    108 H18         7.4666   16.5287   83.4759 H         1 ARG         0.2615
    109 H19         7.4320   17.3743   87.4672 H         1 ARG         0.2615
    110 H20         8.8071   17.8926   86.4556 H         1 ARG         0.2615
    111 H21         2.4997   10.7973   86.1792 H         1 THR         0.1884
    112 H22         4.2399    9.7173   88.3488 H         1 THR         0.0826
    113 H23         2.4300    8.1641   89.0253 H         1 THR         0.0639
    114 H24         1.3487    8.1041   86.9614 H         1 THR         0.2101
    115 H25         0.8437    9.7978   89.9911 H         1 THR         0.0257
    116 H26         1.4553   11.0601   88.8690 H         1 THR         0.0257
    117 H27         2.5372   10.3799   90.1313 H         1 THR         0.0257
    118 H28         4.8922    7.5626   88.1946 H         1 M3L         0.1883
    119 H29         4.3730    6.1453   85.6171 H         1 M3L         0.0800
    120 H30         6.5526    4.8531   86.6555 H         1 M3L         0.0312
    121 H31         6.8859    6.5075   87.2708 H         1 M3L         0.0312
    122 H32         6.8640    7.3816   85.0015 H         1 M3L         0.0269
    123 H33         6.4546    5.7547   84.3595 H         1 M3L         0.0269
    124 H34         8.9242    6.4300   84.2651 H         1 M3L         0.0317
    125 H35         8.5530    4.8470   85.0288 H         1 M3L         0.0317
    126 H36         8.7826    5.7987   87.2438 H         1 M3L         0.0815
    127 H37         8.9767    7.4480   86.5590 H         1 M3L         0.0815
    128 H38        12.2103    4.7764   85.9444 H         1 M3L         0.0778
    129 H39        10.7533    4.6987   84.8967 H         1 M3L         0.0778
    130 H40        10.6816    4.0816   86.5822 H         1 M3L         0.0778
    131 H41        11.0116    7.4327   88.1131 H         1 M3L         0.0778
    132 H42        12.4039    6.3900   87.6651 H         1 M3L         0.0778
    133 H43        10.9573    5.6689   88.4488 H         1 M3L         0.0778
    134 H44        10.8283    7.0955   84.4768 H         1 M3L         0.0778
    135 H45        12.3473    7.1328   85.4348 H         1 M3L         0.0778
    136 H46        10.9931    8.2356   85.8550 H         1 M3L         0.0778
    137 H47         3.3243    4.1807   86.0812 H         1 GLN         0.1883
    138 H48         3.9599    2.9266   88.7142 H         1 GLN         0.0801
    139 H49         1.1222    3.0876   87.6123 H         1 GLN         0.0337
    140 H50         1.7775    4.1647   88.8918 H         1 GLN         0.0337
    141 H51         2.3751    1.9648   90.1568 H         1 GLN         0.0504
    142 H52         1.2644    1.1590   88.9977 H         1 GLN         0.0504
    143 H53        -0.4500    2.2075   92.2411 H         1 GLN         0.1814
    144 H54         1.0530    1.4068   91.9253 H         1 GLN         0.1814
    145 H55         4.3650    0.8225   88.6102 H         1 THR         0.1884
    146 H56         3.9414   -0.4612   85.9462 H         1 THR         0.0826
    147 H57         5.9797   -1.0516   88.1415 H         1 THR         0.0639
    148 H58         6.3666    0.8055   86.7881 H         1 THR         0.2101
    149 H59         6.9091   -2.7048   86.5229 H         1 THR         0.0257
    150 H60         5.5464   -2.3757   85.3998 H         1 THR         0.0257
    151 H61         5.2312   -3.1387   86.9952 H         1 THR         0.0257
    152 H62         2.5327   -2.0158   85.8089 H         1 ALA         0.1883
    153 H63         1.5161   -3.3012   88.3026 H         1 ALA         0.0797
    154 H64        -0.4615   -3.9431   86.9467 H         1 ALA         0.0277
    155 H65         0.2663   -3.1511   85.5082 H         1 ALA         0.0277
    156 H66        -0.2076   -2.1650   86.9328 H         1 ALA         0.0277
    157 H67         1.7756   -5.4072   88.6131 H         1 ARG         0.1883
    158 H68         2.9857   -7.0324   86.4127 H         1 ARG         0.0800
    159 H69         3.9595   -8.4239   88.2856 H         1 ARG         0.0313
    160 H70         3.4440   -7.1290   89.4188 H         1 ARG         0.0313
    161 H71         4.8175   -5.5259   88.0242 H         1 ARG         0.0301
    162 H72         5.4771   -6.9646   87.1747 H         1 ARG         0.0301
    163 H73         6.3291   -7.8616   89.2648 H         1 ARG         0.0689
    164 H74         5.5684   -6.5208   90.1869 H         1 ARG         0.0689
    165 H75         7.2149   -5.0129   89.3671 H         1 ARG         0.2642
    166 H76         9.2880   -8.0233   87.5796 H         1 ARG         0.2615
    167 H77         7.6153   -8.3148   88.1270 H         1 ARG         0.2615
    168 H78         9.3241   -4.6446   88.6736 H         1 ARG         0.2615
    169 H79        10.2506   -5.9489   87.8843 H         1 ARG         0.2615
    170 H80         1.7844   -8.6960   85.7665 H         1 LYS         0.1883
    171 H81        -0.3226   -9.6885   87.6143 H         1 LYS         0.0800
    172 H82        -1.9411   -9.6942   85.7576 H         1 LYS         0.0312
    173 H83        -0.7232   -8.9037   84.7001 H         1 LYS         0.0312
    174 H84        -0.6876   -6.9768   86.3017 H         1 LYS         0.0269
    175 H85        -2.0425   -7.7552   87.1878 H         1 LYS         0.0269
    176 H86        -3.4906   -7.5977   85.2661 H         1 LYS         0.0317
    177 H87        -2.1315   -7.0769   84.2134 H         1 LYS         0.0317
    178 H88        -1.8903   -5.0212   85.6148 H         1 LYS         0.0813
    179 H89        -3.3311   -5.5323   86.5579 H         1 LYS         0.0813
    180 H90        -3.8978   -3.9677   84.8295 H         1 LYS         0.1994
    181 H91        -4.6082   -5.4209   84.5243 H         1 LYS         0.1994
    182 H92        -3.2879   -4.9525   83.6600 H         1 LYS         0.1994
    183 H93        -1.2912  -11.7456   86.8904 H         1 SER         0.1884
    184 H94         0.4733  -13.4077   85.1969 H         1 SER         0.0823
    185 H95         0.6967  -15.1325   86.9857 H         1 SER         0.0606
    186 H96        -0.0474  -13.9876   88.1530 H         1 SER         0.0606
    187 H97         2.2556  -13.9465   88.1984 H         1 SER         0.2097
    188 H98        -0.8265  -14.6061   83.9576 H         1 THR         0.1876
    189 H99        -3.4795  -15.3844   85.0963 H         1 THR         0.0752
    190 H100       -4.6095  -14.9094   83.0718 H         1 THR         0.0632
    191 H101       -2.0350  -14.5956   81.8583 H         1 THR         0.2100
    192 H102       -4.0442  -12.5541   82.5370 H         1 THR         0.0256
    193 H103       -2.4655  -12.7423   83.3730 H         1 THR         0.0256
    194 H104       -3.9955  -12.8499   84.3081 H         1 THR         0.0256
@<TRIPOS>BOND
     1    1    2 1  
     2    2    3 1  
     3    2    5 1  
     4    3    4 2  
     5    3    6 am 
     6    6    7 1  
     7    7    8 1  
     8    7   10 1  
     9    8    9 2  
    10    8   17 am 
    11   10   11 1  
    12   11   12 1  
    13   12   13 1  
    14   13   14 ar 
    15   14   15 ar 
    16   14   16 ar 
    17   17   18 1  
    18   18   19 1  
    19   18   21 1  
    20   19   20 2  
    21   19   24 am 
    22   21   22 1  
    23   21   23 1  
    24   24   25 1  
    25   25   26 1  
    26   25   31 1  
    27   26   27 1  
    28   27   28 1  
    29   28   29 1  
    30   29   30 1  
    31   30   33 1  
    32   30   34 1  
    33   30   35 1  
    34   31   32 2  
    35   31   36 am 
    36   36   37 1  
    37   37   38 1  
    38   37   40 1  
    39   38   39 2  
    40   38   45 am 
    41   40   41 1  
    42   41   42 1  
    43   42   43 2  
    44   42   44 am 
    45   45   46 1  
    46   46   47 1  
    47   46   49 1  
    48   47   48 2  
    49   47   52 am 
    50   49   50 1  
    51   49   51 1  
    52   52   53 1  
    53   53   54 1  
    54   53   56 1  
    55   54   55 2  
    56   54   57 am 
    57   57   58 1  
    58   58   59 1  
    59   58   61 1  
    60   59   60 2  
    61   59   68 am 
    62   61   62 1  
    63   62   63 1  
    64   63   64 1  
    65   64   65 ar 
    66   65   66 ar 
    67   65   67 ar 
    68   68   69 1  
    69   69   70 1  
    70   69   72 1  
    71   70   71 2  
    72   70   77 am 
    73   72   73 1  
    74   73   74 1  
    75   74   75 1  
    76   75   76 1  
    77   77   78 1  
    78   78   79 1  
    79   78   81 1  
    80   79   80 2  
    81   79   83 am 
    82   81   82 1  
    83   83   84 1  
    84   84   85 1  
    85   84   87 1  
    86   85   86 ar 
    87   85   90 ar 
    88   87   88 1  
    89   87   89 1  
    90    1   91 1  
    91    1   92 1  
    92    1   93 1  
    93    2   94 1  
    94    5   95 1  
    95    5   96 1  
    96    5   97 1  
    97    6   98 1  
    98    7   99 1  
    99   10  100 1  
   100   10  101 1  
   101   11  102 1  
   102   11  103 1  
   103   12  104 1  
   104   12  105 1  
   105   13  106 1  
   106   15  107 1  
   107   15  108 1  
   108   16  109 1  
   109   16  110 1  
   110   17  111 1  
   111   18  112 1  
   112   21  113 1  
   113   22  114 1  
   114   23  115 1  
   115   23  116 1  
   116   23  117 1  
   117   24  118 1  
   118   25  119 1  
   119   26  120 1  
   120   26  121 1  
   121   27  122 1  
   122   27  123 1  
   123   28  124 1  
   124   28  125 1  
   125   29  126 1  
   126   29  127 1  
   127   33  128 1  
   128   33  129 1  
   129   33  130 1  
   130   34  131 1  
   131   34  132 1  
   132   34  133 1  
   133   35  134 1  
   134   35  135 1  
   135   35  136 1  
   136   36  137 1  
   137   37  138 1  
   138   40  139 1  
   139   40  140 1  
   140   41  141 1  
   141   41  142 1  
   142   44  143 1  
   143   44  144 1  
   144   45  145 1  
   145   46  146 1  
   146   49  147 1  
   147   50  148 1  
   148   51  149 1  
   149   51  150 1  
   150   51  151 1  
   151   52  152 1  
   152   53  153 1  
   153   56  154 1  
   154   56  155 1  
   155   56  156 1  
   156   57  157 1  
   157   58  158 1  
   158   61  159 1  
   159   61  160 1  
   160   62  161 1  
   161   62  162 1  
   162   63  163 1  
   163   63  164 1  
   164   64  165 1  
   165   66  166 1  
   166   66  167 1  
   167   67  168 1  
   168   67  169 1  
   169   68  170 1  
   170   69  171 1  
   171   72  172 1  
   172   72  173 1  
   173   73  174 1  
   174   73  175 1  
   175   74  176 1  
   176   74  177 1  
   177   75  178 1  
   178   75  179 1  
   179   76  180 1  
   180   76  181 1  
   181   76  182 1  
   182   77  183 1  
   183   78  184 1  
   184   81  185 1  
   185   81  186 1  
   186   82  187 1  
   187   83  188 1  
   188   84  189 1  
   189   87  190 1  
   190   88  191 1  
   191   89  192 1  
   192   89  193 1  
   193   89  194 1  
@<TRIPOS>SUBSTRUCTURE
     1 ALA         1

