5tdw_ligand
  -I-interpret- 

193192  0  0  0  0  0  0  0  0999 V2000
   -0.2550   15.4970   88.9460 N   0  3  0  0  0
    1.1910   15.3490   88.8180 C   0  0  0  0  0
    1.5430   14.2720   87.8030 C   0  0  0  0  0
    0.6740   13.5210   87.3680 O   0  0  0  0  0
    1.7960   15.0150   90.1580 C   0  0  0  0  0
    2.8210   14.1990   87.4440 N   0  0  0  0  0
    3.3220   13.1800   86.5310 C   0  0  0  0  0
    3.7380   11.9320   87.2970 C   0  0  0  0  0
    4.5900   12.0010   88.1860 O   0  0  0  0  0
    4.5040   13.7160   85.7340 C   0  0  0  0  0
    4.1790   14.9400   84.9030 C   0  0  0  0  0
    5.4440   15.6520   84.4730 C   0  0  0  0  0
    6.1430   16.2700   85.5960 N   0  0  0  0  0
    7.3130   16.8880   85.4830 C   0  0  0  0  0
    7.9100   16.9550   84.3020 N   0  0  0  0  0
    7.8940   17.4250   86.5480 N   0  0  0  0  0
    3.1440   10.7940   86.9440 N   0  0  0  0  0
    3.4110    9.5350   87.6490 C   0  0  0  0  0
    3.8200    8.3910   86.7140 C   0  0  0  0  0
    3.4910    8.3840   85.5320 O   0  0  0  0  0
    2.1720    9.0730   88.4620 C   0  0  0  0  0
    1.0890    8.7920   87.5630 O   0  0  0  0  0
    1.7210   10.1520   89.4300 C   0  0  0  0  0
    4.5480    7.4240   87.2660 N   0  0  0  0  0
    4.8670    6.1890   86.5990 C   0  0  0  0  0
    6.3770    5.9260   86.4880 C   0  0  0  0  0
    6.9770    6.2990   85.1600 C   0  0  0  0  0
    8.4570    5.9380   85.1310 C   0  0  0  0  0
    9.1890    6.3800   86.4030 C   0  0  0  0  0
   10.6980    6.2020   86.4020 N   0  3  0  0  0
    4.4560    5.0550   87.5210 C   0  0  0  0  0
    4.8530    5.0130   88.6870 O   0  0  0  0  0
   11.1130    4.8510   85.9250 C   0  0  0  0  0
   11.3080    6.4390   87.7460 C   0  0  0  0  0
   11.2530    7.2340   85.4820 C   0  0  0  0  0
    3.6540    4.1150   87.0230 N   0  0  0  0  0
    3.2580    2.9810   87.8690 C   0  0  0  0  0
    3.3480    1.6790   87.0920 C   0  0  0  0  0
    2.8280    1.5710   85.9860 O   0  0  0  0  0
    1.8470    3.1660   88.4360 C   0  0  0  0  0
    1.4980    2.1050   89.5080 C   0  0  0  0  0
    0.3070    2.4880   90.3830 C   0  0  0  0  0
   -0.5820    3.2310   89.9640 O   0  0  0  0  0
    0.3030    1.9930   91.6190 N   0  0  0  0  0
    4.0060    0.6920   87.6860 N   0  0  0  0  0
    4.2110   -0.5800   87.0060 C   0  0  0  0  0
    3.3070   -1.6310   87.6260 C   0  0  0  0  0
    3.3240   -1.8460   88.8470 O   0  0  0  0  0
    5.6690   -1.0130   87.0870 C   0  0  0  0  0
    6.4740   -0.0480   86.3850 O   0  0  0  0  0
    5.8520   -2.4080   86.4560 C   0  0  0  0  0
    2.5090   -2.2690   86.7760 N   0  0  0  0  0
    1.5980   -3.3280   87.2060 C   0  0  0  0  0
    2.1600   -4.6670   86.7870 C   0  0  0  0  0
    2.5960   -4.8220   85.6480 O   0  0  0  0  0
    0.2000   -3.1330   86.6060 C   0  0  0  0  0
    2.1370   -5.6230   87.7060 N   0  0  0  0  0
    2.6180   -6.9790   87.4480 C   0  0  0  0  0
    1.4710   -7.9560   87.6140 C   0  0  0  0  0
    0.8500   -8.0140   88.6640 O   0  0  0  0  0
    3.7600   -7.3470   88.3880 C   0  0  0  0  0
    5.0410   -6.5990   88.1160 C   0  0  0  0  0
    6.0390   -6.8010   89.2330 C   0  0  0  0  0
    7.2350   -5.9890   89.0390 N   0  0  0  0  0
    8.3490   -6.4310   88.4650 C   0  0  0  0  0
    8.4230   -7.6840   88.0240 N   0  0  0  0  0
    9.3850   -5.6140   88.3310 N   0  0  0  0  0
    1.1910   -8.7230   86.5710 N   0  0  0  0  0
    0.0360   -9.6020   86.5780 C   0  0  0  0  0
    0.4010  -10.9980   86.0880 C   0  0  0  0  0
    1.4340  -11.1870   85.4400 O   0  0  0  0  0
   -1.0850   -9.0040   85.7340 C   0  0  0  0  0
   -1.5570   -7.6440   86.2070 C   0  0  0  0  0
   -2.5510   -7.0270   85.2290 C   0  0  0  0  0
   -2.8410   -5.5730   85.5740 C   0  0  0  0  0
   -3.7310   -4.9260   84.5650 N   0  3  0  0  0
   -0.4430  -11.9750   86.4130 N   0  0  0  0  0
   -0.1650  -13.3720   86.0920 C   0  0  0  0  0
   -1.4640  -14.0950   85.8020 C   0  0  0  0  0
   -2.3530  -14.1380   86.6510 O   0  0  0  0  0
    0.5620  -14.0710   87.2410 C   0  0  0  0  0
    1.8310  -13.4910   87.4810 O   0  0  0  0  0
   -1.5880  -14.6530   84.6040 N   0  0  0  0  0
   -2.8230  -15.3360   84.2150 C   0  0  0  0  0
   -2.5370  -16.7520   83.7420 C   0  0  0  0  0
   -1.4810  -17.0110   83.1640 O   0  0  0  0  0
   -3.5600  -14.5810   83.0960 C   0  0  0  0  0
   -2.9440  -14.8710   81.8360 O   0  0  0  0  0
   -3.5130  -13.0770   83.3460 C   0  0  0  0  0
   -3.3600  -17.6480   83.9340 O   0  0  0  0  0
   -0.6544   15.7227   88.0350 H   0  0  0  0  0
   -0.6561   14.6235   89.2875 H   0  0  0  0  0
   -0.4617   16.2479   89.6047 H   0  0  0  0  0
    1.6005   16.2953   88.4646 H   0  0  0  0  0
    1.4067   14.0569   90.5023 H   0  0  0  0  0
    2.8800   14.9544   90.0609 H   0  0  0  0  0
    1.5372   15.7931   90.8762 H   0  0  0  0  0
    3.4763   14.8830   87.8224 H   0  0  0  0  0
    2.5199   12.9168   85.8414 H   0  0  0  0  0
    4.8143   12.9298   85.0457 H   0  0  0  0  0
    5.2735   14.0050   86.4499 H   0  0  0  0  0
    3.5793   15.6231   85.5045 H   0  0  0  0  0
    3.6341   14.6251   84.0131 H   0  0  0  0  0
    5.1665   16.4402   83.7731 H   0  0  0  0  0
    6.1105   14.9150   84.0249 H   0  0  0  0  0
    5.7089   16.2246   86.5179 H   0  0  0  0  0
    7.4709   16.5328   83.4839 H   0  0  0  0  0
    8.7982   17.8881   86.4565 H   0  0  0  0  0
    7.4365   17.3748   87.4583 H   0  0  0  0  0
    2.4868   10.7973   86.1639 H   0  0  0  0  0
    4.2473    9.7529   88.3132 H   0  0  0  0  0
    2.4500    8.1815   89.0242 H   0  0  0  0  0
    0.3229    8.5063   88.0661 H   0  0  0  0  0
    2.5306   10.3769   90.1243 H   0  0  0  0  0
    1.4580   11.0512   88.8729 H   0  0  0  0  0
    0.8517    9.7998   89.9853 H   0  0  0  0  0
    4.8991    7.5654   88.2132 H   0  0  0  0  0
    4.3873    6.2478   85.6220 H   0  0  0  0  0
    6.5251    4.8537   86.6159 H   0  0  0  0  0
    6.8652    6.5415   87.2436 H   0  0  0  0  0
    6.8688    7.3730   85.0087 H   0  0  0  0  0
    6.4612    5.7535   84.3697 H   0  0  0  0  0
    8.9132    6.4495   84.2834 H   0  0  0  0  0
    8.5390    4.8539   85.0532 H   0  0  0  0  0
    8.8081    5.7518   87.2082 H   0  0  0  0  0
    9.0080    7.4502   86.5031 H   0  0  0  0  0
   10.6849    4.0896   86.5769 H   0  0  0  0  0
   10.7559    4.7013   84.9061 H   0  0  0  0  0
   12.2004    4.7783   85.9446 H   0  0  0  0  0
   11.0917    7.4579   88.0672 H   0  0  0  0  0
   10.8886    5.7337   88.4634 H   0  0  0  0  0
   12.3870    6.2976   87.6839 H   0  0  0  0  0
   10.8447    7.0851   84.4824 H   0  0  0  0  0
   10.9801    8.2255   85.8433 H   0  0  0  0  0
   12.3388    7.1438   85.4495 H   0  0  0  0  0
    3.3177    4.1820   86.0624 H   0  0  0  0  0
    3.9516    2.9395   88.7089 H   0  0  0  0  0
    1.1374    3.0622   87.6152 H   0  0  0  0  0
    1.7983    4.1485   88.9055 H   0  0  0  0  0
    2.3644    2.0040   90.1617 H   0  0  0  0  0
    1.2362    1.1855   88.9844 H   0  0  0  0  0
   -0.4562    2.2258   92.2591 H   0  0  0  0  0
    1.0592    1.3810   91.9257 H   0  0  0  0  0
    4.3722    0.8251   88.6286 H   0  0  0  0  0
    3.9597   -0.4627   85.9519 H   0  0  0  0  0
    5.9761   -1.0680   88.1314 H   0  0  0  0  0
    7.3965   -0.3100   86.4288 H   0  0  0  0  0
    5.2363   -3.1310   86.9911 H   0  0  0  0  0
    5.5488   -2.3746   85.4095 H   0  0  0  0  0
    6.8997   -2.7010   86.5229 H   0  0  0  0  0
    2.5331   -2.0107   85.7895 H   0  0  0  0  0
    1.5037   -3.2894   88.2912 H   0  0  0  0  0
   -0.2027   -2.1735   86.9305 H   0  0  0  0  0
    0.2671   -3.1511   85.5182 H   0  0  0  0  0
   -0.4545   -3.9363   86.9443 H   0  0  0  0  0
    1.7684   -5.4029   88.6312 H   0  0  0  0  0
    2.9984   -7.0261   86.4276 H   0  0  0  0  0
    3.9676   -8.4076   88.2460 H   0  0  0  0  0
    3.4432   -7.0902   89.3988 H   0  0  0  0  0
    4.8138   -5.5356   88.0402 H   0  0  0  0  0
    5.4743   -6.9761   87.1896 H   0  0  0  0  0
    6.3338   -7.8503   89.2454 H   0  0  0  0  0
    5.5701   -6.5042   90.1712 H   0  0  0  0  0
    7.2151   -5.0223   89.3639 H   0  0  0  0  0
    9.2785   -8.0191   87.5811 H   0  0  0  0  0
    7.6242   -8.3096   88.1288 H   0  0  0  0  0
    9.3236   -4.6531   88.6676 H   0  0  0  0  0
    1.7963   -8.6955   85.7504 H   0  0  0  0  0
   -0.3148   -9.6973   87.6056 H   0  0  0  0  0
   -1.9359   -9.6820   85.8008 H   0  0  0  0  0
   -0.6957   -8.8770   84.7239 H   0  0  0  0  0
   -0.6920   -6.9850   86.2823 H   0  0  0  0  0
   -2.0510   -7.7657   87.1710 H   0  0  0  0  0
   -3.4838   -7.5882   85.2837 H   0  0  0  0  0
   -2.1210   -7.0659   84.2281 H   0  0  0  0  0
   -1.8952   -5.0315   85.5915 H   0  0  0  0  0
   -3.3447   -5.5457   86.5403 H   0  0  0  0  0
   -3.8991   -3.9565   84.8337 H   0  0  0  0  0
   -3.2816   -4.9534   83.6497 H   0  0  0  0  0
   -4.6182   -5.4276   84.5246 H   0  0  0  0  0
   -1.3082  -11.7410   86.8999 H   0  0  0  0  0
    0.4798  -13.3970   85.2135 H   0  0  0  0  0
    0.7058  -15.1177   86.9728 H   0  0  0  0  0
   -0.0405  -13.9693   88.1436 H   0  0  0  0  0
    2.2600  -13.9513   88.2060 H   0  0  0  0  0
   -0.8112  -14.6052   83.9447 H   0  0  0  0  0
   -3.4566  -15.3657   85.1014 H   0  0  0  0  0
   -4.6007  -14.9049   83.0830 H   0  0  0  0  0
   -3.4056  -14.3988   81.1392 H   0  0  0  0  0
   -3.9913  -12.8534   84.2996 H   0  0  0  0  0
   -2.4746  -12.7467   83.3726 H   0  0  0  0  0
   -4.0396  -12.5600   82.5438 H   0  0  0  0  0
   -4.1227  -17.2876   84.3923 H   0  0  0  0  0
  1  2  1  0  0  0
  2  3  1  0  0  0
  2  5  1  0  0  0
  3  4  2  0  0  0
  3  6  1  0  0  0
  6  7  1  0  0  0
  7  8  1  0  0  0
  7 10  1  0  0  0
  8  9  2  0  0  0
  8 17  1  0  0  0
 10 11  1  0  0  0
 11 12  1  0  0  0
 12 13  1  0  0  0
 13 14  1  0  0  0
 14 15  2  0  0  0
 14 16  1  0  0  0
 17 18  1  0  0  0
 18 19  1  0  0  0
 18 21  1  0  0  0
 19 20  2  0  0  0
 19 24  1  0  0  0
 21 22  1  0  0  0
 21 23  1  0  0  0
 24 25  1  0  0  0
 25 26  1  0  0  0
 25 31  1  0  0  0
 26 27  1  0  0  0
 27 28  1  0  0  0
 28 29  1  0  0  0
 29 30  1  0  0  0
 30 33  1  0  0  0
 30 34  1  0  0  0
 30 35  1  0  0  0
 31 32  2  0  0  0
 31 36  1  0  0  0
 36 37  1  0  0  0
 37 38  1  0  0  0
 37 40  1  0  0  0
 38 39  2  0  0  0
 38 45  1  0  0  0
 40 41  1  0  0  0
 41 42  1  0  0  0
 42 43  2  0  0  0
 42 44  1  0  0  0
 45 46  1  0  0  0
 46 47  1  0  0  0
 46 49  1  0  0  0
 47 48  2  0  0  0
 47 52  1  0  0  0
 49 50  1  0  0  0
 49 51  1  0  0  0
 52 53  1  0  0  0
 53 54  1  0  0  0
 53 56  1  0  0  0
 54 55  2  0  0  0
 54 57  1  0  0  0
 57 58  1  0  0  0
 58 59  1  0  0  0
 58 61  1  0  0  0
 59 60  2  0  0  0
 59 68  1  0  0  0
 61 62  1  0  0  0
 62 63  1  0  0  0
 63 64  1  0  0  0
 64 65  1  0  0  0
 65 66  1  0  0  0
 65 67  2  0  0  0
 68 69  1  0  0  0
 69 70  1  0  0  0
 69 72  1  0  0  0
 70 71  2  0  0  0
 70 77  1  0  0  0
 72 73  1  0  0  0
 73 74  1  0  0  0
 74 75  1  0  0  0
 75 76  1  0  0  0
 77 78  1  0  0  0
 78 79  1  0  0  0
 78 81  1  0  0  0
 79 80  2  0  0  0
 79 83  1  0  0  0
 81 82  1  0  0  0
 83 84  1  0  0  0
 84 85  1  0  0  0
 84 87  1  0  0  0
 85 86  2  0  0  0
 85 90  1  0  0  0
 87 88  1  0  0  0
 87 89  1  0  0  0
  1 91  1  0  0  0
  1 92  1  0  0  0
  1 93  1  0  0  0
  2 94  1  0  0  0
  5 95  1  0  0  0
  5 96  1  0  0  0
  5 97  1  0  0  0
  6 98  1  0  0  0
  7 99  1  0  0  0
 10100  1  0  0  0
 10101  1  0  0  0
 11102  1  0  0  0
 11103  1  0  0  0
 12104  1  0  0  0
 12105  1  0  0  0
 13106  1  0  0  0
 15107  1  0  0  0
 16108  1  0  0  0
 16109  1  0  0  0
 17110  1  0  0  0
 18111  1  0  0  0
 21112  1  0  0  0
 22113  1  0  0  0
 23114  1  0  0  0
 23115  1  0  0  0
 23116  1  0  0  0
 24117  1  0  0  0
 25118  1  0  0  0
 26119  1  0  0  0
 26120  1  0  0  0
 27121  1  0  0  0
 27122  1  0  0  0
 28123  1  0  0  0
 28124  1  0  0  0
 29125  1  0  0  0
 29126  1  0  0  0
 33127  1  0  0  0
 33128  1  0  0  0
 33129  1  0  0  0
 34130  1  0  0  0
 34131  1  0  0  0
 34132  1  0  0  0
 35133  1  0  0  0
 35134  1  0  0  0
 35135  1  0  0  0
 36136  1  0  0  0
 37137  1  0  0  0
 40138  1  0  0  0
 40139  1  0  0  0
 41140  1  0  0  0
 41141  1  0  0  0
 44142  1  0  0  0
 44143  1  0  0  0
 45144  1  0  0  0
 46145  1  0  0  0
 49146  1  0  0  0
 50147  1  0  0  0
 51148  1  0  0  0
 51149  1  0  0  0
 51150  1  0  0  0
 52151  1  0  0  0
 53152  1  0  0  0
 56153  1  0  0  0
 56154  1  0  0  0
 56155  1  0  0  0
 57156  1  0  0  0
 58157  1  0  0  0
 61158  1  0  0  0
 61159  1  0  0  0
 62160  1  0  0  0
 62161  1  0  0  0
 63162  1  0  0  0
 63163  1  0  0  0
 64164  1  0  0  0
 66165  1  0  0  0
 66166  1  0  0  0
 67167  1  0  0  0
 68168  1  0  0  0
 69169  1  0  0  0
 72170  1  0  0  0
 72171  1  0  0  0
 73172  1  0  0  0
 73173  1  0  0  0
 74174  1  0  0  0
 74175  1  0  0  0
 75176  1  0  0  0
 75177  1  0  0  0
 76178  1  0  0  0
 76179  1  0  0  0
 76180  1  0  0  0
 77181  1  0  0  0
 78182  1  0  0  0
 81183  1  0  0  0
 81184  1  0  0  0
 82185  1  0  0  0
 83186  1  0  0  0
 84187  1  0  0  0
 87188  1  0  0  0
 88189  1  0  0  0
 89190  1  0  0  0
 89191  1  0  0  0
 89192  1  0  0  0
 90193  1  0  0  0
M  END
$$$$
