5w5j_ligand
  -I-interpret- 

 29 31  0  0  0  0  0  0  0  0999 V2000
  -19.9130    4.1540  -19.6010 C   0  0  0  0  0
  -20.9020    4.9440  -20.0420 C   0  0  0  0  0
  -18.5770    3.9250  -20.1970 C   0  0  0  0  0
  -16.1740    1.3770  -20.8030 C   0  0  0  0  0
  -22.1010    6.4970  -21.4240 C   0  0  0  0  0
  -23.1970    6.3440  -20.4510 C   0  0  0  0  0
  -15.5810    3.6940  -20.4510 C   0  0  0  0  0
  -14.9120    1.1390  -21.3550 C   0  0  0  0  0
  -14.3190    3.4560  -21.0030 C   0  0  0  0  0
  -13.9830    2.1780  -21.4560 C   0  0  0  0  0
  -21.9250    4.8710  -19.2330 N   0  0  0  0  0
  -21.6240    4.0200  -18.2310 N   0  0  0  0  0
  -20.4550    3.5520  -18.3710 C   0  0  0  0  0
  -17.8000    2.8930  -19.7880 N   0  0  0  0  0
  -16.5150    2.6570  -20.3480 C   0  0  0  0  0
  -20.9690    5.8130  -21.2330 C   0  0  0  0  0
  -23.0390    5.5290  -19.4000 C   0  0  0  0  0
  -18.2040    4.6960  -21.0650 O   0  0  0  0  0
  -17.3240    0.0590  -20.6860 Cl  0  0  0  0  0
  -22.2117    7.1567  -22.2846 H   0  0  0  0  0
  -24.1304    6.8906  -20.5858 H   0  0  0  0  0
  -15.8390    4.6928  -20.0989 H   0  0  0  0  0
  -14.6520    0.1408  -21.7074 H   0  0  0  0  0
  -13.5964    4.2684  -21.0800 H   0  0  0  0  0
  -12.9993    1.9918  -21.8869 H   0  0  0  0  0
  -19.9509    2.8448  -17.7124 H   0  0  0  0  0
  -18.1463    2.2691  -19.0591 H   0  0  0  0  0
  -20.1319    5.8934  -21.9264 H   0  0  0  0  0
  -23.8478    5.4146  -18.6783 H   0  0  0  0  0
  1  2  4  0  0  0
  3  1  1  0  0  0
  1 13  4  0  0  0
  2 11  4  0  0  0
  2 16  4  0  0  0
 14  3  1  0  0  0
  3 18  2  0  0  0
  4  8  4  0  0  0
 15  4  4  0  0  0
  4 19  1  0  0  0
  5  6  4  0  0  0
 16  5  4  0  0  0
 17  6  4  0  0  0
  7  9  4  0  0  0
 15  7  4  0  0  0
  8 10  4  0  0  0
  9 10  4  0  0  0
 12 11  4  0  0  0
 11 17  4  0  0  0
 13 12  4  0  0  0
 14 15  1  0  0  0
  5 20  1  0  0  0
  6 21  1  0  0  0
  7 22  1  0  0  0
  8 23  1  0  0  0
  9 24  1  0  0  0
 10 25  1  0  0  0
 13 26  1  0  0  0
 14 27  1  0  0  0
 16 28  1  0  0  0
 17 29  1  0  0  0
M  END
$$$$
