3run_ligand
  -I-interpret- 

133140  0  0  0  0  0  0  0  0999 V2000
   25.0130  -40.6510    6.8870 N   0  3  0  0  0
   24.6900  -39.2200    6.7620 C   0  0  0  0  0
   25.9110  -41.1350    5.8190 C   0  0  0  0  0
   25.2970  -40.9410    4.4220 C   0  0  0  0  0
   24.7000  -39.8980    4.1430 O   0  0  0  0  0
   27.2370  -40.3650    5.8310 C   0  0  0  0  0
   28.0040  -40.4900    7.1500 C   0  0  0  0  0
   28.2560  -41.9480    7.5440 C   0  0  0  0  0
   29.3150  -39.7010    7.0460 C   0  0  0  0  0
   25.4670  -41.9350    3.5470 N   0  0  0  0  0
   25.0740  -41.7700    2.1330 C   0  0  0  0  0
   26.3790  -41.6030    1.2970 C   0  0  0  0  0
   26.2750  -41.2060    0.1220 O   0  0  0  0  0
   24.1850  -42.9230    1.5810 C   0  0  0  0  0
   23.0490  -43.0320    2.4340 O   0  0  0  0  0
   24.9560  -44.2430    1.5560 C   0  0  0  0  0
   25.5620  -44.5650    0.3510 C   0  0  0  0  0
   25.0960  -45.0950    2.6510 C   0  0  0  0  0
   26.3060  -45.7240    0.2360 C   0  0  0  0  0
   27.0460  -46.1090   -1.2770 Cl  0  0  0  0  0
   25.8390  -46.2770    2.5280 C   0  0  0  0  0
   26.4730  -46.5700    1.3190 C   0  0  0  0  0
   27.2390  -47.6760    1.1120 O   0  0  0  0  0
   27.5490  -41.8960    1.8730 N   0  0  0  0  0
   28.8320  -41.5020    1.2660 C   0  0  0  0  0
   29.7730  -42.6250    0.7970 C   0  0  0  0  0
   30.1540  -42.6650   -0.3810 O   0  0  0  0  0
   29.5960  -40.5780    2.2180 C   0  0  0  0  0
   28.7620  -39.3970    2.6870 C   0  0  0  0  0
   27.5960  -39.2450    2.3040 O   0  0  0  0  0
   29.3560  -38.5560    3.5160 N   0  0  0  0  0
   30.1610  -43.5110    1.7180 N   0  0  0  0  0
   31.1590  -44.5670    1.4350 C   0  0  0  0  0
   32.3060  -44.5060    2.4780 C   0  0  0  0  0
   32.0180  -44.4640    3.6990 O   0  0  0  0  0
   30.5320  -45.9800    1.5200 C   0  0  0  0  0
   31.3510  -47.0910    1.7830 C   0  0  0  0  0
   30.8130  -48.3810    1.8680 C   0  0  0  0  0
   29.4340  -48.5370    1.6790 C   0  0  0  0  0
   28.8830  -49.7730    1.7840 O   0  0  0  0  0
   28.5830  -47.4530    1.4350 C   0  0  0  0  0
   29.1540  -46.1730    1.3260 C   0  0  0  0  0
   33.5590  -44.5000    2.0300 N   0  0  0  0  0
   34.6880  -44.8670    2.9230 C   0  0  0  0  0
   35.7280  -45.6380    2.0700 C   0  0  0  0  0
   35.6640  -45.5120    0.8300 O   0  0  0  0  0
   35.5040  -43.7620    3.5900 C   0  0  0  0  0
   36.2610  -42.8370    2.8530 C   0  0  0  0  0
   37.0460  -41.9080    3.5350 C   0  0  0  0  0
   37.1070  -41.9270    4.9420 C   0  0  0  0  0
   37.8910  -41.0100    5.5660 O   0  0  0  0  0
   36.3460  -42.8600    5.6760 C   0  0  0  0  0
   35.5750  -43.7750    4.9800 C   0  0  0  0  0
   36.6360  -46.4090    2.6650 N   0  0  0  0  0
   36.6670  -46.7040    4.1200 C   0  0  0  0  0
   31.6210  -49.5010    2.0830 O   0  0  0  0  0
   33.9990  -49.4320    1.9010 C   0  0  0  0  0
   32.9350  -48.7320    3.9460 C   0  0  0  0  0
   32.8350  -49.2200    2.6410 C   0  0  0  0  0
   35.3580  -48.6610    3.7340 C   0  0  0  0  0
   35.2610  -49.1430    2.4270 C   0  0  0  0  0
   34.1930  -48.4510    4.4730 C   0  0  0  0  0
   36.6930  -48.2410    4.3700 C   0  0  0  0  0
   31.5290  -48.4630    4.9300 Cl  0  0  0  0  0
   38.7790  -45.5110    4.1740 O   0  0  0  0  0
   37.7840  -45.9160    4.8170 C   0  0  0  0  0
   37.8420  -48.7730    3.7180 O   0  0  0  0  0
   37.6190  -45.6900    6.1130 N   0  0  0  0  0
   36.4590  -43.7750   11.1910 O   0  0  0  0  0
   36.4730  -43.4880    9.8560 C   0  0  0  0  0
   37.3520  -44.1460    9.0140 C   0  0  0  0  0
   35.6060  -42.5350    9.3340 C   0  0  0  0  0
   35.6360  -42.2500    7.9610 C   0  0  0  0  0
   34.7950  -41.3060    7.4510 O   0  0  0  0  0
   36.4990  -42.9370    7.0850 C   0  0  0  0  0
   37.3720  -43.8630    7.6550 C   0  0  0  0  0
   38.3520  -44.6020    6.7610 C   0  0  0  0  0
   39.5970  -45.0470    7.5550 C   0  0  0  0  0
   39.8280  -46.2620    7.6550 O   0  0  0  0  0
   40.3070  -44.1330    8.0210 O   0  0  0  0  0
   24.1398  -41.1738    6.8196 H   0  0  0  0  0
   25.4898  -40.7853    7.7786 H   0  0  0  0  0
   25.6089  -38.6358    6.8110 H   0  0  0  0  0
   24.1956  -39.0425    5.8069 H   0  0  0  0  0
   24.0272  -38.9260    7.5759 H   0  0  0  0  0
   26.0690  -42.1954    6.0156 H   0  0  0  0  0
   27.0045  -39.3100    5.6860 H   0  0  0  0  0
   27.8660  -40.7836    5.0454 H   0  0  0  0  0
   27.3901  -40.0683    7.9459 H   0  0  0  0  0
   28.8861  -42.4226    6.7918 H   0  0  0  0  0
   28.7564  -41.9802    8.5118 H   0  0  0  0  0
   27.3043  -42.4755    7.6078 H   0  0  0  0  0
   29.8237  -39.7155    8.0099 H   0  0  0  0  0
   29.9535  -40.1578    6.2899 H   0  0  0  0  0
   29.0963  -38.6709    6.7646 H   0  0  0  0  0
   25.8726  -42.8176    3.8584 H   0  0  0  0  0
   24.4420  -40.8854    2.0539 H   0  0  0  0  0
   23.8813  -42.7051    0.5571 H   0  0  0  0  0
   22.4796  -43.7374    2.1182 H   0  0  0  0  0
   25.4513  -43.9025   -0.5074 H   0  0  0  0  0
   24.6278  -44.8418    3.6022 H   0  0  0  0  0
   25.9214  -46.9632    3.3709 H   0  0  0  0  0
   27.5536  -42.4060    2.7564 H   0  0  0  0  0
   28.5291  -41.0043    0.3448 H   0  0  0  0  0
   30.4593  -40.1851    1.6810 H   0  0  0  0  0
   29.8747  -41.1600    3.0965 H   0  0  0  0  0
   28.8503  -37.7423    3.8660 H   0  0  0  0  0
   30.3200  -38.7208    3.8057 H   0  0  0  0  0
   29.7542  -43.4580    2.6519 H   0  0  0  0  0
   31.5324  -44.3913    0.4261 H   0  0  0  0  0
   32.4222  -46.9464    1.9231 H   0  0  0  0  0
   27.9374  -49.7148    1.6290 H   0  0  0  0  0
   28.5195  -45.3193    1.0879 H   0  0  0  0  0
   33.7465  -44.2402    1.0616 H   0  0  0  0  0
   34.1856  -45.4012    3.7294 H   0  0  0  0  0
   36.2353  -42.8451    1.7633 H   0  0  0  0  0
   37.6147  -41.1641    2.9770 H   0  0  0  0  0
   37.8376  -41.1384    6.5159 H   0  0  0  0  0
   35.0095  -44.5242    5.5341 H   0  0  0  0  0
   37.3607  -46.8260    2.0807 H   0  0  0  0  0
   35.7453  -46.3542    4.5849 H   0  0  0  0  0
   33.9221  -49.8320    0.8900 H   0  0  0  0  0
   36.1575  -49.2918    1.8252 H   0  0  0  0  0
   34.2695  -48.0577    5.4867 H   0  0  0  0  0
   36.7714  -48.5813    5.4025 H   0  0  0  0  0
   37.8781  -49.7219    3.8593 H   0  0  0  0  0
   36.9828  -46.2730    6.6568 H   0  0  0  0  0
   35.7962  -43.2340   11.6265 H   0  0  0  0  0
   38.0341  -44.8925    9.4209 H   0  0  0  0  0
   34.9073  -42.0126    9.9875 H   0  0  0  0  0
   34.9377  -41.2296    6.5047 H   0  0  0  0  0
   38.7531  -43.9568    5.9794 H   0  0  0  0  0
   39.9132  -43.2836    7.8088 H   0  0  0  0  0
  1  2  1  0  0  0
  3  1  1  0  0  0
  4  3  1  0  0  0
  3  6  1  0  0  0
  4  5  2  0  0  0
 10  4  1  0  0  0
  6  7  1  0  0  0
  7  8  1  0  0  0
  7  9  1  0  0  0
 11 10  1  0  0  0
 12 11  1  0  0  0
 11 14  1  0  0  0
 12 13  2  0  0  0
 24 12  1  0  0  0
 14 15  1  0  0  0
 14 16  1  0  0  0
 17 16  4  0  0  0
 18 16  4  0  0  0
 19 17  4  0  0  0
 21 18  4  0  0  0
 19 20  1  0  0  0
 22 19  4  0  0  0
 22 21  4  0  0  0
 23 22  1  0  0  0
 41 23  1  0  0  0
 25 24  1  0  0  0
 26 25  1  0  0  0
 25 28  1  0  0  0
 26 27  2  0  0  0
 32 26  1  0  0  0
 28 29  1  0  0  0
 29 30  2  0  0  0
 29 31  1  0  0  0
 33 32  1  0  0  0
 34 33  1  0  0  0
 33 36  1  0  0  0
 34 35  2  0  0  0
 43 34  1  0  0  0
 36 37  4  0  0  0
 36 42  4  0  0  0
 37 38  4  0  0  0
 38 39  4  0  0  0
 38 56  1  0  0  0
 39 40  1  0  0  0
 41 39  4  0  0  0
 42 41  4  0  0  0
 44 43  1  0  0  0
 44 45  1  0  0  0
 47 44  1  0  0  0
 45 46  2  0  0  0
 45 54  1  0  0  0
 47 48  4  0  0  0
 53 47  4  0  0  0
 49 48  4  0  0  0
 50 49  4  0  0  0
 50 51  1  0  0  0
 52 50  4  0  0  0
 52 53  4  0  0  0
 75 52  1  0  0  0
 54 55  1  0  0  0
 55 63  1  0  0  0
 55 66  1  0  0  0
 56 59  1  0  0  0
 57 59  4  0  0  0
 61 57  4  0  0  0
 58 59  4  0  0  0
 62 58  4  0  0  0
 58 64  1  0  0  0
 60 61  4  0  0  0
 60 62  4  0  0  0
 63 60  1  0  0  0
 63 67  1  0  0  0
 66 65  2  0  0  0
 66 68  1  0  0  0
 68 77  1  0  0  0
 70 69  1  0  0  0
 70 71  4  0  0  0
 72 70  4  0  0  0
 71 76  4  0  0  0
 73 72  4  0  0  0
 73 74  1  0  0  0
 73 75  4  0  0  0
 75 76  4  0  0  0
 76 77  1  0  0  0
 77 78  1  0  0  0
 78 79  2  0  0  0
 78 80  1  0  0  0
  1 81  1  0  0  0
  1 82  1  0  0  0
  2 83  1  0  0  0
  2 84  1  0  0  0
  2 85  1  0  0  0
  3 86  1  0  0  0
  6 87  1  0  0  0
  6 88  1  0  0  0
  7 89  1  0  0  0
  8 90  1  0  0  0
  8 91  1  0  0  0
  8 92  1  0  0  0
  9 93  1  0  0  0
  9 94  1  0  0  0
  9 95  1  0  0  0
 10 96  1  0  0  0
 11 97  1  0  0  0
 14 98  1  0  0  0
 15 99  1  0  0  0
 17100  1  0  0  0
 18101  1  0  0  0
 21102  1  0  0  0
 24103  1  0  0  0
 25104  1  0  0  0
 28105  1  0  0  0
 28106  1  0  0  0
 31107  1  0  0  0
 31108  1  0  0  0
 32109  1  0  0  0
 33110  1  0  0  0
 37111  1  0  0  0
 40112  1  0  0  0
 42113  1  0  0  0
 43114  1  0  0  0
 44115  1  0  0  0
 48116  1  0  0  0
 49117  1  0  0  0
 51118  1  0  0  0
 53119  1  0  0  0
 54120  1  0  0  0
 55121  1  0  0  0
 57122  1  0  0  0
 61123  1  0  0  0
 62124  1  0  0  0
 63125  1  0  0  0
 67126  1  0  0  0
 68127  1  0  0  0
 69128  1  0  0  0
 71129  1  0  0  0
 72130  1  0  0  0
 74131  1  0  0  0
 77132  1  0  0  0
 80133  1  0  0  0
M  END
$$$$
