### 
### Created by X-TOOL on Mon Sep 10 21:13:08 2018
### 

@<TRIPOS>MOLECULE
3run_ligand
  132   139     1     0     0
SMALL
GAST_HUCK


@<TRIPOS>ATOM
      1 N          25.0130  -40.6510    6.8870 N.4       1 MLU         0.2440
      2 CN         24.6900  -39.2200    6.7620 C.3       1 MLU        -0.0428
      3 CA         25.9110  -41.1350    5.8190 C.3       1 MLU         0.0668
      4 C          25.2970  -40.9410    4.4220 C.2       1 MLU         0.2269
      5 O          24.7000  -39.8980    4.1430 O.2       1 MLU        -0.3907
      6 CB         27.2370  -40.3650    5.8310 C.3       1 MLU         0.0102
      7 CG         28.0040  -40.4900    7.1500 C.3       1 MLU        -0.0394
      8 CD1        28.2560  -41.9480    7.5440 C.3       1 MLU        -0.0623
      9 CD2        29.3150  -39.7010    7.0460 C.3       1 MLU        -0.0623
     10 N          25.4670  -41.9350    3.5470 N.am      1 OMZ        -0.2571
     11 CA         25.0740  -41.7700    2.1330 C.3       1 OMZ         0.1653
     12 C          26.3790  -41.6030    1.2970 C.2       1 OMZ         0.2085
     13 O          26.2750  -41.2060    0.1220 O.2       1 OMZ        -0.3941
     14 CB         24.1850  -42.9230    1.5810 C.3       1 OMZ         0.1244
     15 OC         23.0490  -43.0320    2.4340 O.3       1 OMZ        -0.3762
     16 CG         24.9560  -44.2430    1.5560 C.ar      1 OMZ        -0.0199
     17 CD1        25.5620  -44.5650    0.3510 C.ar      1 OMZ        -0.0514
     18 CD2        25.0960  -45.0950    2.6510 C.ar      1 OMZ        -0.0651
     19 CE1        26.3060  -45.7240    0.2360 C.ar      1 OMZ         0.0657
     20 CL         27.0460  -46.1090   -1.2770 Cl        1 OMZ        -0.0796
     21 CE2        25.8390  -46.2770    2.5280 C.ar      1 OMZ        -0.0346
     22 CZ         26.4730  -46.5700    1.3190 C.ar      1 OMZ         0.1201
     23 OH         27.2390  -47.6760    1.1120 O.3       1 OMZ        -0.2694
     24 N          27.5490  -41.8960    1.8730 N.am      1 ASN        -0.2614
     25 CA         28.8320  -41.5020    1.2660 C.3       1 ASN         0.1477
     26 C          29.7730  -42.6250    0.7970 C.2       1 ASN         0.2078
     27 O          30.1540  -42.6650   -0.3810 O.2       1 ASN        -0.3941
     28 CB         29.5960  -40.5780    2.2180 C.3       1 ASN         0.0773
     29 CG         28.7620  -39.3970    2.6870 C.2       1 ASN         0.1780
     30 OD1        27.5960  -39.2450    2.3040 O.2       1 ASN        -0.3970
     31 ND2        29.3560  -38.5560    3.5160 N.am      1 ASN        -0.3007
     32 N          30.1610  -43.5110    1.7180 N.am      1 GHP        -0.2547
     33 CA         31.1590  -44.5670    1.4350 C.3       1 GHP         0.1554
     34 C          32.3060  -44.5060    2.4780 C.2       1 GHP         0.2152
     35 O          32.0180  -44.4640    3.6990 O.2       1 GHP        -0.3916
     36 C1         30.5320  -45.9800    1.5200 C.ar      1 GHP        -0.0249
     37 C2         31.3510  -47.0910    1.7830 C.ar      1 GHP        -0.0411
     38 C3         30.8130  -48.3810    1.8680 C.ar      1 GHP         0.1303
     39 C4         29.4340  -48.5370    1.6790 C.ar      1 GHP         0.1466
     40 O4         28.8830  -49.7730    1.7840 O.3       1 GHP        -0.3447
     41 C5         28.5830  -47.4530    1.4350 C.ar      1 GHP         0.1303
     42 C6         29.1540  -46.1730    1.3260 C.ar      1 GHP        -0.0411
     43 N          33.5590  -44.5000    2.0300 N.am      1 GHP        -0.2531
     44 CA         34.6880  -44.8670    2.9230 C.3       1 GHP         0.1588
     45 C          35.7280  -45.6380    2.0700 C.2       1 GHP         0.2141
     46 O          35.6640  -45.5120    0.8300 O.2       1 GHP        -0.3918
     47 C1         35.5040  -43.7620    3.5900 C.ar      1 GHP        -0.0135
     48 C2         36.2610  -42.8370    2.8530 C.ar      1 GHP        -0.0677
     49 C3         37.0460  -41.9080    3.5350 C.ar      1 GHP        -0.0419
     50 C4         37.1070  -41.9270    4.9420 C.ar      1 GHP         0.0843
     51 O4         37.8910  -41.0100    5.5660 O.3       1 GHP        -0.3377
     52 C5         36.3460  -42.8600    5.6760 C.ar      1 GHP        -0.0068
     53 C6         35.5750  -43.7750    4.9800 C.ar      1 GHP        -0.0626
     54 N          36.6360  -46.4090    2.6650 N.am      1 OMY        -0.2584
     55 CA         36.6670  -46.7040    4.1200 C.3       1 OMY         0.1654
     56 OCZ        31.6210  -49.5010    2.0830 O.3       1 OMY        -0.2694
     57 CE2        33.9990  -49.4320    1.9010 C.ar      1 OMY        -0.0346
     58 CE1        32.9350  -48.7320    3.9460 C.ar      1 OMY         0.0657
     59 CZ         32.8350  -49.2200    2.6410 C.ar      1 OMY         0.1201
     60 CG         35.3580  -48.6610    3.7340 C.ar      1 OMY        -0.0199
     61 CD2        35.2610  -49.1430    2.4270 C.ar      1 OMY        -0.0651
     62 CD1        34.1930  -48.4510    4.4730 C.ar      1 OMY        -0.0514
     63 CB         36.6930  -48.2410    4.3700 C.3       1 OMY         0.1244
     64 CL         31.5290  -48.4630    4.9300 Cl        1 OMY        -0.0796
     65 O          38.7790  -45.5110    4.1740 O.2       1 OMY        -0.3940
     66 C          37.7840  -45.9160    4.8170 C.2       1 OMY         0.2096
     67 ODE        37.8420  -48.7730    3.7180 O.3       1 OMY        -0.3762
     68 N          37.6190  -45.6900    6.1130 N.am      1 3FG        -0.2587
     69 OD1        36.4590  -43.7750   11.1910 O.3       1 3FG        -0.3370
     70 CD1        36.4730  -43.4880    9.8560 C.ar      1 3FG         0.0737
     71 CG1        37.3520  -44.1460    9.0140 C.ar      1 3FG        -0.0382
     72 CZ         35.6060  -42.5350    9.3340 C.ar      1 3FG        -0.0111
     73 CD2        35.6360  -42.2500    7.9610 C.ar      1 3FG         0.0825
     74 OD2        34.7950  -41.3060    7.4510 O.3       1 3FG        -0.3356
     75 CG2        36.4990  -42.9370    7.0850 C.ar      1 3FG         0.0040
     76 CB         37.3720  -43.8630    7.6550 C.ar      1 3FG        -0.0133
     77 CA         38.3520  -44.6020    6.7610 C.3       1 3FG         0.1242
     78 C          39.5970  -45.0470    7.5550 C.2       1 3FG         0.0721
     79 O          39.8280  -46.2620    7.6550 O.co2     1 3FG        -0.5641
     80 OXT        40.3070  -44.1330    8.0210 O.co2     1 3FG        -0.5641
     81 H          24.1398  -41.1738    6.8196 H         1 MLU         0.2032
     82 H          25.4898  -40.7853    7.7786 H         1 MLU         0.2032
     83 H          25.6089  -38.6358    6.8110 H         1 MLU         0.0777
     84 H          24.1956  -39.0425    5.8069 H         1 MLU         0.0777
     85 H          24.0272  -38.9260    7.5759 H         1 MLU         0.0777
     86 H          26.0690  -42.1954    6.0156 H         1 MLU         0.1099
     87 H          27.0045  -39.3100    5.6860 H         1 MLU         0.0348
     88 H          27.8660  -40.7836    5.0454 H         1 MLU         0.0348
     89 H          27.3901  -40.0683    7.9459 H         1 MLU         0.0299
     90 H          28.8861  -42.4226    6.7918 H         1 MLU         0.0232
     91 H          28.7564  -41.9802    8.5118 H         1 MLU         0.0232
     92 H          27.3043  -42.4755    7.6078 H         1 MLU         0.0232
     93 H          29.8237  -39.7155    8.0099 H         1 MLU         0.0232
     94 H          29.9535  -40.1578    6.2899 H         1 MLU         0.0232
     95 H          29.0963  -38.6709    6.7646 H         1 MLU         0.0232
     96 H          25.8726  -42.8176    3.8584 H         1 OMZ         0.1887
     97 H          24.4420  -40.8854    2.0539 H         1 OMZ         0.0848
     98 H          23.8813  -42.7051    0.5571 H         1 OMZ         0.0786
     99 H          22.4796  -43.7374    2.1182 H         1 OMZ         0.2130
    100 H          25.4513  -43.9025   -0.5074 H         1 OMZ         0.0537
    101 H          24.6278  -44.8418    3.6022 H         1 OMZ         0.0534
    102 H          25.9214  -46.9632    3.3709 H         1 OMZ         0.0534
    103 H          27.5536  -42.4060    2.7564 H         1 ASN         0.1885
    104 H          28.5291  -41.0043    0.3448 H         1 ASN         0.0826
    105 H          30.4593  -40.1851    1.6810 H         1 ASN         0.0551
    106 H          29.8747  -41.1600    3.0965 H         1 ASN         0.0551
    107 H          28.8503  -37.7423    3.8660 H         1 ASN         0.1814
    108 H          30.3200  -38.7208    3.8057 H         1 ASN         0.1814
    109 H          29.7542  -43.4580    2.6519 H         1 GHP         0.1907
    110 H          31.5324  -44.3913    0.4261 H         1 GHP         0.0936
    111 H          32.4222  -46.9464    1.9231 H         1 GHP         0.0383
    112 H          27.9374  -49.7148    1.6290 H         1 GHP         0.2387
    113 H          28.5195  -45.3193    1.0879 H         1 GHP         0.0383
    114 H          33.7465  -44.2402    1.0616 H         1 GHP         0.1908
    115 H          34.1856  -45.4012    3.7294 H         1 GHP         0.0938
    116 H          36.2353  -42.8451    1.7633 H         1 GHP         0.0506
    117 H          37.6147  -41.1641    2.9770 H         1 GHP         0.0515
    118 H          37.5873  -40.1268    5.3438 H         1 GHP         0.2460
    119 H          35.0095  -44.5242    5.5341 H         1 GHP         0.0497
    120 H          37.3607  -46.8260    2.0807 H         1 OMY         0.1887
    121 H          35.7453  -46.3542    4.5849 H         1 OMY         0.0848
    122 H          33.9221  -49.8320    0.8900 H         1 OMY         0.0534
    123 H          36.1575  -49.2918    1.8252 H         1 OMY         0.0534
    124 H          34.2695  -48.0577    5.4867 H         1 OMY         0.0537
    125 H          36.7714  -48.5813    5.4025 H         1 OMY         0.0786
    126 H          38.6335  -48.4693    4.1685 H         1 OMY         0.2130
    127 H          36.9828  -46.2730    6.6568 H         1 3FG         0.1902
    128 H          37.3228  -43.5888   11.5663 H         1 3FG         0.2482
    129 H          38.0341  -44.8925    9.4209 H         1 3FG         0.0398
    130 H          34.9073  -42.0126    9.9875 H         1 3FG         0.0412
    131 H          33.8859  -41.5647    7.6188 H         1 3FG         0.2488
    132 H          38.7531  -43.9568    5.9794 H         1 3FG         0.0887
@<TRIPOS>BOND
     1    1    2 1  
     2    3    1 1  
     3    4    3 1  
     4    3    6 1  
     5    4    5 2  
     6   10    4 am 
     7    6    7 1  
     8    7    8 1  
     9    7    9 1  
    10   11   10 1  
    11   12   11 1  
    12   11   14 1  
    13   12   13 2  
    14   24   12 am 
    15   14   15 1  
    16   14   16 1  
    17   17   16 ar 
    18   18   16 ar 
    19   19   17 ar 
    20   21   18 ar 
    21   19   20 1  
    22   22   19 ar 
    23   22   21 ar 
    24   23   22 1  
    25   41   23 1  
    26   25   24 1  
    27   26   25 1  
    28   25   28 1  
    29   26   27 2  
    30   32   26 am 
    31   28   29 1  
    32   29   30 2  
    33   29   31 am 
    34   33   32 1  
    35   34   33 1  
    36   33   36 1  
    37   34   35 2  
    38   43   34 am 
    39   36   37 ar 
    40   36   42 ar 
    41   37   38 ar 
    42   38   39 ar 
    43   38   56 1  
    44   39   40 1  
    45   41   39 ar 
    46   42   41 ar 
    47   44   43 1  
    48   44   45 1  
    49   47   44 1  
    50   45   46 2  
    51   45   54 am 
    52   47   48 ar 
    53   53   47 ar 
    54   49   48 ar 
    55   50   49 ar 
    56   50   51 1  
    57   52   50 ar 
    58   52   53 ar 
    59   75   52 1  
    60   54   55 1  
    61   55   63 1  
    62   55   66 1  
    63   56   59 1  
    64   57   59 ar 
    65   61   57 ar 
    66   58   59 ar 
    67   62   58 ar 
    68   58   64 1  
    69   60   61 ar 
    70   60   62 ar 
    71   63   60 1  
    72   63   67 1  
    73   66   65 2  
    74   66   68 am 
    75   68   77 1  
    76   70   69 1  
    77   70   71 ar 
    78   72   70 ar 
    79   71   76 ar 
    80   73   72 ar 
    81   73   74 1  
    82   73   75 ar 
    83   75   76 ar 
    84   76   77 1  
    85   77   78 1  
    86   78   79 ar 
    87   78   80 ar 
    88    1   81 1  
    89    1   82 1  
    90    2   83 1  
    91    2   84 1  
    92    2   85 1  
    93    3   86 1  
    94    6   87 1  
    95    6   88 1  
    96    7   89 1  
    97    8   90 1  
    98    8   91 1  
    99    8   92 1  
   100    9   93 1  
   101    9   94 1  
   102    9   95 1  
   103   10   96 1  
   104   11   97 1  
   105   14   98 1  
   106   15   99 1  
   107   17  100 1  
   108   18  101 1  
   109   21  102 1  
   110   24  103 1  
   111   25  104 1  
   112   28  105 1  
   113   28  106 1  
   114   31  107 1  
   115   31  108 1  
   116   32  109 1  
   117   33  110 1  
   118   37  111 1  
   119   40  112 1  
   120   42  113 1  
   121   43  114 1  
   122   44  115 1  
   123   48  116 1  
   124   49  117 1  
   125   51  118 1  
   126   53  119 1  
   127   54  120 1  
   128   55  121 1  
   129   57  122 1  
   130   61  123 1  
   131   62  124 1  
   132   63  125 1  
   133   67  126 1  
   134   68  127 1  
   135   69  128 1  
   136   71  129 1  
   137   72  130 1  
   138   74  131 1  
   139   77  132 1  
@<TRIPOS>SUBSTRUCTURE
     1 MLU         1

