5cfa_ligand
  -I-interpret- 

155156  0  0  0  0  0  0  0  0999 V2000
    6.0480    4.6050   32.6170 N   0  3  0  0  0
    5.9690    6.0670   32.7050 C   0  0  0  0  0
    5.9900    6.7410   31.3380 C   0  0  0  0  0
    5.0030    6.7300   30.6070 O   0  0  0  0  0
    7.1040    6.6070   33.5650 C   0  0  0  0  0
    7.1200    7.3470   31.0140 N   0  0  0  0  0
    7.2660    8.0370   29.7600 C   0  0  0  0  0
    8.2110    7.2790   28.9050 C   0  0  0  0  0
    8.9670    6.4120   29.3580 O   0  0  0  0  0
    7.7990    9.4450   29.9390 C   0  0  0  0  0
    6.8210   10.3650   30.6270 C   0  0  0  0  0
    7.5400   11.6160   30.9890 C   0  0  0  0  0
    6.5690   12.5850   31.5900 C   0  0  0  0  0
    7.2160   13.8500   32.0000 N   0  3  0  0  0
    8.2080    7.6420   27.6400 N   0  0  0  0  0
    9.0630    6.9370   26.7070 C   0  0  0  0  0
    9.7880    8.1250   26.0830 C   0  0  0  0  0
    9.2250    9.2240   26.0370 O   0  0  0  0  0
    8.2740    6.0810   25.7040 C   0  0  0  0  0
    6.9060    5.5190   26.2920 C   0  0  0  0  0
    5.9680    5.1900   25.1080 C   0  0  0  0  0
    6.3310    4.2930   24.3580 O   0  0  0  0  0
    4.9570    6.0590   24.7780 N   0  0  0  0  0
   11.0150    7.9350   25.6110 N   0  0  0  0  0
   11.8540    9.0740   25.2510 C   0  0  0  0  0
   12.5710    8.8920   23.9290 C   0  0  0  0  0
   12.8450    7.7740   23.4880 O   0  0  0  0  0
   12.9140    9.3210   26.3230 C   0  0  0  0  0
   12.3780    9.8720   27.6090 C   0  0  0  0  0
   12.2440   11.2390   27.7980 C   0  0  0  0  0
   12.0350    9.0170   28.6430 C   0  0  0  0  0
   11.7680   11.7390   28.9980 C   0  0  0  0  0
   11.5550    9.5180   29.8500 C   0  0  0  0  0
   11.4270   10.8810   30.0180 C   0  0  0  0  0
   12.9110   10.0280   23.3340 N   0  0  0  0  0
   13.6940   10.0540   22.1110 C   0  0  0  0  0
   14.6460   11.2410   22.1150 C   0  0  0  0  0
   14.5080   12.1870   22.9040 O   0  0  0  0  0
   12.7900   10.1170   20.8730 C   0  0  0  0  0
   13.5890    9.9620   19.6910 O   0  0  0  0  0
   12.0620   11.4390   20.8090 C   0  0  0  0  0
   15.6120   11.1890   21.2030 N   0  0  0  0  0
   16.5560   12.2680   21.0030 C   0  0  0  0  0
   16.0200   13.2080   19.9420 C   0  0  0  0  0
   15.4230   12.7700   18.9570 O   0  0  0  0  0
   17.9190   11.7190   20.5770 C   0  0  0  0  0
   18.8210   12.7560   20.2250 O   0  0  0  0  0
   16.2280   14.5000   20.1560 N   0  0  0  0  0
   15.8480   15.4980   19.1770 C   0  0  0  0  0
   17.0020   16.4630   18.9450 C   0  0  0  0  0
   18.0500   16.3690   19.5870 O   0  0  0  0  0
   14.6020   16.2590   19.6270 C   0  0  0  0  0
   14.1630   17.1270   18.6030 O   0  0  0  0  0
   16.7990   17.3880   18.0180 N   0  0  0  0  0
   17.8030   18.3890   17.7030 C   0  0  0  0  0
   17.3300   19.7570   18.1830 C   0  0  0  0  0
   16.1560   20.1020   18.0340 O   0  0  0  0  0
   18.0850   18.4200   16.1930 C   0  0  0  0  0
   18.2400   17.0780   15.7150 O   0  0  0  0  0
   19.3490   19.2150   15.8890 C   0  0  0  0  0
   18.2330   20.5240   18.7880 N   0  0  0  0  0
   17.9130   21.8910   19.1690 C   0  0  0  0  0
   18.3750   22.8110   18.0620 C   0  0  0  0  0
   19.3640   22.5240   17.3920 O   0  0  0  0  0
   18.5810   22.2770   20.4800 C   0  0  0  0  0
   18.0770   21.4870   21.5230 O   0  0  0  0  0
   17.6680   23.9200   17.8750 N   0  0  0  0  0
   17.9720   24.8190   16.7680 C   0  0  0  0  0
   17.9700   26.2860   17.1940 C   0  0  0  0  0
   18.5220   26.6470   18.2350 O   0  0  0  0  0
   16.9680   24.6190   15.6370 C   0  0  0  0  0
   16.9730   23.2570   14.9700 C   0  0  0  0  0
   18.0380   22.8550   14.1690 C   0  0  0  0  0
   15.8970   22.3840   15.1210 C   0  0  0  0  0
   18.0370   21.6180   13.5460 C   0  0  0  0  0
   15.8880   21.1420   14.5020 C   0  0  0  0  0
   16.9620   20.7660   13.7150 C   0  0  0  0  0
   16.9600   19.5340   13.0950 O   0  0  0  0  0
   17.4160   27.1470   16.5080 O   0  0  0  0  0
    5.2825    4.2585   32.0387 H   0  0  0  0  0
    6.9393    4.3384   32.1987 H   0  0  0  0  0
    5.9770    4.2049   33.5526 H   0  0  0  0  0
    5.0105    6.3028   33.1674 H   0  0  0  0  0
    8.0569    6.4028   33.0768 H   0  0  0  0  0
    6.9822    7.6828   33.6914 H   0  0  0  0  0
    7.0823    6.1206   34.5402 H   0  0  0  0  0
    7.9038    7.3247   31.6663 H   0  0  0  0  0
    6.2798    8.1060   29.3010 H   0  0  0  0  0
    7.9964    9.8530   28.9477 H   0  0  0  0  0
    8.6914    9.3846   30.5620 H   0  0  0  0  0
    6.4225    9.8880   31.5224 H   0  0  0  0  0
    5.9861   10.5900   29.9634 H   0  0  0  0  0
    7.9875   12.0525   30.0960 H   0  0  0  0  0
    8.3261   11.3909   31.7098 H   0  0  0  0  0
    6.1378   12.1233   32.4783 H   0  0  0  0  0
    5.8167   12.8195   30.8370 H   0  0  0  0  0
    6.5161   14.4739   32.4016 H   0  0  0  0  0
    7.9360   13.6526   32.6950 H   0  0  0  0  0
    7.6406   14.2930   31.1852 H   0  0  0  0  0
    7.6134    8.4072   27.3217 H   0  0  0  0  0
    9.7247    6.1909   27.1470 H   0  0  0  0  0
    8.8956    5.2248   25.4422 H   0  0  0  0  0
    8.0296    6.7149   24.8517 H   0  0  0  0  0
    6.4435    6.2636   26.9399 H   0  0  0  0  0
    7.0930    4.6215   26.8816 H   0  0  0  0  0
    4.4801    5.9695   23.8808 H   0  0  0  0  0
    4.6831    6.7939   25.4301 H   0  0  0  0  0
   11.3734    6.9866   25.4993 H   0  0  0  0  0
   11.1743    9.9216   25.1642 H   0  0  0  0  0
   13.6072   10.0608   25.9226 H   0  0  0  0  0
   13.3671    8.3566   26.5527 H   0  0  0  0  0
   12.5155   11.9252   26.9958 H   0  0  0  0  0
   12.1420    7.9404   28.5104 H   0  0  0  0  0
   11.6631   12.8152   29.1351 H   0  0  0  0  0
   11.2822    8.8377   30.6568 H   0  0  0  0  0
   11.0546   11.2796   30.9617 H   0  0  0  0  0
   12.6131   10.9111   23.7486 H   0  0  0  0  0
   14.2718    9.1307   22.0676 H   0  0  0  0  0
   12.0557    9.3141   20.9383 H   0  0  0  0  0
   13.0234   10.0014   18.9163 H   0  0  0  0  0
   11.4469   11.5572   21.7011 H   0  0  0  0  0
   12.7883   12.2501   20.7568 H   0  0  0  0  0
   11.4274   11.4603   19.9231 H   0  0  0  0  0
   15.6911   10.3552   20.6208 H   0  0  0  0  0
   16.6843   12.8082   21.9410 H   0  0  0  0  0
   17.7732   11.0822   19.7044 H   0  0  0  0  0
   18.3429   11.1679   21.4165 H   0  0  0  0  0
   19.6617   12.3726   19.9645 H   0  0  0  0  0
   16.6648   14.7975   21.0284 H   0  0  0  0  0
   15.6135   14.9908   18.2411 H   0  0  0  0  0
   14.8437   16.8464   20.5128 H   0  0  0  0  0
   13.8102   15.5447   19.8525 H   0  0  0  0  0
   13.3806   17.5984   18.8982 H   0  0  0  0  0
   15.9135   17.3972   17.5119 H   0  0  0  0  0
   18.7302   18.1305   18.2144 H   0  0  0  0  0
   17.2461   18.9039   15.6927 H   0  0  0  0  0
   18.4164   17.0939   14.7715 H   0  0  0  0  0
   19.2269   20.2386   16.2432 H   0  0  0  0  0
   20.1974   18.7532   16.3940 H   0  0  0  0  0
   19.5236   19.2199   14.8131 H   0  0  0  0  0
   19.1605   20.1492   18.9871 H   0  0  0  0  0
   16.8365   21.9773   19.3167 H   0  0  0  0  0
   18.3763   23.3263   20.6925 H   0  0  0  0  0
   19.6561   22.1184   20.3961 H   0  0  0  0  0
   18.5030   21.7363   22.3464 H   0  0  0  0  0
   16.9043   24.1450   18.5126 H   0  0  0  0  0
   18.9768   24.5728   16.4246 H   0  0  0  0  0
   17.2348   25.3381   14.8625 H   0  0  0  0  0
   15.9802   24.7359   16.0828 H   0  0  0  0  0
   18.8867   23.5247   14.0298 H   0  0  0  0  0
   15.0478   22.6820   15.7360 H   0  0  0  0  0
   18.8808   21.3176   12.9248 H   0  0  0  0  0
   15.0416   20.4681   14.6348 H   0  0  0  0  0
   16.1487   19.0690   13.3123 H   0  0  0  0  0
   17.0289   26.7358   15.7317 H   0  0  0  0  0
  1  2  1  0  0  0
  2  3  1  0  0  0
  2  5  1  0  0  0
  3  4  2  0  0  0
  3  6  1  0  0  0
  6  7  1  0  0  0
  7  8  1  0  0  0
  7 10  1  0  0  0
  8  9  2  0  0  0
  8 15  1  0  0  0
 10 11  1  0  0  0
 11 12  1  0  0  0
 12 13  1  0  0  0
 13 14  1  0  0  0
 15 16  1  0  0  0
 16 17  1  0  0  0
 16 19  1  0  0  0
 17 18  2  0  0  0
 17 24  1  0  0  0
 19 20  1  0  0  0
 20 21  1  0  0  0
 21 22  2  0  0  0
 21 23  1  0  0  0
 24 25  1  0  0  0
 25 26  1  0  0  0
 25 28  1  0  0  0
 26 27  2  0  0  0
 26 35  1  0  0  0
 28 29  1  0  0  0
 29 30  4  0  0  0
 29 31  4  0  0  0
 30 32  4  0  0  0
 31 33  4  0  0  0
 32 34  4  0  0  0
 33 34  4  0  0  0
 35 36  1  0  0  0
 36 37  1  0  0  0
 36 39  1  0  0  0
 37 38  2  0  0  0
 37 42  1  0  0  0
 39 40  1  0  0  0
 39 41  1  0  0  0
 42 43  1  0  0  0
 43 44  1  0  0  0
 43 46  1  0  0  0
 44 45  2  0  0  0
 44 48  1  0  0  0
 46 47  1  0  0  0
 48 49  1  0  0  0
 49 50  1  0  0  0
 49 52  1  0  0  0
 50 51  2  0  0  0
 50 54  1  0  0  0
 52 53  1  0  0  0
 54 55  1  0  0  0
 55 56  1  0  0  0
 55 58  1  0  0  0
 56 57  2  0  0  0
 56 61  1  0  0  0
 58 59  1  0  0  0
 58 60  1  0  0  0
 61 62  1  0  0  0
 62 63  1  0  0  0
 62 65  1  0  0  0
 63 64  2  0  0  0
 63 67  1  0  0  0
 65 66  1  0  0  0
 67 68  1  0  0  0
 68 69  1  0  0  0
 68 71  1  0  0  0
 69 70  2  0  0  0
 69 79  1  0  0  0
 71 72  1  0  0  0
 72 73  4  0  0  0
 72 74  4  0  0  0
 73 75  4  0  0  0
 74 76  4  0  0  0
 75 77  4  0  0  0
 76 77  4  0  0  0
 77 78  1  0  0  0
  1 80  1  0  0  0
  1 81  1  0  0  0
  1 82  1  0  0  0
  2 83  1  0  0  0
  5 84  1  0  0  0
  5 85  1  0  0  0
  5 86  1  0  0  0
  6 87  1  0  0  0
  7 88  1  0  0  0
 10 89  1  0  0  0
 10 90  1  0  0  0
 11 91  1  0  0  0
 11 92  1  0  0  0
 12 93  1  0  0  0
 12 94  1  0  0  0
 13 95  1  0  0  0
 13 96  1  0  0  0
 14 97  1  0  0  0
 14 98  1  0  0  0
 14 99  1  0  0  0
 15100  1  0  0  0
 16101  1  0  0  0
 19102  1  0  0  0
 19103  1  0  0  0
 20104  1  0  0  0
 20105  1  0  0  0
 23106  1  0  0  0
 23107  1  0  0  0
 24108  1  0  0  0
 25109  1  0  0  0
 28110  1  0  0  0
 28111  1  0  0  0
 30112  1  0  0  0
 31113  1  0  0  0
 32114  1  0  0  0
 33115  1  0  0  0
 34116  1  0  0  0
 35117  1  0  0  0
 36118  1  0  0  0
 39119  1  0  0  0
 40120  1  0  0  0
 41121  1  0  0  0
 41122  1  0  0  0
 41123  1  0  0  0
 42124  1  0  0  0
 43125  1  0  0  0
 46126  1  0  0  0
 46127  1  0  0  0
 47128  1  0  0  0
 48129  1  0  0  0
 49130  1  0  0  0
 52131  1  0  0  0
 52132  1  0  0  0
 53133  1  0  0  0
 54134  1  0  0  0
 55135  1  0  0  0
 58136  1  0  0  0
 59137  1  0  0  0
 60138  1  0  0  0
 60139  1  0  0  0
 60140  1  0  0  0
 61141  1  0  0  0
 62142  1  0  0  0
 65143  1  0  0  0
 65144  1  0  0  0
 66145  1  0  0  0
 67146  1  0  0  0
 68147  1  0  0  0
 71148  1  0  0  0
 71149  1  0  0  0
 73150  1  0  0  0
 74151  1  0  0  0
 75152  1  0  0  0
 76153  1  0  0  0
 78154  1  0  0  0
 79155  1  0  0  0
M  END
$$$$
