### 
### Created by X-TOOL on Mon Sep 10 21:13:23 2018
### 

@<TRIPOS>MOLECULE
5cfa_ligand
  154   155     1     0     0
SMALL
GAST_HUCK


@<TRIPOS>ATOM
      1 N           6.0480    4.6050   32.6170 N.4       1 SER         0.2377
      2 CA          5.9690    6.0670   32.7050 C.3       1 SER         0.0621
      3 C           5.9900    6.7410   31.3380 C.2       1 SER         0.2264
      4 O           5.0030    6.7300   30.6070 O.2       1 SER        -0.3907
      5 CB          7.1040    6.6070   33.5650 C.3       1 SER        -0.0040
      6 N           7.1200    7.3470   31.0140 N.am      1 LYS        -0.2610
      7 CA          7.2660    8.0370   29.7600 C.3       1 LYS         0.1311
      8 C           8.2110    7.2790   28.9050 C.2       1 LYS         0.2039
      9 O           8.9670    6.4120   29.3580 O.2       1 LYS        -0.3944
     10 CB          7.7990    9.4450   29.9390 C.3       1 LYS        -0.0122
     11 CG          6.8210   10.3650   30.6270 C.3       1 LYS        -0.0440
     12 CD          7.5400   11.6160   30.9890 C.3       1 LYS        -0.0124
     13 CE          6.5690   12.5850   31.5900 C.3       1 LYS        -0.0354
     14 NZ          7.2160   13.8500   32.0000 N.4       1 LYS         0.2185
     15 N           8.2080    7.6420   27.6400 N.am      1 GLN        -0.2636
     16 CA          9.0630    6.9370   26.7070 C.3       1 GLN         0.1330
     17 C           9.7880    8.1250   26.0830 C.2       1 GLN         0.2042
     18 O           9.2250    9.2240   26.0370 O.2       1 GLN        -0.3944
     19 CB          8.2740    6.0810   25.7040 C.3       1 GLN         0.0045
     20 CG          6.9060    5.5190   26.2920 C.3       1 GLN         0.0412
     21 CD          5.9680    5.1900   25.1080 C.2       1 GLN         0.1737
     22 OE1         6.3310    4.2930   24.3580 O.2       1 GLN        -0.3973
     23 NE2         4.9570    6.0590   24.7780 N.am      1 GLN        -0.3009
     24 N          11.0150    7.9350   25.6110 N.am      1 PHE        -0.2619
     25 CA         11.8540    9.0740   25.2510 C.3       1 PHE         0.1404
     26 C          12.5710    8.8920   23.9290 C.2       1 PHE         0.2060
     27 O          12.8450    7.7740   23.4880 O.2       1 PHE        -0.3942
     28 CB         12.9140    9.3210   26.3230 C.3       1 PHE         0.0214
     29 CG         12.3780    9.8720   27.6090 C.ar      1 PHE        -0.0386
     30 CD1        12.2440   11.2390   27.7980 C.ar      1 PHE        -0.0601
     31 CD2        12.0350    9.0170   28.6430 C.ar      1 PHE        -0.0601
     32 CE1        11.7680   11.7390   28.9980 C.ar      1 PHE        -0.0686
     33 CE2        11.5550    9.5180   29.8500 C.ar      1 PHE        -0.0686
     34 CZ         11.4270   10.8810   30.0180 C.ar      1 PHE        -0.0687
     35 N          12.9110   10.0280   23.3340 N.am      1 THR        -0.2612
     36 CA         13.6940   10.0540   22.1110 C.3       1 THR         0.1565
     37 C          14.6460   11.2410   22.1150 C.2       1 THR         0.2065
     38 O          14.5080   12.1870   22.9040 O.2       1 THR        -0.3943
     39 CB         12.7900   10.1170   20.8730 C.3       1 THR         0.0924
     40 OG1        13.5890    9.9620   19.6910 O.3       1 THR        -0.3874
     41 CG2        12.0620   11.4390   20.8090 C.3       1 THR        -0.0346
     42 N          15.6120   11.1890   21.2030 N.am      1 SER        -0.2615
     43 CA         16.5560   12.2680   21.0030 C.3       1 SER         0.1539
     44 C          16.0200   13.2080   19.9420 C.2       1 SER         0.2062
     45 O          15.4230   12.7700   18.9570 O.2       1 SER        -0.3943
     46 CB         17.9190   11.7190   20.5770 C.3       1 SER         0.0843
     47 OG         18.8210   12.7560   20.2250 O.3       1 SER        -0.3903
     48 N          16.2280   14.5000   20.1560 N.am      1 SER        -0.2615
     49 CA         15.8480   15.4980   19.1770 C.3       1 SER         0.1539
     50 C          17.0020   16.4630   18.9450 C.2       1 SER         0.2063
     51 O          18.0500   16.3690   19.5870 O.2       1 SER        -0.3943
     52 CB         14.6020   16.2590   19.6270 C.3       1 SER         0.0843
     53 OG         14.1630   17.1270   18.6030 O.3       1 SER        -0.3903
     54 N          16.7990   17.3880   18.0180 N.am      1 THR        -0.2613
     55 CA         17.8030   18.3890   17.7030 C.3       1 THR         0.1565
     56 C          17.3300   19.7570   18.1830 C.2       1 THR         0.2065
     57 O          16.1560   20.1020   18.0340 O.2       1 THR        -0.3943
     58 CB         18.0850   18.4200   16.1930 C.3       1 THR         0.0924
     59 OG1        18.2400   17.0780   15.7150 O.3       1 THR        -0.3874
     60 CG2        19.3490   19.2150   15.8890 C.3       1 THR        -0.0346
     61 N          18.2330   20.5240   18.7880 N.am      1 SER        -0.2615
     62 CA         17.9130   21.8910   19.1690 C.3       1 SER         0.1539
     63 C          18.3750   22.8110   18.0620 C.2       1 SER         0.2057
     64 O          19.3640   22.5240   17.3920 O.2       1 SER        -0.3943
     65 CB         18.5810   22.2770   20.4800 C.3       1 SER         0.0843
     66 OG         18.0770   21.4870   21.5230 O.3       1 SER        -0.3903
     67 N          17.6680   23.9200   17.8750 N.am      1 TYR        -0.2678
     68 CA         17.9720   24.8190   16.7680 C.3       1 TYR         0.1025
     69 C          17.9700   26.2860   17.1940 C.2       1 TYR         0.0619
     70 O          18.5220   26.6470   18.2350 O.co2     1 TYR        -0.5665
     71 CB         16.9680   24.6190   15.6370 C.3       1 TYR         0.0108
     72 CG         16.9730   23.2570   14.9700 C.ar      1 TYR        -0.0499
     73 CD1        18.0380   22.8550   14.1690 C.ar      1 TYR        -0.0686
     74 CD2        15.8970   22.3840   15.1210 C.ar      1 TYR        -0.0686
     75 CE1        18.0370   21.6180   13.5460 C.ar      1 TYR        -0.0398
     76 CE2        15.8880   21.1420   14.5020 C.ar      1 TYR        -0.0398
     77 CZ         16.9620   20.7660   13.7150 C.ar      1 TYR         0.0805
     78 OH         16.9600   19.5340   13.0950 O.3       1 TYR        -0.3376
     79 OXT        17.4160   27.1470   16.5080 O.co2     1 TYR        -0.5665
     80 H1          6.0305    4.2111   33.5447 H         1 SER         0.2015
     81 H2          6.9052    4.3419   32.1565 H         1 SER         0.2015
     82 H3          5.2627    4.2572   32.0895 H         1 SER         0.2015
     83 H4          5.0159    6.3221   33.1914 H         1 SER         0.1095
     84 H5          7.0316    7.7032   33.6216 H         1 SER         0.0310
     85 H6          8.0688    6.3259   33.1176 H         1 SER         0.0310
     86 H7          7.0314    6.1820   34.5770 H         1 SER         0.0310
     87 H8          7.8885    7.3252   31.6535 H         1 LYS         0.1884
     88 H9          6.2840    8.0887   29.2670 H         1 LYS         0.0800
     89 H10         8.0317    9.8600   28.9472 H         1 LYS         0.0312
     90 H11         8.7181    9.3975   30.5415 H         1 LYS         0.0312
     91 H12         6.4312    9.8828   31.5356 H         1 LYS         0.0269
     92 H13         5.9869   10.5973   29.9485 H         1 LYS         0.0269
     93 H14         7.9889   12.0568   30.0867 H         1 LYS         0.0317
     94 H15         8.3313   11.3879   31.7183 H         1 LYS         0.0317
     95 H16         6.1084   12.1209   32.4746 H         1 LYS         0.0813
     96 H17         5.7900   12.8113   30.8471 H         1 LYS         0.0813
     97 H18         6.5252   14.4674   32.3970 H         1 LYS         0.1994
     98 H19         7.6360   14.2888   31.1955 H         1 LYS         0.1994
     99 H20         7.9278   13.6561   32.6869 H         1 LYS         0.1994
    100 H21         7.6251    8.3922   27.3280 H         1 GLN         0.1883
    101 H22         9.7707    6.2818   27.2360 H         1 GLN         0.0801
    102 H23         8.9010    5.2284   25.4041 H         1 GLN         0.0337
    103 H24         8.0472    6.6977   24.8218 H         1 GLN         0.0337
    104 H25         6.4387    6.2777   26.9370 H         1 GLN         0.0504
    105 H26         7.0991    4.6082   26.8778 H         1 GLN         0.0504
    106 H27         4.3480    5.8501   24.0129 H         1 GLN         0.1814
    107 H28         4.8299    6.9007   25.3028 H         1 GLN         0.1814
    108 H29        11.3664    7.0052   25.5015 H         1 PHE         0.1885
    109 H30        11.2068    9.9603   25.1770 H         1 PHE         0.0823
    110 H31        13.6483   10.0353   25.9224 H         1 PHE         0.0474
    111 H32        13.4130    8.3650   26.5400 H         1 PHE         0.0474
    112 H33        12.5140   11.9214   27.0002 H         1 PHE         0.0557
    113 H34        12.1414    7.9463   28.5112 H         1 PHE         0.0557
    114 H35        11.6637   12.8093   29.1343 H         1 PHE         0.0599
    115 H36        11.2837    8.8414   30.6523 H         1 PHE         0.0599
    116 H37        11.0566   11.2774   30.9565 H         1 PHE         0.0559
    117 H38        12.6189   10.8938   23.7404 H         1 THR         0.1884
    118 H39        14.2873    9.1291   22.0612 H         1 THR         0.0826
    119 H40        12.0528    9.3022   20.9247 H         1 THR         0.0639
    120 H41        14.0329    9.1225   19.7180 H         1 THR         0.2101
    121 H42        11.4211   11.4617   19.9153 H         1 THR         0.0257
    122 H43        12.7939   12.2585   20.7563 H         1 THR         0.0257
    123 H44        11.4408   11.5595   21.7088 H         1 THR         0.0257
    124 H45        15.6896   10.3716   20.6322 H         1 SER         0.1884
    125 H46        16.6747   12.8200   21.9470 H         1 SER         0.0823
    126 H47        17.7805   11.0583   19.7085 H         1 SER         0.0606
    127 H48        18.3470   11.1435   21.4110 H         1 SER         0.0606
    128 H49        18.4613   13.2549   19.5010 H         1 SER         0.2097
    129 H50        16.6562   14.7917   21.0113 H         1 SER         0.1884
    130 H51        15.6204   14.9882   18.2292 H         1 SER         0.0823
    131 H52        14.8407   16.8481   20.5248 H         1 SER         0.0606
    132 H53        13.8027   15.5406   19.8616 H         1 SER         0.0606
    133 H54        13.9546   16.6198   17.8272 H         1 SER         0.2097
    134 H55        15.9308   17.3970   17.5218 H         1 THR         0.1884
    135 H56        18.7348   18.1319   18.2281 H         1 THR         0.0826
    136 H57        17.2344   18.8925   15.6800 H         1 THR         0.0639
    137 H58        18.4145   17.0938   14.7813 H         1 THR         0.2101
    138 H59        19.5263   19.2207   14.8034 H         1 THR         0.0257
    139 H60        20.2060   18.7499   16.3981 H         1 THR         0.0257
    140 H61        19.2271   20.2483   16.2460 H         1 THR         0.0257
    141 H62        19.1424   20.1566   18.9832 H         1 SER         0.1884
    142 H63        16.8235   21.9840   19.2886 H         1 SER         0.0823
    143 H64        18.3784   23.3367   20.6945 H         1 SER         0.0606
    144 H65        19.6666   22.1209   20.3961 H         1 SER         0.0606
    145 H66        17.1395   21.6222   21.5966 H         1 SER         0.2097
    146 H67        16.9193   24.1406   18.5001 H         1 TYR         0.1877
    147 H68        18.9764   24.5713   16.3940 H         1 TYR         0.0747
    148 H69        17.1793   25.3721   14.8636 H         1 TYR         0.0446
    149 H70        15.9617   24.7877   16.0479 H         1 TYR         0.0446
    150 H71        18.8820   23.5210   14.0305 H         1 TYR         0.0530
    151 H72        15.0525   22.6804   15.7326 H         1 TYR         0.0530
    152 H73        18.8762   21.3193   12.9282 H         1 TYR         0.0525
    153 H74        15.0463   20.4718   14.6340 H         1 TYR         0.0525
    154 H75        17.7621   19.4303   12.5965 H         1 TYR         0.2458
@<TRIPOS>BOND
     1    1    2 1  
     2    2    3 1  
     3    2    5 1  
     4    3    4 2  
     5    3    6 am 
     6    6    7 1  
     7    7    8 1  
     8    7   10 1  
     9    8    9 2  
    10    8   15 am 
    11   10   11 1  
    12   11   12 1  
    13   12   13 1  
    14   13   14 1  
    15   15   16 1  
    16   16   17 1  
    17   16   19 1  
    18   17   18 2  
    19   17   24 am 
    20   19   20 1  
    21   20   21 1  
    22   21   22 2  
    23   21   23 am 
    24   24   25 1  
    25   25   26 1  
    26   25   28 1  
    27   26   27 2  
    28   26   35 am 
    29   28   29 1  
    30   29   30 ar 
    31   29   31 ar 
    32   30   32 ar 
    33   31   33 ar 
    34   32   34 ar 
    35   33   34 ar 
    36   35   36 1  
    37   36   37 1  
    38   36   39 1  
    39   37   38 2  
    40   37   42 am 
    41   39   40 1  
    42   39   41 1  
    43   42   43 1  
    44   43   44 1  
    45   43   46 1  
    46   44   45 2  
    47   44   48 am 
    48   46   47 1  
    49   48   49 1  
    50   49   50 1  
    51   49   52 1  
    52   50   51 2  
    53   50   54 am 
    54   52   53 1  
    55   54   55 1  
    56   55   56 1  
    57   55   58 1  
    58   56   57 2  
    59   56   61 am 
    60   58   59 1  
    61   58   60 1  
    62   61   62 1  
    63   62   63 1  
    64   62   65 1  
    65   63   64 2  
    66   63   67 am 
    67   65   66 1  
    68   67   68 1  
    69   68   69 1  
    70   68   71 1  
    71   69   70 ar 
    72   69   79 ar 
    73   71   72 1  
    74   72   73 ar 
    75   72   74 ar 
    76   73   75 ar 
    77   74   76 ar 
    78   75   77 ar 
    79   76   77 ar 
    80   77   78 1  
    81    1   80 1  
    82    1   81 1  
    83    1   82 1  
    84    2   83 1  
    85    5   84 1  
    86    5   85 1  
    87    5   86 1  
    88    6   87 1  
    89    7   88 1  
    90   10   89 1  
    91   10   90 1  
    92   11   91 1  
    93   11   92 1  
    94   12   93 1  
    95   12   94 1  
    96   13   95 1  
    97   13   96 1  
    98   14   97 1  
    99   14   98 1  
   100   14   99 1  
   101   15  100 1  
   102   16  101 1  
   103   19  102 1  
   104   19  103 1  
   105   20  104 1  
   106   20  105 1  
   107   23  106 1  
   108   23  107 1  
   109   24  108 1  
   110   25  109 1  
   111   28  110 1  
   112   28  111 1  
   113   30  112 1  
   114   31  113 1  
   115   32  114 1  
   116   33  115 1  
   117   34  116 1  
   118   35  117 1  
   119   36  118 1  
   120   39  119 1  
   121   40  120 1  
   122   41  121 1  
   123   41  122 1  
   124   41  123 1  
   125   42  124 1  
   126   43  125 1  
   127   46  126 1  
   128   46  127 1  
   129   47  128 1  
   130   48  129 1  
   131   49  130 1  
   132   52  131 1  
   133   52  132 1  
   134   53  133 1  
   135   54  134 1  
   136   55  135 1  
   137   58  136 1  
   138   59  137 1  
   139   60  138 1  
   140   60  139 1  
   141   60  140 1  
   142   61  141 1  
   143   62  142 1  
   144   65  143 1  
   145   65  144 1  
   146   66  145 1  
   147   67  146 1  
   148   68  147 1  
   149   71  148 1  
   150   71  149 1  
   151   73  150 1  
   152   74  151 1  
   153   75  152 1  
   154   76  153 1  
   155   78  154 1  
@<TRIPOS>SUBSTRUCTURE
     1 SER         1

