5ei2_ligand
  -I-interpret- 

 45 48  0  0  0  0  0  0  0  0999 V2000
    1.0720  -39.2800  -11.1600 C   0  0  0  0  0
   -1.3650  -37.4900   -9.1220 C   0  0  0  0  0
   -1.4290  -37.8800   -7.7950 C   0  0  0  0  0
   -1.2540  -34.8980   -4.8070 C   0  0  0  0  0
   -1.6410  -40.2120   -8.3450 C   0  0  0  0  0
   -1.5620  -39.1760   -7.3680 O   0  0  0  0  0
   -1.2200  -36.1540   -9.4400 C   0  0  0  0  0
   -1.3550  -36.9400   -6.7790 C   0  0  0  0  0
   -1.2140  -35.6010   -7.1000 C   0  0  0  0  0
   -1.1440  -34.5790   -6.1940 O   0  0  0  0  0
   -1.1390  -35.1990   -8.4330 C   0  0  0  0  0
   -0.9560  -33.8510   -8.7030 N   0  0  0  0  0
   -0.2240  -33.3380   -9.7240 C   0  0  0  0  0
   -0.1220  -32.0000   -9.7860 N   0  0  0  0  0
    0.6340  -31.5290  -10.7530 C   0  0  0  0  0
    1.3140  -32.3270  -11.6980 C   0  0  0  0  0
    2.1100  -31.8400  -12.7590 C   0  0  0  0  0
    2.6830  -32.7250  -13.6150 C   0  0  0  0  0
    2.5420  -34.0540  -13.5180 N   0  0  0  0  0
    1.8010  -34.5510  -12.5360 C   0  0  0  0  0
    1.1240  -33.7200  -11.5430 C   0  0  0  0  0
    0.3510  -34.2330  -10.5460 N   0  0  0  0  0
    1.7010  -35.9950  -12.5320 C   0  0  0  0  0
    1.9230  -36.8830  -13.5990 C   0  0  0  0  0
    1.7290  -38.1430  -13.2500 N   0  0  0  0  0
    1.3730  -38.0740  -11.9190 N   0  0  0  0  0
    1.3530  -36.8090  -11.4820 C   0  0  0  0  0
    0.2313  -39.7979  -11.6216 H   0  0  0  0  0
    1.9449  -39.9328  -11.1563 H   0  0  0  0  0
    0.8153  -39.0087  -10.1360 H   0  0  0  0  0
   -1.4289  -38.2360   -9.9141 H   0  0  0  0  0
   -2.2163  -35.3747   -4.6203 H   0  0  0  0  0
   -0.4497  -35.5783   -4.5271 H   0  0  0  0  0
   -1.1797  -33.9837   -4.2182 H   0  0  0  0  0
   -2.5059  -40.0402   -8.9857 H   0  0  0  0  0
   -0.7337  -40.2100   -8.9490 H   0  0  0  0  0
   -1.7436  -41.1748   -7.8443 H   0  0  0  0  0
   -1.1689  -35.8471  -10.4846 H   0  0  0  0  0
   -1.4074  -37.2526   -5.7361 H   0  0  0  0  0
   -1.4123  -33.1860   -8.0785 H   0  0  0  0  0
    0.7432  -30.4472  -10.8303 H   0  0  0  0  0
    2.2621  -30.7685  -12.8887 H   0  0  0  0  0
    3.2930  -32.3314  -14.4281 H   0  0  0  0  0
    2.2209  -36.5686  -14.5992 H   0  0  0  0  0
    1.1046  -36.4828  -10.4721 H   0  0  0  0  0
 26  1  1  0  0  0
  2  3  4  0  0  0
  7  2  4  0  0  0
  3  6  1  0  0  0
  8  3  4  0  0  0
 10  4  1  0  0  0
  6  5  1  0  0  0
 11  7  4  0  0  0
  9  8  4  0  0  0
  9 10  1  0  0  0
 11  9  4  0  0  0
 12 11  1  0  0  0
 13 12  1  0  0  0
 13 14  4  0  0  0
 22 13  4  0  0  0
 15 14  4  0  0  0
 16 15  4  0  0  0
 16 17  4  0  0  0
 21 16  4  0  0  0
 18 17  4  0  0  0
 19 18  4  0  0  0
 20 19  4  0  0  0
 20 21  4  0  0  0
 23 20  1  0  0  0
 21 22  4  0  0  0
 24 23  4  0  0  0
 23 27  4  0  0  0
 25 24  4  0  0  0
 25 26  4  0  0  0
 26 27  4  0  0  0
  1 28  1  0  0  0
  1 29  1  0  0  0
  1 30  1  0  0  0
  2 31  1  0  0  0
  4 32  1  0  0  0
  4 33  1  0  0  0
  4 34  1  0  0  0
  5 35  1  0  0  0
  5 36  1  0  0  0
  5 37  1  0  0  0
  7 38  1  0  0  0
  8 39  1  0  0  0
 12 40  1  0  0  0
 15 41  1  0  0  0
 17 42  1  0  0  0
 18 43  1  0  0  0
 24 44  1  0  0  0
 27 45  1  0  0  0
M  END
$$$$
