4bak_ligand
  -I-interpret- 

 73 75  0  0  0  0  0  0  0  0999 V2000
   12.2020  -14.9350   19.4280 C   0  0  0  0  0
   12.0870  -15.8450   20.6530 C   0  0  0  0  0
   13.0710  -17.0160   20.5520 C   0  0  0  0  0
   14.4570  -16.5260   20.6160 N   0  0  0  0  0
   15.0830  -16.2070   21.7670 C   0  0  0  0  0
   14.5200  -16.3220   22.8490 O   0  0  0  0  0
   16.5080  -15.7250   21.6520 C   0  0  0  0  0
   17.0910  -15.4080   22.9770 N   0  3  0  0  0
   18.3430  -14.6140   22.9310 C   0  0  0  0  0
   18.8730  -14.3340   24.3520 C   0  0  0  0  0
   19.1140  -15.6620   25.0910 C   0  0  0  0  0
   19.6460  -15.3870   26.5060 C   0  0  0  0  0
   20.9690  -14.6080   26.4450 C   0  0  0  0  0
   20.7810  -13.2760   25.7050 C   0  0  0  0  0
   20.1910  -13.5270   24.3030 C   0  0  0  0  0
   18.0160  -13.3180   22.2410 C   0  0  0  0  0
   16.9410  -12.7670   22.4860 O   0  0  0  0  0
   18.8320  -12.7660   21.3190 N   0  0  0  0  0
   20.1090  -13.0610   20.6390 C   0  0  0  0  0
   19.7980  -12.0240   19.5530 C   0  0  0  0  0
   18.6350  -11.5930   20.4600 C   0  0  0  0  0
   17.2470  -11.7400   19.8720 C   0  0  0  0  0
   16.9370  -12.8030   19.3720 O   0  0  0  0  0
   16.3190  -10.7780   20.0260 N   0  0  0  0  0
   14.9780  -11.0060   19.4760 C   0  0  0  0  0
   13.9980  -10.9420   20.6110 C   0  0  0  0  0
   13.7170  -12.0860   21.3400 C   0  0  0  0  0
   12.8140  -12.0210   22.3880 C   0  0  0  0  0
   12.2070  -10.7950   22.7170 C   0  0  0  0  0
   12.4930   -9.6410   21.9700 C   0  0  0  0  0
   13.4110   -9.7240   20.9350 C   0  0  0  0  0
   11.2070  -10.7410   23.8140 C   0  0  0  0  0
   10.5160  -11.8100   24.1380 N   0  0  0  0  0
   10.9460   -9.5540   24.4550 N   0  0  0  0  0
   13.2158  -14.5397   19.3645 H   0  0  0  0  0
   11.9772  -15.5084   18.5287 H   0  0  0  0  0
   11.4946  -14.1110   19.5214 H   0  0  0  0  0
   11.0726  -16.2405   20.7043 H   0  0  0  0  0
   12.3198  -15.2650   21.5460 H   0  0  0  0  0
   12.9183  -17.5280   19.6019 H   0  0  0  0  0
   12.8967  -17.6997   21.3829 H   0  0  0  0  0
   14.9724  -16.4219   19.7420 H   0  0  0  0  0
   16.5147  -14.8171   21.0489 H   0  0  0  0  0
   17.1020  -16.5179   21.1974 H   0  0  0  0  0
   17.3203  -16.2975   23.4204 H   0  0  0  0  0
   16.4020  -14.8463   23.4772 H   0  0  0  0  0
   19.1189  -15.1629   22.3974 H   0  0  0  0  0
   18.1247  -13.7462   24.8837 H   0  0  0  0  0
   19.8475  -16.2508   24.5403 H   0  0  0  0  0
   18.1738  -16.2089   25.1614 H   0  0  0  0  0
   19.8194  -16.3383   27.0090 H   0  0  0  0  0
   18.9115  -14.7932   27.0501 H   0  0  0  0  0
   21.7062  -15.2070   25.9104 H   0  0  0  0  0
   21.3038  -14.4020   27.4617 H   0  0  0  0  0
   21.7483  -12.7840   25.6030 H   0  0  0  0  0
   20.0974  -12.6449   26.2729 H   0  0  0  0  0
   19.9764  -12.5591   23.8499 H   0  0  0  0  0
   20.9175  -14.1034   23.7303 H   0  0  0  0  0
   20.3390  -14.0868   20.3511 H   0  0  0  0  0
   21.0427  -12.9901   21.1969 H   0  0  0  0  0
   19.6555  -12.2958   18.5071 H   0  0  0  0  0
   20.5444  -11.3208   19.1836 H   0  0  0  0  0
   18.6572  -10.5593   20.8052 H   0  0  0  0  0
   16.5425   -9.9105   20.5137 H   0  0  0  0  0
   14.9297  -11.9802   18.9896 H   0  0  0  0  0
   14.7418  -10.2476   18.7296 H   0  0  0  0  0
   14.2026  -13.0295   21.0908 H   0  0  0  0  0
   12.5737  -12.9188   22.9575 H   0  0  0  0  0
   12.0013   -8.6958   22.2002 H   0  0  0  0  0
   13.6744   -8.8289   20.3715 H   0  0  0  0  0
   10.6644  -12.6849   23.6351 H   0  0  0  0  0
   10.2229   -9.5104   25.1730 H   0  0  0  0  0
   11.4754   -8.7165   24.2128 H   0  0  0  0  0
  1  2  1  0  0  0
  2  3  1  0  0  0
  3  4  1  0  0  0
  4  5  1  0  0  0
  5  6  2  0  0  0
  5  7  1  0  0  0
  7  8  1  0  0  0
  8  9  1  0  0  0
  9 10  1  0  0  0
  9 16  1  0  0  0
 10 11  1  0  0  0
 10 15  1  0  0  0
 11 12  1  0  0  0
 12 13  1  0  0  0
 13 14  1  0  0  0
 14 15  1  0  0  0
 16 17  2  0  0  0
 16 18  1  0  0  0
 18 19  1  0  0  0
 18 21  1  0  0  0
 19 20  1  0  0  0
 20 21  1  0  0  0
 21 22  1  0  0  0
 22 23  2  0  0  0
 22 24  1  0  0  0
 24 25  1  0  0  0
 25 26  1  0  0  0
 26 27  4  0  0  0
 26 31  4  0  0  0
 27 28  4  0  0  0
 28 29  4  0  0  0
 29 30  4  0  0  0
 29 32  1  0  0  0
 30 31  4  0  0  0
 32 33  2  0  0  0
 32 34  1  0  0  0
  1 35  1  0  0  0
  1 36  1  0  0  0
  1 37  1  0  0  0
  2 38  1  0  0  0
  2 39  1  0  0  0
  3 40  1  0  0  0
  3 41  1  0  0  0
  4 42  1  0  0  0
  7 43  1  0  0  0
  7 44  1  0  0  0
  8 45  1  0  0  0
  8 46  1  0  0  0
  9 47  1  0  0  0
 10 48  1  0  0  0
 11 49  1  0  0  0
 11 50  1  0  0  0
 12 51  1  0  0  0
 12 52  1  0  0  0
 13 53  1  0  0  0
 13 54  1  0  0  0
 14 55  1  0  0  0
 14 56  1  0  0  0
 15 57  1  0  0  0
 15 58  1  0  0  0
 19 59  1  0  0  0
 19 60  1  0  0  0
 20 61  1  0  0  0
 20 62  1  0  0  0
 21 63  1  0  0  0
 24 64  1  0  0  0
 25 65  1  0  0  0
 25 66  1  0  0  0
 27 67  1  0  0  0
 28 68  1  0  0  0
 30 69  1  0  0  0
 31 70  1  0  0  0
 33 71  1  0  0  0
 34 72  1  0  0  0
 34 73  1  0  0  0
M  END
$$$$
