4odf_ligand
  -I-interpret- 

 80 84  0  0  0  0  0  0  0  0999 V2000
   11.8820  -22.8840   -2.4840 C   0  0  0  0  0
   12.8710  -22.1990   -1.7960 C   0  0  0  0  0
   14.4960  -22.2540   -2.3770 Cl  0  0  0  0  0
   12.5610  -21.4830   -0.6470 C   0  0  0  0  0
   11.2490  -21.4460   -0.1910 C   0  0  0  0  0
   10.2580  -22.1310   -0.8860 C   0  0  0  0  0
   10.5740  -22.8450   -2.0340 C   0  0  0  0  0
    9.4830  -23.5880   -2.7800 C   0  0  0  0  0
    8.7140  -24.2390   -1.8520 O   0  0  0  0  0
    7.7640  -25.0920   -2.4530 C   0  0  0  0  0
    6.8470  -25.4510   -1.2810 C   0  0  0  0  0
    7.6600  -26.0360   -0.1260 C   0  0  0  0  0
    8.0840  -25.1600    0.8690 C   0  0  0  0  0
    8.8300  -25.6370    1.9310 C   0  0  0  0  0
    9.1190  -26.9900    1.9610 C   0  0  0  0  0
    9.9390  -27.5490    3.1110 C   0  0  0  0  0
   10.1980  -28.7700    3.0920 O   0  0  0  0  0
   10.3250  -26.7490    3.9890 O   0  0  0  0  0
    8.6710  -27.8230    0.9430 C   0  0  0  0  0
    7.9630  -27.3410   -0.0650 N   0  0  0  0  0
    8.4090  -26.3050   -3.1270 C   0  0  0  0  0
    6.8960  -24.2950   -3.4240 C   0  0  0  0  0
    5.8360  -24.7990   -3.7990 O   0  0  0  0  0
    7.3060  -23.0010   -3.8240 N   0  0  0  0  0
    6.4330  -22.1390   -4.6480 C   0  0  0  0  0
    6.0110  -22.7140   -6.0040 C   0  0  0  0  0
    6.2550  -21.7710   -7.1770 C   0  0  0  0  0
    7.1290  -23.0150   -6.9910 C   0  0  0  0  0
    5.1880  -21.8040   -3.8250 C   0  0  0  0  0
    5.4260  -20.8770   -2.2690 S   0  0  0  0  0
    5.8060  -19.4560   -2.5810 O   0  0  0  0  0
    6.4730  -21.4940   -1.3940 O   0  0  0  0  0
    3.8160  -20.9530   -1.4140 C   0  0  0  0  0
    3.8950  -20.1560   -0.1190 C   0  0  0  0  0
    3.5130  -22.4260   -1.1310 C   0  0  0  0  0
    2.7500  -20.3740   -2.3360 C   0  0  0  0  0
    8.5710  -22.4700   -3.2770 C   0  0  0  0  0
    9.3710  -21.5940   -4.2350 C   0  0  0  0  0
    9.9650  -22.2000   -5.3340 C   0  0  0  0  0
   10.7170  -21.4570   -6.2280 C   0  0  0  0  0
   10.8890  -20.1020   -6.0000 C   0  0  0  0  0
   11.8400  -19.1840   -7.1110 Cl  0  0  0  0  0
   10.3100  -19.4920   -4.8900 C   0  0  0  0  0
    9.5530  -20.2410   -3.9970 C   0  0  0  0  0
   12.1342  -23.4530   -3.3788 H   0  0  0  0  0
   13.3438  -20.9522   -0.1051 H   0  0  0  0  0
   10.9975  -20.8825    0.7075 H   0  0  0  0  0
    9.2288  -22.1072   -0.5278 H   0  0  0  0  0
    9.8789  -24.2614   -3.5402 H   0  0  0  0  0
    6.1200  -26.1919   -1.6137 H   0  0  0  0  0
    6.3414  -24.5486   -0.9372 H   0  0  0  0  0
    7.8289  -24.1018    0.8113 H   0  0  0  0  0
    9.1790  -24.9693    2.7187 H   0  0  0  0  0
    9.9986  -25.8696    3.7848 H   0  0  0  0  0
    8.9059  -28.8869    0.9755 H   0  0  0  0  0
    9.0949  -25.9657   -3.9033 H   0  0  0  0  0
    8.9573  -26.8834   -2.3834 H   0  0  0  0  0
    7.6327  -26.9269   -3.5727 H   0  0  0  0  0
    7.0261  -21.2594   -4.8984 H   0  0  0  0  0
    5.1675  -23.2876   -5.6198 H   0  0  0  0  0
    6.3767  -20.7032   -7.3590 H   0  0  0  0  0
    5.6858  -21.2794   -7.9659 H   0  0  0  0  0
    7.4939  -23.8545   -7.5828 H   0  0  0  0  0
    8.1870  -23.2765   -6.9740 H   0  0  0  0  0
    4.7644  -22.7644   -3.5314 H   0  0  0  0  0
    4.5824  -21.1580   -4.4606 H   0  0  0  0  0
    4.6687  -20.5805    0.5208 H   0  0  0  0  0
    4.1390  -19.1184   -0.3468 H   0  0  0  0  0
    2.9337  -20.2006    0.3928 H   0  0  0  0  0
    3.4708  -22.9743   -2.0721 H   0  0  0  0  0
    4.2989  -22.8428   -0.5011 H   0  0  0  0  0
    2.5542  -22.5065   -0.6189 H   0  0  0  0  0
    2.9981  -19.3390   -2.5712 H   0  0  0  0  0
    2.7110  -20.9577   -3.2557 H   0  0  0  0  0
    1.7810  -20.4126   -1.8383 H   0  0  0  0  0
    8.2453  -21.8357   -2.4525 H   0  0  0  0  0
    9.8381  -23.2706   -5.4944 H   0  0  0  0  0
   11.1675  -21.9321   -7.0994 H   0  0  0  0  0
   10.4509  -18.4244   -4.7212 H   0  0  0  0  0
    9.1080  -19.7701   -3.1204 H   0  0  0  0  0
  1  2  4  0  0  0
  1  7  4  0  0  0
  2  3  1  0  0  0
  2  4  4  0  0  0
  4  5  4  0  0  0
  5  6  4  0  0  0
  6  7  4  0  0  0
  7  8  1  0  0  0
  8  9  1  0  0  0
  8 37  1  0  0  0
  9 10  1  0  0  0
 10 11  1  0  0  0
 10 21  1  0  0  0
 10 22  1  0  0  0
 11 12  1  0  0  0
 12 13  4  0  0  0
 12 20  4  0  0  0
 13 14  4  0  0  0
 14 15  4  0  0  0
 15 16  1  0  0  0
 15 19  4  0  0  0
 16 17  2  0  0  0
 16 18  1  0  0  0
 19 20  4  0  0  0
 22 23  2  0  0  0
 22 24  1  0  0  0
 24 25  1  0  0  0
 24 37  1  0  0  0
 25 26  1  0  0  0
 25 29  1  0  0  0
 26 27  1  0  0  0
 26 28  1  0  0  0
 27 28  1  0  0  0
 29 30  1  0  0  0
 30 31  2  0  0  0
 30 32  2  0  0  0
 30 33  1  0  0  0
 33 34  1  0  0  0
 33 35  1  0  0  0
 33 36  1  0  0  0
 37 38  1  0  0  0
 38 39  4  0  0  0
 38 44  4  0  0  0
 39 40  4  0  0  0
 40 41  4  0  0  0
 41 42  1  0  0  0
 41 43  4  0  0  0
 43 44  4  0  0  0
  1 45  1  0  0  0
  4 46  1  0  0  0
  5 47  1  0  0  0
  6 48  1  0  0  0
  8 49  1  0  0  0
 11 50  1  0  0  0
 11 51  1  0  0  0
 13 52  1  0  0  0
 14 53  1  0  0  0
 18 54  1  0  0  0
 19 55  1  0  0  0
 21 56  1  0  0  0
 21 57  1  0  0  0
 21 58  1  0  0  0
 25 59  1  0  0  0
 26 60  1  0  0  0
 27 61  1  0  0  0
 27 62  1  0  0  0
 28 63  1  0  0  0
 28 64  1  0  0  0
 29 65  1  0  0  0
 29 66  1  0  0  0
 34 67  1  0  0  0
 34 68  1  0  0  0
 34 69  1  0  0  0
 35 70  1  0  0  0
 35 71  1  0  0  0
 35 72  1  0  0  0
 36 73  1  0  0  0
 36 74  1  0  0  0
 36 75  1  0  0  0
 37 76  1  0  0  0
 39 77  1  0  0  0
 40 78  1  0  0  0
 43 79  1  0  0  0
 44 80  1  0  0  0
M  END
$$$$
