3lhj_ligand
  -I-interpret- 

 52 56  0  0  0  0  0  0  0  0999 V2000
   -0.9710   10.9790   29.9030 N   0  0  0  0  0
    0.0600    8.7180   29.2870 N   0  0  0  0  0
   -3.1480   11.2410   28.8310 C   0  0  0  0  0
   -3.0070    9.9880   28.2390 C   0  0  0  0  0
   -1.4960    8.0340   28.0500 C   0  0  0  0  0
    0.0840   11.5390   30.7860 C   0  0  0  0  0
   -4.2990   11.9790   28.5620 C   0  0  0  0  0
    2.3270    9.3210   29.3080 C   0  0  0  0  0
    2.6380    8.0220   31.7480 C   0  0  0  0  0
   -4.2330   12.9240   27.5420 C   0  0  0  0  0
   -6.5350   13.5260   27.9080 C   0  0  0  0  0
   -5.6050   10.7660   30.3850 C   0  0  0  0  0
   -5.2040   14.7200   26.0870 C   0  0  0  0  0
   -6.2900   16.5030   24.8060 C   0  0  0  0  0
   -7.6080   16.6730   24.0550 C   0  0  0  0  0
   -6.4280   15.9800   23.3760 C   0  0  0  0  0
   -6.2750   15.4720   25.8580 N   0  0  0  0  0
   -4.1540   14.8080   25.4510 O   0  0  0  0  0
   -5.3400   13.6990   27.2130 C   0  0  0  0  0
   -6.6100   12.5770   28.9290 C   0  0  0  0  0
   -5.4970   11.8000   29.2580 C   0  0  0  0  0
   -2.1340   11.7440   29.6570 C   0  0  0  0  0
   -2.2530   12.8540   30.1760 O   0  0  0  0  0
   -0.8460    9.7000   29.2950 C   0  0  0  0  0
   -1.8680    9.2290   28.4770 C   0  0  0  0  0
   -0.3020    7.7790   28.5780 N   0  0  0  0  0
    1.2340    8.6960   29.9110 C   0  0  0  0  0
    1.3880    8.0370   31.1310 C   0  0  0  0  0
    3.7210    8.6580   31.1430 C   0  0  0  0  0
    4.9230    8.6420   31.7360 F   0  0  0  0  0
    3.5740    9.3110   29.9260 C   0  0  0  0  0
    2.1750    9.9530   28.1280 F   0  0  0  0  0
   -3.7916    9.6024   27.5880 H   0  0  0  0  0
   -2.0628    7.3793   27.3880 H   0  0  0  0  0
    0.4538   12.4723   30.3613 H   0  0  0  0  0
   -0.3343   11.7287   31.7745 H   0  0  0  0  0
    0.9040   10.8255   30.8678 H   0  0  0  0  0
    2.7685    7.5132   32.7031 H   0  0  0  0  0
   -3.3007   13.0584   26.9935 H   0  0  0  0  0
   -7.4073   14.1289   27.6557 H   0  0  0  0  0
   -5.3894    9.7740   29.9881 H   0  0  0  0  0
   -4.8878   11.0088   31.1691 H   0  0  0  0  0
   -6.6143   10.7827   30.7962 H   0  0  0  0  0
   -5.6066   17.1770   25.3225 H   0  0  0  0  0
   -8.3279   17.4618   23.8367 H   0  0  0  0  0
   -8.6712   16.5001   24.2215 H   0  0  0  0  0
   -6.2275   15.0666   22.8160 H   0  0  0  0  0
   -5.8850   16.0261   22.4320 H   0  0  0  0  0
   -7.1102   15.3315   26.4265 H   0  0  0  0  0
   -7.5444   12.4413   29.4737 H   0  0  0  0  0
    0.5385    7.5383   31.5976 H   0  0  0  0  0
    4.4245    9.8093   29.4608 H   0  0  0  0  0
  1  6  1  0  0  0
  1 22  1  0  0  0
 24  1  1  0  0  0
  2 24  4  0  0  0
  2 26  4  0  0  0
 27  2  1  0  0  0
  4  3  2  0  0  0
  3  7  1  0  0  0
 22  3  1  0  0  0
 25  4  1  0  0  0
  5 25  4  0  0  0
 26  5  4  0  0  0
  7 10  4  0  0  0
  7 21  4  0  0  0
 27  8  4  0  0  0
  8 31  4  0  0  0
  8 32  1  0  0  0
 28  9  4  0  0  0
  9 29  4  0  0  0
 10 19  4  0  0  0
 19 11  4  0  0  0
 20 11  4  0  0  0
 21 12  1  0  0  0
 13 17  1  0  0  0
 13 18  2  0  0  0
 19 13  1  0  0  0
 14 15  1  0  0  0
 14 16  1  0  0  0
 17 14  1  0  0  0
 16 15  1  0  0  0
 21 20  4  0  0  0
 22 23  2  0  0  0
 24 25  4  0  0  0
 27 28  4  0  0  0
 29 30  1  0  0  0
 29 31  4  0  0  0
  4 33  1  0  0  0
  5 34  1  0  0  0
  6 35  1  0  0  0
  6 36  1  0  0  0
  6 37  1  0  0  0
  9 38  1  0  0  0
 10 39  1  0  0  0
 11 40  1  0  0  0
 12 41  1  0  0  0
 12 42  1  0  0  0
 12 43  1  0  0  0
 14 44  1  0  0  0
 15 45  1  0  0  0
 15 46  1  0  0  0
 16 47  1  0  0  0
 16 48  1  0  0  0
 17 49  1  0  0  0
 20 50  1  0  0  0
 28 51  1  0  0  0
 31 52  1  0  0  0
M  END
$$$$
