3way_ligand
  -I-interpret- 

 52 55  0  0  0  0  0  0  0  0999 V2000
   11.8990   38.0700   12.7480 C   0  0  0  0  0
   11.7590   38.0040   11.3610 C   0  0  0  0  0
   12.2060   39.3670   10.3800 Cl  0  0  0  0  0
   11.2640   36.8400   10.7630 C   0  0  0  0  0
   11.1440   36.7160    8.9710 Cl  0  0  0  0  0
   10.8840   35.7640   11.5580 C   0  0  0  0  0
   10.9760   35.8550   12.9480 C   0  0  0  0  0
   11.4020   37.0460   13.5380 C   0  0  0  0  0
   11.5350   36.9110   14.9480 C   0  0  0  0  0
   12.4130   37.5260   15.7520 C   0  0  0  0  0
   14.0140   38.1650   15.3190 S   0  0  0  0  0
   12.4080   37.4440   17.1130 C   0  0  0  0  0
   11.4520   37.0290   17.7690 O   0  0  0  0  0
   13.4560   37.9870   17.7630 N   0  0  0  0  0
   14.4080   38.4490   16.9310 C   0  0  0  0  0
   15.5970   38.8880   17.3860 N   0  0  0  0  0
   15.8680   39.4160   18.7450 C   0  0  0  0  0
   17.2400   38.9080   19.2300 C   0  0  0  0  0
   16.6800   39.1540   16.4410 C   0  0  0  0  0
   17.9610   38.6940   17.0560 C   0  0  0  0  0
   18.3470   39.3280   18.3320 N   0  3  0  0  0
   19.6510   38.8070   18.8730 C   0  0  0  0  0
   20.5800   38.5910   17.8210 C   0  0  0  0  0
   20.6730   37.2610   17.4380 C   0  0  0  0  0
   21.4700   36.8760   16.3930 C   0  0  0  0  0
   22.2100   37.8540   15.7760 C   0  0  0  0  0
   23.1870   37.1820   14.3610 B   0  0  0  0  0
   23.5890   35.7340   14.5060 O   0  0  0  0  0
   24.0190   38.2480   13.5940 O   0  0  0  0  0
   22.1360   39.2110   16.1040 C   0  0  0  0  0
   21.3110   39.5960   17.1770 C   0  0  0  0  0
   12.3972   38.9235   13.2078 H   0  0  0  0  0
   10.5141   34.8490   11.0954 H   0  0  0  0  0
   10.7160   34.9988   13.5705 H   0  0  0  0  0
   10.8396   36.2254   15.4321 H   0  0  0  0  0
   15.0915   39.0737   19.4291 H   0  0  0  0  0
   15.8734   40.5056   18.7168 H   0  0  0  0  0
   17.2112   37.8185   19.2443 H   0  0  0  0  0
   17.4270   39.3302   20.2174 H   0  0  0  0  0
   16.7319   40.2204   16.2216 H   0  0  0  0  0
   16.5009   38.6216   15.5069 H   0  0  0  0  0
   18.7455   38.9494   16.3437 H   0  0  0  0  0
   17.8263   37.6347   17.2750 H   0  0  0  0  0
   18.4801   40.3348   18.2374 H   0  0  0  0  0
   19.4685   37.8606   19.3819 H   0  0  0  0  0
   20.0649   39.5419   19.5634 H   0  0  0  0  0
   20.1006   36.5077   17.9793 H   0  0  0  0  0
   21.5149   35.8374   16.0651 H   0  0  0  0  0
   24.0905   35.4634   13.7334 H   0  0  0  0  0
   24.4965   37.8244   12.8770 H   0  0  0  0  0
   22.7036   39.9528   15.5422 H   0  0  0  0  0
   21.2438   40.6366   17.4944 H   0  0  0  0  0
  1  2  4  0  0  0
  1  8  4  0  0  0
  2  3  1  0  0  0
  2  4  4  0  0  0
  4  5  1  0  0  0
  4  6  4  0  0  0
  6  7  4  0  0  0
  7  8  4  0  0  0
  8  9  1  0  0  0
  9 10  2  0  0  0
 10 11  1  0  0  0
 10 12  1  0  0  0
 11 15  1  0  0  0
 12 13  2  0  0  0
 12 14  1  0  0  0
 14 15  2  0  0  0
 15 16  1  0  0  0
 16 17  1  0  0  0
 16 19  1  0  0  0
 17 18  1  0  0  0
 18 21  1  0  0  0
 19 20  1  0  0  0
 20 21  1  0  0  0
 21 22  1  0  0  0
 22 23  1  0  0  0
 23 24  4  0  0  0
 23 31  4  0  0  0
 24 25  4  0  0  0
 25 26  4  0  0  0
 26 27  1  0  0  0
 26 30  4  0  0  0
 27 28  1  0  0  0
 27 29  1  0  0  0
 30 31  4  0  0  0
  1 32  1  0  0  0
  6 33  1  0  0  0
  7 34  1  0  0  0
  9 35  1  0  0  0
 17 36  1  0  0  0
 17 37  1  0  0  0
 18 38  1  0  0  0
 18 39  1  0  0  0
 19 40  1  0  0  0
 19 41  1  0  0  0
 20 42  1  0  0  0
 20 43  1  0  0  0
 21 44  1  0  0  0
 22 45  1  0  0  0
 22 46  1  0  0  0
 24 47  1  0  0  0
 25 48  1  0  0  0
 28 49  1  0  0  0
 29 50  1  0  0  0
 30 51  1  0  0  0
 31 52  1  0  0  0
M  END
$$$$
