### 
### Created by X-TOOL on Mon Sep 10 21:13:13 2018
### 

@<TRIPOS>MOLECULE
3way_ligand
   52    55     1     0     0
SMALL
GAST_HUCK


@<TRIPOS>ATOM
      1 CAA        11.8990   38.0700   12.7480 C.ar      1 DWY        -0.0407
      2 CAB        11.7590   38.0040   11.3610 C.ar      1 DWY         0.0545
      3 CLN        12.2060   39.3670   10.3800 Cl        1 DWY        -0.0702
      4 CAC        11.2640   36.8400   10.7630 C.ar      1 DWY         0.0542
      5 CLM        11.1440   36.7160    8.9710 Cl        1 DWY        -0.0697
      6 CAD        10.8840   35.7640   11.5580 C.ar      1 DWY        -0.0472
      7 CAE        10.9760   35.8550   12.9480 C.ar      1 DWY        -0.0545
      8 CAF        11.4020   37.0460   13.5380 C.ar      1 DWY        -0.0234
      9 CAG        11.5350   36.9110   14.9480 C.2       1 DWY        -0.0263
     10 CAH        12.4130   37.5260   15.7520 C.2       1 DWY         0.1058
     11 SAI        14.0140   38.1650   15.3190 S.3       1 DWY         0.0458
     12 CAL        12.4080   37.4440   17.1130 C.2       1 DWY         0.1797
     13 OAO        11.4520   37.0290   17.7690 O.2       1 DWY        -0.3844
     14 NAK        13.4560   37.9870   17.7630 N.2       1 DWY        -0.2673
     15 CAJ        14.4080   38.4490   16.9310 C.2       1 DWY         0.1976
     16 NAP        15.5970   38.8880   17.3860 N.pl3     1 DWY        -0.2484
     17 CAU        15.8680   39.4160   18.7450 C.3       1 DWY         0.0810
     18 CAT        17.2400   38.9080   19.2300 C.3       1 DWY        -0.0080
     19 CAQ        16.6800   39.1540   16.4410 C.3       1 DWY         0.0810
     20 CAR        17.9610   38.6940   17.0560 C.3       1 DWY        -0.0080
     21 NAS        18.3470   39.3280   18.3320 N.4       1 DWY         0.2491
     22 CAV        19.6510   38.8070   18.8730 C.3       1 DWY        -0.0163
     23 CBB        20.5800   38.5910   17.8210 C.ar      1 DWY        -0.0973
     24 CAW        20.6730   37.2610   17.4380 C.ar      1 DWY        -0.1696
     25 CAX        21.4700   36.8760   16.3930 C.ar      1 DWY        -0.1772
     26 CAY        22.2100   37.8540   15.7760 C.ar      1 DWY        -0.1474
     27 BBC        23.1870   37.1820   14.3610 B         1 DWY         3.0000
     28 OBE        23.5890   35.7340   14.5060 O.3       1 DWY        -0.8710
     29 OBD        24.0190   38.2480   13.5940 O.3       1 DWY        -0.8710
     30 CAZ        22.1360   39.2110   16.1040 C.ar      1 DWY        -0.1772
     31 CBA        21.3110   39.5960   17.1770 C.ar      1 DWY        -0.1696
     32 H1         12.3945   38.9188   13.2053 H         1 DWY         0.0626
     33 H2         10.5161   34.8540   11.0980 H         1 DWY         0.0622
     34 H3         10.7174   35.0035   13.5670 H         1 DWY         0.0621
     35 H4         10.8402   36.2260   15.4317 H         1 DWY         0.0630
     36 H5         15.0844   39.0708   19.4354 H         1 DWY         0.0595
     37 H6         15.8734   40.5156   18.7167 H         1 DWY         0.0595
     38 H7         17.2158   37.8091   19.2714 H         1 DWY         0.0836
     39 H8         17.4299   39.3088   20.2366 H         1 DWY         0.0836
     40 H9         16.7342   40.2324   16.2310 H         1 DWY         0.0595
     41 H10        16.4993   38.6066   15.5042 H         1 DWY         0.0595
     42 H11        18.7664   38.8849   16.3315 H         1 DWY         0.0836
     43 H12        17.8763   37.6117   17.2334 H         1 DWY         0.0836
     44 H13        18.3949   40.3306   18.2391 H         1 DWY         0.2049
     45 H14        19.4708   37.8565   19.3965 H         1 DWY         0.0964
     46 H15        20.0683   39.5407   19.5783 H         1 DWY         0.0964
     47 H16        20.1037   36.5119   17.9763 H         1 DWY        -0.0187
     48 H17        21.5147   35.8432   16.0669 H         1 DWY        -0.0142
     49 H19        22.9307   35.2729   15.0125 H         1 DWY        -0.1290
     50 H21        24.1130   37.9821   12.6868 H         1 DWY        -0.1290
     51 H23        22.7005   39.9487   15.5453 H         1 DWY        -0.0142
     52 H24        21.2442   40.6309   17.4926 H         1 DWY        -0.0187
@<TRIPOS>BOND
     1    1    2 ar 
     2    1    8 ar 
     3    2    3 1  
     4    2    4 ar 
     5    4    5 1  
     6    4    6 ar 
     7    6    7 ar 
     8    7    8 ar 
     9    8    9 1  
    10    9   10 2  
    11   10   11 1  
    12   10   12 1  
    13   11   15 1  
    14   12   13 2  
    15   12   14 1  
    16   14   15 2  
    17   15   16 1  
    18   16   17 1  
    19   16   19 1  
    20   17   18 1  
    21   18   21 1  
    22   19   20 1  
    23   20   21 1  
    24   21   22 1  
    25   22   23 1  
    26   23   24 ar 
    27   23   31 ar 
    28   24   25 ar 
    29   25   26 ar 
    30   26   27 1  
    31   26   30 ar 
    32   27   28 1  
    33   27   29 1  
    34   30   31 ar 
    35    1   32 1  
    36    6   33 1  
    37    7   34 1  
    38    9   35 1  
    39   17   36 1  
    40   17   37 1  
    41   18   38 1  
    42   18   39 1  
    43   19   40 1  
    44   19   41 1  
    45   20   42 1  
    46   20   43 1  
    47   21   44 1  
    48   22   45 1  
    49   22   46 1  
    50   24   47 1  
    51   25   48 1  
    52   28   49 1  
    53   29   50 1  
    54   30   51 1  
    55   31   52 1  
@<TRIPOS>SUBSTRUCTURE
     1 DWY         1

