5wxf_ligand
  -I-interpret- 

176179  0  0  0  0  0  0  0  0999 V2000
    1.4260  -26.3330  -16.5290 N   0  3  0  0  0
    0.5120  -25.4790  -15.7960 C   0  0  0  0  0
   -0.8230  -26.0580  -15.6930 C   0  0  0  0  0
   -1.5840  -25.6320  -14.9140 O   0  0  0  0  0
    0.2670  -24.1790  -16.5080 C   0  0  0  0  0
    1.7420  -23.2200  -16.5950 S   0  0  0  0  0
   -1.1970  -27.1160  -16.2420 N   0  0  0  0  0
   -2.5110  -27.4340  -15.7770 C   0  0  0  0  0
   -2.3280  -28.5780  -14.8080 C   0  0  0  0  0
   -3.2440  -29.2370  -14.4560 O   0  0  0  0  0
   -3.3250  -27.8630  -16.9530 C   0  0  0  0  0
   -3.4830  -26.7370  -17.7420 O   0  0  0  0  0
   -1.0760  -28.7830  -14.4310 N   0  0  0  0  0
   -0.6260  -29.9390  -13.7750 C   0  0  0  0  0
   -0.3460  -29.5500  -12.3700 C   0  0  0  0  0
    0.0050  -28.4390  -12.0600 O   0  0  0  0  0
    0.6490  -30.5110  -14.3950 C   0  0  0  0  0
    0.4580  -31.1240  -15.7130 C   0  0  0  0  0
   -0.6780  -31.3200  -16.3340 C   0  0  0  0  0
    1.4760  -31.6320  -16.5460 C   0  0  0  0  0
   -0.4690  -31.8920  -17.5480 N   0  0  0  0  0
    0.8650  -32.0920  -17.6970 C   0  0  0  0  0
    2.8730  -31.6730  -16.4560 C   0  0  0  0  0
    1.5820  -32.6220  -18.7580 C   0  0  0  0  0
    3.5900  -32.2330  -17.5050 C   0  0  0  0  0
    2.9320  -32.7060  -18.6390 C   0  0  0  0  0
   -0.4430  -30.5590  -11.5100 N   0  0  0  0  0
    0.1030  -30.4090  -10.2240 C   0  0  0  0  0
    0.0670  -31.7200   -9.5730 C   0  0  0  0  0
   -1.4610  -33.2070   -8.3480 C   0  0  0  0  0
   -1.3630  -32.1770   -9.4050 C   0  0  0  0  0
   -0.5880  -34.3720   -8.7570 C   0  0  0  0  0
   -0.9880  -34.8620  -10.0170 N   0  0  0  0  0
   -1.5180  -35.9900  -10.2380 C   0  0  0  0  0
   -1.6540  -36.3390  -11.3990 N   0  0  0  0  0
   -1.8220  -36.7430   -9.2840 N   0  0  0  0  0
    1.5710  -30.1450  -10.3830 C   0  0  0  0  0
    2.2000  -30.7770  -11.1840 O   0  0  0  0  0
    2.0660  -29.2120   -9.5880 N   0  0  0  0  0
    3.4070  -28.7550   -9.6330 C   0  0  0  0  0
    3.4910  -27.3290  -10.0400 C   0  0  0  0  0
    4.4090  -26.6730   -9.6500 O   0  0  0  0  0
    2.5070  -26.8370  -10.7500 N   0  0  0  0  0
    2.5260  -25.4670  -11.1490 C   0  0  0  0  0
    1.4700  -24.6060  -10.5420 C   0  0  0  0  0
    1.1750  -23.6060  -11.0580 O   0  0  0  0  0
    2.5180  -25.3260  -12.6450 C   0  0  0  0  0
    3.7350  -25.8730  -13.3860 C   0  0  0  0  0
    3.6910  -25.3950  -14.8010 C   0  0  0  0  0
    5.0420  -25.5560  -12.7470 C   0  0  0  0  0
    0.9160  -25.0320   -9.4270 N   0  0  0  0  0
   -0.0720  -24.2510   -8.7600 C   0  0  0  0  0
    0.6460  -23.0750   -8.2950 C   0  0  0  0  0
    1.7640  -23.1830   -7.8850 O   0  0  0  0  0
   -0.5300  -24.9730   -7.5440 C   0  0  0  0  0
   -1.4520  -26.1190   -7.9120 C   0  0  0  0  0
   -0.7560  -27.3970   -8.1500 C   0  0  0  0  0
    0.4270  -27.4030   -8.2370 O   0  0  0  0  0
   -1.4080  -28.3940   -8.0630 O   0  0  0  0  0
   -0.0070  -21.9530   -8.4090 N   0  0  0  0  0
    0.5460  -20.7720   -7.8640 C   0  0  0  0  0
    1.9480  -20.5450   -8.4200 C   0  0  0  0  0
    2.8750  -20.3400   -7.7130 O   0  0  0  0  0
    0.6180  -20.9560   -6.3790 C   0  0  0  0  0
    0.9490  -19.7160   -5.6840 C   0  0  0  0  0
    0.4980  -18.7030   -6.0960 O   0  0  0  0  0
    1.7130  -19.7980   -4.6070 N   0  0  0  0  0
    2.0280  -20.6670   -9.7050 N   0  0  0  0  0
    3.2650  -20.3680  -10.3780 C   0  0  0  0  0
    3.1330  -19.1230  -11.2250 C   0  0  0  0  0
    2.1160  -18.8340  -11.7200 O   0  0  0  0  0
    3.7800  -21.5100  -11.1690 C   0  0  0  0  0
    4.5130  -22.5000  -10.3430 C   0  0  0  0  0
    5.7560  -22.9710  -10.6740 N   0  0  0  0  0
    4.1630  -23.1280   -9.2060 C   0  0  0  0  0
    6.1530  -23.8090   -9.7370 C   0  0  0  0  0
    5.1940  -23.9450   -8.8600 N   0  0  0  0  0
    4.2270  -18.4050  -11.3300 N   0  0  0  0  0
    4.2070  -17.0650  -11.9190 C   0  0  0  0  0
    3.7360  -17.1200  -13.3430 C   0  0  0  0  0
    2.9320  -16.3770  -13.7910 O   0  0  0  0  0
    5.5980  -16.5110  -11.8870 C   0  0  0  0  0
    4.2670  -18.0670  -13.9960 N   0  0  0  0  0
    3.8780  -18.1950  -15.2850 C   0  0  0  0  0
    2.4640  -18.6450  -14.9830 C   0  0  0  0  0
    1.6260  -18.0630  -14.3230 O   0  0  0  0  0
    4.6980  -19.3030  -15.8920 C   0  0  0  0  0
    2.2890  -19.8050  -15.4220 N   0  0  0  0  0
    1.0180  -20.5290  -15.4260 C   0  0  0  0  0
   -0.1150  -19.5900  -15.1580 C   0  0  0  0  0
   -0.2980  -18.6730  -16.0070 O   0  0  0  0  0
    1.0160  -21.6470  -14.4050 C   0  0  0  0  0
    2.1810  -22.8780  -14.8000 S   0  0  0  0  0
   -0.7110  -19.7780  -14.0650 O   0  0  0  0  0
    1.5649  -27.2021  -16.0134 H   0  0  0  0  0
    1.0334  -26.5402  -17.4473 H   0  0  0  0  0
    2.3204  -25.8555  -16.6401 H   0  0  0  0  0
    0.9904  -25.3502  -14.8251 H   0  0  0  0  0
   -0.4853  -23.6146  -15.9570 H   0  0  0  0  0
   -0.0712  -24.3936  -17.5218 H   0  0  0  0  0
   -0.6547  -27.6624  -16.9111 H   0  0  0  0  0
   -3.0157  -26.5958  -15.2966 H   0  0  0  0  0
   -4.2894  -28.2627  -16.6396 H   0  0  0  0  0
   -2.8303  -28.6633  -17.5034 H   0  0  0  0  0
   -4.0033  -26.9611  -18.5170 H   0  0  0  0  0
   -0.3929  -28.0523  -14.6305 H   0  0  0  0  0
   -1.3894  -30.7130  -13.8548 H   0  0  0  0  0
    1.0068  -31.2940  -13.7264 H   0  0  0  0  0
    1.3422  -29.6801  -14.5257 H   0  0  0  0  0
   -1.6571  -31.0598  -15.9318 H   0  0  0  0  0
    3.3864  -31.2739  -15.5813 H   0  0  0  0  0
    1.0767  -32.9617  -19.6621 H   0  0  0  0  0
    4.6759  -32.3032  -17.4411 H   0  0  0  0  0
    3.5127  -33.1522  -19.4464 H   0  0  0  0  0
   -0.9058  -31.4272  -11.7790 H   0  0  0  0  0
   -0.4305  -29.6296   -9.6800 H   0  0  0  0  0
    0.5363  -31.6453   -8.5920 H   0  0  0  0  0
    0.6027  -32.4409  -10.1906 H   0  0  0  0  0
   -2.4949  -33.5315   -8.2300 H   0  0  0  0  0
   -1.1286  -32.8018   -7.3923 H   0  0  0  0  0
   -1.7099  -32.6034  -10.3462 H   0  0  0  0  0
   -1.9757  -31.3213   -9.1215 H   0  0  0  0  0
   -0.6852  -35.1672   -8.0179 H   0  0  0  0  0
    0.4478  -34.0377   -8.8168 H   0  0  0  0  0
   -0.8369  -34.2537  -10.8217 H   0  0  0  0  0
   -1.3445  -35.7280  -12.1548 H   0  0  0  0  0
   -2.1940  -37.6747   -9.4682 H   0  0  0  0  0
   -1.6975  -36.4244   -8.3231 H   0  0  0  0  0
    1.4425  -28.7939   -8.8974 H   0  0  0  0  0
    3.9481  -29.3529  -10.3664 H   0  0  0  0  0
    3.8355  -28.8522   -8.6355 H   0  0  0  0  0
    1.7250  -27.4344  -11.0185 H   0  0  0  0  0
    3.4679  -25.0924  -10.7484 H   0  0  0  0  0
    2.4970  -24.2552  -12.8475 H   0  0  0  0  0
    1.6641  -25.9039  -12.9985 H   0  0  0  0  0
    3.6728  -26.9605  -13.3465 H   0  0  0  0  0
    2.7771  -25.7523  -15.2756 H   0  0  0  0  0
    3.7075  -24.3052  -14.8157 H   0  0  0  0  0
    4.5564  -25.7801  -15.3403 H   0  0  0  0  0
    5.1646  -24.4744  -12.6906 H   0  0  0  0  0
    5.0658  -25.9785  -11.7425 H   0  0  0  0  0
    5.8490  -25.9839  -13.3417 H   0  0  0  0  0
    1.1968  -25.9312   -9.0358 H   0  0  0  0  0
   -0.9215  -24.0335   -9.4074 H   0  0  0  0  0
   -1.0735  -24.2762   -6.9059 H   0  0  0  0  0
    0.3405  -25.3753   -7.0259 H   0  0  0  0  0
   -1.9522  -25.8456   -8.8411 H   0  0  0  0  0
   -2.1291  -26.2715   -7.0716 H   0  0  0  0  0
   -2.3378  -28.1628   -8.0035 H   0  0  0  0  0
   -0.9079  -21.9274   -8.8866 H   0  0  0  0  0
   -0.0681  -19.9089   -8.1211 H   0  0  0  0  0
    1.4012  -21.6834   -6.1654 H   0  0  0  0  0
   -0.3600  -21.2885   -6.0311 H   0  0  0  0  0
    1.9440  -18.9556   -4.0802 H   0  0  0  0  0
    2.0710  -20.7036   -4.3034 H   0  0  0  0  0
    1.2162  -20.9745  -10.2406 H   0  0  0  0  0
    4.0064  -20.1763   -9.6023 H   0  0  0  0  0
    4.4748  -21.1152  -11.9103 H   0  0  0  0  0
    2.9254  -22.0173  -11.6167 H   0  0  0  0  0
    3.2263  -23.0049   -8.6624 H   0  0  0  0  0
    7.1220  -24.3067   -9.6999 H   0  0  0  0  0
    5.1101  -18.7891  -10.9939 H   0  0  0  0  0
    3.5251  -16.4336  -11.3495 H   0  0  0  0  0
    5.9434  -16.4590  -10.8545 H   0  0  0  0  0
    6.2596  -17.1602  -12.4605 H   0  0  0  0  0
    5.5999  -15.5119  -12.3228 H   0  0  0  0  0
    4.9490  -18.6970  -13.5737 H   0  0  0  0  0
    3.9700  -17.3464  -15.9629 H   0  0  0  0  0
    5.7553  -19.0441  -15.8346 H   0  0  0  0  0
    4.5188  -20.2280  -15.3439 H   0  0  0  0  0
    4.4112  -19.4359  -16.9352 H   0  0  0  0  0
    3.1012  -20.2852  -15.8093 H   0  0  0  0  0
    0.8910  -20.9723  -16.4136 H   0  0  0  0  0
    0.3086  -18.7927  -16.7414 H   0  0  0  0  0
    0.0253  -22.1014  -14.3941 H   0  0  0  0  0
    1.2756  -21.2264  -13.4335 H   0  0  0  0  0
  1  2  1  0  0  0
  2  3  1  0  0  0
  2  5  1  0  0  0
  3  4  2  0  0  0
  3  7  1  0  0  0
  5  6  1  0  0  0
  6 93  1  0  0  0
  7  8  1  0  0  0
  8  9  1  0  0  0
  8 11  1  0  0  0
  9 10  2  0  0  0
  9 13  1  0  0  0
 11 12  1  0  0  0
 13 14  1  0  0  0
 14 15  1  0  0  0
 14 17  1  0  0  0
 15 16  2  0  0  0
 15 27  1  0  0  0
 17 18  1  0  0  0
 18 19  4  0  0  0
 18 20  4  0  0  0
 19 21  4  0  0  0
 20 22  4  0  0  0
 20 23  4  0  0  0
 21 22  4  0  0  0
 22 24  4  0  0  0
 23 25  4  0  0  0
 24 26  4  0  0  0
 25 26  4  0  0  0
 27 28  1  0  0  0
 28 29  1  0  0  0
 28 37  1  0  0  0
 29 31  1  0  0  0
 31 30  1  0  0  0
 30 32  1  0  0  0
 32 33  1  0  0  0
 33 34  1  0  0  0
 34 35  2  0  0  0
 34 36  1  0  0  0
 37 38  2  0  0  0
 37 39  1  0  0  0
 39 40  1  0  0  0
 40 41  1  0  0  0
 41 42  2  0  0  0
 41 43  1  0  0  0
 43 44  1  0  0  0
 44 45  1  0  0  0
 44 47  1  0  0  0
 45 46  2  0  0  0
 45 51  1  0  0  0
 47 48  1  0  0  0
 48 49  1  0  0  0
 48 50  1  0  0  0
 51 52  1  0  0  0
 52 53  1  0  0  0
 52 55  1  0  0  0
 53 54  2  0  0  0
 53 60  1  0  0  0
 55 56  1  0  0  0
 56 57  1  0  0  0
 57 58  2  0  0  0
 57 59  1  0  0  0
 60 61  1  0  0  0
 61 62  1  0  0  0
 61 64  1  0  0  0
 62 63  2  0  0  0
 62 68  1  0  0  0
 64 65  1  0  0  0
 65 66  2  0  0  0
 65 67  1  0  0  0
 68 69  1  0  0  0
 69 70  1  0  0  0
 69 72  1  0  0  0
 70 71  2  0  0  0
 70 78  1  0  0  0
 72 73  1  0  0  0
 73 74  4  0  0  0
 73 75  4  0  0  0
 74 76  4  0  0  0
 75 77  4  0  0  0
 76 77  4  0  0  0
 78 79  1  0  0  0
 79 80  1  0  0  0
 79 82  1  0  0  0
 80 81  2  0  0  0
 80 83  1  0  0  0
 83 84  1  0  0  0
 84 85  1  0  0  0
 84 87  1  0  0  0
 85 86  2  0  0  0
 85 88  1  0  0  0
 88 89  1  0  0  0
 89 90  1  0  0  0
 89 92  1  0  0  0
 90 91  1  0  0  0
 90 94  2  0  0  0
 92 93  1  0  0  0
  1 95  1  0  0  0
  1 96  1  0  0  0
  1 97  1  0  0  0
  2 98  1  0  0  0
  5 99  1  0  0  0
  5100  1  0  0  0
  7101  1  0  0  0
  8102  1  0  0  0
 11103  1  0  0  0
 11104  1  0  0  0
 12105  1  0  0  0
 13106  1  0  0  0
 14107  1  0  0  0
 17108  1  0  0  0
 17109  1  0  0  0
 19110  1  0  0  0
 23111  1  0  0  0
 24112  1  0  0  0
 25113  1  0  0  0
 26114  1  0  0  0
 27115  1  0  0  0
 28116  1  0  0  0
 29117  1  0  0  0
 29118  1  0  0  0
 30119  1  0  0  0
 30120  1  0  0  0
 31121  1  0  0  0
 31122  1  0  0  0
 32123  1  0  0  0
 32124  1  0  0  0
 33125  1  0  0  0
 35126  1  0  0  0
 36127  1  0  0  0
 36128  1  0  0  0
 39129  1  0  0  0
 40130  1  0  0  0
 40131  1  0  0  0
 43132  1  0  0  0
 44133  1  0  0  0
 47134  1  0  0  0
 47135  1  0  0  0
 48136  1  0  0  0
 49137  1  0  0  0
 49138  1  0  0  0
 49139  1  0  0  0
 50140  1  0  0  0
 50141  1  0  0  0
 50142  1  0  0  0
 51143  1  0  0  0
 52144  1  0  0  0
 55145  1  0  0  0
 55146  1  0  0  0
 56147  1  0  0  0
 56148  1  0  0  0
 59149  1  0  0  0
 60150  1  0  0  0
 61151  1  0  0  0
 64152  1  0  0  0
 64153  1  0  0  0
 67154  1  0  0  0
 67155  1  0  0  0
 68156  1  0  0  0
 69157  1  0  0  0
 72158  1  0  0  0
 72159  1  0  0  0
 75160  1  0  0  0
 76161  1  0  0  0
 78162  1  0  0  0
 79163  1  0  0  0
 82164  1  0  0  0
 82165  1  0  0  0
 82166  1  0  0  0
 83167  1  0  0  0
 84168  1  0  0  0
 87169  1  0  0  0
 87170  1  0  0  0
 87171  1  0  0  0
 88172  1  0  0  0
 89173  1  0  0  0
 91174  1  0  0  0
 92175  1  0  0  0
 92176  1  0  0  0
M  END
$$$$
