### 
### Created by X-TOOL on Wed Jan  1 15:39:37 2020
### 

@<TRIPOS>MOLECULE
5wxf_ligand
  177   180     1     0     0
SMALL
GAST_HUCK


@<TRIPOS>ATOM
      1 N           1.4260  -26.3330  -16.5290 N.4       1 CYS         0.2385
      2 CA          0.5120  -25.4790  -15.7960 C.3       1 CYS         0.0749
      3 C          -0.8230  -26.0580  -15.6930 C.2       1 CYS         0.2276
      4 O          -1.5840  -25.6320  -14.9140 O.2       1 CYS        -0.3907
      5 CB          0.2670  -24.1790  -16.5080 C.3       1 CYS         0.0643
      6 SG          1.7420  -23.2200  -16.5950 S.3       1 CYS        -0.0848
      7 N          -1.1970  -27.1160  -16.2420 N.am      1 SER        -0.2588
      8 CA         -2.5110  -27.4340  -15.7770 C.3       1 SER         0.1540
      9 C          -2.3280  -28.5780  -14.8080 C.2       1 SER         0.2063
     10 O          -3.2440  -29.2370  -14.4560 O.2       1 SER        -0.3943
     11 CB         -3.3250  -27.8630  -16.9530 C.3       1 SER         0.0843
     12 OG         -3.4830  -26.7370  -17.7420 O.3       1 SER        -0.3903
     13 N          -1.0760  -28.7830  -14.4310 N.am      1 TRP        -0.2626
     14 CA         -0.6260  -29.9390  -13.7750 C.3       1 TRP         0.1352
     15 C          -0.3460  -29.5500  -12.3700 C.2       1 TRP         0.2052
     16 O           0.0050  -28.4390  -12.0600 O.2       1 TRP        -0.3942
     17 CB          0.6490  -30.5110  -14.3950 C.3       1 TRP         0.0042
     18 CG          0.4580  -31.1240  -15.7130 C.2       1 TRP        -0.0418
     19 CD1        -0.6780  -31.3200  -16.3340 C.2       1 TRP         0.0167
     20 CD2         1.4760  -31.6320  -16.5460 C.ar      1 TRP        -0.0214
     21 NE1        -0.4690  -31.8920  -17.5480 N.pl3     1 TRP        -0.2890
     22 CE2         0.8650  -32.0920  -17.6970 C.ar      1 TRP         0.0603
     23 CE3         2.8730  -31.6730  -16.4560 C.ar      1 TRP        -0.0747
     24 CZ2         1.5820  -32.6220  -18.7580 C.ar      1 TRP        -0.0443
     25 CZ3         3.5900  -32.2330  -17.5050 C.ar      1 TRP        -0.0792
     26 CH2         2.9320  -32.7060  -18.6390 C.ar      1 TRP        -0.0768
     27 N          -0.4430  -30.5590  -11.5100 N.am      1 HRG        -0.2636
     28 CA          0.1030  -30.4090  -10.2240 C.3       1 HRG         0.1310
     29 CB          0.0670  -31.7200   -9.5730 C.3       1 HRG        -0.0123
     30 CG         -1.4610  -33.2070   -8.3480 C.3       1 HRG        -0.0196
     31 CG'        -1.3630  -32.1770   -9.4050 C.3       1 HRG        -0.0457
     32 CD         -0.5880  -34.3720   -8.7570 C.3       1 HRG         0.0625
     33 NE         -0.9880  -34.8620  -10.0170 N.pl3     1 HRG        -0.2723
     34 CZ         -1.5180  -35.9900  -10.2380 C.cat     1 HRG         0.2882
     35 NH1        -1.6540  -36.3390  -11.3990 N.pl3     1 HRG        -0.2849
     36 NH2        -1.8220  -36.7430   -9.2840 N.pl3     1 HRG        -0.2849
     37 C           1.5710  -30.1450  -10.3830 C.2       1 HRG         0.2037
     38 O           2.2000  -30.7770  -11.1840 O.2       1 HRG        -0.3944
     39 N           2.0660  -29.2120   -9.5880 N.am      1 GLY        -0.2664
     40 CA          3.4070  -28.7550   -9.6330 C.3       1 GLY         0.1201
     41 C           3.4910  -27.3290  -10.0400 C.2       1 GLY         0.2007
     42 O           4.4090  -26.6730   -9.6500 O.2       1 GLY        -0.3947
     43 N           2.5070  -26.8370  -10.7500 N.am      1 LEU        -0.2640
     44 CA          2.5260  -25.4670  -11.1490 C.3       1 LEU         0.1312
     45 C           1.4700  -24.6060  -10.5420 C.2       1 LEU         0.2039
     46 O           1.1750  -23.6060  -11.0580 O.2       1 LEU        -0.3944
     47 CB          2.5180  -25.3260  -12.6450 C.3       1 LEU        -0.0101
     48 CG          3.7350  -25.8730  -13.3860 C.3       1 LEU        -0.0425
     49 CD1         3.6910  -25.3950  -14.8010 C.3       1 LEU        -0.0625
     50 CD2         5.0420  -25.5560  -12.7470 C.3       1 LEU        -0.0625
     51 N           0.9160  -25.0320   -9.4270 N.am      1 GLU        -0.2636
     52 CA         -0.0720  -24.2510   -8.7600 C.3       1 GLU         0.1325
     53 C           0.6460  -23.0750   -8.2950 C.2       1 GLU         0.2041
     54 O           1.7640  -23.1830   -7.8850 O.2       1 GLU        -0.3944
     55 CB         -0.5300  -24.9730   -7.5440 C.3       1 GLU        -0.0008
     56 CG         -1.4520  -26.1190   -7.9120 C.3       1 GLU         0.0044
     57 CD         -0.7560  -27.3970   -8.1500 C.2       1 GLU         0.0350
     58 OE1         0.4270  -27.4030   -8.2370 O.co2     1 GLU        -0.5690
     59 OE2        -1.4080  -28.3940   -8.0630 O.co2     1 GLU        -0.5690
     60 N          -0.0070  -21.9530   -8.4090 N.am      1 ASN        -0.2616
     61 CA          0.5460  -20.7720   -7.8640 C.3       1 ASN         0.1476
     62 C           1.9480  -20.5450   -8.4200 C.2       1 ASN         0.2064
     63 O           2.8750  -20.3400   -7.7130 O.2       1 ASN        -0.3942
     64 CB          0.6180  -20.9560   -6.3790 C.3       1 ASN         0.0773
     65 CG          0.9490  -19.7160   -5.6840 C.2       1 ASN         0.1780
     66 OD1         0.4980  -18.7030   -6.0960 O.2       1 ASN        -0.3970
     67 ND2         1.7130  -19.7980   -4.6070 N.am      1 ASN        -0.3007
     68 N           2.0280  -20.6670   -9.7050 N.am      1 HIS        -0.2618
     69 CA          3.2650  -20.3680  -10.3780 C.3       1 HIS         0.1421
     70 C           3.1330  -19.1230  -11.2250 C.2       1 HIS         0.2060
     71 O           2.1160  -18.8340  -11.7200 O.2       1 HIS        -0.3942
     72 CB          3.7800  -21.5100  -11.1690 C.3       1 HIS         0.0427
     73 CG          4.5130  -22.5000  -10.3430 C.2       1 HIS         0.0561
     74 ND1         5.7560  -22.9710  -10.6740 N.pl3     1 HIS        -0.2623
     75 CD2         4.1630  -23.1280   -9.2060 C.2       1 HIS        -0.0276
     76 CE1         6.1530  -23.8090   -9.7370 C.2       1 HIS         0.0875
     77 NE2         5.1940  -23.9450   -8.8600 N.2       1 HIS        -0.3437
     78 N           4.2270  -18.4050  -11.3300 N.am      1 ALA        -0.2639
     79 CA          4.2070  -17.0650  -11.9190 C.3       1 ALA         0.1282
     80 C           3.7360  -17.1200  -13.3430 C.2       1 ALA         0.2036
     81 O           2.9320  -16.3770  -13.7910 O.2       1 ALA        -0.3944
     82 CB          5.5980  -16.5110  -11.8870 C.3       1 ALA        -0.0244
     83 N           4.2670  -18.0670  -13.9960 N.am      1 ALA        -0.2640
     84 CA          3.8780  -18.1950  -15.2850 C.3       1 ALA         0.1282
     85 C           2.4640  -18.6450  -14.9830 C.2       1 ALA         0.2031
     86 O           1.6260  -18.0630  -14.3230 O.2       1 ALA        -0.3944
     87 CB          4.6980  -19.3030  -15.8920 C.3       1 ALA        -0.0244
     88 N           2.2890  -19.8050  -15.4220 N.am      1 CYS        -0.2687
     89 CA          1.0180  -20.5290  -15.4260 C.3       1 CYS         0.1041
     90 C          -0.1150  -19.5900  -15.1580 C.2       1 CYS         0.0609
     91 O          -0.2980  -18.6730  -16.0070 O.co2     1 CYS        -0.5666
     92 CB          1.0160  -21.6470  -14.4050 C.3       1 CYS         0.0388
     93 SG          2.1810  -22.8780  -14.8000 S.3       1 CYS        -0.0887
     94 OXT        -0.7110  -19.7780  -14.0650 O.co2     1 CYS        -0.5666
     95 H1          2.3323  -25.8942  -16.5747 H         1 CYS         0.2015
     96 H2          1.0752  -26.4774  -17.4629 H         1 CYS         0.2015
     97 H3          1.5061  -27.2211  -16.0591 H         1 CYS         0.2015
     98 H4          0.9282  -25.2959  -14.7944 H         1 CYS         0.1107
     99 H5         -0.5007  -23.6096  -15.9636 H         1 CYS         0.0466
    100 H6         -0.0866  -24.3886  -17.5283 H         1 CYS         0.0466
    101 H7         -0.6654  -27.6517  -16.8980 H         1 SER         0.1885
    102 H8         -2.9809  -26.5721  -15.2808 H         1 SER         0.0823
    103 H9         -4.3049  -28.2381  -16.6226 H         1 SER         0.0606
    104 H10        -2.8005  -28.6511  -17.5132 H         1 SER         0.0606
    105 H11        -3.9979  -26.9588  -18.5089 H         1 SER         0.2097
    106 H12        -0.4063  -28.0666  -14.6266 H         1 TRP         0.1884
    107 H13        -1.4135  -30.7064  -13.8061 H         1 TRP         0.0815
    108 H14         1.0495  -31.2765  -13.7141 H         1 TRP         0.0397
    109 H15         1.3783  -29.6940  -14.4978 H         1 TRP         0.0397
    110 H16        -1.6562  -31.0600  -15.9322 H         1 TRP         0.0795
    111 H17        -1.1967  -32.1323  -18.2362 H         1 TRP         0.2216
    112 H18         3.3836  -31.2761  -15.5861 H         1 TRP         0.0540
    113 H19         1.0795  -32.9598  -19.6571 H         1 TRP         0.0541
    114 H20         4.6699  -32.3028  -17.4415 H         1 TRP         0.0510
    115 H21         3.5095  -33.1498  -19.4419 H         1 TRP         0.0530
    116 H22        -0.8968  -31.4102  -11.7737 H         1 HRG         0.1883
    117 H23        -0.4125  -29.6286   -9.6450 H         1 HRG         0.0800
    118 H24         0.5446  -31.6487   -8.5847 H         1 HRG         0.0312
    119 H25         0.6114  -32.4485  -10.1917 H         1 HRG         0.0312
    120 H26        -2.5045  -33.5393   -8.2447 H         1 HRG         0.0299
    121 H27        -1.1108  -32.7950   -7.3901 H         1 HRG         0.0299
    122 H28        -1.7213  -32.5995  -10.3553 H         1 HRG         0.0269
    123 H29        -1.9876  -31.3149   -9.1283 H         1 HRG         0.0269
    124 H30        -0.6790  -35.1741   -8.0098 H         1 HRG         0.0689
    125 H31         0.4591  -34.0395   -8.8123 H         1 HRG         0.0689
    126 H32        -0.8354  -34.2477  -10.8296 H         1 HRG         0.2642
    127 H33        -2.0814  -37.2507  -11.6160 H         1 HRG         0.2615
    128 H34        -1.3415  -35.7220  -12.1622 H         1 HRG         0.2615
    129 H35        -1.6963  -36.4212   -8.3137 H         1 HRG         0.2615
    130 H36        -2.1976  -37.6839   -9.4700 H         1 HRG         0.2615
    131 H37         1.4548  -28.8021   -8.9110 H         1 GLY         0.1881
    132 H38         3.9670  -29.3653  -10.3569 H         1 GLY         0.0763
    133 H39         3.8550  -28.8671   -8.6346 H         1 GLY         0.0763
    134 H40         1.7404  -27.4226  -11.0133 H         1 LEU         0.1883
    135 H41         3.4871  -25.0649  -10.7959 H         1 LEU         0.0800
    136 H42         2.4376  -24.2543  -12.8795 H         1 LEU         0.0315
    137 H43         1.6303  -25.8523  -13.0258 H         1 LEU         0.0315
    138 H44         3.6450  -26.9692  -13.3967 H         1 LEU         0.0298
    139 H45         4.5640  -25.7830  -15.3464 H         1 LEU         0.0232
    140 H46         3.7076  -24.2953  -14.8172 H         1 LEU         0.0232
    141 H47         2.7691  -25.7549  -15.2811 H         1 LEU         0.0232
    142 H48         5.0407  -25.9205  -11.7091 H         1 LEU         0.0232
    143 H49         5.1986  -24.4672  -12.7530 H         1 LEU         0.0232
    144 H50         5.8523  -26.0461  -13.3067 H         1 LEU         0.0232
    145 H51         1.1913  -25.9135   -9.0435 H         1 GLU         0.1883
    146 H52        -0.9134  -23.9981   -9.4219 H         1 GLU         0.0801
    147 H53        -1.0697  -24.2719   -6.8904 H         1 GLU         0.0330
    148 H54         0.3454  -25.3718   -7.0105 H         1 GLU         0.0330
    149 H55        -1.9951  -25.8452   -8.8286 H         1 GLU         0.0433
    150 H56        -2.1689  -26.2636   -7.0903 H         1 GLU         0.0433
    151 H57        -0.8902  -21.9279   -8.8773 H         1 ASN         0.1885
    152 H58        -0.0917  -19.9096   -8.1082 H         1 ASN         0.0826
    153 H59         1.3902  -21.7059   -6.1522 H         1 ASN         0.0551
    154 H60        -0.3578  -21.3140   -6.0189 H         1 ASN         0.0551
    155 H61         1.9603  -18.9692   -4.1052 H         1 ASN         0.1814
    156 H62         2.0431  -20.6888   -4.2948 H         1 ASN         0.1814
    157 H63         1.2321  -20.9684  -10.2301 H         1 HIS         0.1885
    158 H64         4.0120  -20.1556   -9.5990 H         1 HIS         0.0824
    159 H65         4.4618  -21.1234  -11.9408 H         1 HIS         0.0491
    160 H66         2.9298  -22.0154  -11.6505 H         1 HIS         0.0491
    161 H67         6.2915  -22.7132  -11.5153 H         1 HIS         0.2386
    162 H68         3.2271  -23.0050   -8.6629 H         1 HIS         0.0324
    163 H69         7.1212  -24.3062   -9.7000 H         1 HIS         0.1149
    164 H70         5.0928  -18.7816  -11.0005 H         1 ALA         0.1883
    165 H71         3.5345  -16.4181  -11.3366 H         1 ALA         0.0797
    166 H72         5.6013  -15.5027  -12.3266 H         1 ALA         0.0277
    167 H73         6.2667  -17.1653  -12.4655 H         1 ALA         0.0277
    168 H74         5.9477  -16.4580  -10.8454 H         1 ALA         0.0277
    169 H75         4.9356  -18.6846  -13.5819 H         1 ALA         0.1883
    170 H76         3.9352  -17.2720  -15.8806 H         1 ALA         0.0797
    171 H77         4.4095  -19.4381  -16.9449 H         1 ALA         0.0277
    172 H78         4.5181  -20.2372  -15.3398 H         1 ALA         0.0277
    173 H79         5.7653  -19.0430  -15.8348 H         1 ALA         0.0277
    174 H80         3.0853  -20.2758  -15.8018 H         1 CYS         0.1876
    175 H81         0.8768  -20.9715  -16.4231 H         1 CYS         0.0734
    176 H82         0.0143  -22.1004  -14.3742 H         1 CYS         0.0425
    177 H83         1.2598  -21.2288  -13.4173 H         1 CYS         0.0425
@<TRIPOS>BOND
     1    1    2 1  
     2    2    3 1  
     3    2    5 1  
     4    3    4 2  
     5    3    7 am 
     6    5    6 1  
     7    6   93 1  
     8    7    8 1  
     9    8    9 1  
    10    8   11 1  
    11    9   10 2  
    12    9   13 am 
    13   11   12 1  
    14   13   14 1  
    15   14   15 1  
    16   14   17 1  
    17   15   16 2  
    18   15   27 am 
    19   17   18 1  
    20   18   19 2  
    21   18   20 1  
    22   19   21 1  
    23   20   22 ar 
    24   20   23 ar 
    25   21   22 1  
    26   22   24 ar 
    27   23   25 ar 
    28   24   26 ar 
    29   25   26 ar 
    30   27   28 1  
    31   28   29 1  
    32   28   37 1  
    33   29   31 1  
    34   31   30 1  
    35   30   32 1  
    36   32   33 1  
    37   33   34 ar 
    38   34   35 ar 
    39   34   36 ar 
    40   37   38 2  
    41   37   39 am 
    42   39   40 1  
    43   40   41 1  
    44   41   42 2  
    45   41   43 am 
    46   43   44 1  
    47   44   45 1  
    48   44   47 1  
    49   45   46 2  
    50   45   51 am 
    51   47   48 1  
    52   48   49 1  
    53   48   50 1  
    54   51   52 1  
    55   52   53 1  
    56   52   55 1  
    57   53   54 2  
    58   53   60 am 
    59   55   56 1  
    60   56   57 1  
    61   57   58 ar 
    62   57   59 ar 
    63   60   61 1  
    64   61   62 1  
    65   61   64 1  
    66   62   63 2  
    67   62   68 am 
    68   64   65 1  
    69   65   66 2  
    70   65   67 am 
    71   68   69 1  
    72   69   70 1  
    73   69   72 1  
    74   70   71 2  
    75   70   78 am 
    76   72   73 1  
    77   73   74 1  
    78   73   75 2  
    79   74   76 1  
    80   75   77 1  
    81   76   77 2  
    82   78   79 1  
    83   79   80 1  
    84   79   82 1  
    85   80   81 2  
    86   80   83 am 
    87   83   84 1  
    88   84   85 1  
    89   84   87 1  
    90   85   86 2  
    91   85   88 am 
    92   88   89 1  
    93   89   90 1  
    94   89   92 1  
    95   90   91 ar 
    96   90   94 ar 
    97   92   93 1  
    98    1   95 1  
    99    1   96 1  
   100    1   97 1  
   101    2   98 1  
   102    5   99 1  
   103    5  100 1  
   104    7  101 1  
   105    8  102 1  
   106   11  103 1  
   107   11  104 1  
   108   12  105 1  
   109   13  106 1  
   110   14  107 1  
   111   17  108 1  
   112   17  109 1  
   113   19  110 1  
   114   21  111 1  
   115   23  112 1  
   116   24  113 1  
   117   25  114 1  
   118   26  115 1  
   119   27  116 1  
   120   28  117 1  
   121   29  118 1  
   122   29  119 1  
   123   30  120 1  
   124   30  121 1  
   125   31  122 1  
   126   31  123 1  
   127   32  124 1  
   128   32  125 1  
   129   33  126 1  
   130   35  127 1  
   131   35  128 1  
   132   36  129 1  
   133   36  130 1  
   134   39  131 1  
   135   40  132 1  
   136   40  133 1  
   137   43  134 1  
   138   44  135 1  
   139   47  136 1  
   140   47  137 1  
   141   48  138 1  
   142   49  139 1  
   143   49  140 1  
   144   49  141 1  
   145   50  142 1  
   146   50  143 1  
   147   50  144 1  
   148   51  145 1  
   149   52  146 1  
   150   55  147 1  
   151   55  148 1  
   152   56  149 1  
   153   56  150 1  
   154   60  151 1  
   155   61  152 1  
   156   64  153 1  
   157   64  154 1  
   158   67  155 1  
   159   67  156 1  
   160   68  157 1  
   161   69  158 1  
   162   72  159 1  
   163   72  160 1  
   164   74  161 1  
   165   75  162 1  
   166   76  163 1  
   167   78  164 1  
   168   79  165 1  
   169   82  166 1  
   170   82  167 1  
   171   82  168 1  
   172   83  169 1  
   173   84  170 1  
   174   87  171 1  
   175   87  172 1  
   176   87  173 1  
   177   88  174 1  
   178   89  175 1  
   179   92  176 1  
   180   92  177 1  
@<TRIPOS>SUBSTRUCTURE
     1 CYS         1

