5ih8_ligand
  -I-interpret- 

 44 47  0  0  0  0  0  0  0  0999 V2000
   -4.0610   -8.0980    2.3020 C   0  0  0  0  0
   -3.2730   -8.9690    1.6100 C   0  0  0  0  0
   -3.9930   -6.8740    1.5920 C   0  0  0  0  0
    1.6090  -10.8450   -3.5030 O   0  0  0  0  0
   -0.2720   -9.6540   -2.6460 C   0  0  0  0  0
   -1.0960   -8.5080   -2.8170 C   0  0  0  0  0
   -0.2710  -10.3080   -1.3830 C   0  0  0  0  0
   -1.9450   -8.0600   -1.7820 C   0  0  0  0  0
    0.6660  -10.0890   -3.7500 C   0  0  0  0  0
    1.2460   -9.8230   -6.1670 C   0  0  0  0  0
    0.9150  -11.1020   -6.9280 C   0  0  0  0  0
    0.5820  -12.3070   -6.2600 C   0  0  0  0  0
    0.2910  -13.4510   -7.0400 C   0  0  0  0  0
    0.3640  -13.3510   -8.4470 C   0  0  0  0  0
    0.7030  -12.1120   -9.0380 C   0  0  0  0  0
   -2.7740   -8.2660    0.5330 N   0  0  0  0  0
   -3.2230   -6.9870    0.5330 N   0  0  0  0  0
   -6.1480   -7.6080    5.4140 C   0  0  0  0  0
   -6.2070   -8.8580    5.9240 N   0  0  0  0  0
   -5.5730   -9.8640    5.2820 C   0  0  0  0  0
   -4.8440   -9.6700    4.0890 C   0  0  0  0  0
   -4.8040   -8.3600    3.5360 C   0  0  0  0  0
   -5.4460   -7.3060    4.2290 C   0  0  0  0  0
   -1.9540   -8.7330   -0.5290 C   0  0  0  0  0
   -1.0920   -9.8420   -0.3270 C   0  0  0  0  0
    0.4440   -9.5930   -4.9770 N   0  0  0  0  0
    0.9810  -11.0110   -8.2940 N   0  0  0  0  0
   -3.0765  -10.0121    1.8580 H   0  0  0  0  0
   -4.5103   -5.9604    1.8850 H   0  0  0  0  0
   -1.0718   -7.9665   -3.7627 H   0  0  0  0  0
    0.3682  -11.1768   -1.2261 H   0  0  0  0  0
   -2.5934   -7.1987   -1.9430 H   0  0  0  0  0
    1.0490   -8.9927   -6.8452 H   0  0  0  0  0
    2.2812   -9.9114   -5.8372 H   0  0  0  0  0
    0.5509  -12.3512   -5.1713 H   0  0  0  0  0
    0.0156  -14.3921   -6.5639 H   0  0  0  0  0
    0.1609  -14.2210   -9.0715 H   0  0  0  0  0
    0.7423  -12.0386  -10.1248 H   0  0  0  0  0
   -6.6625   -6.8028    5.9385 H   0  0  0  0  0
   -5.6269  -10.8678    5.7033 H   0  0  0  0  0
   -4.3271  -10.4992    3.6059 H   0  0  0  0  0
   -5.3988   -6.2833    3.8549 H   0  0  0  0  0
   -1.0616  -10.3368    0.6438 H   0  0  0  0  0
   -0.3728   -8.9919   -5.0858 H   0  0  0  0  0
  1  2  4  0  0  0
  1  3  4  0  0  0
 22  1  1  0  0  0
  2 16  4  0  0  0
  3 17  4  0  0  0
  9  4  2  0  0  0
  6  5  4  0  0  0
  5  7  4  0  0  0
  5  9  1  0  0  0
  8  6  4  0  0  0
  7 25  4  0  0  0
 24  8  4  0  0  0
  9 26  1  0  0  0
 10 11  1  0  0  0
 26 10  1  0  0  0
 11 12  4  0  0  0
 11 27  4  0  0  0
 12 13  4  0  0  0
 13 14  4  0  0  0
 15 14  4  0  0  0
 27 15  4  0  0  0
 17 16  4  0  0  0
 16 24  1  0  0  0
 19 18  4  0  0  0
 18 23  4  0  0  0
 20 19  4  0  0  0
 21 20  4  0  0  0
 21 22  4  0  0  0
 22 23  4  0  0  0
 24 25  4  0  0  0
  2 28  1  0  0  0
  3 29  1  0  0  0
  6 30  1  0  0  0
  7 31  1  0  0  0
  8 32  1  0  0  0
 10 33  1  0  0  0
 10 34  1  0  0  0
 12 35  1  0  0  0
 13 36  1  0  0  0
 14 37  1  0  0  0
 15 38  1  0  0  0
 18 39  1  0  0  0
 20 40  1  0  0  0
 21 41  1  0  0  0
 23 42  1  0  0  0
 25 43  1  0  0  0
 26 44  1  0  0  0
M  END
$$$$
