5ni5_ligand
  -I-interpret- 

 56 59  0  0  0  0  0  0  0  0999 V2000
  -24.3630   -0.8000  -16.8770 C   0  0  0  0  0
  -24.2820   -2.2740  -16.5480 C   0  0  0  0  0
  -26.7360   -3.0040  -17.3010 O   0  0  0  0  0
  -25.6250   -4.1720  -15.3800 O   0  0  0  0  0
  -26.0750   -1.6940  -13.7240 C   0  0  0  0  0
  -26.6620   -0.8420  -12.8100 C   0  0  0  0  0
  -27.7970   -0.1600  -13.1670 C   0  0  0  0  0
  -28.3090   -0.2460  -14.4470 C   0  0  0  0  0
  -27.6940   -1.0650  -15.3670 C   0  0  0  0  0
  -28.4270    0.7140  -12.1790 C   0  0  0  0  0
  -27.9940    2.0850  -12.5220 C   0  0  0  0  0
  -28.6380    4.0040  -13.8220 C   0  0  0  0  0
  -27.7410    6.1270  -14.4260 C   0  0  0  0  0
  -26.9020    7.2500  -14.4560 C   0  0  0  0  0
  -26.0740    6.5850  -16.6020 C   0  0  0  0  0
  -25.9210    9.2360  -17.4350 C   0  0  0  0  0
  -29.3810    6.4390  -16.2740 C   0  0  0  0  0
  -29.5690    7.8050  -16.3260 C   0  0  0  0  0
  -30.0300    8.3960  -17.4810 C   0  0  0  0  0
  -30.3290    7.6090  -18.5750 C   0  0  0  0  0
  -30.1840    6.2360  -18.5120 C   0  0  0  0  0
  -29.6950    5.6620  -17.3630 C   0  0  0  0  0
  -25.8750   -2.9550  -16.1330 S   0  0  0  0  0
  -26.6010   -1.8060  -14.9860 C   0  0  0  0  0
  -26.9370    2.4660  -12.1020 O   0  0  0  0  0
  -28.9130    2.7810  -13.2570 N   0  0  0  0  0
  -29.3430    4.5150  -14.7970 N   0  0  0  0  0
  -28.8380    5.7320  -15.1540 C   0  0  0  0  0
  -27.3300    4.9630  -13.2550 S   0  0  0  0  0
  -26.4840    7.7840  -13.4540 O   0  0  0  0  0
  -26.4330    7.6300  -15.7720 C   0  0  0  0  0
  -25.6430    6.8710  -17.8670 C   0  0  0  0  0
  -25.5640    8.1910  -18.2630 C   0  0  0  0  0
  -26.3740    8.9590  -16.1640 C   0  0  0  0  0
  -26.8130   10.2930  -15.1440 Cl  0  0  0  0  0
  -30.6010    5.1650  -19.8130 Cl  0  0  0  0  0
  -25.0277   -0.6551  -17.7287 H   0  0  0  0  0
  -24.7513   -0.2574  -16.0150 H   0  0  0  0  0
  -23.3682   -0.4289  -17.1236 H   0  0  0  0  0
  -23.6252   -2.3950  -15.6866 H   0  0  0  0  0
  -23.9058   -2.7987  -17.4262 H   0  0  0  0  0
  -25.1967   -2.2756  -13.4439 H   0  0  0  0  0
  -26.2292   -0.7131  -11.8180 H   0  0  0  0  0
  -29.1918    0.3292  -14.7261 H   0  0  0  0  0
  -28.0705   -1.1252  -16.3882 H   0  0  0  0  0
  -28.1302    0.4459  -11.1651 H   0  0  0  0  0
  -29.5129    0.6228  -12.2033 H   0  0  0  0  0
  -26.1334    5.5535  -16.2548 H   0  0  0  0  0
  -25.8455   10.2665  -17.7822 H   0  0  0  0  0
  -29.3521    8.4175  -15.4509 H   0  0  0  0  0
  -30.1579    9.4773  -17.5311 H   0  0  0  0  0
  -30.6821    8.0739  -19.4955 H   0  0  0  0  0
  -29.5552    4.5821  -17.3152 H   0  0  0  0  0
  -29.8398    2.3768  -13.3916 H   0  0  0  0  0
  -25.3661    6.0697  -18.5521 H   0  0  0  0  0
  -25.2062    8.4166  -19.2676 H   0  0  0  0  0
  2  1  1  0  0  0
 23  2  1  0  0  0
 23  3  2  0  0  0
 23  4  2  0  0  0
  6  5  4  0  0  0
  5 24  4  0  0  0
  7  6  4  0  0  0
  7  8  4  0  0  0
 10  7  1  0  0  0
  8  9  4  0  0  0
  9 24  4  0  0  0
 11 10  1  0  0  0
 11 25  2  0  0  0
 26 11  1  0  0  0
 12 26  1  0  0  0
 12 27  4  0  0  0
 29 12  4  0  0  0
 14 13  1  0  0  0
 13 28  4  0  0  0
 13 29  4  0  0  0
 14 30  2  0  0  0
 31 14  1  0  0  0
 31 15  4  0  0  0
 15 32  4  0  0  0
 16 33  4  0  0  0
 34 16  4  0  0  0
 17 18  4  0  0  0
 17 22  4  0  0  0
 28 17  1  0  0  0
 18 19  4  0  0  0
 19 20  4  0  0  0
 21 20  4  0  0  0
 22 21  4  0  0  0
 21 36  1  0  0  0
 24 23  1  0  0  0
 28 27  4  0  0  0
 31 34  4  0  0  0
 32 33  4  0  0  0
 34 35  1  0  0  0
  1 37  1  0  0  0
  1 38  1  0  0  0
  1 39  1  0  0  0
  2 40  1  0  0  0
  2 41  1  0  0  0
  5 42  1  0  0  0
  6 43  1  0  0  0
  8 44  1  0  0  0
  9 45  1  0  0  0
 10 46  1  0  0  0
 10 47  1  0  0  0
 15 48  1  0  0  0
 16 49  1  0  0  0
 18 50  1  0  0  0
 19 51  1  0  0  0
 20 52  1  0  0  0
 22 53  1  0  0  0
 26 54  1  0  0  0
 32 55  1  0  0  0
 33 56  1  0  0  0
M  END
$$$$
