4jdf_ligand
  -I-interpret- 

 29 28  0  0  0  0  0  0  0  0999 V2000
    3.5370    6.1830  -10.3300 N   0  0  0  0  0
    2.6990    5.3560   -9.5050 C   0  0  0  0  0
    2.6390    3.8990   -9.8060 C   0  0  0  0  0
    1.7850    3.0540   -8.9200 C   0  0  0  0  0
    1.6370    1.6100   -9.2650 C   0  0  0  0  0
    1.3400    0.6850   -8.2100 N   0  3  0  0  0
    0.7160   -0.5010   -8.7170 C   0  0  0  0  0
    1.5140   -1.3870   -9.6090 C   0  0  0  0  0
    0.9020   -2.6920   -9.9970 C   0  0  0  0  0
    0.5270   -3.5710   -8.9180 N   0  3  0  0  0
    4.0684    5.7677  -11.0952 H   0  0  0  0  0
    3.6002    7.1850  -10.1501 H   0  0  0  0  0
    2.1243    5.7831   -8.6831 H   0  0  0  0  0
    3.1952    3.4676  -10.6382 H   0  0  0  0  0
    0.7824    3.4748   -8.9959 H   0  0  0  0  0
    2.2721    3.0711   -7.9451 H   0  0  0  0  0
    2.6115    1.3055   -9.6468 H   0  0  0  0  0
    0.7801    1.5626   -9.9370 H   0  0  0  0  0
    0.6996    1.1341   -7.5554 H   0  0  0  0  0
    2.2134    0.4223   -7.7534 H   0  0  0  0  0
   -0.1157   -0.1504   -9.3281 H   0  0  0  0  0
    0.4889   -1.1053   -7.8387 H   0  0  0  0  0
    2.4152   -1.6371   -9.0492 H   0  0  0  0  0
    1.6438   -0.8325  -10.5384 H   0  0  0  0  0
    1.6616   -3.2237  -10.5700 H   0  0  0  0  0
   -0.0209   -2.4485  -10.5233 H   0  0  0  0  0
    0.1228   -4.4252   -9.3018 H   0  0  0  0  0
    1.3534   -3.8023   -8.3667 H   0  0  0  0  0
   -0.1596   -3.1053   -8.3247 H   0  0  0  0  0
  1  2  1  0  0  0
  2  3  2  0  0  0
  3  4  1  0  0  0
  4  5  1  0  0  0
  5  6  1  0  0  0
  6  7  1  0  0  0
  7  8  1  0  0  0
  8  9  1  0  0  0
  9 10  1  0  0  0
  1 11  1  0  0  0
  1 12  1  0  0  0
  2 13  1  0  0  0
  3 14  1  0  0  0
  4 15  1  0  0  0
  4 16  1  0  0  0
  5 17  1  0  0  0
  5 18  1  0  0  0
  6 19  1  0  0  0
  6 20  1  0  0  0
  7 21  1  0  0  0
  7 22  1  0  0  0
  8 23  1  0  0  0
  8 24  1  0  0  0
  9 25  1  0  0  0
  9 26  1  0  0  0
 10 27  1  0  0  0
 10 28  1  0  0  0
 10 29  1  0  0  0
M  END
$$$$
