2h9p_ligand
  -I-interpret- 

 61 60  0  0  0  0  0  0  0  0999 V2000
  -28.0880   21.6430    8.6720 N   0  3  0  0  0
  -27.4940   20.6720    7.6830 C   0  0  0  0  0
  -26.0110   20.9460    7.4560 C   0  0  0  0  0
  -25.2100   19.9990    7.3840 O   0  0  0  0  0
  -28.2380   20.6970    6.3350 C   0  0  0  0  0
  -25.6540   22.2320    7.3380 N   0  0  0  0  0
  -24.2510   22.6780    7.2060 C   0  0  0  0  0
  -23.3270   21.9530    8.1870 C   0  0  0  0  0
  -22.1840   21.5890    7.8750 O   0  0  0  0  0
  -24.1560   24.1940    7.4520 C   0  0  0  0  0
  -22.8120   24.7880    7.1120 C   0  0  0  0  0
  -22.7810   26.2760    7.3220 C   0  0  0  0  0
  -23.6150   27.0360    6.3730 N   0  0  0  0  0
  -23.1740   27.5350    5.2230 C   0  0  0  0  0
  -23.9970   28.2350    4.4300 N   0  0  0  0  0
  -21.9020   27.3270    4.8540 N   0  0  0  0  0
  -23.8560   21.7390    9.3810 N   0  0  0  0  0
  -23.1180   21.1690   10.4940 C   0  0  0  0  0
  -22.9960   19.6360   10.4010 C   0  0  0  0  0
  -22.4570   18.9860   11.3190 O   0  0  0  0  0
  -23.7970   21.5750   11.8150 C   0  0  0  0  0
  -25.0750   20.9350   11.9060 O   0  0  0  0  0
  -23.9640   23.1200   11.8870 C   0  0  0  0  0
  -23.5030   19.0690    9.3030 N   0  0  0  0  0
  -23.3600   17.6250    9.0230 C   0  0  0  0  0
  -24.7110   16.9270    8.8570 C   0  0  0  0  0
  -22.5100   17.3950    7.7990 C   0  0  0  0  0
  -22.5800   18.1620    6.8220 O   0  0  0  0  0
  -21.6756   16.3599    7.7634 O   0  0  0  0  0
  -29.0777   21.4326    8.8007 H   0  0  0  0  0
  -27.6021   21.5571    9.5647 H   0  0  0  0  0
  -27.9846   22.5937    8.3173 H   0  0  0  0  0
  -27.6067   19.6791    8.1185 H   0  0  0  0  0
  -28.1173   21.6768    5.8730 H   0  0  0  0  0
  -27.8244   19.9311    5.6789 H   0  0  0  0  0
  -29.2971   20.5008    6.5023 H   0  0  0  0  0
  -26.3884   22.9399    7.3393 H   0  0  0  0  0
  -23.9281   22.4393    6.1927 H   0  0  0  0  0
  -24.3227   24.3598    8.5163 H   0  0  0  0  0
  -24.8933   24.6728    6.8076 H   0  0  0  0  0
  -22.6092   24.5892    6.0596 H   0  0  0  0  0
  -22.0660   24.3370    7.7663 H   0  0  0  0  0
  -21.7506   26.6005    7.1770 H   0  0  0  0  0
  -23.1724   26.4687    8.3209 H   0  0  0  0  0
  -24.5941   27.1887    6.6149 H   0  0  0  0  0
  -24.9665   28.3867    4.7082 H   0  0  0  0  0
  -21.5599   27.7016    3.9691 H   0  0  0  0  0
  -21.2763   26.7941    5.4582 H   0  0  0  0  0
  -24.8343   21.9877    9.5272 H   0  0  0  0  0
  -22.1028   21.5643   10.4578 H   0  0  0  0  0
  -23.1727   21.2592   12.6509 H   0  0  0  0  0
  -25.4999   21.1870   12.7291 H   0  0  0  0  0
  -22.9836   23.5931   11.8312 H   0  0  0  0  0
  -24.5794   23.4569   11.0528 H   0  0  0  0  0
  -24.4455   23.3887   12.8272 H   0  0  0  0  0
  -24.0062   19.6527    8.6348 H   0  0  0  0  0
  -22.8659   17.1878    9.8906 H   0  0  0  0  0
  -25.2905   17.0371    9.7736 H   0  0  0  0  0
  -25.2528   17.3797    8.0265 H   0  0  0  0  0
  -24.5490   15.8686    8.6530 H   0  0  0  0  0
  -21.7398   15.8701    8.5866 H   0  0  0  0  0
  2  1  1  0  0  0
  2  5  1  0  0  0
  3  2  1  0  0  0
  3  4  2  0  0  0
  7  6  1  0  0  0
  7 10  1  0  0  0
  8  7  1  0  0  0
  8  9  2  0  0  0
 10 11  1  0  0  0
 11 12  1  0  0  0
 12 13  1  0  0  0
 13 14  1  0  0  0
 14 16  1  0  0  0
 14 15  2  0  0  0
  6  3  1  0  0  0
 18 17  1  0  0  0
 18 21  1  0  0  0
 19 18  1  0  0  0
 19 20  2  0  0  0
 21 23  1  0  0  0
 21 22  1  0  0  0
 17  8  1  0  0  0
 24 25  1  0  0  0
 25 26  1  0  0  0
 25 27  1  0  0  0
 27 28  2  0  0  0
 19 24  1  0  0  0
 27 29  1  0  0  0
  1 30  1  0  0  0
  1 31  1  0  0  0
  1 32  1  0  0  0
  2 33  1  0  0  0
  5 34  1  0  0  0
  5 35  1  0  0  0
  5 36  1  0  0  0
  6 37  1  0  0  0
  7 38  1  0  0  0
 10 39  1  0  0  0
 10 40  1  0  0  0
 11 41  1  0  0  0
 11 42  1  0  0  0
 12 43  1  0  0  0
 12 44  1  0  0  0
 13 45  1  0  0  0
 15 46  1  0  0  0
 16 47  1  0  0  0
 16 48  1  0  0  0
 17 49  1  0  0  0
 18 50  1  0  0  0
 21 51  1  0  0  0
 22 52  1  0  0  0
 23 53  1  0  0  0
 23 54  1  0  0  0
 23 55  1  0  0  0
 24 56  1  0  0  0
 25 57  1  0  0  0
 26 58  1  0  0  0
 26 59  1  0  0  0
 26 60  1  0  0  0
 29 61  1  0  0  0
M  END
$$$$
