2ay4_ligand
  -I-interpret- 

 24 24  0  0  0  0  0  0  0  0999 V2000
  103.4200   46.1910   11.9400 C   0  0  0  0  0
  102.9880   47.1070   13.0690 C   0  0  0  0  0
  103.3660   46.8430   14.2270 O   0  0  0  0  0
  102.2590   48.0890   12.8100 O   0  0  0  0  0
  102.3090   45.9170   10.9250 C   0  0  0  0  0
  101.2300   44.9780   11.4230 C   0  0  0  0  0
  101.0550   43.7260   10.8390 C   0  0  0  0  0
  100.3730   45.3580   12.4490 C   0  0  0  0  0
  100.0430   42.8790   11.2700 C   0  0  0  0  0
   99.3640   44.5150   12.8790 C   0  0  0  0  0
   99.1840   43.2680   12.2940 C   0  0  0  0  0
   98.0570   42.3740   12.7330 C   0  0  0  0  0
  103.7060   45.2363   12.3813 H   0  0  0  0  0
  104.2361   46.6827   11.4106 H   0  0  0  0  0
  102.0828   48.1154   11.8667 H   0  0  0  0  0
  102.7734   45.4431   10.0603 H   0  0  0  0  0
  101.8294   46.8715   10.7080 H   0  0  0  0  0
  101.7192   43.4079   10.0355 H   0  0  0  0  0
  100.4975   46.3327   12.9209 H   0  0  0  0  0
   99.9201   41.9018   10.8030 H   0  0  0  0  0
   98.7031   44.8327   13.6855 H   0  0  0  0  0
   97.3883   42.1944   11.8911 H   0  0  0  0  0
   98.4631   41.4256   13.0848 H   0  0  0  0  0
   97.5056   42.8563   13.5401 H   0  0  0  0  0
  1  2  1  0  0  0
  1  5  1  0  0  0
  2  3  2  0  0  0
  2  4  1  0  0  0
  5  6  1  0  0  0
  6  7  4  0  0  0
  6  8  4  0  0  0
  7  9  4  0  0  0
  8 10  4  0  0  0
  9 11  4  0  0  0
 10 11  4  0  0  0
 11 12  1  0  0  0
  1 13  1  0  0  0
  1 14  1  0  0  0
  4 15  1  0  0  0
  5 16  1  0  0  0
  5 17  1  0  0  0
  7 18  1  0  0  0
  8 19  1  0  0  0
  9 20  1  0  0  0
 10 21  1  0  0  0
 12 22  1  0  0  0
 12 23  1  0  0  0
 12 24  1  0  0  0
M  END
$$$$
