6k9u_ligand
  -I-interpret- 

 62 67  0  0  0  0  0  0  0  0999 V2000
   15.5050   13.3050   18.7540 C   0  0  0  0  0
   14.7570   14.6090   18.6690 C   0  0  0  0  0
   14.6700   15.4130   19.7920 C   0  0  0  0  0
   13.9950   16.6210   19.7460 C   0  0  0  0  0
   13.3950   17.0140   18.5710 C   0  0  0  0  0
   12.7240   18.2190   18.5260 N   0  0  0  0  0
   12.1360   18.6320   17.3430 C   0  0  0  0  0
   11.4070   19.9670   17.3810 C   0  0  0  0  0
   14.1660   15.0020   17.4780 C   0  0  0  0  0
   13.4890   16.2070   17.4380 C   0  0  0  0  0
   12.9080   16.6120   16.2630 N   0  0  0  0  0
   12.2450   17.8210   16.2020 C   0  0  0  0  0
   11.5720   18.2110   14.9340 C   0  0  0  0  0
   10.7710   17.3180   14.2720 C   0  0  0  0  0
   10.2800   17.9510   13.1770 C   0  0  0  0  0
    9.4250   17.4980   12.1990 N   0  0  0  0  0
    9.0940   18.4170   11.2080 C   0  0  0  0  0
    8.2130   18.0320   10.1810 N   0  0  0  0  0
    7.7450   16.6670    9.9520 C   0  0  0  0  0
    6.7080   16.7080    8.8440 C   0  0  0  0  0
    6.3910   18.1680    8.6110 C   0  0  0  0  0
    7.5730   18.9210    9.1900 C   0  0  0  0  0
    9.6100   19.7130   11.2310 C   0  0  0  0  0
   10.4570   20.1020   12.2750 C   0  0  0  0  0
   10.7700   19.2080   13.2270 N   0  0  0  0  0
   11.5360   19.3750   14.2410 N   0  0  0  0  0
   11.0330   21.3790   12.3460 N   0  0  0  0  0
   10.9750   22.4910   11.3840 C   0  0  0  0  0
   12.3390   23.2280   11.3960 C   0  0  0  0  0
   12.2770   24.6930   10.9270 C   0  0  0  0  0
   11.1070   25.3950   11.3600 O   0  0  0  0  0
    9.9010   24.7330   10.9950 C   0  0  0  0  0
    9.8150   23.4150   11.7780 C   0  0  0  0  0
   16.5414   13.4994   19.0298 H   0  0  0  0  0
   15.0402   12.6695   19.5077 H   0  0  0  0  0
   15.4729   12.8054   17.7857 H   0  0  0  0  0
   15.1378   15.0918   20.7226 H   0  0  0  0  0
   13.9392   17.2545   20.6313 H   0  0  0  0  0
   10.6026   19.9195   18.1151 H   0  0  0  0  0
   12.1078   20.7544   17.6584 H   0  0  0  0  0
   10.9902   20.1801   16.3966 H   0  0  0  0  0
   14.2337   14.3732   16.5903 H   0  0  0  0  0
   10.5662   16.2897   14.5698 H   0  0  0  0  0
    7.3070   16.2605   10.8636 H   0  0  0  0  0
    8.5784   16.0257    9.6651 H   0  0  0  0  0
    5.8129   16.1531    9.1249 H   0  0  0  0  0
    7.0871   16.2399    7.9355 H   0  0  0  0  0
    5.4538   18.4594    9.0851 H   0  0  0  0  0
    6.2501   18.3878    7.5527 H   0  0  0  0  0
    8.2785   19.1914    8.4043 H   0  0  0  0  0
    7.2449   19.8478    9.6606 H   0  0  0  0  0
    9.3549   20.4186   10.4403 H   0  0  0  0  0
   11.5730   21.5646   13.1912 H   0  0  0  0  0
   10.7947   22.1354   10.3695 H   0  0  0  0  0
   12.9937   22.6988   10.7036 H   0  0  0  0  0
   12.6871   23.2381   12.4289 H   0  0  0  0  0
   12.2627   24.6829    9.8371 H   0  0  0  0  0
   13.1383   25.2059   11.3551 H   0  0  0  0  0
    9.8959   24.5313    9.9238 H   0  0  0  0  0
    9.0436   25.3634   11.2308 H   0  0  0  0  0
    9.8743   23.6284   12.8453 H   0  0  0  0  0
    8.8707   22.9223   11.5465 H   0  0  0  0  0
  1  2  1  0  0  0
  2  3  4  0  0  0
  2  9  4  0  0  0
  3  4  4  0  0  0
  4  5  4  0  0  0
  5  6  4  0  0  0
  5 10  4  0  0  0
  6  7  4  0  0  0
  7  8  1  0  0  0
  7 12  4  0  0  0
  9 10  4  0  0  0
 10 11  4  0  0  0
 11 12  4  0  0  0
 12 13  1  0  0  0
 13 14  4  0  0  0
 13 26  4  0  0  0
 14 15  4  0  0  0
 15 16  4  0  0  0
 15 25  4  0  0  0
 16 17  4  0  0  0
 17 18  1  0  0  0
 17 23  4  0  0  0
 18 19  1  0  0  0
 18 22  1  0  0  0
 19 20  1  0  0  0
 20 21  1  0  0  0
 21 22  1  0  0  0
 23 24  4  0  0  0
 24 25  4  0  0  0
 24 27  1  0  0  0
 25 26  4  0  0  0
 27 28  1  0  0  0
 28 29  1  0  0  0
 28 33  1  0  0  0
 29 30  1  0  0  0
 30 31  1  0  0  0
 31 32  1  0  0  0
 32 33  1  0  0  0
  1 34  1  0  0  0
  1 35  1  0  0  0
  1 36  1  0  0  0
  3 37  1  0  0  0
  4 38  1  0  0  0
  8 39  1  0  0  0
  8 40  1  0  0  0
  8 41  1  0  0  0
  9 42  1  0  0  0
 14 43  1  0  0  0
 19 44  1  0  0  0
 19 45  1  0  0  0
 20 46  1  0  0  0
 20 47  1  0  0  0
 21 48  1  0  0  0
 21 49  1  0  0  0
 22 50  1  0  0  0
 22 51  1  0  0  0
 23 52  1  0  0  0
 27 53  1  0  0  0
 28 54  1  0  0  0
 29 55  1  0  0  0
 29 56  1  0  0  0
 30 57  1  0  0  0
 30 58  1  0  0  0
 32 59  1  0  0  0
 32 60  1  0  0  0
 33 61  1  0  0  0
 33 62  1  0  0  0
M  END
$$$$
