4j08_ligand
  -I-interpret- 

 44 46  0  0  0  0  0  0  0  0999 V2000
  -27.6580   48.8680   55.8320 C   0  0  0  0  0
  -28.0590   48.8810   54.4670 C   0  0  0  0  0
  -27.8930   50.0510   53.6660 C   0  0  0  0  0
  -27.3060   51.2210   54.2500 C   0  0  0  0  0
  -26.9000   51.2180   55.6190 C   0  0  0  0  0
  -27.0770   50.0330   56.4030 C   0  0  0  0  0
  -26.5850   50.0120   58.1270 S   0  0  0  0  0
  -26.4910   51.4050   58.5560 O   0  0  0  0  0
  -27.5780   49.1630   58.7850 O   0  0  0  0  0
  -25.0570   49.1760   58.1960 N   0  0  0  0  0
  -23.8400   49.7330   57.5790 C   0  0  0  0  0
  -22.9880   48.9270   56.7230 C   0  0  0  0  0
  -21.8250   49.5050   56.1420 C   0  0  0  0  0
  -21.4730   50.8570   56.3860 C   0  0  0  0  0
  -22.3080   51.6470   57.2370 C   0  0  0  0  0
  -23.4760   51.0890   57.8240 C   0  0  0  0  0
  -23.3250   47.5320   56.4600 C   0  0  0  0  0
  -22.3270   46.8260   55.8740 O   0  0  0  0  0
  -24.4000   47.0270   56.7470 O   0  0  0  0  0
  -20.3080   51.2410   55.7410 O   0  0  0  0  0
  -20.4490   52.3520   54.7950 C   0  0  0  0  0
  -21.6420   52.5330   53.9860 C   0  0  0  0  0
  -21.7280   53.6320   53.0700 C   0  0  0  0  0
  -20.6260   54.5590   52.9500 C   0  0  0  0  0
  -19.4410   54.3860   53.7480 C   0  0  0  0  0
  -19.3530   53.2870   54.6670 C   0  0  0  0  0
  -28.3260   50.0470   52.2250 C   0  0  0  0  0
  -27.7953   47.9709   56.4358 H   0  0  0  0  0
  -28.4987   47.9859   54.0270 H   0  0  0  0  0
  -27.1688   52.1178   53.6459 H   0  0  0  0  0
  -26.4591   52.1103   56.0634 H   0  0  0  0  0
  -25.0038   48.2776   58.6761 H   0  0  0  0  0
  -21.1918   48.8965   55.4964 H   0  0  0  0  0
  -22.0464   52.6860   57.4371 H   0  0  0  0  0
  -24.1012   51.7058   58.4696 H   0  0  0  0  0
  -21.5710   47.4004   55.7318 H   0  0  0  0  0
  -22.4723   51.8325   54.0757 H   0  0  0  0  0
  -22.6239   53.7684   52.4644 H   0  0  0  0  0
  -20.6926   55.3933   52.2517 H   0  0  0  0  0
  -18.6123   55.0879   53.6547 H   0  0  0  0  0
  -18.4555   53.1564   55.2716 H   0  0  0  0  0
  -27.7757   49.2774   51.6837 H   0  0  0  0  0
  -29.3945   49.8390   52.1686 H   0  0  0  0  0
  -28.1204   51.0217   51.7825 H   0  0  0  0  0
  1  2  4  0  0  0
  1  6  4  0  0  0
  2  3  4  0  0  0
  3  4  4  0  0  0
  3 27  1  0  0  0
  4  5  4  0  0  0
  5  6  4  0  0  0
  6  7  1  0  0  0
  7  8  2  0  0  0
  7  9  2  0  0  0
  7 10  1  0  0  0
 10 11  1  0  0  0
 11 12  4  0  0  0
 11 16  4  0  0  0
 12 13  4  0  0  0
 12 17  1  0  0  0
 13 14  4  0  0  0
 14 15  4  0  0  0
 14 20  1  0  0  0
 15 16  4  0  0  0
 17 18  1  0  0  0
 17 19  2  0  0  0
 20 21  1  0  0  0
 21 22  4  0  0  0
 21 26  4  0  0  0
 22 23  4  0  0  0
 23 24  4  0  0  0
 24 25  4  0  0  0
 25 26  4  0  0  0
  1 28  1  0  0  0
  2 29  1  0  0  0
  4 30  1  0  0  0
  5 31  1  0  0  0
 10 32  1  0  0  0
 13 33  1  0  0  0
 15 34  1  0  0  0
 16 35  1  0  0  0
 18 36  1  0  0  0
 22 37  1  0  0  0
 23 38  1  0  0  0
 24 39  1  0  0  0
 25 40  1  0  0  0
 26 41  1  0  0  0
 27 42  1  0  0  0
 27 43  1  0  0  0
 27 44  1  0  0  0
M  END
$$$$
