1tmn_ligand
  -I-interpret- 

 68 70  0  0  0  0  0  0  0  0999 V2000
   51.6340   18.0880   -5.7220 C   0  0  0  0  0
   50.3130   18.1120   -6.5120 C   0  0  0  0  0
   49.8520   16.6610   -6.7000 C   0  0  0  0  0
   48.5260   16.4110   -7.4500 C   0  0  0  0  0
   48.5000   16.3550   -8.8380 C   0  0  0  0  0
   47.3940   16.1190   -6.7300 C   0  0  0  0  0
   47.3130   16.0460   -9.5300 C   0  0  0  0  0
   46.1950   15.8210   -7.4020 C   0  0  0  0  0
   46.1420   15.7920   -8.8100 C   0  0  0  0  0
   52.5090   19.0800   -6.4520 C   0  0  0  0  0
   53.3270   18.7000   -7.3160 O   0  0  0  0  0
   52.3300   20.2880   -6.2750 O   0  0  0  0  0
   51.5380   18.2350   -4.2180 N   0  3  0  0  0
   52.8370   18.1030   -3.5130 C   0  0  0  0  0
   53.6810   16.8680   -3.8590 C   0  0  0  0  0
   54.9390   16.9380   -3.9590 O   0  0  0  0  0
   52.5980   18.0910   -2.0020 C   0  0  0  0  0
   53.9410   18.2290   -1.3100 C   0  0  0  0  0
   54.6280   19.5270   -1.7280 C   0  0  0  0  0
   53.6860   18.1710    0.1900 C   0  0  0  0  0
   52.9520   15.7650   -3.9830 N   0  0  0  0  0
   53.5300   14.4480   -4.2980 C   0  0  0  0  0
   52.6430   13.5310   -5.1330 C   0  0  0  0  0
   51.5720   14.0270   -5.6050 O   0  0  0  0  0
   54.1010   13.7350   -3.0370 C   0  0  0  0  0
   52.9430   13.2580   -2.1640 C   0  0  0  0  0
   51.8320   13.9080   -1.8230 C   0  0  0  0  0
   52.7980   11.9770   -1.6420 C   0  0  0  0  0
   50.8920   12.9890   -1.3140 N   0  0  0  0  0
   51.4420   11.8400   -1.2860 C   0  0  0  0  0
   53.7230   10.9460   -1.4800 C   0  0  0  0  0
   50.9040   10.6380   -0.8550 C   0  0  0  0  0
   53.2130    9.7410   -0.9640 C   0  0  0  0  0
   51.8310    9.5840   -0.6900 C   0  0  0  0  0
   53.1420   12.4690   -5.6520 O   0  0  0  0  0
   52.0772   17.0922   -5.7180 H   0  0  0  0  0
   50.4600   18.5906   -7.4802 H   0  0  0  0  0
   49.5582   18.6814   -5.9696 H   0  0  0  0  0
   49.6905   16.2769   -5.6928 H   0  0  0  0  0
   50.6222   16.1906   -7.3113 H   0  0  0  0  0
   49.4126   16.5533   -9.4001 H   0  0  0  0  0
   47.4245   16.1181   -5.6404 H   0  0  0  0  0
   47.3074   16.0052  -10.6192 H   0  0  0  0  0
   45.2942   15.6095   -6.8258 H   0  0  0  0  0
   45.2071   15.5759   -9.3270 H   0  0  0  0  0
   53.3515   17.7404   -7.3317 H   0  0  0  0  0
   51.1852   19.1730   -4.0281 H   0  0  0  0  0
   50.9332   17.4867   -3.8794 H   0  0  0  0  0
   53.4109   18.9643   -3.8550 H   0  0  0  0  0
   52.1172   17.1588   -1.7056 H   0  0  0  0  0
   51.9436   18.9155   -1.7191 H   0  0  0  0  0
   54.6157   17.4220   -1.5957 H   0  0  0  0  0
   54.7839   19.5230   -2.8068 H   0  0  0  0  0
   53.9992   20.3740   -1.4536 H   0  0  0  0  0
   55.5895   19.6073   -1.2209 H   0  0  0  0  0
   53.0221   18.9867    0.4762 H   0  0  0  0  0
   53.2216   17.2175    0.4417 H   0  0  0  0  0
   54.6324   18.2674    0.7221 H   0  0  0  0  0
   51.9425   15.8335   -3.8537 H   0  0  0  0  0
   54.3690   14.6756   -4.9555 H   0  0  0  0  0
   54.7225   14.4305   -2.4730 H   0  0  0  0  0
   54.7060   12.8810   -3.3416 H   0  0  0  0  0
   51.6742   14.9820   -1.9219 H   0  0  0  0  0
   54.7754   11.0664   -1.7372 H   0  0  0  0  0
   49.8394   10.5139   -0.6569 H   0  0  0  0  0
   53.8936    8.9118   -0.7711 H   0  0  0  0  0
   51.4708    8.6167   -0.3399 H   0  0  0  0  0
   53.9437   12.2302   -5.1809 H   0  0  0  0  0
 13 14  1  0  0  0
 14 17  1  0  0  0
 14 15  1  0  0  0
 15 16  2  0  0  0
 17 18  1  0  0  0
 18 19  1  0  0  0
 18 20  1  0  0  0
 21 22  1  0  0  0
 22 25  1  0  0  0
 22 23  1  0  0  0
 23 24  2  0  0  0
 23 35  1  0  0  0
 25 26  1  0  0  0
 26 27  4  0  0  0
 26 28  4  0  0  0
 28 31  4  0  0  0
 28 30  4  0  0  0
 30 32  4  0  0  0
 30 29  4  0  0  0
 27 29  4  0  0  0
 32 34  4  0  0  0
 33 34  4  0  0  0
 31 33  4  0  0  0
 15 21  1  0  0  0
  1  2  1  0  0  0
  1 10  1  0  0  0
  1 13  1  0  0  0
  2  3  1  0  0  0
  3  4  1  0  0  0
  4  5  4  0  0  0
  4  6  4  0  0  0
  5  7  4  0  0  0
  6  8  4  0  0  0
  7  9  4  0  0  0
  8  9  4  0  0  0
 10 11  1  0  0  0
 10 12  2  0  0  0
  1 36  1  0  0  0
  2 37  1  0  0  0
  2 38  1  0  0  0
  3 39  1  0  0  0
  3 40  1  0  0  0
  5 41  1  0  0  0
  6 42  1  0  0  0
  7 43  1  0  0  0
  8 44  1  0  0  0
  9 45  1  0  0  0
 11 46  1  0  0  0
 13 47  1  0  0  0
 13 48  1  0  0  0
 14 49  1  0  0  0
 17 50  1  0  0  0
 17 51  1  0  0  0
 18 52  1  0  0  0
 19 53  1  0  0  0
 19 54  1  0  0  0
 19 55  1  0  0  0
 20 56  1  0  0  0
 20 57  1  0  0  0
 20 58  1  0  0  0
 21 59  1  0  0  0
 22 60  1  0  0  0
 25 61  1  0  0  0
 25 62  1  0  0  0
 27 63  1  0  0  0
 31 64  1  0  0  0
 32 65  1  0  0  0
 33 66  1  0  0  0
 34 67  1  0  0  0
 35 68  1  0  0  0
M  END
$$$$
