6ajv_ligand
  -I-interpret- 

 33 34  0  0  0  0  0  0  0  0999 V2000
   -5.4600    8.6560    3.6450 C   0  0  0  0  0
   -5.2660    8.1830    2.3440 C   0  0  0  0  0
   -6.3480    7.7840    1.5580 C   0  0  0  0  0
   -7.6350    7.8480    2.0860 C   0  0  0  0  0
   -7.8120    8.3390    3.3830 C   0  0  0  0  0
   -6.7440    8.7390    4.1700 C   0  0  0  0  0
   -8.7510    7.4960    1.3310 C   0  0  0  0  0
   -8.5550    7.3110   -0.1710 C   0  0  0  0  0
   -9.8820    7.0570   -0.8880 C   0  0  0  0  0
   -9.0870    8.4010    3.8420 O   0  0  0  0  0
   -9.8720    6.8690   -2.2700 C   0  0  0  0  0
  -11.0430    7.1350   -2.9720 C   0  0  0  0  0
  -11.0830    6.9580   -4.3540 C   0  0  0  0  0
   -9.9510    6.5140   -5.0330 C   0  0  0  0  0
   -8.7800    6.2450   -4.3330 C   0  0  0  0  0
   -8.7400    6.4320   -2.9530 C   0  0  0  0  0
   -9.8800    7.4480    1.8200 O   0  0  0  0  0
   -9.9890    6.3380   -6.3830 O   0  0  0  0  0
   -4.4070    9.0430    4.4130 O   0  0  0  0  0
   -4.2561    8.1250    1.9380 H   0  0  0  0  0
   -6.1873    7.4259    0.5411 H   0  0  0  0  0
   -6.9078    9.1115    5.1812 H   0  0  0  0  0
   -7.9086    6.4477   -0.3291 H   0  0  0  0  0
   -8.1157    8.2232   -0.5748 H   0  0  0  0  0
  -10.4671    7.9629   -0.7298 H   0  0  0  0  0
  -10.2503    6.1170   -0.4771 H   0  0  0  0  0
   -9.0874    8.7507    4.7361 H   0  0  0  0  0
  -11.9296    7.4819   -2.4412 H   0  0  0  0  0
  -12.0008    7.1672   -4.9036 H   0  0  0  0  0
   -7.8962    5.8890   -4.8623 H   0  0  0  0  0
   -7.8183    6.2353   -2.4054 H   0  0  0  0  0
   -9.1324    6.0309   -6.6888 H   0  0  0  0  0
   -4.7275    9.3364    5.2690 H   0  0  0  0  0
  1  2  4  0  0  0
  1  6  4  0  0  0
  1 19  1  0  0  0
  2  3  4  0  0  0
  3  4  4  0  0  0
  4  5  4  0  0  0
  4  7  1  0  0  0
  5  6  4  0  0  0
  5 10  1  0  0  0
  7  8  1  0  0  0
  7 17  2  0  0  0
  8  9  1  0  0  0
  9 11  1  0  0  0
 11 12  4  0  0  0
 11 16  4  0  0  0
 12 13  4  0  0  0
 13 14  4  0  0  0
 14 15  4  0  0  0
 14 18  1  0  0  0
 15 16  4  0  0  0
  2 20  1  0  0  0
  3 21  1  0  0  0
  6 22  1  0  0  0
  8 23  1  0  0  0
  8 24  1  0  0  0
  9 25  1  0  0  0
  9 26  1  0  0  0
 10 27  1  0  0  0
 12 28  1  0  0  0
 13 29  1  0  0  0
 15 30  1  0  0  0
 16 31  1  0  0  0
 18 32  1  0  0  0
 19 33  1  0  0  0
M  END
$$$$
