3gus_ligand
  -I-interpret- 

 35 36  0  0  0  0  0  0  0  0999 V2000
    1.9180    6.1580   32.8910 O   0  0  0  0  0
    2.4840    5.1660   32.0260 C   0  0  0  0  0
    3.9230    5.5470   31.6970 C   0  0  0  0  0
    4.5510    4.5520   30.7290 C   0  0  0  0  0
    5.5370    3.6440   31.4530 C   0  0  0  0  0
    6.5650    3.0720   30.4850 C   0  0  0  0  0
    6.3030    1.5950   30.2080 C   0  0  0  0  0
    7.5060    0.9370   29.0960 S   0  0  0  0  0
    7.6960    1.8900   27.7030 C   0  0  0  0  0
    6.5560    2.6660   27.1260 C   0  0  0  0  0
    5.2580    2.8150   27.4830 N   0  0  0  0  0
    4.7190    3.7060   26.5020 O   0  0  0  0  0
    5.6770    4.1200   25.5270 N   0  0  0  0  0
    6.8150    3.4890   25.9030 C   0  0  0  0  0
    8.9470    1.9380   27.0910 C   0  0  0  0  0
    9.1770    2.6950   25.9390 C   0  0  0  0  0
    8.1850    3.4670   25.3270 C   0  0  0  0  0
    8.4670    4.2280   24.1820 N   0  0  0  0  0
    7.4850    5.0590   23.6390 O   0  0  0  0  0
    9.7300    4.1720   23.5950 O   0  0  0  0  0
    1.0117    5.9198   33.0993 H   0  0  0  0  0
    1.9021    5.1088   31.1061 H   0  0  0  0  0
    2.4677    4.1960   32.5230 H   0  0  0  0  0
    4.5022    5.5459   32.6204 H   0  0  0  0  0
    3.9234    6.5323   31.2309 H   0  0  0  0  0
    5.0837    5.1031   29.9540 H   0  0  0  0  0
    3.7621    3.9387   30.2935 H   0  0  0  0  0
    4.9858    2.8194   31.9051 H   0  0  0  0  0
    6.0581    4.2281   32.2115 H   0  0  0  0  0
    7.5546    3.1714   30.9309 H   0  0  0  0  0
    6.4981    3.6188   29.5445 H   0  0  0  0  0
    5.3164    1.4936   29.7559 H   0  0  0  0  0
    6.3597    1.0473   31.1487 H   0  0  0  0  0
    9.7699    1.3687   27.5233 H   0  0  0  0  0
   10.1738    2.6830   25.4982 H   0  0  0  0  0
  1  2  1  0  0  0
  2  3  1  0  0  0
  3  4  1  0  0  0
  4  5  1  0  0  0
  5  6  1  0  0  0
  6  7  1  0  0  0
  7  8  1  0  0  0
  8  9  1  0  0  0
  9 10  4  0  0  0
  9 15  4  0  0  0
 10 11  4  0  0  0
 10 14  4  0  0  0
 11 12  4  0  0  0
 12 13  4  0  0  0
 13 14  4  0  0  0
 14 17  4  0  0  0
 15 16  4  0  0  0
 16 17  4  0  0  0
 17 18  1  0  0  0
 18 19  2  0  0  0
 18 20  2  0  0  0
  1 21  1  0  0  0
  2 22  1  0  0  0
  2 23  1  0  0  0
  3 24  1  0  0  0
  3 25  1  0  0  0
  4 26  1  0  0  0
  4 27  1  0  0  0
  5 28  1  0  0  0
  5 29  1  0  0  0
  6 30  1  0  0  0
  6 31  1  0  0  0
  7 32  1  0  0  0
  7 33  1  0  0  0
 15 34  1  0  0  0
 16 35  1  0  0  0
M  END
$$$$
