4rt0_ligand
  -I-interpret- 

 70 76  0  0  0  0  0  0  0  0999 V2000
   61.9280   13.4630   81.4050 P   0  0  0  0  0
   62.6370   12.6650   80.3670 O   0  0  0  0  0
   61.0210   14.3730   80.5910 O   0  0  0  0  0
   61.0010   12.6130   82.3550 O   0  0  0  0  0
   60.1710   13.2120   83.2570 C   0  0  0  0  0
   59.5930   12.3930   84.2890 C   0  0  0  0  0
   59.2030   11.1910   83.7320 O   0  0  0  0  0
   60.6300   11.9750   85.3070 C   0  0  0  0  0
   60.7140   12.8390   86.4070 O   0  0  0  0  0
   60.1980   10.7740   85.7760 C   0  0  0  0  0
   59.2030   10.9400   86.8030 O   0  0  0  0  0
   59.5910   10.1750   84.6190 C   0  0  0  0  0
   60.4870    9.2870   83.9060 N   0  0  0  0  0
   61.0170    9.4520   82.6830 C   0  0  0  0  0
   61.7730    8.3740   82.4110 N   0  0  0  0  0
   61.7150    7.5160   83.4520 C   0  0  0  0  0
   62.2630    6.2670   83.7610 C   0  0  0  0  0
   63.0680    5.6050   82.9110 O   0  0  0  0  0
   61.9760    5.7110   84.9400 N   0  0  0  0  0
   61.1750    6.3330   85.8130 C   0  0  0  0  0
   60.9100    5.6670   87.0620 N   0  0  0  0  0
   60.6250    7.5240   85.5790 N   0  0  0  0  0
   60.8900    8.1190   84.4070 C   0  0  0  0  0
   62.1210   12.8310   87.1330 P   0  0  0  0  0
   62.5510   11.4670   87.6250 O   0  0  0  0  0
   61.9080   13.6460   88.3610 O   0  0  0  0  0
   63.2220   13.6000   86.3200 O   0  0  0  0  0
   62.8850   14.5710   85.3310 C   0  0  0  0  0
   63.8030   14.8770   84.2780 C   0  0  0  0  0
   65.2180   14.7850   84.7400 O   0  0  0  0  0
   63.6860   13.9160   83.1520 C   0  0  0  0  0
   62.8930   14.4140   82.1420 O   0  0  0  0  0
   65.0670   13.7160   82.6610 C   0  0  0  0  0
   65.3670   14.5470   81.6120 O   0  0  0  0  0
   65.9470   14.0120   83.8260 C   0  0  0  0  0
   66.3790   12.8170   84.6160 N   0  0  0  0  0
   66.0830   12.6450   85.8930 C   0  0  0  0  0
   66.5930   11.4800   86.3230 N   0  0  0  0  0
   67.2310   10.9150   85.3000 C   0  0  0  0  0
   67.9370    9.7350   85.1390 C   0  0  0  0  0
   68.0880    8.8530   86.2370 O   0  0  0  0  0
   68.4620    9.4310   83.9500 N   0  0  0  0  0
   68.3300   10.2580   82.9170 C   0  0  0  0  0
   68.8900    9.9120   81.6990 N   0  0  0  0  0
   67.6450   11.4070   83.0360 N   0  0  0  0  0
   67.0930   11.7540   84.2040 C   0  0  0  0  0
   60.5161   14.9337   81.1846 H   0  0  0  0  0
   59.3274   13.5809   82.6737 H   0  0  0  0  0
   60.7894   13.9421   83.7791 H   0  0  0  0  0
   58.7858   12.9720   84.7376 H   0  0  0  0  0
   61.6111   11.9648   84.8322 H   0  0  0  0  0
   61.0026   10.1858   86.2173 H   0  0  0  0  0
   58.9182   10.0774   87.1135 H   0  0  0  0  0
   58.7428    9.5891   84.9732 H   0  0  0  0  0
   60.8617   10.3085   82.0269 H   0  0  0  0  0
   62.3718    4.8016   85.1783 H   0  0  0  0  0
   60.3067    6.1072   87.7567 H   0  0  0  0  0
   61.3256    4.7551   87.2519 H   0  0  0  0  0
   62.7050   10.8907   86.8729 H   0  0  0  0  0
   62.7928   15.5032   85.8882 H   0  0  0  0  0
   62.0200   14.1475   84.8206 H   0  0  0  0  0
   63.5527   15.8897   83.9621 H   0  0  0  0  0
   63.2211   12.9859   83.4789 H   0  0  0  0  0
   65.2009   12.7020   82.2843 H   0  0  0  0  0
   66.2687   14.3853   81.3249 H   0  0  0  0  0
   66.8286   14.4901   83.3991 H   0  0  0  0  0
   65.5114   13.3434   86.5042 H   0  0  0  0  0
   68.9702    8.5545   83.8324 H   0  0  0  0  0
   68.7819   10.5293   80.8942 H   0  0  0  0  0
   69.4107    9.0398   81.6064 H   0  0  0  0  0
  1  2  2  0  0  0
  1  3  1  0  0  0
  1  4  1  0  0  0
  1 32  1  0  0  0
  4  5  1  0  0  0
  5  6  1  0  0  0
  6  7  1  0  0  0
  6  8  1  0  0  0
  7 12  1  0  0  0
  8  9  1  0  0  0
  8 10  1  0  0  0
  9 24  1  0  0  0
 10 11  1  0  0  0
 10 12  1  0  0  0
 12 13  1  0  0  0
 13 14  4  0  0  0
 13 23  4  0  0  0
 14 15  4  0  0  0
 15 16  4  0  0  0
 16 17  1  0  0  0
 16 23  4  0  0  0
 17 18  2  0  0  0
 17 19  1  0  0  0
 19 20  1  0  0  0
 20 21  1  0  0  0
 20 22  2  0  0  0
 22 23  1  0  0  0
 24 25  1  0  0  0
 24 26  2  0  0  0
 24 27  1  0  0  0
 27 28  1  0  0  0
 28 29  1  0  0  0
 29 30  1  0  0  0
 29 31  1  0  0  0
 30 35  1  0  0  0
 31 32  1  0  0  0
 31 33  1  0  0  0
 33 34  1  0  0  0
 33 35  1  0  0  0
 35 36  1  0  0  0
 36 37  4  0  0  0
 36 46  4  0  0  0
 37 38  4  0  0  0
 38 39  4  0  0  0
 39 40  1  0  0  0
 39 46  4  0  0  0
 40 41  2  0  0  0
 40 42  1  0  0  0
 42 43  1  0  0  0
 43 44  1  0  0  0
 43 45  2  0  0  0
 45 46  1  0  0  0
  3 47  1  0  0  0
  5 48  1  0  0  0
  5 49  1  0  0  0
  6 50  1  0  0  0
  8 51  1  0  0  0
 10 52  1  0  0  0
 11 53  1  0  0  0
 12 54  1  0  0  0
 14 55  1  0  0  0
 19 56  1  0  0  0
 21 57  1  0  0  0
 21 58  1  0  0  0
 25 59  1  0  0  0
 28 60  1  0  0  0
 28 61  1  0  0  0
 29 62  1  0  0  0
 31 63  1  0  0  0
 33 64  1  0  0  0
 34 65  1  0  0  0
 35 66  1  0  0  0
 37 67  1  0  0  0
 42 68  1  0  0  0
 44 69  1  0  0  0
 44 70  1  0  0  0
M  END
$$$$
