### 
### Created by X-TOOL on Mon Sep 10 21:13:23 2018
### 

@<TRIPOS>MOLECULE
4rt0_ligand
   68    74     1     0     0
SMALL
GAST_HUCK


@<TRIPOS>ATOM
      1 P1         61.9280   13.4630   81.4050 P.3       1 C2E         0.2557
      2 O2P        62.6370   12.6650   80.3670 O.co2     1 C2E        -0.6177
      3 O1P        61.0210   14.3730   80.5910 O.co2     1 C2E        -0.6177
      4 O5'        61.0010   12.6130   82.3550 O.3       1 C2E        -0.2514
      5 C5'        60.1710   13.2120   83.2570 C.3       1 C2E         0.1128
      6 C4'        59.5930   12.3930   84.2890 C.3       1 C2E         0.1242
      7 O4'        59.2030   11.1910   83.7320 O.3       1 C2E        -0.3359
      8 C3'        60.6300   11.9750   85.3070 C.3       1 C2E         0.1540
      9 O3'        60.7140   12.8390   86.4070 O.3       1 C2E        -0.2453
     10 C2'        60.1980   10.7740   85.7760 C.3       1 C2E         0.1440
     11 O2'        59.2030   10.9400   86.8030 O.3       1 C2E        -0.3832
     12 C1'        59.5910   10.1750   84.6190 C.3       1 C2E         0.1996
     13 N9         60.4870    9.2870   83.9060 N.pl3     1 C2E        -0.2101
     14 C8         61.0170    9.4520   82.6830 C.2       1 C2E         0.0957
     15 N7         61.7730    8.3740   82.4110 N.2       1 C2E        -0.3235
     16 C5         61.7150    7.5160   83.4520 C.2       1 C2E         0.0926
     17 C6         62.2630    6.2670   83.7610 C.2       1 C2E         0.2135
     18 O6         63.0680    5.6050   82.9110 O.2       1 C2E        -0.4091
     19 N1         61.9760    5.7110   84.9400 N.am      1 C2E        -0.1839
     20 C2         61.1750    6.3330   85.8130 C.2       1 C2E         0.2340
     21 N2         60.9100    5.6670   87.0620 N.pl3     1 C2E        -0.2807
     22 N3         60.6250    7.5240   85.5790 N.2       1 C2E        -0.2765
     23 C4         60.8900    8.1190   84.4070 C.2       1 C2E         0.1159
     24 P11        62.1210   12.8310   87.1330 P.3       1 C2E         0.2557
     25 O21        62.5510   11.4670   87.6250 O.co2     1 C2E        -0.6177
     26 O11        61.9080   13.6460   88.3610 O.co2     1 C2E        -0.6177
     27 O5A        63.2220   13.6000   86.3200 O.3       1 C2E        -0.2514
     28 C5A        62.8850   14.5710   85.3310 C.3       1 C2E         0.1128
     29 C4A        63.8030   14.8770   84.2780 C.3       1 C2E         0.1242
     30 O4A        65.2180   14.7850   84.7400 O.3       1 C2E        -0.3359
     31 C3A        63.6860   13.9160   83.1520 C.3       1 C2E         0.1540
     32 O3A        62.8930   14.4140   82.1420 O.3       1 C2E        -0.2453
     33 C2A        65.0670   13.7160   82.6610 C.3       1 C2E         0.1440
     34 O2A        65.3670   14.5470   81.6120 O.3       1 C2E        -0.3832
     35 C1A        65.9470   14.0120   83.8260 C.3       1 C2E         0.1996
     36 N91        66.3790   12.8170   84.6160 N.pl3     1 C2E        -0.2101
     37 C81        66.0830   12.6450   85.8930 C.2       1 C2E         0.0957
     38 N71        66.5930   11.4800   86.3230 N.2       1 C2E        -0.3235
     39 C51        67.2310   10.9150   85.3000 C.2       1 C2E         0.0926
     40 C61        67.9370    9.7350   85.1390 C.2       1 C2E         0.2135
     41 O61        68.0880    8.8530   86.2370 O.2       1 C2E        -0.4091
     42 N11        68.4620    9.4310   83.9500 N.am      1 C2E        -0.1839
     43 C21        68.3300   10.2580   82.9170 C.2       1 C2E         0.2340
     44 N21        68.8900    9.9120   81.6990 N.pl3     1 C2E        -0.2807
     45 N31        67.6450   11.4070   83.0360 N.2       1 C2E        -0.2765
     46 C41        67.0930   11.7540   84.2040 C.2       1 C2E         0.1159
     47 H1         59.3408   13.6596   82.6910 H         1 C2E         0.0647
     48 H2         60.7466   14.0068   83.7539 H         1 C2E         0.0647
     49 H3         58.7519   12.9177   84.7656 H         1 C2E         0.0655
     50 H4         61.6163   11.8881   84.8278 H         1 C2E         0.0712
     51 H5         61.0346   10.1692   86.1558 H         1 C2E         0.0681
     52 H6         59.5748   11.4312   87.5262 H         1 C2E         0.2102
     53 H7         58.7066    9.6054   84.9407 H         1 C2E         0.0998
     54 H8         60.8618   10.3077   82.0275 H         1 C2E         0.1179
     55 H9         62.3640    4.8194   85.1736 H         1 C2E         0.2515
     56 H10        60.2988    6.1104   87.7625 H         1 C2E         0.1897
     57 H11        61.3317    4.7473   87.2548 H         1 C2E         0.1897
     58 H12        62.6919   15.5128   85.8655 H         1 C2E         0.0647
     59 H13        61.9577   14.2248   84.8512 H         1 C2E         0.0647
     60 H14        63.5956   15.8958   83.9187 H         1 C2E         0.0655
     61 H15        63.2636   12.9649   83.5083 H         1 C2E         0.0712
     62 H16        65.2016   12.6730   82.3385 H         1 C2E         0.0681
     63 H17        64.7693   14.3766   80.8935 H         1 C2E         0.2102
     64 H18        66.8338   14.5567   83.4698 H         1 C2E         0.0998
     65 H19        65.5119   13.3428   86.5036 H         1 C2E         0.1179
     66 H20        68.9602    8.5716   83.8347 H         1 C2E         0.2515
     67 H21        68.7953   10.5433   80.8907 H         1 C2E         0.1897
     68 H22        69.4014    9.0233   81.6012 H         1 C2E         0.1897
@<TRIPOS>BOND
     1    1    2 ar 
     2    1    3 ar 
     3    1    4 1  
     4    1   32 1  
     5    4    5 1  
     6    5    6 1  
     7    6    7 1  
     8    6    8 1  
     9    7   12 1  
    10    8    9 1  
    11    8   10 1  
    12    9   24 1  
    13   10   11 1  
    14   10   12 1  
    15   12   13 1  
    16   13   14 1  
    17   13   23 1  
    18   14   15 2  
    19   15   16 1  
    20   16   17 1  
    21   16   23 2  
    22   17   18 2  
    23   17   19 am 
    24   19   20 am 
    25   20   21 1  
    26   20   22 2  
    27   22   23 1  
    28   24   25 ar 
    29   24   26 ar 
    30   24   27 1  
    31   27   28 1  
    32   28   29 1  
    33   29   30 1  
    34   29   31 1  
    35   30   35 1  
    36   31   32 1  
    37   31   33 1  
    38   33   34 1  
    39   33   35 1  
    40   35   36 1  
    41   36   37 1  
    42   36   46 1  
    43   37   38 2  
    44   38   39 1  
    45   39   40 1  
    46   39   46 2  
    47   40   41 2  
    48   40   42 am 
    49   42   43 am 
    50   43   44 1  
    51   43   45 2  
    52   45   46 1  
    53    5   47 1  
    54    5   48 1  
    55    6   49 1  
    56    8   50 1  
    57   10   51 1  
    58   11   52 1  
    59   12   53 1  
    60   14   54 1  
    61   19   55 1  
    62   21   56 1  
    63   21   57 1  
    64   28   58 1  
    65   28   59 1  
    66   29   60 1  
    67   31   61 1  
    68   33   62 1  
    69   34   63 1  
    70   35   64 1  
    71   37   65 1  
    72   42   66 1  
    73   44   67 1  
    74   44   68 1  
@<TRIPOS>SUBSTRUCTURE
     1 C2E         1

