1x76_ligand
  -I-interpret- 

 28 30  0  0  0  0  0  0  0  0999 V2000
   25.8800   35.9290   41.5540 C   0  0  0  0  0
   27.1560   35.5320   42.0840 C   0  0  0  0  0
   28.3240   35.6420   41.2630 C   0  0  0  0  0
   28.1970   36.1480   39.9180 C   0  0  0  0  0
   26.9120   36.5400   39.4040 C   0  0  0  0  0
   25.7500   36.4300   40.2220 C   0  0  0  0  0
   24.7570   35.8290   42.3360 O   0  0  0  0  0
   29.3860   36.3070   39.0130 C   0  0  0  0  0
   30.5520   35.5080   39.0090 C   0  0  0  0  0
   31.3230   36.1100   37.9800 C   0  0  0  0  0
   30.5610   37.2230   37.4440 C   0  0  0  0  0
   29.3870   37.3000   38.1050 O   0  0  0  0  0
   32.6150   35.8450   37.4170 C   0  0  0  0  0
   33.1160   36.6750   36.3540 C   0  0  0  0  0
   32.3420   37.7650   35.8480 C   0  0  0  0  0
   31.0610   38.0210   36.4110 C   0  0  0  0  0
   34.3510   36.4240   35.8170 O   0  0  0  0  0
   30.2680   39.1090   35.9240 C   0  0  0  0  0
   29.6050   39.9850   35.5670 N   0  0  0  0  0
   27.2337   35.1505   43.1021 H   0  0  0  0  0
   29.2991   35.3465   41.6503 H   0  0  0  0  0
   26.8267   36.9220   38.3867 H   0  0  0  0  0
   24.7740   36.7245   39.8362 H   0  0  0  0  0
   23.9939   36.1315   41.8383 H   0  0  0  0  0
   30.7965   34.6500   39.6352 H   0  0  0  0  0
   33.2158   35.0171   37.7934 H   0  0  0  0  0
   32.7275   38.3906   35.0429 H   0  0  0  0  0
   34.5334   37.0632   35.1243 H   0  0  0  0  0
  1  2  4  0  0  0
  1  6  4  0  0  0
  1  7  1  0  0  0
  2  3  4  0  0  0
  3  4  4  0  0  0
  4  5  4  0  0  0
  4  8  1  0  0  0
  5  6  4  0  0  0
  8  9  4  0  0  0
  8 12  4  0  0  0
  9 10  4  0  0  0
 10 11  4  0  0  0
 10 13  4  0  0  0
 11 12  4  0  0  0
 11 16  4  0  0  0
 13 14  4  0  0  0
 14 15  4  0  0  0
 14 17  1  0  0  0
 15 16  4  0  0  0
 16 18  1  0  0  0
 18 19  3  0  0  0
  2 20  1  0  0  0
  3 21  1  0  0  0
  5 22  1  0  0  0
  6 23  1  0  0  0
  7 24  1  0  0  0
  9 25  1  0  0  0
 13 26  1  0  0  0
 15 27  1  0  0  0
 17 28  1  0  0  0
M  END
$$$$
