4ij1_ligand
  -I-interpret- 

 30 31  0  0  0  0  0  0  0  0999 V2000
    7.3740    3.6460   27.1310 O   0  0  0  0  0
    3.5830    1.1730   29.2050 O   0  0  0  0  0
    8.5270    3.1560   25.3520 O   0  0  0  0  0
    5.1170    2.5240   28.3980 O   0  0  0  0  0
   10.7050    0.1150   28.6140 C   0  0  0  0  0
    7.1580    1.1210   32.7180 C   0  0  0  0  0
   11.1010    0.6470   27.3950 C   0  0  0  0  0
    5.7740    1.0360   32.8270 C   0  0  0  0  0
    9.5010    0.5190   29.1800 C   0  0  0  0  0
    7.7460    1.4060   31.4930 C   0  0  0  0  0
   10.2900    1.5770   26.7550 C   0  0  0  0  0
    4.9770    1.2430   31.7020 C   0  0  0  0  0
    7.4890    1.8790   29.1170 N   0  0  0  0  0
    8.2790    2.9900   26.5690 C   0  0  0  0  0
    4.7030    1.7450   29.2850 C   0  0  0  0  0
    8.6770    1.4670   28.5660 C   0  0  0  0  0
    6.9650    1.5960   30.3540 C   0  0  0  0  0
    9.0890    1.9840   27.3320 C   0  0  0  0  0
    5.5790    1.5230   30.4790 C   0  0  0  0  0
    3.4511    0.6205   29.9789 H   0  0  0  0  0
    9.2453    2.5752   25.0908 H   0  0  0  0  0
   11.3336   -0.6147   29.1243 H   0  0  0  0  0
    7.7829    0.9634   33.5971 H   0  0  0  0  0
   12.0428    0.3373   26.9419 H   0  0  0  0  0
    5.3141    0.8083   33.7887 H   0  0  0  0  0
    9.1905    0.0840   30.1300 H   0  0  0  0  0
    8.8310    1.4821   31.4210 H   0  0  0  0  0
   10.5961    1.9910   25.7943 H   0  0  0  0  0
    3.8913    1.1860   31.7797 H   0  0  0  0  0
    6.9154    2.4793   28.5245 H   0  0  0  0  0
 14  1  2  0  0  0
 15  2  1  0  0  0
 14  3  1  0  0  0
 15  4  2  0  0  0
  5  7  4  0  0  0
  9  5  4  0  0  0
  8  6  4  0  0  0
  6 10  4  0  0  0
  7 11  4  0  0  0
 12  8  4  0  0  0
 16  9  4  0  0  0
 10 17  4  0  0  0
 11 18  4  0  0  0
 19 12  4  0  0  0
 13 16  1  0  0  0
 17 13  1  0  0  0
 18 14  1  0  0  0
 15 19  1  0  0  0
 16 18  4  0  0  0
 17 19  4  0  0  0
  2 20  1  0  0  0
  3 21  1  0  0  0
  5 22  1  0  0  0
  6 23  1  0  0  0
  7 24  1  0  0  0
  8 25  1  0  0  0
  9 26  1  0  0  0
 10 27  1  0  0  0
 11 28  1  0  0  0
 12 29  1  0  0  0
 13 30  1  0  0  0
M  END
$$$$
