5uzk_ligand
  -I-interpret- 

 63 67  0  0  0  0  0  0  0  0999 V2000
   23.4620   14.6810   -0.0920 C   0  0  0  0  0
   23.9300   13.4850   -0.6210 C   0  0  0  0  0
   23.2790   12.2850   -0.3570 C   0  0  0  0  0
   22.1440   12.2990    0.4330 C   0  0  0  0  0
   21.6680   13.5050    0.9530 C   0  0  0  0  0
   22.3090   14.7020    0.6670 C   0  0  0  0  0
   20.5260   13.5500    1.6770 O   0  0  0  0  0
   20.2410   12.4510    2.5310 C   0  0  0  0  0
   18.9590   11.7500    2.0990 C   0  0  0  0  0
   18.7160   10.5780    3.0610 C   0  0  0  0  0
   19.8800    9.5670    3.0800 C   0  0  0  0  0
   20.2100    9.1750    4.5370 C   0  0  0  0  0
   21.2020    8.0040    4.5990 C   0  0  0  0  0
   20.8330    6.8690    3.7280 N   0  3  0  0  0
   20.5350    7.2300    2.3220 C   0  0  0  0  0
   19.5100    8.3570    2.2060 C   0  0  0  0  0
   23.8160   10.9720   -0.8860 C   0  0  0  0  0
   25.1360   10.7220   -0.1960 C   0  0  0  0  0
   25.1560   10.6490    1.0160 O   0  0  0  0  0
   26.2510   10.6340   -0.9550 N   0  0  0  0  0
   27.5660   10.4870   -0.5050 C   0  0  0  0  0
   28.5950   10.5750   -1.3030 N   0  0  0  0  0
   29.8010   10.5020   -0.7510 C   0  0  0  0  0
   29.7580   10.3170    0.5820 C   0  0  0  0  0
   28.0860   10.3390    1.1230 S   0  0  0  0  0
   31.0840   10.4960   -1.5100 C   0  0  0  0  0
   32.3190   10.3490   -0.9750 C   0  0  0  0  0
   33.2710   10.3470   -1.9600 N   0  0  0  0  0
   32.6860   10.4680   -3.1930 C   0  0  0  0  0
   31.2760   10.5670   -2.9700 C   0  0  0  0  0
   30.4140   10.7000   -4.0850 C   0  0  0  0  0
   31.0000   10.7270   -5.3590 C   0  0  0  0  0
   32.3960   10.6310   -5.4990 C   0  0  0  0  0
   33.1890   10.5120   -4.4400 N   0  0  0  0  0
   24.0072   15.6066   -0.2768 H   0  0  0  0  0
   24.8192   13.4871   -1.2514 H   0  0  0  0  0
   21.6203   11.3680    0.6501 H   0  0  0  0  0
   21.9078   15.6457    1.0365 H   0  0  0  0  0
   20.1146   12.8198    3.5489 H   0  0  0  0  0
   21.0659   11.7405    2.4774 H   0  0  0  0  0
   19.0538   11.3858    1.0760 H   0  0  0  0  0
   18.1196   12.4446    2.1301 H   0  0  0  0  0
   17.8227   10.0513    2.7254 H   0  0  0  0  0
   18.6140   10.9875    4.0660 H   0  0  0  0  0
   20.7828   10.0115    2.6612 H   0  0  0  0  0
   19.2862    8.8691    5.0281 H   0  0  0  0  0
   20.6627   10.0352    5.0301 H   0  0  0  0  0
   21.2118    7.6382    5.6257 H   0  0  0  0  0
   22.1684    8.3761    4.2588 H   0  0  0  0  0
   19.9802    6.4654    4.1156 H   0  0  0  0  0
   21.6362    6.2406    3.7069 H   0  0  0  0  0
   20.1205    6.3493    1.8314 H   0  0  0  0  0
   21.4616    7.5722    1.8611 H   0  0  0  0  0
   19.4805    8.6844    1.1667 H   0  0  0  0  0
   18.5460    7.9760    2.5430 H   0  0  0  0  0
   23.9495   11.0183   -1.9668 H   0  0  0  0  0
   23.1165   10.1608   -0.6840 H   0  0  0  0  0
   26.1184   10.6798   -1.9653 H   0  0  0  0  0
   30.6260   10.1755    1.2260 H   0  0  0  0  0
   32.5267   10.2466    0.0901 H   0  0  0  0  0
   29.3343   10.7786   -3.9581 H   0  0  0  0  0
   30.3709   10.8228   -6.2440 H   0  0  0  0  0
   32.8359   10.6547   -6.4960 H   0  0  0  0  0
  1  2  4  0  0  0
  1  6  4  0  0  0
  2  3  4  0  0  0
  3  4  4  0  0  0
  3 17  1  0  0  0
  4  5  4  0  0  0
  5  6  4  0  0  0
  5  7  1  0  0  0
  7  8  1  0  0  0
  8  9  1  0  0  0
  9 10  1  0  0  0
 10 11  1  0  0  0
 11 12  1  0  0  0
 11 16  1  0  0  0
 12 13  1  0  0  0
 13 14  1  0  0  0
 14 15  1  0  0  0
 15 16  1  0  0  0
 17 18  1  0  0  0
 18 19  2  0  0  0
 18 20  1  0  0  0
 20 21  1  0  0  0
 21 22  4  0  0  0
 21 25  4  0  0  0
 22 23  4  0  0  0
 23 24  4  0  0  0
 23 26  1  0  0  0
 24 25  4  0  0  0
 26 27  4  0  0  0
 26 30  4  0  0  0
 27 28  4  0  0  0
 28 29  4  0  0  0
 29 30  4  0  0  0
 29 34  4  0  0  0
 30 31  4  0  0  0
 31 32  4  0  0  0
 32 33  4  0  0  0
 33 34  4  0  0  0
  1 35  1  0  0  0
  2 36  1  0  0  0
  4 37  1  0  0  0
  6 38  1  0  0  0
  8 39  1  0  0  0
  8 40  1  0  0  0
  9 41  1  0  0  0
  9 42  1  0  0  0
 10 43  1  0  0  0
 10 44  1  0  0  0
 11 45  1  0  0  0
 12 46  1  0  0  0
 12 47  1  0  0  0
 13 48  1  0  0  0
 13 49  1  0  0  0
 14 50  1  0  0  0
 14 51  1  0  0  0
 15 52  1  0  0  0
 15 53  1  0  0  0
 16 54  1  0  0  0
 16 55  1  0  0  0
 17 56  1  0  0  0
 17 57  1  0  0  0
 20 58  1  0  0  0
 24 59  1  0  0  0
 27 60  1  0  0  0
 31 61  1  0  0  0
 32 62  1  0  0  0
 33 63  1  0  0  0
M  END
$$$$
