5eva_ligand
  -I-interpret- 

 26 27  0  0  0  0  0  0  0  0999 V2000
    8.7980  -11.2810    8.3030 F   0  0  0  0  0
    8.1400  -10.1150    8.1500 C   0  0  0  0  0
    7.8740   -9.3440    9.2770 C   0  0  0  0  0
    7.2000   -8.1360    9.1550 C   0  0  0  0  0
    6.9460   -7.3790   10.2790 F   0  0  0  0  0
    6.7890   -7.6970    7.9010 C   0  0  0  0  0
    7.0580   -8.4660    6.7720 C   0  0  0  0  0
    7.7230   -9.6880    6.8890 C   0  0  0  0  0
    8.0330  -10.4970    5.8430 N   0  0  0  0  0
    7.1700  -10.6760    4.8090 C   0  0  0  0  0
    6.0660  -10.1300    4.7490 O   0  0  0  0  0
    7.6050  -11.4860    3.8140 C   0  0  0  0  0
    8.8540  -11.9150    3.6730 C   0  0  0  0  0
    8.8570  -12.6680    2.5780 C   0  0  0  0  0
    7.6170  -12.6760    2.0830 N   0  0  0  0  0
    6.8910  -11.9830    2.7980 N   0  0  0  0  0
    5.4600  -11.8380    2.4610 C   0  0  0  0  0
    8.1958   -9.6894   10.2595 H   0  0  0  0  0
    6.2564   -6.7511    7.8021 H   0  0  0  0  0
    6.7471   -8.1113    5.7893 H   0  0  0  0  0
    8.9315  -10.9797    5.8335 H   0  0  0  0  0
    9.7018  -11.6948    4.3217 H   0  0  0  0  0
    9.7188  -13.1870    2.1584 H   0  0  0  0  0
    4.8541  -12.2290    3.2784 H   0  0  0  0  0
    5.2291  -10.7838    2.3079 H   0  0  0  0  0
    5.2446  -12.3946    1.5489 H   0  0  0  0  0
  1  2  1  0  0  0
  2  3  4  0  0  0
  2  8  4  0  0  0
  3  4  4  0  0  0
  4  5  1  0  0  0
  4  6  4  0  0  0
  6  7  4  0  0  0
  7  8  4  0  0  0
  8  9  1  0  0  0
  9 10  1  0  0  0
 10 11  2  0  0  0
 10 12  1  0  0  0
 12 13  4  0  0  0
 12 16  4  0  0  0
 13 14  4  0  0  0
 14 15  4  0  0  0
 15 16  4  0  0  0
 16 17  1  0  0  0
  3 18  1  0  0  0
  6 19  1  0  0  0
  7 20  1  0  0  0
  9 21  1  0  0  0
 13 22  1  0  0  0
 14 23  1  0  0  0
 17 24  1  0  0  0
 17 25  1  0  0  0
 17 26  1  0  0  0
M  END
$$$$
