3exe_ligand
  -I-interpret- 

 46 47  0  0  0  0  0  0  0  0999 V2000
   12.1030   -4.6610   55.4540 N   0  0  0  0  0
   12.7190   -4.4270   54.2350 C   0  0  0  0  0
   13.6120   -3.2430   54.0610 C   0  0  0  0  0
   12.5380   -5.3000   53.2100 N   0  0  0  0  0
   11.7280   -6.4050   53.4150 C   0  0  0  0  0
   11.6530   -7.2440   52.3710 N   0  0  0  0  0
   11.0600   -6.6250   54.6170 C   0  0  0  0  0
   11.2560   -5.7450   55.6530 C   0  0  0  0  0
   10.1490   -7.8310   54.8440 C   0  0  0  0  0
    8.9420   -7.5480   54.0510 N   0  0  0  0  0
    8.7540   -8.0200   52.7390 C   0  0  0  0  0
    7.3370   -7.4420   52.1270 S   0  0  0  0  0
    6.9040   -6.6710   53.5160 C   0  0  0  0  0
    7.9050   -6.7850   54.4940 C   0  0  0  0  0
    7.7940   -6.1800   55.8630 C   0  0  0  0  0
    5.5710   -5.9040   53.6240 C   0  0  0  0  0
    5.4770   -4.7800   52.5610 C   0  0  0  0  0
    4.1370   -4.3840   52.3940 O   0  0  0  0  0
    3.5380   -3.4150   51.2500 P   0  0  0  0  0
    4.5920   -2.3720   50.9470 O   0  0  0  0  0
    2.2830   -2.7730   51.7230 O   0  0  0  0  0
    3.4870   -4.2970   49.9430 O   0  0  0  0  0
    2.4580   -5.4320   49.4210 P   0  0  0  0  0
    1.1770   -5.3270   50.2730 O   0  0  0  0  0
    2.1950   -5.0570   47.9740 O   0  0  0  0  0
    3.0860   -6.8020   49.5180 O   0  0  0  0  0
   13.0448   -2.3312   54.2480 H   0  0  0  0  0
   14.4408   -3.3079   54.7659 H   0  0  0  0  0
   13.9999   -3.2287   53.0425 H   0  0  0  0  0
   12.1699   -7.0410   51.5154 H   0  0  0  0  0
   11.0790   -8.0849   52.4327 H   0  0  0  0  0
   10.7579   -5.8935   56.6111 H   0  0  0  0  0
    9.9165   -7.9697   55.8998 H   0  0  0  0  0
   10.6258   -8.7620   54.5374 H   0  0  0  0  0
    8.7202   -9.1094   52.7521 H   0  0  0  0  0
    9.5793   -7.6785   52.1142 H   0  0  0  0  0
    7.6817   -5.0995   55.7733 H   0  0  0  0  0
    6.9252   -6.5958   56.3732 H   0  0  0  0  0
    8.6948   -6.4068   56.4332 H   0  0  0  0  0
    5.5121   -5.4503   54.6134 H   0  0  0  0  0
    4.7536   -6.6059   53.4586 H   0  0  0  0  0
    5.8612   -5.1524   51.6114 H   0  0  0  0  0
    6.0646   -3.9239   52.8924 H   0  0  0  0  0
    5.3926   -2.8064   50.6438 H   0  0  0  0  0
    0.8077   -4.4451   50.1862 H   0  0  0  0  0
    1.7966   -4.1843   47.9381 H   0  0  0  0  0
  1  2  4  0  0  0
  1  8  4  0  0  0
  2  3  1  0  0  0
  2  4  4  0  0  0
  4  5  4  0  0  0
  5  6  1  0  0  0
  5  7  4  0  0  0
  7  8  4  0  0  0
  7  9  1  0  0  0
  9 10  1  0  0  0
 10 11  1  0  0  0
 10 14  1  0  0  0
 11 12  1  0  0  0
 12 13  1  0  0  0
 13 14  2  0  0  0
 13 16  1  0  0  0
 14 15  1  0  0  0
 16 17  1  0  0  0
 17 18  1  0  0  0
 18 19  1  0  0  0
 19 20  1  0  0  0
 19 21  2  0  0  0
 19 22  1  0  0  0
 22 23  1  0  0  0
 23 24  1  0  0  0
 23 25  1  0  0  0
 23 26  2  0  0  0
  3 27  1  0  0  0
  3 28  1  0  0  0
  3 29  1  0  0  0
  6 30  1  0  0  0
  6 31  1  0  0  0
  8 32  1  0  0  0
  9 33  1  0  0  0
  9 34  1  0  0  0
 11 35  1  0  0  0
 11 36  1  0  0  0
 15 37  1  0  0  0
 15 38  1  0  0  0
 15 39  1  0  0  0
 16 40  1  0  0  0
 16 41  1  0  0  0
 17 42  1  0  0  0
 17 43  1  0  0  0
 20 44  1  0  0  0
 24 45  1  0  0  0
 25 46  1  0  0  0
M  END
$$$$
