2bxt_ligand
  -I-interpret- 

 53 56  0  0  0  0  0  0  0  0999 V2000
   12.1720  -13.1210   13.0270 O   0  0  0  0  0
   16.4230   -8.3340   11.0040 Cl  0  0  0  0  0
    8.1380  -12.6370   15.9790 Cl  0  0  0  0  0
   17.7400  -10.7330   11.4800 C   0  0  0  0  0
   17.9060  -11.9740   12.1890 C   0  0  0  0  0
   16.6740   -9.8360   11.8280 C   0  0  0  0  0
   16.9910  -12.3030   13.2350 C   0  0  0  0  0
   15.7810  -10.1800   12.8680 C   0  0  0  0  0
   15.9530  -11.4110   13.5560 C   0  0  0  0  0
   16.8950  -13.6270   14.2040 S   0  0  0  0  0
   15.6100  -13.1120   15.0260 C   0  0  0  0  0
   15.1540  -11.8700   14.5810 C   0  0  0  0  0
   13.9720  -11.0570   15.0700 C   0  0  0  0  0
   13.2670  -11.6180   16.2400 N   0  3  0  0  0
   11.9170  -12.2650   16.1350 C   0  0  0  0  0
   10.9320  -11.7610   15.0440 C   0  0  0  0  0
    9.0200  -13.4190   14.7130 C   0  0  0  0  0
   10.3150  -12.9200   14.3470 N   0  0  0  0  0
    8.4900  -14.4800   14.0630 C   0  0  0  0  0
   11.0600  -13.5400   13.3280 C   0  0  0  0  0
    9.2660  -15.1550   12.9640 N   0  0  0  0  0
   10.4700  -14.7210   12.6170 C   0  0  0  0  0
   11.1940  -15.3270   11.6050 N   0  0  0  0  0
   10.8610  -16.4970   10.7460 C   0  0  0  0  0
   10.1250  -16.0740    9.4490 C   0  0  0  0  0
    7.7090  -16.1510   10.2640 C   0  0  0  0  0
    8.7970  -15.4260    9.7580 C   0  0  0  0  0
    6.5040  -15.4720   10.5520 C   0  0  0  0  0
    8.6570  -14.0420    9.5630 N   0  0  0  0  0
    6.3750  -14.0910   10.3410 C   0  0  0  0  0
    7.4620  -13.3670    9.8370 C   0  0  0  0  0
   18.4268  -10.4725   10.6747 H   0  0  0  0  0
   18.7186  -12.6533   11.9314 H   0  0  0  0  0
   14.9678   -9.5070   13.1397 H   0  0  0  0  0
   15.1476  -13.6710   15.8395 H   0  0  0  0  0
   13.2510  -11.0288   14.2530 H   0  0  0  0  0
   14.3633  -10.0865   15.3751 H   0  0  0  0  0
   13.0917  -10.8003   16.8240 H   0  0  0  0  0
   13.8729  -12.3835   16.5356 H   0  0  0  0  0
   11.4246  -12.0493   17.0832 H   0  0  0  0  0
   12.1198  -13.3041   15.8758 H   0  0  0  0  0
   11.4761  -11.1538   14.3205 H   0  0  0  0  0
   10.1494  -11.1648   15.5132 H   0  0  0  0  0
    7.5002  -14.8466   14.3352 H   0  0  0  0  0
   12.1028  -14.9037   11.4171 H   0  0  0  0  0
   10.2039  -17.1585   11.3106 H   0  0  0  0  0
   11.7919  -16.9893   10.4647 H   0  0  0  0  0
    9.9447  -16.9642    8.8464 H   0  0  0  0  0
   10.7466  -15.3542    8.9165 H   0  0  0  0  0
    7.7917  -17.2246   10.4330 H   0  0  0  0  0
    5.6567  -16.0329   10.9464 H   0  0  0  0  0
    5.4361  -13.5859   10.5676 H   0  0  0  0  0
    7.3790  -12.2946    9.6608 H   0  0  0  0  0
 20  1  2  0  0  0
  6  2  1  0  0  0
 17  3  1  0  0  0
  5  4  4  0  0  0
  6  4  4  0  0  0
  7  5  4  0  0  0
  8  6  4  0  0  0
  9  7  4  0  0  0
 10  7  4  0  0  0
  9  8  4  0  0  0
 12  9  4  0  0  0
 11 10  4  0  0  0
 12 11  4  0  0  0
 13 12  1  0  0  0
 14 13  1  0  0  0
 15 14  1  0  0  0
 16 15  1  0  0  0
 18 16  1  0  0  0
 18 17  1  0  0  0
 17 19  2  0  0  0
 18 20  1  0  0  0
 19 21  1  0  0  0
 20 22  1  0  0  0
 21 22  2  0  0  0
 22 23  1  0  0  0
 23 24  1  0  0  0
 24 25  1  0  0  0
 25 27  1  0  0  0
 27 26  4  0  0  0
 26 28  4  0  0  0
 27 29  4  0  0  0
 28 30  4  0  0  0
 29 31  4  0  0  0
 30 31  4  0  0  0
  4 32  1  0  0  0
  5 33  1  0  0  0
  8 34  1  0  0  0
 11 35  1  0  0  0
 13 36  1  0  0  0
 13 37  1  0  0  0
 14 38  1  0  0  0
 14 39  1  0  0  0
 15 40  1  0  0  0
 15 41  1  0  0  0
 16 42  1  0  0  0
 16 43  1  0  0  0
 19 44  1  0  0  0
 23 45  1  0  0  0
 24 46  1  0  0  0
 24 47  1  0  0  0
 25 48  1  0  0  0
 25 49  1  0  0  0
 26 50  1  0  0  0
 28 51  1  0  0  0
 30 52  1  0  0  0
 31 53  1  0  0  0
M  END
$$$$
