5wij_ligand
  -I-interpret- 

 60 63  0  0  0  0  0  0  0  0999 V2000
   -0.6420   -5.1290    0.5860 C   0  0  0  0  0
   -1.8660   -5.3870   -0.0010 C   0  0  0  0  0
   -2.8130   -6.1890    0.7050 C   0  0  0  0  0
   -0.6610   -4.1350   -1.3570 C   0  0  0  0  0
   -2.4760   -6.6590    1.9160 N   0  0  0  0  0
   -0.9000   -6.9080    3.8030 N   0  0  0  0  0
   -0.3810   -5.6490    1.8250 N   0  0  0  0  0
   -1.2770   -6.3970    2.4610 C   0  0  0  0  0
   -3.3500   -8.7910    9.7740 C   0  0  0  0  0
   -3.6390  -12.3670   10.1060 C   0  0  0  0  0
   -1.1490   -8.1500    5.8980 C   0  0  0  0  0
   -2.6050   -8.7740    4.0890 C   0  0  0  0  0
   -1.7230   -9.1250    6.7090 C   0  0  0  0  0
   -3.1900   -9.7540    4.9070 C   0  0  0  0  0
   -6.8430  -10.7120    0.0640 C   0  0  0  0  0
   -6.2720   -9.9090   -1.1030 C   0  0  0  0  0
   -7.4680   -9.7950    1.1060 C   0  0  0  0  0
   -4.3930   -9.2710    8.7590 C   0  0  0  0  0
   -4.7220  -11.7610    9.1880 C   0  0  0  0  0
   -5.6510   -8.5760   -0.6830 C   0  0  0  0  0
   -6.4110   -8.9120    1.7650 C   0  0  0  0  0
   -5.0330   -6.9520    1.0970 C   0  0  0  0  0
   -3.3850  -11.0120    7.1370 C   0  0  0  0  0
   -1.5750   -7.9670    4.5900 C   0  0  0  0  0
   -2.7580   -9.9240    6.2150 C   0  0  0  0  0
   -5.3100   -8.4480    0.8070 C   0  0  0  0  0
   -1.8380   -4.7510   -1.2090 N   0  0  0  0  0
    0.0840   -4.3520   -0.2750 N   0  0  0  0  0
   -4.1600  -10.6650    8.3610 N   0  0  0  0  0
   -4.0930   -6.4830    0.1390 O   0  0  0  0  0
   -3.2290  -12.1470    6.8610 O   0  0  0  0  0
   -0.3593   -3.5486   -2.2249 H   0  0  0  0  0
   -0.0804   -6.4801    4.2338 H   0  0  0  0  0
   -3.3980   -9.4162   10.6656 H   0  0  0  0  0
   -2.3559   -8.8614    9.3324 H   0  0  0  0  0
   -3.5568   -7.7553   10.0434 H   0  0  0  0  0
   -2.8293  -12.7668    9.4956 H   0  0  0  0  0
   -3.2494  -11.5924   10.7665 H   0  0  0  0  0
   -4.0763  -13.1682   10.7018 H   0  0  0  0  0
   -0.3530   -7.5209    6.2963 H   0  0  0  0  0
   -2.9522   -8.6411    3.0643 H   0  0  0  0  0
   -1.3654   -9.2653    7.7291 H   0  0  0  0  0
   -3.9872  -10.3842    4.5129 H   0  0  0  0  0
   -6.0329  -11.2712    0.5322 H   0  0  0  0  0
   -7.6130  -11.3825   -0.3175 H   0  0  0  0  0
   -7.0960   -9.6865   -1.7809 H   0  0  0  0  0
   -5.4831  -10.5084   -1.5573 H   0  0  0  0  0
   -7.9382  -10.4090    1.8742 H   0  0  0  0  0
   -8.1999   -9.1548    0.6135 H   0  0  0  0  0
   -4.3227   -8.6433    7.8706 H   0  0  0  0  0
   -5.3781   -9.2052    9.2209 H   0  0  0  0  0
   -5.5226  -11.3578    9.8082 H   0  0  0  0  0
   -5.0991  -12.5415    8.5272 H   0  0  0  0  0
   -6.3917   -7.8062   -0.8995 H   0  0  0  0  0
   -4.7101   -8.4867   -1.2259 H   0  0  0  0  0
   -5.9342   -9.5034    2.5467 H   0  0  0  0  0
   -6.9168   -8.0205    2.1357 H   0  0  0  0  0
   -4.6343   -6.8322    2.1044 H   0  0  0  0  0
   -5.9574   -6.3786    1.0282 H   0  0  0  0  0
   -4.4539   -9.0987    0.9851 H   0  0  0  0  0
  1  2  4  0  0  0
  7  1  4  0  0  0
  1 28  4  0  0  0
  3  2  4  0  0  0
  2 27  4  0  0  0
  5  3  4  0  0  0
  3 30  1  0  0  0
  4 27  4  0  0  0
 28  4  4  0  0  0
  8  5  4  0  0  0
  6  8  1  0  0  0
 24  6  1  0  0  0
  8  7  4  0  0  0
 18  9  1  0  0  0
 19 10  1  0  0  0
 13 11  4  0  0  0
 11 24  4  0  0  0
 14 12  4  0  0  0
 12 24  4  0  0  0
 25 13  4  0  0  0
 25 14  4  0  0  0
 16 15  1  0  0  0
 17 15  1  0  0  0
 20 16  1  0  0  0
 21 17  1  0  0  0
 29 18  1  0  0  0
 29 19  1  0  0  0
 26 20  1  0  0  0
 26 21  1  0  0  0
 22 26  1  0  0  0
 30 22  1  0  0  0
 23 25  1  0  0  0
 23 29  1  0  0  0
 23 31  2  0  0  0
  4 32  1  0  0  0
  6 33  1  0  0  0
  9 34  1  0  0  0
  9 35  1  0  0  0
  9 36  1  0  0  0
 10 37  1  0  0  0
 10 38  1  0  0  0
 10 39  1  0  0  0
 11 40  1  0  0  0
 12 41  1  0  0  0
 13 42  1  0  0  0
 14 43  1  0  0  0
 15 44  1  0  0  0
 15 45  1  0  0  0
 16 46  1  0  0  0
 16 47  1  0  0  0
 17 48  1  0  0  0
 17 49  1  0  0  0
 18 50  1  0  0  0
 18 51  1  0  0  0
 19 52  1  0  0  0
 19 53  1  0  0  0
 20 54  1  0  0  0
 20 55  1  0  0  0
 21 56  1  0  0  0
 21 57  1  0  0  0
 22 58  1  0  0  0
 22 59  1  0  0  0
 26 60  1  0  0  0
M  END
$$$$
