4hp0_ligand
  -I-interpret- 

106109  0  0  0  0  0  0  0  0999 V2000
   23.6160    8.6300   -2.6920 C   0  0  0  0  0
   24.4030    8.8570   -3.9740 C   0  0  0  0  0
   24.4800   10.2670   -4.1840 O   0  0  0  0  0
   23.7460    8.1510   -5.1600 C   0  0  0  0  0
   24.5050    8.3820   -6.3340 O   0  0  0  0  0
   23.6930    6.6450   -4.9260 C   0  0  0  0  0
   23.0830    5.9390   -6.0110 O   0  0  0  0  0
   22.8630    6.3870   -3.6900 C   0  0  0  0  0
   23.2940    7.2170   -2.5670 N   0  3  0  0  0
   22.9620    4.9150   -3.3130 C   0  0  0  0  0
   24.2990    4.6870   -2.8740 O   0  0  0  0  0
   23.7380    5.2510   -7.0620 C   0  0  0  0  0
   23.0920    4.0310   -7.7100 C   0  0  0  0  0
   23.9820    3.4950   -8.8090 C   0  0  0  0  0
   24.4430    4.6310   -9.7370 C   0  0  0  0  0
   24.8780    5.9080   -8.9870 C   0  0  0  0  0
   25.1440    7.1080   -9.9070 C   0  0  0  0  0
   21.6130    2.6610   -6.3160 C   0  0  0  0  0
   21.5580    1.6870   -5.1850 C   0  0  0  0  0
   22.8410    3.0510   -6.6680 N   0  0  0  0  0
   23.2570    2.4970   -9.4970 O   0  0  0  0  0
   25.5790    4.1580  -10.4130 O   0  0  0  0  0
   23.9330    6.2830   -8.0080 O   0  0  0  0  0
   23.9870    7.4620  -10.6430 O   0  0  0  0  0
   20.5760    3.0450   -6.8570 O   0  0  0  0  0
   25.3670    3.9330  -11.8150 C   0  0  0  0  0
   26.7680    3.8610  -12.4170 C   0  0  0  0  0
   26.7520    3.3500  -13.8520 C   0  0  0  0  0
   25.8570    2.1190  -14.0000 C   0  0  0  0  0
   24.4770    2.4090  -13.4110 C   0  0  0  0  0
   23.4970    1.2460  -13.5700 C   0  0  0  0  0
   28.3850    5.4470  -11.4660 C   0  0  0  0  0
   28.9630    6.8330  -11.5240 C   0  0  0  0  0
   27.4250    5.1620  -12.3500 N   0  0  0  0  0
   28.0770    3.0380  -14.2190 O   0  0  0  0  0
   25.7170    1.7830  -15.3610 O   0  0  0  0  0
   24.6320    2.7440  -12.0480 O   0  0  0  0  0
   23.9470    0.1030  -12.8720 O   0  0  0  0  0
   28.8010    4.6420  -10.6310 O   0  0  0  0  0
   26.2100    0.4590  -15.6190 C   0  0  0  0  0
   25.5900   -0.0720  -16.9140 C   0  0  0  0  0
   26.1810   -1.4310  -17.2760 C   0  0  0  0  0
   27.7050   -1.3540  -17.2630 C   0  0  0  0  0
   28.1740   -0.8340  -15.9060 C   0  0  0  0  0
   29.6950   -0.7840  -15.8070 C   0  0  0  0  0
   23.3540    0.6660  -17.5390 C   0  0  0  0  0
   21.8770    0.5080  -17.3410 C   0  0  0  0  0
   24.1400   -0.1290  -16.8140 N   0  0  0  0  0
   25.7320   -1.8230  -18.5520 O   0  0  0  0  0
   28.2510   -2.6260  -17.5200 O   0  0  0  0  0
   27.6230    0.4550  -15.6980 O   0  0  0  0  0
   30.1690    0.3950  -16.4180 O   0  0  0  0  0
   23.7800    1.4970  -18.3480 O   0  0  0  0  0
   22.6949    9.2121   -2.7223 H   0  0  0  0  0
   24.2145    8.9441   -1.8369 H   0  0  0  0  0
   25.4040    8.4350   -3.8840 H   0  0  0  0  0
   24.8961   10.6803   -3.4240 H   0  0  0  0  0
   22.7355    8.5448   -5.2694 H   0  0  0  0  0
   24.5526    9.3259   -6.5024 H   0  0  0  0  0
   24.7193    6.2922   -4.8238 H   0  0  0  0  0
   21.8286    6.6464   -3.9153 H   0  0  0  0  0
   22.4756    7.2216   -1.9583 H   0  0  0  0  0
   24.1874    6.8009   -2.3043 H   0  0  0  0  0
   22.7227    4.2810   -4.1667 H   0  0  0  0  0
   22.2499    4.6697   -2.5251 H   0  0  0  0  0
   24.4005    3.7650   -2.6265 H   0  0  0  0  0
   24.6190    4.7613   -6.6471 H   0  0  0  0  0
   22.1433    4.2901   -8.1799 H   0  0  0  0  0
   24.8908    3.0568   -8.3965 H   0  0  0  0  0
   23.6043    4.8943  -10.3815 H   0  0  0  0  0
   25.8221    5.6411   -8.5120 H   0  0  0  0  0
   25.9317    6.8370  -10.6100 H   0  0  0  0  0
   25.4356    7.9584   -9.2907 H   0  0  0  0  0
   20.9799    2.1152   -4.3662 H   0  0  0  0  0
   21.0838    0.7657   -5.5233 H   0  0  0  0  0
   22.5703    1.4717   -4.8430 H   0  0  0  0  0
   23.6393    2.6417   -6.1826 H   0  0  0  0  0
   23.7998    2.1379  -10.2027 H   0  0  0  0  0
   24.1853    8.2132  -11.2070 H   0  0  0  0  0
   24.7727    4.7259  -12.2691 H   0  0  0  0  0
   27.3350    3.1452  -11.8218 H   0  0  0  0  0
   26.3444    4.1215  -14.5052 H   0  0  0  0  0
   26.3162    1.2863  -13.4673 H   0  0  0  0  0
   24.0432    3.2408  -13.9660 H   0  0  0  0  0
   23.4171    0.9993  -14.6287 H   0  0  0  0  0
   22.5312    1.5455  -13.1631 H   0  0  0  0  0
   28.8001    7.3334  -10.5695 H   0  0  0  0  0
   30.0324    6.7712  -11.7255 H   0  0  0  0  0
   28.4742    7.3962  -12.3190 H   0  0  0  0  0
   27.1383    5.8867  -13.0080 H   0  0  0  0  0
   28.0896    2.7132  -15.1223 H   0  0  0  0  0
   23.3154   -0.6106  -12.9879 H   0  0  0  0  0
   25.9244   -0.1943  -14.7945 H   0  0  0  0  0
   25.8330    0.6212  -17.7193 H   0  0  0  0  0
   25.8558   -2.1682  -16.5419 H   0  0  0  0  0
   28.0438   -0.6699  -18.0410 H   0  0  0  0  0
   27.8298   -1.5212  -15.1330 H   0  0  0  0  0
   30.1201   -1.6508  -16.3130 H   0  0  0  0  0
   29.9906   -0.7929  -14.7579 H   0  0  0  0  0
   21.4544    1.4528  -16.9992 H   0  0  0  0  0
   21.4137    0.2217  -18.2852 H   0  0  0  0  0
   21.6923   -0.2651  -16.5951 H   0  0  0  0  0
   23.7131   -0.7960  -16.1711 H   0  0  0  0  0
   26.1075   -2.6784  -18.7733 H   0  0  0  0  0
   29.2093   -2.5696  -17.5102 H   0  0  0  0  0
   31.1264    0.4243  -16.3545 H   0  0  0  0  0
  2  1  1  0  0  0
  9  1  1  0  0  0
  2  3  1  0  0  0
  4  2  1  0  0  0
  4  5  1  0  0  0
  6  4  1  0  0  0
  7  6  1  0  0  0
  6  8  1  0  0  0
 12  7  1  0  0  0
  8  9  1  0  0  0
  8 10  1  0  0  0
 10 11  1  0  0  0
 13 12  1  0  0  0
 23 12  1  0  0  0
 14 13  1  0  0  0
 13 20  1  0  0  0
 15 14  1  0  0  0
 14 21  1  0  0  0
 15 16  1  0  0  0
 22 15  1  0  0  0
 16 17  1  0  0  0
 16 23  1  0  0  0
 17 24  1  0  0  0
 18 19  1  0  0  0
 20 18  1  0  0  0
 18 25  2  0  0  0
 26 22  1  0  0  0
 27 26  1  0  0  0
 37 26  1  0  0  0
 28 27  1  0  0  0
 27 34  1  0  0  0
 29 28  1  0  0  0
 28 35  1  0  0  0
 29 30  1  0  0  0
 36 29  1  0  0  0
 30 31  1  0  0  0
 30 37  1  0  0  0
 31 38  1  0  0  0
 32 33  1  0  0  0
 34 32  1  0  0  0
 32 39  2  0  0  0
 40 36  1  0  0  0
 41 40  1  0  0  0
 40 51  1  0  0  0
 41 42  1  0  0  0
 48 41  1  0  0  0
 42 43  1  0  0  0
 42 49  1  0  0  0
 43 44  1  0  0  0
 43 50  1  0  0  0
 44 45  1  0  0  0
 51 44  1  0  0  0
 45 52  1  0  0  0
 46 47  1  0  0  0
 46 48  1  0  0  0
 46 53  2  0  0  0
  1 54  1  0  0  0
  1 55  1  0  0  0
  2 56  1  0  0  0
  3 57  1  0  0  0
  4 58  1  0  0  0
  5 59  1  0  0  0
  6 60  1  0  0  0
  8 61  1  0  0  0
  9 62  1  0  0  0
  9 63  1  0  0  0
 10 64  1  0  0  0
 10 65  1  0  0  0
 11 66  1  0  0  0
 12 67  1  0  0  0
 13 68  1  0  0  0
 14 69  1  0  0  0
 15 70  1  0  0  0
 16 71  1  0  0  0
 17 72  1  0  0  0
 17 73  1  0  0  0
 19 74  1  0  0  0
 19 75  1  0  0  0
 19 76  1  0  0  0
 20 77  1  0  0  0
 21 78  1  0  0  0
 24 79  1  0  0  0
 26 80  1  0  0  0
 27 81  1  0  0  0
 28 82  1  0  0  0
 29 83  1  0  0  0
 30 84  1  0  0  0
 31 85  1  0  0  0
 31 86  1  0  0  0
 33 87  1  0  0  0
 33 88  1  0  0  0
 33 89  1  0  0  0
 34 90  1  0  0  0
 35 91  1  0  0  0
 38 92  1  0  0  0
 40 93  1  0  0  0
 41 94  1  0  0  0
 42 95  1  0  0  0
 43 96  1  0  0  0
 44 97  1  0  0  0
 45 98  1  0  0  0
 45 99  1  0  0  0
 47100  1  0  0  0
 47101  1  0  0  0
 47102  1  0  0  0
 48103  1  0  0  0
 49104  1  0  0  0
 50105  1  0  0  0
 52106  1  0  0  0
M  END
$$$$
