3vbt_ligand
  -I-interpret- 

 19 20  0  0  0  0  0  0  0  0999 V2000
  -18.5000  -35.9010    2.0470 C   0  0  0  0  0
  -17.6200  -34.9580    2.4900 C   0  0  0  0  0
  -16.8480  -34.5570    1.4570 N   0  0  0  0  0
  -17.3270  -35.2770    0.2840 N   0  0  0  0  0
  -18.3040  -36.0900    0.7120 C   0  0  0  0  0
  -18.9620  -36.9750   -0.0920 C   0  0  0  0  0
  -19.9380  -37.8100    0.4360 C   0  0  0  0  0
  -20.6230  -38.7260   -0.3460 C   0  0  0  0  0
  -21.7860  -39.7800    0.4390 Cl  0  0  0  0  0
  -20.3630  -38.8600   -1.6910 C   0  0  0  0  0
  -19.3870  -38.0080   -2.2120 C   0  0  0  0  0
  -18.6800  -37.1050   -1.4400 C   0  0  0  0  0
  -17.7180  -36.2350   -1.9770 O   0  0  0  0  0
  -19.2383  -36.4182    2.6598 H   0  0  0  0  0
  -17.5509  -34.5877    3.5128 H   0  0  0  0  0
  -20.1724  -37.7427    1.4984 H   0  0  0  0  0
  -20.8870  -39.5869   -2.3116 H   0  0  0  0  0
  -19.1721  -38.0573   -3.2795 H   0  0  0  0  0
  -17.6087  -36.4190   -2.9128 H   0  0  0  0  0
  1  2  4  0  0  0
  1  5  4  0  0  0
  2  3  4  0  0  0
  3  4  4  0  0  0
  4  5  4  0  0  0
  5  6  1  0  0  0
  6  7  4  0  0  0
  6 12  4  0  0  0
  7  8  4  0  0  0
  8  9  1  0  0  0
  8 10  4  0  0  0
 10 11  4  0  0  0
 11 12  4  0  0  0
 12 13  1  0  0  0
  1 14  1  0  0  0
  2 15  1  0  0  0
  7 16  1  0  0  0
 10 17  1  0  0  0
 11 18  1  0  0  0
 13 19  1  0  0  0
M  END
$$$$
