6ekd_ligand
  -I-interpret- 

 49 52  0  0  0  0  0  0  0  0999 V2000
    8.6920   32.4010   13.2140 C   0  0  0  0  0
    6.8620   33.3120   15.1120 C   0  0  0  0  0
    6.9540   33.9370   13.8800 C   0  0  0  0  0
    6.8290   31.5920   19.1870 C   0  0  0  0  0
    8.7720   30.4250   18.7280 C   0  0  0  0  0
   11.2230   35.3610    9.4460 C   0  0  0  0  0
    9.9350   35.4350    8.9940 C   0  0  0  0  0
    8.9330   35.0500    9.7610 N   0  0  0  0  0
    9.1080   34.5740   10.9720 C   0  0  0  0  0
   10.3920   34.4860   11.5070 C   0  0  0  0  0
   11.4790   34.9020   10.7260 C   0  0  0  0  0
   12.7730   34.7860   11.2390 C   0  0  0  0  0
   13.1200   33.9110   12.1790 N   0  0  0  0  0
   14.3980   34.0590   12.4230 C   0  0  0  0  0
   14.9120   34.9800   11.6520 N   0  0  0  0  0
   13.9500   35.4620   10.8900 C   0  0  0  0  0
   14.1770   36.5730    9.8730 C   0  0  0  0  0
   15.3090   33.1090   13.6310 S   0  0  0  0  0
   17.0600   33.1810   13.1680 C   0  0  0  0  0
    7.8950   34.1820   11.6730 N   0  0  0  0  0
    7.8700   33.4910   12.9360 C   0  0  0  0  0
    8.6240   31.7770   14.4530 C   0  0  0  0  0
    7.6980   32.2250   15.4220 C   0  0  0  0  0
    7.6160   31.5710   16.7340 N   0  0  0  0  0
    6.8050   32.2280   17.8060 C   0  0  0  0  0
    8.1360   31.3160   19.5730 O   0  0  0  0  0
    8.8450   30.9430   17.2850 C   0  0  0  0  0
    9.3889   32.0377   12.4587 H   0  0  0  0  0
    6.1373   33.6647   15.8458 H   0  0  0  0  0
    6.3052   34.7822   13.6501 H   0  0  0  0  0
    6.2640   30.6603   19.1578 H   0  0  0  0  0
    6.3867   32.2841   19.9035 H   0  0  0  0  0
    8.2027   29.4955   18.7256 H   0  0  0  0  0
    9.7908   30.2844   19.0891 H   0  0  0  0  0
   12.0468   35.6630    8.7993 H   0  0  0  0  0
    9.7343   35.8150    7.9923 H   0  0  0  0  0
   10.5480   34.1006   12.5146 H   0  0  0  0  0
   13.8947   36.2193    8.8814 H   0  0  0  0  0
   13.5682   37.4371   10.1389 H   0  0  0  0  0
   15.2300   36.8548    9.8736 H   0  0  0  0  0
   17.1889   32.7573   12.1720 H   0  0  0  0  0
   17.3922   34.2191   13.1683 H   0  0  0  0  0
   17.6482   32.6097   13.8862 H   0  0  0  0  0
    7.0007   34.4125   11.2400 H   0  0  0  0  0
    9.2857   30.9407   14.6782 H   0  0  0  0  0
    7.2326   33.2227   17.9317 H   0  0  0  0  0
    5.7694   32.1678   17.4713 H   0  0  0  0  0
    9.0383   30.0689   16.6632 H   0  0  0  0  0
    9.6050   31.7244   17.2862 H   0  0  0  0  0
  1 21  4  0  0  0
 22  1  4  0  0  0
  2  3  4  0  0  0
 23  2  4  0  0  0
  3 21  4  0  0  0
 25  4  1  0  0  0
  4 26  1  0  0  0
 26  5  1  0  0  0
  5 27  1  0  0  0
  7  6  4  0  0  0
 11  6  4  0  0  0
  8  7  4  0  0  0
  9  8  4  0  0  0
  9 10  4  0  0  0
 20  9  1  0  0  0
 10 11  4  0  0  0
 11 12  1  0  0  0
 12 13  4  0  0  0
 12 16  4  0  0  0
 13 14  4  0  0  0
 15 14  4  0  0  0
 14 18  1  0  0  0
 16 15  4  0  0  0
 16 17  1  0  0  0
 18 19  1  0  0  0
 21 20  1  0  0  0
 23 22  4  0  0  0
 24 23  1  0  0  0
 24 25  1  0  0  0
 24 27  1  0  0  0
  1 28  1  0  0  0
  2 29  1  0  0  0
  3 30  1  0  0  0
  4 31  1  0  0  0
  4 32  1  0  0  0
  5 33  1  0  0  0
  5 34  1  0  0  0
  6 35  1  0  0  0
  7 36  1  0  0  0
 10 37  1  0  0  0
 17 38  1  0  0  0
 17 39  1  0  0  0
 17 40  1  0  0  0
 19 41  1  0  0  0
 19 42  1  0  0  0
 19 43  1  0  0  0
 20 44  1  0  0  0
 22 45  1  0  0  0
 25 46  1  0  0  0
 25 47  1  0  0  0
 27 48  1  0  0  0
 27 49  1  0  0  0
M  END
$$$$
