4afh_ligand
  -I-interpret- 

 53 55  0  0  0  0  0  0  0  0999 V2000
  -44.1380  110.1400   16.2770 O   0  0  0  0  0
  -45.3000  110.4800   16.4450 C   0  0  0  0  0
  -45.1260  119.1780   10.1170 C   0  0  0  0  0
  -46.1550  118.6720   10.9040 C   0  0  0  0  0
  -45.9520  117.5170   11.6690 C   0  0  0  0  0
  -44.7160  116.8720   11.6440 C   0  0  0  0  0
  -43.6920  117.3810   10.8510 C   0  0  0  0  0
  -43.8850  118.5410   10.0870 C   0  0  0  0  0
  -44.9980  114.4550   11.6130 C   0  0  0  0  0
  -44.7910  113.0680   12.2620 C   0  0  0  0  0
  -45.1510  111.9430   11.2770 C   0  0  0  0  0
  -44.8360  110.5940   11.9160 C   0  0  0  0  0
  -45.6040  110.4630   13.2300 C   0  0  0  0  0
  -45.2250  111.6060   14.1740 C   0  0  0  0  0
  -45.5070  112.9310   13.5560 N   0  3  0  0  0
  -46.9630  113.1440   13.4240 C   0  0  0  0  0
  -45.9880  111.4600   15.5030 C   0  0  0  0  0
  -44.4980  115.6340   12.4440 C   0  0  0  0  0
  -45.2500  115.6990   13.6510 O   0  0  0  0  0
  -47.2920  110.4570   17.9870 C   0  0  0  0  0
  -46.0810  109.8910   17.5930 C   0  0  0  0  0
  -45.5810  108.7730   18.2650 C   0  0  0  0  0
  -46.2980  108.2150   19.3180 C   0  0  0  0  0
  -47.5030  108.7860   19.7130 C   0  0  0  0  0
  -48.0060  109.9000   19.0470 C   0  0  0  0  0
  -45.2897  120.0759    9.5212 H   0  0  0  0  0
  -47.1215  119.1756   10.9253 H   0  0  0  0  0
  -46.7604  117.1219   12.2843 H   0  0  0  0  0
  -42.7285  116.8720   10.8234 H   0  0  0  0  0
  -43.0749  118.9404    9.4768 H   0  0  0  0  0
  -46.0727  114.5887   11.4899 H   0  0  0  0  0
  -44.4263  114.4578   10.6850 H   0  0  0  0  0
  -43.7308  112.9759   12.4979 H   0  0  0  0  0
  -44.5692  112.0585   10.3625 H   0  0  0  0  0
  -46.2130  111.9941   11.0368 H   0  0  0  0  0
  -43.7659  110.5250   12.1115 H   0  0  0  0  0
  -45.1330  109.7927   11.2395 H   0  0  0  0  0
  -45.3521  109.5120   13.6992 H   0  0  0  0  0
  -46.6738  110.5063   13.0259 H   0  0  0  0  0
  -44.1538  111.5509   14.3677 H   0  0  0  0  0
  -45.1540  113.6656   14.1693 H   0  0  0  0  0
  -47.1489  114.1479   13.0422 H   0  0  0  0  0
  -47.3753  112.4089   12.7328 H   0  0  0  0  0
  -47.4353  113.0319   14.4000 H   0  0  0  0  0
  -46.0216  112.4356   15.9880 H   0  0  0  0  0
  -46.9869  111.0822   15.2851 H   0  0  0  0  0
  -43.4418  115.5241   12.6900 H   0  0  0  0  0
  -44.9413  116.4385   14.1796 H   0  0  0  0  0
  -47.6801  111.3332   17.4676 H   0  0  0  0  0
  -44.6282  108.3376   17.9638 H   0  0  0  0  0
  -45.9166  107.3328   19.8321 H   0  0  0  0  0
  -48.0568  108.3587   20.5490 H   0  0  0  0  0
  -48.9567  110.3362   19.3538 H   0  0  0  0  0
  2  1  2  0  0  0
 17  2  1  0  0  0
  2 21  1  0  0  0
  4  3  4  0  0  0
  8  3  4  0  0  0
  5  4  4  0  0  0
  6  5  4  0  0  0
  6  7  4  0  0  0
 18  6  1  0  0  0
  7  8  4  0  0  0
 10  9  1  0  0  0
  9 18  1  0  0  0
 10 11  1  0  0  0
 15 10  1  0  0  0
 12 11  1  0  0  0
 13 12  1  0  0  0
 14 13  1  0  0  0
 14 15  1  0  0  0
 14 17  1  0  0  0
 15 16  1  0  0  0
 18 19  1  0  0  0
 21 20  4  0  0  0
 20 25  4  0  0  0
 21 22  4  0  0  0
 22 23  4  0  0  0
 23 24  4  0  0  0
 24 25  4  0  0  0
  3 26  1  0  0  0
  4 27  1  0  0  0
  5 28  1  0  0  0
  7 29  1  0  0  0
  8 30  1  0  0  0
  9 31  1  0  0  0
  9 32  1  0  0  0
 10 33  1  0  0  0
 11 34  1  0  0  0
 11 35  1  0  0  0
 12 36  1  0  0  0
 12 37  1  0  0  0
 13 38  1  0  0  0
 13 39  1  0  0  0
 14 40  1  0  0  0
 15 41  1  0  0  0
 16 42  1  0  0  0
 16 43  1  0  0  0
 16 44  1  0  0  0
 17 45  1  0  0  0
 17 46  1  0  0  0
 18 47  1  0  0  0
 19 48  1  0  0  0
 20 49  1  0  0  0
 22 50  1  0  0  0
 23 51  1  0  0  0
 24 52  1  0  0  0
 25 53  1  0  0  0
M  END
$$$$
