3tgs_ligand
  -I-interpret- 

 48 49  0  0  0  0  0  0  0  0999 V2000
  -24.0410   -8.8800   19.8170 C   0  0  0  0  0
  -23.4370   -8.2350   20.8930 C   0  0  0  0  0
  -23.2810   -6.8390   20.9530 C   0  0  0  0  0
  -23.7310   -5.9880   19.9520 C   0  0  0  0  0
  -24.3310   -6.6370   18.8470 C   0  0  0  0  0
  -24.4790   -8.0410   18.8020 C   0  0  0  0  0
  -23.5120   -4.5430   19.9570 N   0  0  0  0  0
  -22.3550   -3.9260   20.5280 C   0  0  0  0  0
  -24.1740  -10.3620   19.7810 Cl  0  0  0  0  0
  -22.1480   -2.3520   20.3500 C   0  0  0  0  0
  -21.0670   -1.7530   21.0010 N   0  0  0  0  0
  -20.5010   -0.4820   20.5230 C   0  0  0  0  0
  -19.5080    0.0800   21.5220 C   0  0  0  0  0
  -18.9070    1.3980   21.0010 C   0  0  0  0  0
  -18.1480    1.2450   19.7360 N   0  3  0  0  0
  -18.7820    0.3930   18.6880 C   0  0  0  0  0
  -19.7240   -0.7570   19.1980 C   0  0  0  0  0
  -17.9680    1.9890   22.0740 C   0  0  0  0  0
  -20.0740    2.4060   20.8170 C   0  0  0  0  0
  -19.5520    1.2700   17.6780 C   0  0  0  0  0
  -17.6680   -0.2710   17.8670 C   0  0  0  0  0
  -22.9800   -1.6790   19.7450 O   0  0  0  0  0
  -21.4910   -4.5170   21.0940 O   0  0  0  0  0
  -23.0697   -8.8376   21.7237 H   0  0  0  0  0
  -22.7858   -6.4062   21.8222 H   0  0  0  0  0
  -24.6881   -6.0382   18.0091 H   0  0  0  0  0
  -24.9591   -8.4858   17.9303 H   0  0  0  0  0
  -24.2200   -3.9444   19.5318 H   0  0  0  0  0
  -20.6632   -2.2045   21.8217 H   0  0  0  0  0
  -21.3155    0.2282   20.3803 H   0  0  0  0  0
  -18.7049   -0.6424   21.6678 H   0  0  0  0  0
  -20.0230    0.2731   22.4631 H   0  0  0  0  0
  -17.2705    0.7875   19.9833 H   0  0  0  0  0
  -18.0701    2.1797   19.3352 H   0  0  0  0  0
  -20.4813   -0.8924   18.4258 H   0  0  0  0  0
  -19.0773   -1.6112   19.3983 H   0  0  0  0  0
  -18.5346    2.1804   22.9853 H   0  0  0  0  0
  -17.1674    1.2800   22.2847 H   0  0  0  0  0
  -17.5412    2.9225   21.7072 H   0  0  0  0  0
  -20.7896    2.0043   20.0996 H   0  0  0  0  0
  -20.5687    2.5659   21.7750 H   0  0  0  0  0
  -19.6798    3.3528   20.4477 H   0  0  0  0  0
  -20.3284    1.8282   18.2013 H   0  0  0  0  0
  -18.8609    1.9656   17.2018 H   0  0  0  0  0
  -20.0086    0.6334   16.9201 H   0  0  0  0  0
  -17.0531    0.4993   17.4015 H   0  0  0  0  0
  -17.0501   -0.8833   18.5238 H   0  0  0  0  0
  -18.1125   -0.8988   17.0947 H   0  0  0  0  0
  1  2  4  0  0  0
  1  6  4  0  0  0
  1  9  1  0  0  0
  2  3  4  0  0  0
  3  4  4  0  0  0
  4  5  4  0  0  0
  4  7  1  0  0  0
  5  6  4  0  0  0
  7  8  1  0  0  0
  8 10  1  0  0  0
  8 23  2  0  0  0
 10 11  1  0  0  0
 10 22  2  0  0  0
 11 12  1  0  0  0
 12 13  1  0  0  0
 12 17  1  0  0  0
 13 14  1  0  0  0
 14 15  1  0  0  0
 14 18  1  0  0  0
 14 19  1  0  0  0
 15 16  1  0  0  0
 16 17  1  0  0  0
 16 20  1  0  0  0
 16 21  1  0  0  0
  2 24  1  0  0  0
  3 25  1  0  0  0
  5 26  1  0  0  0
  6 27  1  0  0  0
  7 28  1  0  0  0
 11 29  1  0  0  0
 12 30  1  0  0  0
 13 31  1  0  0  0
 13 32  1  0  0  0
 15 33  1  0  0  0
 15 34  1  0  0  0
 17 35  1  0  0  0
 17 36  1  0  0  0
 18 37  1  0  0  0
 18 38  1  0  0  0
 18 39  1  0  0  0
 19 40  1  0  0  0
 19 41  1  0  0  0
 19 42  1  0  0  0
 20 43  1  0  0  0
 20 44  1  0  0  0
 20 45  1  0  0  0
 21 46  1  0  0  0
 21 47  1  0  0  0
 21 48  1  0  0  0
M  END
$$$$
