2f18_ligand
  -I-interpret- 

 40 41  0  0  0  0  0  0  0  0999 V2000
   27.3650   67.5130   11.6710 C   0  0  0  0  0
   27.1270   68.8950   11.7740 C   0  0  0  0  0
   28.0380   69.7160   12.4180 C   0  0  0  0  0
   29.1500   69.0950   12.9410 C   0  0  0  0  0
   29.4310   67.7270   12.8650 C   0  0  0  0  0
   28.5090   66.9010   12.2090 C   0  0  0  0  0
   28.7610   65.3820   12.1220 C   0  0  0  0  0
   28.9030   64.8450   13.5390 C   0  0  0  0  0
   29.0260   63.4440   13.3650 O   0  0  0  0  0
   29.9000   65.2630   11.1830 N   0  3  0  0  0
   29.8710   65.7140    9.7930 C   0  0  0  0  0
   31.0190   65.1920    8.9450 C   0  0  0  0  0
   30.7500   65.3810    7.5060 N   0  3  0  0  0
   31.2440   66.6410    6.9600 C   0  0  0  0  0
   32.6020   66.5920    7.6590 C   0  0  0  0  0
   33.6160   65.8690    6.9940 O   0  0  0  0  0
   32.2390   66.1040    9.0560 C   0  0  0  0  0
   33.2210   65.1740    9.4700 O   0  0  0  0  0
   26.6333   66.8926   11.1536 H   0  0  0  0  0
   26.2208   69.3225   11.3448 H   0  0  0  0  0
   27.8835   70.7914   12.5057 H   0  0  0  0  0
   29.8740   69.7239   13.4591 H   0  0  0  0  0
   30.3404   67.3157   13.3032 H   0  0  0  0  0
   27.9658   64.7543   11.7200 H   0  0  0  0  0
   28.0530   65.1098   14.1679 H   0  0  0  0  0
   29.7601   65.2732   14.0588 H   0  0  0  0  0
   29.1211   63.0233   14.2226 H   0  0  0  0  0
   30.0056   64.2530   11.0875 H   0  0  0  0  0
   30.5992   65.8763   11.6018 H   0  0  0  0  0
   29.9489   66.8011    9.8058 H   0  0  0  0  0
   28.9481   65.3376    9.3518 H   0  0  0  0  0
   31.1528   64.1623    9.2766 H   0  0  0  0  0
   29.7368   65.3810    7.3886 H   0  0  0  0  0
   31.2321   64.6309    7.0106 H   0  0  0  0  0
   30.6327   67.5254    7.1397 H   0  0  0  0  0
   31.2556   66.7327    5.8739 H   0  0  0  0  0
   33.0977   67.5627    7.6730 H   0  0  0  0  0
   34.4228   65.9001    7.5134 H   0  0  0  0  0
   32.1148   66.9721    9.7034 H   0  0  0  0  0
   34.0610   65.6253    9.5809 H   0  0  0  0  0
  1  2  4  0  0  0
  1  6  4  0  0  0
  2  3  4  0  0  0
  3  4  4  0  0  0
  4  5  4  0  0  0
  5  6  4  0  0  0
  6  7  1  0  0  0
  7  8  1  0  0  0
  7 10  1  0  0  0
  8  9  1  0  0  0
 10 11  1  0  0  0
 11 12  1  0  0  0
 12 13  1  0  0  0
 12 17  1  0  0  0
 13 14  1  0  0  0
 14 15  1  0  0  0
 15 16  1  0  0  0
 15 17  1  0  0  0
 17 18  1  0  0  0
  1 19  1  0  0  0
  2 20  1  0  0  0
  3 21  1  0  0  0
  4 22  1  0  0  0
  5 23  1  0  0  0
  7 24  1  0  0  0
  8 25  1  0  0  0
  8 26  1  0  0  0
  9 27  1  0  0  0
 10 28  1  0  0  0
 10 29  1  0  0  0
 11 30  1  0  0  0
 11 31  1  0  0  0
 12 32  1  0  0  0
 13 33  1  0  0  0
 13 34  1  0  0  0
 14 35  1  0  0  0
 14 36  1  0  0  0
 15 37  1  0  0  0
 16 38  1  0  0  0
 17 39  1  0  0  0
 18 40  1  0  0  0
M  END
$$$$
