4qqc_ligand
  -I-interpret- 

 88 93  0  0  0  0  0  0  0  0999 V2000
  -24.5850    8.5230   -1.4840 C   0  0  0  0  0
  -25.8450    9.0240   -1.3820 N   0  0  0  0  0
  -26.8370    8.2440   -1.0200 C   0  0  0  0  0
  -26.7420    7.0350   -0.7260 N   0  0  0  0  0
  -25.6280    6.3950   -0.7610 C   0  0  0  0  0
  -24.5380    7.1020   -1.1360 C   0  0  0  0  0
  -25.5240    5.0860   -0.4910 N   0  0  0  0  0
  -24.3130    4.5040   -0.5470 C   0  0  0  0  0
  -23.2270    5.2370   -0.8980 N   0  0  0  0  0
  -23.3340    6.4980   -1.2110 C   0  0  0  0  0
  -28.0740    8.8960   -0.9290 N   0  0  0  0  0
  -29.3380    8.2990   -0.9070 C   0  0  0  0  0
  -30.4210    9.0950   -0.6870 C   0  0  0  0  0
  -31.7020    8.6030   -0.6520 C   0  0  0  0  0
  -31.8740    7.2550   -0.8210 C   0  0  0  0  0
  -30.7940    6.4480   -1.0600 C   0  0  0  0  0
  -29.5130    6.9640   -1.1060 C   0  0  0  0  0
  -33.2010    6.6740   -0.8370 N   0  0  0  0  0
  -33.3380    5.3750   -1.1540 C   0  0  0  0  0
  -34.5910    4.7930   -1.2230 C   0  0  0  0  0
  -35.6750    5.5430   -0.9850 N   0  3  0  0  0
  -35.5430    6.8520   -0.6920 C   0  0  0  0  0
  -34.2820    7.4290   -0.6300 C   0  0  0  0  0
  -36.9680    4.9400   -1.0580 C   0  0  0  0  0
  -21.9050    4.6790   -1.0640 C   0  0  0  0  0
  -21.1270    4.2110   -0.0370 C   0  0  0  0  0
  -19.8540    3.7120   -0.3280 C   0  0  0  0  0
  -19.3940    3.6820   -1.6320 C   0  0  0  0  0
  -20.1900    4.1440   -2.6920 C   0  0  0  0  0
  -21.4440    4.6540   -2.3770 C   0  0  0  0  0
  -19.8050    4.1390   -4.0250 O   0  0  0  0  0
  -19.0830    3.2360    0.7370 O   0  0  0  0  0
  -18.4850    3.8840   -4.3270 C   0  0  0  0  0
  -17.6960    3.3110    0.6500 C   0  0  0  0  0
  -24.1740    3.1720   -0.2270 O   0  0  0  0  0
  -26.7180    4.4080   -0.0020 C   0  0  0  0  0
  -27.3210    3.1470   -0.5470 C   0  0  0  0  0
  -27.3640    2.0200    0.2470 C   0  0  0  0  0
  -27.9480    0.8250   -0.2320 C   0  0  0  0  0
  -28.5300    0.7740   -1.4920 C   0  0  0  0  0
  -28.4880    1.9270   -2.2770 C   0  0  0  0  0
  -27.8870    3.1300   -1.8080 C   0  0  0  0  0
  -29.1660   -0.4270   -2.0270 N   0  0  0  0  0
  -29.9530   -1.3770   -1.3130 C   0  0  0  0  0
  -30.5380   -2.5410   -2.0470 C   0  0  0  0  0
  -30.2320   -3.8570   -1.3770 C   0  0  0  0  0
  -30.1620   -1.2710   -0.1290 O   0  0  0  0  0
  -23.7167    9.1077   -1.7876 H   0  0  0  0  0
  -22.7178    7.0180   -0.4775 H   0  0  0  0  0
  -23.0669    6.5443   -2.2668 H   0  0  0  0  0
  -28.0497    9.9142   -0.8729 H   0  0  0  0  0
  -30.2647   10.1627   -0.5330 H   0  0  0  0  0
  -32.5545    9.2638   -0.4948 H   0  0  0  0  0
  -30.9474    5.3803   -1.2167 H   0  0  0  0  0
  -28.6590    6.3144   -1.2980 H   0  0  0  0  0
  -32.8437    4.8478   -0.3380 H   0  0  0  0  0
  -32.9561    5.3074   -2.1727 H   0  0  0  0  0
  -34.5931    4.0416   -0.4334 H   0  0  0  0  0
  -34.6941    4.4755   -2.2606 H   0  0  0  0  0
  -35.8096    6.2404   -0.2529 H   0  0  0  0  0
  -35.9334    6.9438    0.3215 H   0  0  0  0  0
  -36.0360    7.3657   -1.5173 H   0  0  0  0  0
  -34.2708    8.1556   -1.4424 H   0  0  0  0  0
  -34.1859    7.7720    0.4001 H   0  0  0  0  0
  -37.1261    4.5427   -2.0606 H   0  0  0  0  0
  -37.0316    4.1305   -0.3308 H   0  0  0  0  0
  -37.7294    5.6883   -0.8380 H   0  0  0  0  0
  -21.4947    4.2277    0.9890 H   0  0  0  0  0
  -18.3971    3.2933   -1.8400 H   0  0  0  0  0
  -22.0787    5.0419   -3.1737 H   0  0  0  0  0
  -17.8538    4.6382   -3.8571 H   0  0  0  0  0
  -18.2125    2.8967   -3.9541 H   0  0  0  0  0
  -18.3482    3.9161   -5.4079 H   0  0  0  0  0
  -17.3559    2.7386   -0.2130 H   0  0  0  0  0
  -17.3961    4.3529    0.5376 H   0  0  0  0  0
  -17.2536    2.9001    1.5575 H   0  0  0  0  0
  -27.4939    5.1385   -0.2312 H   0  0  0  0  0
  -26.3969    4.0867    0.9888 H   0  0  0  0  0
  -26.9441    2.0510    1.2524 H   0  0  0  0  0
  -27.9414   -0.0667    0.3948 H   0  0  0  0  0
  -28.9264    1.9064   -3.2747 H   0  0  0  0  0
  -27.8736    4.0228   -2.4332 H   0  0  0  0  0
  -29.0321   -0.6058   -3.0222 H   0  0  0  0  0
  -30.1029   -2.5624   -3.0462 H   0  0  0  0  0
  -31.6207   -2.4169   -2.0672 H   0  0  0  0  0
  -29.1520   -3.9968   -1.3298 H   0  0  0  0  0
  -30.6437   -3.8538   -0.3677 H   0  0  0  0  0
  -30.6799   -4.6682   -1.9509 H   0  0  0  0  0
  1  2  4  0  0  0
  1  6  4  0  0  0
  2  3  4  0  0  0
  3  4  4  0  0  0
  3 11  1  0  0  0
  4  5  4  0  0  0
  5  6  4  0  0  0
  5  7  1  0  0  0
  6 10  1  0  0  0
  7  8  1  0  0  0
  7 36  1  0  0  0
  8  9  1  0  0  0
  8 35  2  0  0  0
  9 10  1  0  0  0
  9 25  1  0  0  0
 11 12  1  0  0  0
 12 13  4  0  0  0
 12 17  4  0  0  0
 13 14  4  0  0  0
 14 15  4  0  0  0
 15 16  4  0  0  0
 15 18  1  0  0  0
 16 17  4  0  0  0
 18 19  1  0  0  0
 18 23  1  0  0  0
 19 20  1  0  0  0
 20 21  1  0  0  0
 21 22  1  0  0  0
 21 24  1  0  0  0
 22 23  1  0  0  0
 25 26  4  0  0  0
 25 30  4  0  0  0
 26 27  4  0  0  0
 27 28  4  0  0  0
 27 32  1  0  0  0
 28 29  4  0  0  0
 29 30  4  0  0  0
 29 31  1  0  0  0
 31 33  1  0  0  0
 32 34  1  0  0  0
 36 37  1  0  0  0
 37 38  4  0  0  0
 37 42  4  0  0  0
 38 39  4  0  0  0
 39 40  4  0  0  0
 40 41  4  0  0  0
 40 43  1  0  0  0
 41 42  4  0  0  0
 43 44  1  0  0  0
 44 45  1  0  0  0
 44 47  2  0  0  0
 45 46  1  0  0  0
  1 48  1  0  0  0
 10 49  1  0  0  0
 10 50  1  0  0  0
 11 51  1  0  0  0
 13 52  1  0  0  0
 14 53  1  0  0  0
 16 54  1  0  0  0
 17 55  1  0  0  0
 19 56  1  0  0  0
 19 57  1  0  0  0
 20 58  1  0  0  0
 20 59  1  0  0  0
 21 60  1  0  0  0
 22 61  1  0  0  0
 22 62  1  0  0  0
 23 63  1  0  0  0
 23 64  1  0  0  0
 24 65  1  0  0  0
 24 66  1  0  0  0
 24 67  1  0  0  0
 26 68  1  0  0  0
 28 69  1  0  0  0
 30 70  1  0  0  0
 33 71  1  0  0  0
 33 72  1  0  0  0
 33 73  1  0  0  0
 34 74  1  0  0  0
 34 75  1  0  0  0
 34 76  1  0  0  0
 36 77  1  0  0  0
 36 78  1  0  0  0
 38 79  1  0  0  0
 39 80  1  0  0  0
 41 81  1  0  0  0
 42 82  1  0  0  0
 43 83  1  0  0  0
 45 84  1  0  0  0
 45 85  1  0  0  0
 46 86  1  0  0  0
 46 87  1  0  0  0
 46 88  1  0  0  0
M  END
$$$$
