4tz8_ligand
  -I-interpret- 

 27 28  0  0  0  0  0  0  0  0999 V2000
   28.4120  -45.5840  148.4800 C   0  0  0  0  0
   24.6220  -45.3670  148.6640 C   0  0  0  0  0
   25.0700  -46.4280  147.9030 C   0  0  0  0  0
   24.0740  -46.9540  147.0650 N   0  0  0  0  0
   22.9440  -45.0040  148.3530 S   0  0  0  0  0
   22.9130  -46.3170  147.1920 C   0  0  0  0  0
   25.2700  -44.5010  149.6620 C   0  0  0  0  0
   26.2760  -44.9920  150.3960 N   0  0  0  0  0
   26.4440  -47.0510  147.8590 C   0  0  0  0  0
   27.4880  -46.7210  148.9780 C   0  0  0  0  0
   24.8880  -43.3440  149.8280 O   0  0  0  0  0
   21.7800  -46.6490  146.4810 N   0  0  0  0  0
   26.8630  -46.3320  150.3470 C   0  0  0  0  0
   28.3670  -47.9670  149.2150 C   0  0  0  0  0
   28.9287  -45.9070  147.5762 H   0  0  0  0  0
   27.8128  -44.7001  148.2613 H   0  0  0  0  0
   29.1431  -45.3468  149.2529 H   0  0  0  0  0
   26.6855  -44.3511  151.0757 H   0  0  0  0  0
   26.8914  -46.6610  146.9448 H   0  0  0  0  0
   26.2621  -48.1207  147.9624 H   0  0  0  0  0
   21.8041  -47.4206  145.8144 H   0  0  0  0  0
   20.9174  -46.1231  146.6214 H   0  0  0  0  0
   26.0550  -47.0383  150.5378 H   0  0  0  0  0
   27.6698  -46.3508  151.0797 H   0  0  0  0  0
   27.7375  -48.7999  149.5282 H   0  0  0  0  0
   28.8829  -48.2273  148.2907 H   0  0  0  0  0
   29.0993  -47.7508  149.9929 H   0  0  0  0  0
 10  1  1  0  0  0
  3  2  4  0  0  0
  2  5  4  0  0  0
  2  7  1  0  0  0
  3  4  4  0  0  0
  9  3  1  0  0  0
  4  6  4  0  0  0
  6  5  4  0  0  0
  6 12  1  0  0  0
  7  8  1  0  0  0
  7 11  2  0  0  0
  8 13  1  0  0  0
  9 10  1  0  0  0
 10 13  1  0  0  0
 10 14  1  0  0  0
  1 15  1  0  0  0
  1 16  1  0  0  0
  1 17  1  0  0  0
  8 18  1  0  0  0
  9 19  1  0  0  0
  9 20  1  0  0  0
 12 21  1  0  0  0
 12 22  1  0  0  0
 13 23  1  0  0  0
 13 24  1  0  0  0
 14 25  1  0  0  0
 14 26  1  0  0  0
 14 27  1  0  0  0
M  END
$$$$
