2x91_ligand
  -I-interpret- 

 62 63  0  0  0  0  0  0  0  0999 V2000
   29.7170   -3.0590   43.2660 O   0  0  0  0  0
   27.6470   -1.4010   46.8380 O   0  0  0  0  0
   25.7080   -1.5690   45.8300 O   0  0  0  0  0
   30.9370   -5.8120   42.5300 O   0  0  0  0  0
   32.6950   -4.6030   43.0570 O   0  0  0  0  0
   27.2260   -2.2050   43.5020 N   0  3  0  0  0
   29.5760   -4.7520   44.7620 N   0  0  0  0  0
   27.5510   -7.4620   38.8350 N   0  3  0  0  0
   28.9880   -3.8170   43.9850 C   0  0  0  0  0
   27.4320   -3.6340   43.9290 C   0  0  0  0  0
   26.9530   -1.3680   45.8110 C   0  0  0  0  0
   27.6030   -1.0720   44.4550 C   0  0  0  0  0
   31.0830   -4.8930   44.7430 C   0  0  0  0  0
   31.2840   -6.1180   45.6500 C   0  0  0  0  0
   30.1550   -6.2620   46.4070 C   0  0  0  0  0
   28.9680   -5.7550   45.6810 C   0  0  0  0  0
   31.5740   -5.1700   43.3080 C   0  0  0  0  0
   26.9060   -4.6770   42.9770 C   0  0  0  0  0
   27.5120   -4.7990   41.6610 C   0  0  0  0  0
   26.9470   -5.9390   40.6730 C   0  0  0  0  0
   28.0000   -6.3890   39.7950 C   0  0  0  0  0
   27.2030    0.3170   43.8640 C   0  0  0  0  0
   27.8870    1.4460   44.6210 C   0  0  0  0  0
   27.5990    2.8670   44.2280 C   0  0  0  0  0
   28.1750    3.9280   44.9920 C   0  0  0  0  0
   27.9260    5.2860   44.6480 C   0  0  0  0  0
   27.0840    5.5930   43.5280 C   0  0  0  0  0
   26.4990    4.5380   42.7600 C   0  0  0  0  0
   26.7580    3.1800   43.1080 C   0  0  0  0  0
   25.3602   -1.4997   44.9379 H   0  0  0  0  0
   33.0056   -4.1485   43.8435 H   0  0  0  0  0
   26.2174   -2.1147   43.3793 H   0  0  0  0  0
   27.8433   -2.0836   42.6991 H   0  0  0  0  0
   28.3353   -7.7376   38.2439 H   0  0  0  0  0
   27.2198   -8.2705   39.3613 H   0  0  0  0  0
   26.7953   -7.1010   38.2528 H   0  0  0  0  0
   26.8931   -3.7832   44.8646 H   0  0  0  0  0
   28.6831   -1.0192   44.5919 H   0  0  0  0  0
   31.6297   -4.0091   45.0715 H   0  0  0  0  0
   32.1553   -5.9783   46.2898 H   0  0  0  0  0
   31.4555   -7.0114   45.0496 H   0  0  0  0  0
   30.2740   -5.6917   47.3283 H   0  0  0  0  0
   30.0094   -7.3203   46.6237 H   0  0  0  0  0
   28.4116   -6.5358   45.1625 H   0  0  0  0  0
   28.2060   -5.3347   46.3374 H   0  0  0  0  0
   25.8731   -4.3867   42.7849 H   0  0  0  0  0
   27.1042   -5.6302   43.4671 H   0  0  0  0  0
   28.5530   -5.0648   41.8449 H   0  0  0  0  0
   27.3076   -3.8533   41.1591 H   0  0  0  0  0
   26.1314   -5.5286   40.0776 H   0  0  0  0  0
   26.5848   -6.7808   41.2631 H   0  0  0  0  0
   28.3283   -5.5330   39.2054 H   0  0  0  0  0
   28.7916   -6.8094   40.4152 H   0  0  0  0  0
   26.1235    0.4384   43.9534 H   0  0  0  0  0
   27.5134    0.3564   42.8199 H   0  0  0  0  0
   28.9507    1.3109   44.4250 H   0  0  0  0  0
   27.5222    1.3587   45.6444 H   0  0  0  0  0
   28.8109    3.6951   45.8461 H   0  0  0  0  0
   28.3732    6.0896   45.2331 H   0  0  0  0  0
   26.8898    6.6320   43.2619 H   0  0  0  0  0
   25.8568    4.7716   41.9108 H   0  0  0  0  0
   26.3152    2.3756   42.5207 H   0  0  0  0  0
  9  1  2  0  0  0
 11  2  2  0  0  0
 11  3  1  0  0  0
 17  4  2  0  0  0
 17  5  1  0  0  0
 10  6  1  0  0  0
  6 12  1  0  0  0
  9  7  1  0  0  0
  7 13  1  0  0  0
  7 16  1  0  0  0
 21  8  1  0  0  0
 10  9  1  0  0  0
 18 10  1  0  0  0
 12 11  1  0  0  0
 12 22  1  0  0  0
 13 14  1  0  0  0
 13 17  1  0  0  0
 15 14  1  0  0  0
 16 15  1  0  0  0
 19 18  1  0  0  0
 20 19  1  0  0  0
 20 21  1  0  0  0
 22 23  1  0  0  0
 23 24  1  0  0  0
 24 25  4  0  0  0
 24 29  4  0  0  0
 25 26  4  0  0  0
 26 27  4  0  0  0
 27 28  4  0  0  0
 28 29  4  0  0  0
  3 30  1  0  0  0
  5 31  1  0  0  0
  6 32  1  0  0  0
  6 33  1  0  0  0
  8 34  1  0  0  0
  8 35  1  0  0  0
  8 36  1  0  0  0
 10 37  1  0  0  0
 12 38  1  0  0  0
 13 39  1  0  0  0
 14 40  1  0  0  0
 14 41  1  0  0  0
 15 42  1  0  0  0
 15 43  1  0  0  0
 16 44  1  0  0  0
 16 45  1  0  0  0
 18 46  1  0  0  0
 18 47  1  0  0  0
 19 48  1  0  0  0
 19 49  1  0  0  0
 20 50  1  0  0  0
 20 51  1  0  0  0
 21 52  1  0  0  0
 21 53  1  0  0  0
 22 54  1  0  0  0
 22 55  1  0  0  0
 23 56  1  0  0  0
 23 57  1  0  0  0
 25 58  1  0  0  0
 26 59  1  0  0  0
 27 60  1  0  0  0
 28 61  1  0  0  0
 29 62  1  0  0  0
M  END
$$$$
