1hpx_ligand
  -I-interpret- 

 87 90  0  0  0  0  0  0  0  0999 V2000
    6.8480    1.1810    6.1590 C   0  0  0  0  0
    6.3030    2.0170    7.1160 C   0  0  0  0  0
    6.8860    3.2730    7.3630 C   0  0  0  0  0
    7.9910    3.5920    6.6130 C   0  0  0  0  0
    8.4680    2.6490    5.6450 C   0  0  0  0  0
    6.3520    4.1700    8.3470 C   0  0  0  0  0
    7.0000    5.3880    8.5210 C   0  0  0  0  0
    8.1090    5.7150    7.7740 C   0  0  0  0  0
    8.6290    4.8460    6.8160 C   0  0  0  0  0
    5.1400    4.3750   10.3520 C   0  0  0  0  0
    4.0670    3.6830   11.1060 C   0  0  0  0  0
    1.9440    1.0010   10.8350 C   0  0  0  0  0
    3.7830    0.5420   12.4570 C   0  0  0  0  0
    5.3500    0.0820   14.2740 C   0  0  0  0  0
    4.7050   -0.1800   15.6420 C   0  0  0  0  0
    6.7750    0.6540   14.3470 C   0  0  0  0  0
    5.3390   -1.3860   16.3300 C   0  0  0  0  0
    5.3730   -3.8190   16.5060 C   0  0  0  0  0
    4.4270   -4.9930   16.2580 C   0  0  0  0  0
    3.5440   -2.6640   15.2240 C   0  0  0  0  0
    6.6530   -3.9790   15.7410 C   0  0  0  0  0
    9.0130   -4.6390   15.8920 C   0  0  0  0  0
    9.5560   -3.2490   15.5420 C   0  0  0  0  0
    9.0970   -5.5670   14.6780 C   0  0  0  0  0
    9.8800   -5.1830   17.0210 C   0  0  0  0  0
    3.0280    1.6030   11.6960 C   0  0  0  0  0
   -0.1580    2.0560   12.1600 C   0  0  0  0  0
    7.3720    0.9000   12.9760 C   0  0  0  0  0
    7.4010    2.1660   12.4260 C   0  0  0  0  0
    7.9490    2.3680   11.1710 C   0  0  0  0  0
    8.4650    1.3190   10.4460 C   0  0  0  0  0
    8.4370    0.0660   10.9930 C   0  0  0  0  0
    7.8990   -0.1460   12.2450 C   0  0  0  0  0
    7.9070    1.4590    5.4270 N   0  0  0  0  0
    3.9550    2.3840   10.8930 N   0  0  0  0  0
    4.4960    0.9820   13.4920 N   0  0  0  0  0
    4.7420   -2.5650   16.0640 N   0  0  0  0  0
    7.6370   -4.5750   16.4030 N   0  0  0  0  0
    5.2350    3.7910    9.0820 O   0  0  0  0  0
    4.9490    0.9340   16.4270 O   0  0  0  0  0
    3.3270    4.2970   11.8520 O   0  0  0  0  0
    6.3240   -1.2340   17.0450 O   0  0  0  0  0
    6.7460   -3.5740   14.5880 O   0  0  0  0  0
    3.7580   -0.6290   12.1110 O   0  0  0  0  0
    0.6680    0.4350   11.9930 S   0  0  0  0  0
    3.2630   -4.4400   14.9730 S   0  0  0  0  0
    6.3639    0.2177    5.9980 H   0  0  0  0  0
    5.4233    1.7033    7.6779 H   0  0  0  0  0
    9.3412    2.9206    5.0517 H   0  0  0  0  0
    6.6239    6.0949    9.2605 H   0  0  0  0  0
    8.5930    6.6782    7.9357 H   0  0  0  0  0
    9.5079    5.1228    6.2338 H   0  0  0  0  0
    4.9059    5.4354   10.2584 H   0  0  0  0  0
    6.0890    4.2776   10.8794 H   0  0  0  0  0
    2.3251    0.1805   10.2270 H   0  0  0  0  0
    1.5470    1.7269   10.1254 H   0  0  0  0  0
    5.4401   -0.8906   13.7902 H   0  0  0  0  0
    3.6408   -0.3748   15.5089 H   0  0  0  0  0
    7.4033   -0.0727   14.8621 H   0  0  0  0  0
    6.7277    1.6093   14.8698 H   0  0  0  0  0
    5.5865   -3.7938   17.5746 H   0  0  0  0  0
    4.9747   -5.8795   15.9383 H   0  0  0  0  0
    3.9016   -5.2752   17.1704 H   0  0  0  0  0
    3.6807   -2.1457   14.2749 H   0  0  0  0  0
    2.6855   -2.1896   15.6994 H   0  0  0  0  0
    8.9265   -2.7968   14.7756 H   0  0  0  0  0
    9.5506   -2.6230   16.4343 H   0  0  0  0  0
   10.5756   -3.3422   15.1681 H   0  0  0  0  0
    8.7807   -6.5695   14.9661 H   0  0  0  0  0
    8.4450   -5.1914   13.8894 H   0  0  0  0  0
   10.1250   -5.5987   14.3169 H   0  0  0  0  0
    9.8172   -4.5148   17.8799 H   0  0  0  0  0
    9.5261   -6.1744   17.3038 H   0  0  0  0  0
   10.9146   -5.2475   16.6841 H   0  0  0  0  0
    2.5393    2.2604   12.4151 H   0  0  0  0  0
    0.5510    2.7849   12.5528 H   0  0  0  0  0
   -0.5139    2.3833   11.1831 H   0  0  0  0  0
   -1.0021    1.9635   12.8434 H   0  0  0  0  0
    6.9910    3.0092   12.9818 H   0  0  0  0  0
    7.9720    3.3735   10.7509 H   0  0  0  0  0
    8.8879    1.4833    9.4549 H   0  0  0  0  0
    8.8448   -0.7753   10.4327 H   0  0  0  0  0
    7.8897   -1.1526   12.6630 H   0  0  0  0  0
    4.5150    1.9320   10.1702 H   0  0  0  0  0
    4.4470    1.9684   13.7470 H   0  0  0  0  0
    7.4293   -5.0064   17.3037 H   0  0  0  0  0
    4.5580    0.8048   17.2942 H   0  0  0  0  0
  1 34  4  0  0  0
  1  2  4  0  0  0
  2  3  4  0  0  0
  3  6  4  0  0  0
  3  4  4  0  0  0
  4  9  4  0  0  0
  4  5  4  0  0  0
  5 34  4  0  0  0
  9  8  4  0  0  0
  8  7  4  0  0  0
  7  6  4  0  0  0
  6 39  1  0  0  0
 39 10  1  0  0  0
 10 11  1  0  0  0
 11 41  2  0  0  0
 11 35  1  0  0  0
 35 26  1  0  0  0
 26 13  1  0  0  0
 26 12  1  0  0  0
 12 45  1  0  0  0
 45 27  1  0  0  0
 13 36  1  0  0  0
 13 44  2  0  0  0
 36 14  1  0  0  0
 14 16  1  0  0  0
 14 15  1  0  0  0
 15 40  1  0  0  0
 15 17  1  0  0  0
 17 37  1  0  0  0
 17 42  2  0  0  0
 37 18  1  0  0  0
 37 20  1  0  0  0
 20 46  1  0  0  0
 46 19  1  0  0  0
 19 18  1  0  0  0
 18 21  1  0  0  0
 21 38  1  0  0  0
 21 43  2  0  0  0
 38 22  1  0  0  0
 22 25  1  0  0  0
 22 24  1  0  0  0
 22 23  1  0  0  0
 16 28  1  0  0  0
 28 33  4  0  0  0
 28 29  4  0  0  0
 29 30  4  0  0  0
 30 31  4  0  0  0
 31 32  4  0  0  0
 32 33  4  0  0  0
  1 47  1  0  0  0
  2 48  1  0  0  0
  5 49  1  0  0  0
  7 50  1  0  0  0
  8 51  1  0  0  0
  9 52  1  0  0  0
 10 53  1  0  0  0
 10 54  1  0  0  0
 12 55  1  0  0  0
 12 56  1  0  0  0
 14 57  1  0  0  0
 15 58  1  0  0  0
 16 59  1  0  0  0
 16 60  1  0  0  0
 18 61  1  0  0  0
 19 62  1  0  0  0
 19 63  1  0  0  0
 20 64  1  0  0  0
 20 65  1  0  0  0
 23 66  1  0  0  0
 23 67  1  0  0  0
 23 68  1  0  0  0
 24 69  1  0  0  0
 24 70  1  0  0  0
 24 71  1  0  0  0
 25 72  1  0  0  0
 25 73  1  0  0  0
 25 74  1  0  0  0
 26 75  1  0  0  0
 27 76  1  0  0  0
 27 77  1  0  0  0
 27 78  1  0  0  0
 29 79  1  0  0  0
 30 80  1  0  0  0
 31 81  1  0  0  0
 32 82  1  0  0  0
 33 83  1  0  0  0
 35 84  1  0  0  0
 36 85  1  0  0  0
 38 86  1  0  0  0
 40 87  1  0  0  0
M  END
$$$$
