3lj7_ligand
  -I-interpret- 

 22 22  0  0  0  0  0  0  0  0999 V2000
   14.3480   42.6580    3.1880 N   0  0  0  0  0
   13.2090   41.9720    3.0150 C   0  0  0  0  0
   12.3790   41.8160    3.9300 O   0  0  0  0  0
   14.7260   43.2660    4.4460 C   0  0  0  0  0
   15.5780   44.5070    4.2050 C   0  0  0  0  0
   15.9870   45.1850    5.5190 C   0  0  0  0  0
   16.6980   44.2140    6.4520 C   0  0  0  0  0
   15.9320   42.8840    6.6080 C   0  0  0  0  0
   15.5610   42.2770    5.2600 C   0  0  0  0  0
   14.9798   42.7563    2.3933 H   0  0  0  0  0
   13.0022   41.5351    2.0381 H   0  0  0  0  0
   13.8157   43.5387    4.9798 H   0  0  0  0  0
   14.9904   45.2169    3.6229 H   0  0  0  0  0
   16.4842   44.2027    3.6812 H   0  0  0  0  0
   15.0861   45.5441    6.0166 H   0  0  0  0  0
   16.6695   46.0026    5.2872 H   0  0  0  0  0
   16.7692   44.6803    7.4347 H   0  0  0  0  0
   17.6769   43.9924    6.0270 H   0  0  0  0  0
   15.0116   43.0832    7.1569 H   0  0  0  0  0
   16.5765   42.1792    7.1333 H   0  0  0  0  0
   16.4733   42.0443    4.7108 H   0  0  0  0  0
   14.9786   41.3706    5.4255 H   0  0  0  0  0
  1  2  1  0  0  0
  1  4  1  0  0  0
  2  3  2  0  0  0
  4  5  1  0  0  0
  4  9  1  0  0  0
  5  6  1  0  0  0
  6  7  1  0  0  0
  7  8  1  0  0  0
  8  9  1  0  0  0
  1 10  1  0  0  0
  2 11  1  0  0  0
  4 12  1  0  0  0
  5 13  1  0  0  0
  5 14  1  0  0  0
  6 15  1  0  0  0
  6 16  1  0  0  0
  7 17  1  0  0  0
  7 18  1  0  0  0
  8 19  1  0  0  0
  8 20  1  0  0  0
  9 21  1  0  0  0
  9 22  1  0  0  0
M  END
$$$$
