3sr4_ligand
  -I-interpret- 

 50 52  0  0  0  0  0  0  0  0999 V2000
   41.9410   53.5070    0.9770 C   0  0  0  0  0
   41.8210   51.1390    1.6040 N   0  3  0  0  0
   42.6880   53.1120    0.0640 O   0  0  0  0  0
   47.5070   43.5170    9.6100 C   0  0  0  0  0
   43.8450   43.6580    8.6140 N   0  0  0  0  0
   42.8050   44.4990    8.1900 C   0  0  0  0  0
   43.0890   45.8580    8.0330 N   0  0  0  0  0
   44.3460   46.3640    8.2820 C   0  0  0  0  0
   45.3930   45.5200    8.7080 C   0  0  0  0  0
   45.1330   44.1380    8.8760 C   0  0  0  0  0
   46.0760   43.2570    9.2760 N   0  0  0  0  0
   46.4920   46.2840    8.8670 N   0  0  0  0  0
   46.1950   47.5650    8.5630 C   0  0  0  0  0
   44.8630   47.6280    8.1970 N   0  0  0  0  0
   41.5150   52.5300    2.0760 C   0  0  0  0  0
   42.2020   52.8070    3.4450 C   0  0  0  0  0
   44.5390   53.0040    5.0270 S   0  0  0  0  0
   43.7410   52.6700    3.4400 C   0  0  0  0  0
   44.0960   48.8200    7.7710 C   0  0  0  0  0
   44.2880   50.0150    8.6790 C   0  0  0  0  0
   43.4780   49.9340    9.8240 O   0  0  0  0  0
   43.9240   51.1840    7.7670 C   0  0  0  0  0
   42.6310   51.7140    7.9980 O   0  0  0  0  0
   44.0840   50.6210    6.3560 C   0  0  0  0  0
   44.5190   49.2700    6.4920 O   0  0  0  0  0
   45.1310   51.3730    5.5460 C   0  0  0  0  0
   41.5690   54.6990    0.9840 O   0  0  0  0  0
   41.3628   50.9770    0.7072 H   0  0  0  0  0
   42.8296   51.0321    1.4960 H   0  0  0  0  0
   41.4779   50.4656    2.2890 H   0  0  0  0  0
   48.0121   43.9341    8.7388 H   0  0  0  0  0
   47.5629   44.2245   10.4373 H   0  0  0  0  0
   47.9875   42.5817    9.8970 H   0  0  0  0  0
   41.8085   44.1052    7.9897 H   0  0  0  0  0
   45.7699   42.2877    9.3607 H   0  0  0  0  0
   46.8870   48.4063    8.5997 H   0  0  0  0  0
   40.4471   52.6583    2.2528 H   0  0  0  0  0
   41.8213   52.0635    4.1453 H   0  0  0  0  0
   41.9781   53.8411    3.7069 H   0  0  0  0  0
   44.1215   53.4079    2.7337 H   0  0  0  0  0
   43.9650   51.6340    3.1857 H   0  0  0  0  0
   43.0578   48.4883    7.7849 H   0  0  0  0  0
   45.2947   50.1024    9.0878 H   0  0  0  0  0
   43.6260   50.7063   10.3746 H   0  0  0  0  0
   44.5683   52.0436    7.9516 H   0  0  0  0  0
   42.4716   52.4414    7.3921 H   0  0  0  0  0
   43.1316   50.7122    5.8337 H   0  0  0  0  0
   46.0124   51.5124    6.1719 H   0  0  0  0  0
   45.3555   50.7904    4.6525 H   0  0  0  0  0
   41.0019   54.8516    1.7434 H   0  0  0  0  0
  1  3  2  0  0  0
 15  1  1  0  0  0
  1 27  1  0  0  0
 15  2  1  0  0  0
 11  4  1  0  0  0
  6  5  4  0  0  0
 10  5  4  0  0  0
  7  6  4  0  0  0
  8  7  4  0  0  0
  8  9  4  0  0  0
 14  8  4  0  0  0
  9 10  4  0  0  0
 12  9  4  0  0  0
 10 11  1  0  0  0
 13 12  4  0  0  0
 14 13  4  0  0  0
 19 14  1  0  0  0
 16 15  1  0  0  0
 18 16  1  0  0  0
 17 18  1  0  0  0
 26 17  1  0  0  0
 19 20  1  0  0  0
 25 19  1  0  0  0
 20 21  1  0  0  0
 22 20  1  0  0  0
 22 23  1  0  0  0
 24 22  1  0  0  0
 24 25  1  0  0  0
 24 26  1  0  0  0
  2 28  1  0  0  0
  2 29  1  0  0  0
  2 30  1  0  0  0
  4 31  1  0  0  0
  4 32  1  0  0  0
  4 33  1  0  0  0
  6 34  1  0  0  0
 11 35  1  0  0  0
 13 36  1  0  0  0
 15 37  1  0  0  0
 16 38  1  0  0  0
 16 39  1  0  0  0
 18 40  1  0  0  0
 18 41  1  0  0  0
 19 42  1  0  0  0
 20 43  1  0  0  0
 21 44  1  0  0  0
 22 45  1  0  0  0
 23 46  1  0  0  0
 24 47  1  0  0  0
 26 48  1  0  0  0
 26 49  1  0  0  0
 27 50  1  0  0  0
M  END
$$$$
