1od8_ligand
  -I-interpret- 

 35 36  0  0  0  0  0  0  0  0999 V2000
   10.0280   17.4550   14.4610 N   0  0  0  0  0
   10.4820   16.8990   15.5660 C   0  0  0  0  0
    9.8290   15.6100   16.0490 C   0  0  0  0  0
    9.6140   15.6520   17.4290 O   0  0  0  0  0
    8.5110   15.3580   15.3390 C   0  0  0  0  0
    8.0510   14.0670   15.7630 O   0  0  0  0  0
    8.7450   15.4480   13.8540 C   0  0  0  0  0
    9.0400   16.8970   13.5210 C   0  0  0  0  0
   11.4230   17.3680   16.2220 O   0  0  0  0  0
    6.6840   13.8660   15.5330 C   0  0  0  0  0
    6.3710   12.4350   15.8290 C   0  0  0  0  0
    4.8700   12.1550   15.7560 C   0  0  0  0  0
    4.1120   13.2050   16.5460 C   0  0  0  0  0
    4.5690   14.5900   16.1870 C   0  0  0  0  0
    7.0630   11.6240   14.8920 O   0  0  0  0  0
    4.6070   10.8620   16.2590 O   0  0  0  0  0
    2.7200   13.1000   16.2810 O   0  0  0  0  0
    5.9760   14.7020   16.4070 O   0  0  0  0  0
   10.4027   18.3752   14.2304 H   0  0  0  0  0
   10.5117   14.7930   15.8155 H   0  0  0  0  0
   10.4480   15.8114   17.8769 H   0  0  0  0  0
    7.7441   16.0935   15.5821 H   0  0  0  0  0
    7.8649   15.1053   13.3099 H   0  0  0  0  0
    9.5823   14.8138   13.5628 H   0  0  0  0  0
    9.4444   16.9516   12.5103 H   0  0  0  0  0
    8.1169   17.4716   13.5969 H   0  0  0  0  0
    6.4109   14.0933   14.5025 H   0  0  0  0  0
    6.6908   12.2072   16.8458 H   0  0  0  0  0
    4.5380   12.2002   14.7188 H   0  0  0  0  0
    4.3084   13.0306   17.6039 H   0  0  0  0  0
    4.0461   15.3167   16.8088 H   0  0  0  0  0
    4.3500   14.7830   15.1368 H   0  0  0  0  0
    6.8726   10.6997   15.0683 H   0  0  0  0  0
    3.6641   10.6875   16.2126 H   0  0  0  0  0
    2.2483   13.7675   16.7845 H   0  0  0  0  0
  1  2  1  0  0  0
  1  8  1  0  0  0
  2  3  1  0  0  0
  2  9  2  0  0  0
  3  4  1  0  0  0
  3  5  1  0  0  0
  5  6  1  0  0  0
  5  7  1  0  0  0
  6 10  1  0  0  0
  7  8  1  0  0  0
 10 11  1  0  0  0
 10 18  1  0  0  0
 11 12  1  0  0  0
 11 15  1  0  0  0
 12 13  1  0  0  0
 12 16  1  0  0  0
 13 14  1  0  0  0
 13 17  1  0  0  0
 14 18  1  0  0  0
  1 19  1  0  0  0
  3 20  1  0  0  0
  4 21  1  0  0  0
  5 22  1  0  0  0
  7 23  1  0  0  0
  7 24  1  0  0  0
  8 25  1  0  0  0
  8 26  1  0  0  0
 10 27  1  0  0  0
 11 28  1  0  0  0
 12 29  1  0  0  0
 13 30  1  0  0  0
 14 31  1  0  0  0
 14 32  1  0  0  0
 15 33  1  0  0  0
 16 34  1  0  0  0
 17 35  1  0  0  0
M  END
$$$$
