3lm1_ligand
  -I-interpret- 

 42 43  0  0  0  0  0  0  0  0999 V2000
   30.2490  127.3070   16.2510 C   0  0  0  0  0
   29.6740  128.7160   16.3010 C   0  0  0  0  0
   30.4320  129.6900   16.1530 O   0  0  0  0  0
   28.3540  128.8840   16.5050 N   0  0  0  0  0
   27.7340  130.2050   16.5670 C   0  0  0  0  0
   27.3480  130.5900   18.0240 C   0  0  0  0  0
   28.5150  130.5730   18.8630 O   0  0  0  0  0
   26.7010  131.9900   18.0300 C   0  0  0  0  0
   27.6740  132.9150   17.5380 O   0  0  0  0  0
   25.4420  131.9770   17.1150 C   0  0  0  0  0
   24.7440  133.3600   17.0830 C   0  0  0  0  0
   25.4210  134.2650   16.2240 O   0  0  0  0  0
   25.8210  131.5710   15.7490 O   0  0  0  0  0
   26.4800  130.2440   15.6770 C   0  0  0  0  0
   25.5480  129.2440   16.0880 O   0  0  0  0  0
   24.3400  128.7960   15.4740 C   0  0  0  0  0
   24.2290  127.4540   15.0140 C   0  0  0  0  0
   23.0300  127.0180   14.4040 C   0  0  0  0  0
   21.9210  127.9180   14.2500 C   0  0  0  0  0
   20.7350  127.4870   13.6420 N   0  0  0  0  0
   19.7640  128.2750   13.5030 O   0  0  0  0  0
   20.6340  126.3150   13.2240 O   0  0  0  0  0
   22.0350  129.2560   14.7120 C   0  0  0  0  0
   23.2390  129.6970   15.3230 C   0  0  0  0  0
   30.7160  127.1408   15.2802 H   0  0  0  0  0
   30.9938  127.1918   17.0384 H   0  0  0  0  0
   29.4473  126.5834   16.3986 H   0  0  0  0  0
   27.7655  128.0589   16.6204 H   0  0  0  0  0
   28.4653  130.9280   16.2058 H   0  0  0  0  0
   26.6327  129.8658   18.4138 H   0  0  0  0  0
   28.9054  129.6961   18.8485 H   0  0  0  0  0
   26.3888  132.2787   19.0337 H   0  0  0  0  0
   28.4411  132.9080   18.1151 H   0  0  0  0  0
   24.7345  131.2579   17.5278 H   0  0  0  0  0
   24.7489  133.7725   18.0919 H   0  0  0  0  0
   23.7283  133.2255   16.7111 H   0  0  0  0  0
   24.9644  135.1095   16.2269 H   0  0  0  0  0
   26.7961  130.0549   14.6511 H   0  0  0  0  0
   25.0651  126.7646   15.1314 H   0  0  0  0  0
   22.9467  125.9912   14.0479 H   0  0  0  0  0
   21.1981  129.9449   14.5977 H   0  0  0  0  0
   23.3243  130.7242   15.6776 H   0  0  0  0  0
  1  2  1  0  0  0
  2  3  2  0  0  0
  2  4  1  0  0  0
  4  5  1  0  0  0
  5  6  1  0  0  0
  5 14  1  0  0  0
  6  7  1  0  0  0
  6  8  1  0  0  0
  8  9  1  0  0  0
  8 10  1  0  0  0
 10 11  1  0  0  0
 10 13  1  0  0  0
 11 12  1  0  0  0
 13 14  1  0  0  0
 14 15  1  0  0  0
 15 16  1  0  0  0
 16 17  4  0  0  0
 16 24  4  0  0  0
 17 18  4  0  0  0
 18 19  4  0  0  0
 19 20  1  0  0  0
 19 23  4  0  0  0
 20 21  2  0  0  0
 20 22  2  0  0  0
 23 24  4  0  0  0
  1 25  1  0  0  0
  1 26  1  0  0  0
  1 27  1  0  0  0
  4 28  1  0  0  0
  5 29  1  0  0  0
  6 30  1  0  0  0
  7 31  1  0  0  0
  8 32  1  0  0  0
  9 33  1  0  0  0
 10 34  1  0  0  0
 11 35  1  0  0  0
 11 36  1  0  0  0
 12 37  1  0  0  0
 14 38  1  0  0  0
 17 39  1  0  0  0
 18 40  1  0  0  0
 23 41  1  0  0  0
 24 42  1  0  0  0
M  END
$$$$
