5o5m_ligand

Created by X-TOOL on Mon Aug  2 16:12:08 2021
 58 61  0  0  0  0  0  0  0  0999 V2000
   -9.7320   13.0890   -7.8680  C 0  0  0  2  0  3
  -10.9450   13.7060   -7.6180  C 0  0  0  2  0  3
  -12.0380   12.9730   -7.2620  C 0  0  0  2  0  3
  -11.9510   11.5680   -7.1180  C 0  0  0  1  0  3
  -10.7090   10.9230   -7.3390  C 0  0  0  1  0  3
  -10.6720    9.5150   -7.2340  C 0  0  0  2  0  3
   -9.6080   11.7320   -7.7440  C 0  0  0  1  0  3
  -13.0110    9.4280   -6.7660  N 0  0  0  1  0  2
   -7.4180   10.5790   -6.9820  O 0  0  0  1  0  1
   -4.6100   16.2000   -8.7520  O 0  0  0  3  0  3
   -8.3340   10.0340   -9.2120  O 0  0  0  1  0  1
   -8.0690   10.9930   -8.1840  S 0  0  0  1  0  4
  -11.8190    8.8400   -6.9570  C 0  0  0  2  0  3
  -13.0630   10.7460   -6.8440  C 0  0  0  2  0  3
   -7.1240   12.1470   -8.8590  N 0  0  0  1  0  3
   -6.6370   13.1890   -7.9370  C 0  0  0  3  0  4
   -5.2230   13.0390   -7.6810  C 0  0  0  3  0  4
   -4.3520   13.4880   -8.7670  N 0  3  0  2  0  4
   -4.6280   12.8610  -10.0620  C 0  0  0  3  0  4
   -5.9200   13.2500  -10.7670  C 0  0  0  3  0  4
   -7.1490   12.4780  -10.2990  C 0  0  0  3  0  4
   -2.9320   13.6960   -8.4400  C 0  0  0  3  0  4
   -2.7140   14.3640   -7.1030  C 0  0  0  1  0  3
   -2.9860   15.7340   -6.8880  C 0  0  0  2  0  4
   -3.6470   16.7120   -7.9400  B 0  0  0  1  0  3
   -3.3350   18.0390   -8.0260  O 0  0  0  3  0  3
   -2.7390   16.2550   -5.6110  C 0  0  0  2  0  3
   -2.2840   15.4580   -4.5780  C 0  0  0  2  0  3
   -2.0440   14.1230   -4.7930  C 0  0  0  2  0  3
   -2.2440   13.5790   -6.0470  C 0  0  0  2  0  3
   -8.8754   13.6839   -8.1637  H 0  0  0  1  0  1
  -11.0271   14.7833   -7.7061  H 0  0  0  1  0  1
  -12.9843   13.4721   -7.0873  H 0  0  0  1  0  1
   -9.7400    8.9790   -7.3726  H 0  0  0  1  0  1
   -4.3569   16.3246   -9.6592  H 0  0  0  1  0  1
   -4.3569   16.3245   -9.6591  H 0  0  0  1  0  1
  -11.7682    7.7595   -6.8859  H 0  0  0  1  0  1
  -14.0222   11.2260   -6.6872  H 0  0  0  1  0  1
   -7.1842   13.1112   -6.9860  H 0  0  0  1  0  1
   -6.8179   14.1774   -8.3844  H 0  0  0  1  0  1
   -5.0196   11.9737   -7.4974  H 0  0  0  1  0  1
   -4.9747   13.6202   -6.7807  H 0  0  0  1  0  1
   -4.6694   14.4332   -8.9149  H 0  0  0  1  0  1
   -4.6535   11.7728   -9.9031  H 0  0  0  1  0  1
   -3.7957   13.1139  -10.7352  H 0  0  0  1  0  1
   -5.7913   13.0715  -11.8447  H 0  0  0  1  0  1
   -6.0989   14.3211  -10.5915  H 0  0  0  1  0  1
   -8.0414   13.0888  -10.5005  H 0  0  0  1  0  1
   -7.2097   11.5403  -10.8708  H 0  0  0  1  0  1
   -2.4833   14.3266   -9.2217  H 0  0  0  1  0  1
   -2.4307   12.7170   -8.4260  H 0  0  0  1  0  1
   -3.3725   16.3604   -7.6838  H 0  0  0  1  0  1
   -2.6500   18.2433   -7.4003  H 0  0  0  1  0  1
   -4.1070   18.5578   -7.8327  H 0  0  0  1  0  1
   -2.9091   17.3100   -5.4288  H 0  0  0  1  0  1
   -2.1163   15.8870   -3.5967  H 0  0  0  1  0  1
   -1.6978   13.4964   -3.9790  H 0  0  0  1  0  1
   -2.0334   12.5288   -6.2140  H 0  0  0  1  0  1
  1  2  4  0  0  1
  7  1  4  0  0  1
  2  3  4  0  0  1
  4  3  4  0  0  1
  5  4  4  0  0  1
  4 14  4  0  0  1
  5  6  4  0  0  1
  7  5  4  0  0  1
  6 13  4  0  0  1
 12  7  1  0  0  2
 13  8  4  0  0  1
 14  8  4  0  0  1
 12  9  2  0  0  2
 25 10  1  0  0  2
 12 11  2  0  0  2
 15 12  1  0  0  2
 16 15  1  0  0  1
 21 15  1  0  0  1
 17 16  1  0  0  1
 18 17  1  0  0  1
 18 19  1  0  0  1
 22 18  1  0  0  2
 19 20  1  0  0  1
 20 21  1  0  0  1
 23 22  1  0  0  2
 24 23  4  0  0  1
 23 30  4  0  0  1
 24 25  1  0  0  2
 24 27  4  0  0  1
 25 26  1  0  0  2
 27 28  4  0  0  1
 28 29  4  0  0  1
 29 30  4  0  0  1
  1 31  1  0  0  2
  2 32  1  0  0  2
  3 33  1  0  0  2
  6 34  1  0  0  2
 10 35  1  0  0  2
 10 36  1  0  0  2
 13 37  1  0  0  2
 14 38  1  0  0  2
 16 39  1  0  0  2
 16 40  1  0  0  2
 17 41  1  0  0  2
 17 42  1  0  0  2
 18 43  1  0  0  2
 19 44  1  0  0  2
 19 45  1  0  0  2
 20 46  1  0  0  2
 20 47  1  0  0  2
 21 48  1  0  0  2
 21 49  1  0  0  2
 22 50  1  0  0  2
 22 51  1  0  0  2
 24 52  1  0  0  2
 26 53  1  0  0  2
 26 54  1  0  0  2
 27 55  1  0  0  2
 28 56  1  0  0  2
 29 57  1  0  0  2
 30 58  1  0  0  2
M  END
> <MOLECULAR_FORMULA>
C21H28N3O4SB

> <MOLECULAR_WEIGHT>
429.1

> <NUM_HB_ATOMS>
6  

> <NUM_ROTOR>
4  

> <XLOGP2>
1.90 

$$$$
