#	Name:			5o5m_ligand
#	Creating user name:	wangrx
#	Creation time:		Thu Aug  5 17:12:56 2021

#	Modifying user name:	wangrx
#	Modification time:	Thu Aug  5 17:13:59 2021

@<TRIPOS>MOLECULE
5o5m_ligand
   56    59     1     0     0
SMALL
GAST_HUCK


@<TRIPOS>ATOM
      1 C1         -9.7320   13.0890   -7.8680 C.ar      1 9LQ        -0.0287 
      2 C2        -10.9450   13.7060   -7.6180 C.ar      1 9LQ        -0.0534 
      3 C3        -12.0380   12.9730   -7.2620 C.ar      1 9LQ        -0.0451 
      4 C4        -11.9510   11.5680   -7.1180 C.ar      1 9LQ         0.0110 
      5 C5        -10.7090   10.9230   -7.3390 C.ar      1 9LQ         0.0243 
      6 C6        -10.6720    9.5150   -7.2340 C.ar      1 9LQ        -0.0294 
      7 C          -9.6080   11.7320   -7.7440 C.ar      1 9LQ         0.1236 
      8 N         -13.0110    9.4280   -6.7660 N.ar      1 9LQ        -0.2974 
      9 O          -7.4180   10.5790   -6.9820 O.2       1 9LQ        -0.1499 
     10 O2         -4.6100   16.2000   -8.7520 O.3       1 9LQ        -0.4105 
     11 O3         -8.3340   10.0340   -9.2120 O.2       1 9LQ        -0.1499 
     12 S          -8.0690   10.9930   -8.1840 S.o2      1 9LQ         0.0730 
     13 C7        -11.8190    8.8400   -6.9570 C.ar      1 9LQ         0.0077 
     14 C8        -13.0630   10.7460   -6.8440 C.ar      1 9LQ         0.0199 
     15 N1         -7.1240   12.1470   -8.8590 N.am      1 9LQ        -0.2286 
     16 C20        -6.6370   13.1890   -7.9370 C.3       1 9LQ         0.0696 
     17 C19        -5.2230   13.0390   -7.6810 C.3       1 9LQ        -0.0131 
     18 N2         -4.3520   13.4880   -8.7670 N.4       1 9LQ         0.2472 
     19 C11        -4.6280   12.8610  -10.0620 C.3       1 9LQ        -0.0290 
     20 C10        -5.9200   13.2500  -10.7670 C.3       1 9LQ         0.0046 
     21 C9         -7.1490   12.4780  -10.2990 C.3       1 9LQ         0.0347 
     22 C12        -2.9320   13.6960   -8.4400 C.3       1 9LQ        -0.0167 
     23 C13        -2.7140   14.3640   -7.1030 C.ar      1 9LQ        -0.1004 
     24 C18        -2.9860   15.7340   -6.8880 C.ar      1 9LQ        -0.1814 
     25 B          -3.6470   16.7120   -7.9400 B         1 9LQ         3.0000 
     26 O1         -3.3350   18.0390   -8.0260 O.3       1 9LQ        -0.8710 
     27 C17        -2.7390   16.2550   -5.6110 C.ar      1 9LQ        -0.1856 
     28 C16        -2.2840   15.4580   -4.5780 C.ar      1 9LQ        -0.1687 
     29 C15        -2.0440   14.1230   -4.7930 C.ar      1 9LQ        -0.1825 
     30 C14        -2.2440   13.5790   -6.0470 C.ar      1 9LQ        -0.1703 
     31 H1         -8.8754   13.6839   -8.1637 H         1 9LQ         0.0675 
     32 H2        -11.0271   14.7833   -7.7061 H         1 9LQ         0.0645 
     33 H3        -12.9843   13.4721   -7.0873 H         1 9LQ         0.0659 
     34 H4         -9.7400    8.9790   -7.3726 H         1 9LQ         0.0716 
     35 H5         -4.3569   16.3246   -9.6592 H         1 9LQ         0.2052 
     36 H6         -4.3569   16.3245   -9.6591 H         1 9LQ         0.2052 
     37 H7        -11.7682    7.7595   -6.8859 H         1 9LQ         0.0775 
     38 H8        -14.0222   11.2260   -6.6872 H         1 9LQ         0.0870 
     39 H9         -7.1842   13.1112   -6.9860 H         1 9LQ         0.0531 
     40 H10        -6.8179   14.1774   -8.3844 H         1 9LQ         0.0531 
     41 H11        -5.0196   11.9737   -7.4974 H         1 9LQ         0.0831 
     42 H12        -4.9747   13.6202   -6.7807 H         1 9LQ         0.0831 
     43 H13        -4.6694   14.4332   -8.9149 H         1 9LQ         0.2048 
     44 H14        -4.6535   11.7728   -9.9031 H         1 9LQ         0.0815 
     45 H15        -3.7957   13.1139  -10.7352 H         1 9LQ         0.0815 
     46 H16        -5.7913   13.0715  -11.8447 H         1 9LQ         0.0333 
     47 H17        -6.0989   14.3211  -10.5915 H         1 9LQ         0.0333 
     48 H18        -8.0414   13.0888  -10.5005 H         1 9LQ         0.0480 
     49 H19        -7.2097   11.5403  -10.8708 H         1 9LQ         0.0480 
     50 H20        -2.4833   14.3266   -9.2217 H         1 9LQ         0.0964 
     51 H21        -2.4307   12.7170   -8.4260 H         1 9LQ         0.0964 
     52 H24        -4.1070   18.5578   -7.8327 H         1 9LQ        -0.1290 
     53 H25        -2.9091   17.3100   -5.4288 H         1 9LQ        -0.0149 
     54 H26        -2.1163   15.8870   -3.5967 H         1 9LQ         0.0333 
     55 H27        -1.6978   13.4964   -3.9790 H         1 9LQ        -0.0146 
     56 H28        -2.0334   12.5288   -6.2140 H         1 9LQ        -0.0188 
@<TRIPOS>BOND
     1    1    2 ar   
     2    7    1 ar   
     3    2    3 ar   
     4    4    3 ar   
     5    5    4 ar   
     6    4   14 ar   
     7    5    6 ar   
     8    7    5 ar   
     9    6   13 ar   
    10   12    7 1    
    11   13    8 ar   
    12   14    8 ar   
    13   12    9 2    
    14   25   10 1    
    15   12   11 2    
    16   15   12 am   
    17   16   15 1    
    18   21   15 1    
    19   17   16 1    
    20   18   17 1    
    21   18   19 1    
    22   22   18 1    
    23   19   20 1    
    24   20   21 1    
    25   23   22 1    
    26   24   23 ar   
    27   23   30 ar   
    28   24   25 1    
    29   24   27 ar   
    30   25   26 1    
    31   27   28 ar   
    32   28   29 ar   
    33   29   30 ar   
    34    1   31 1    
    35    2   32 1    
    36    3   33 1    
    37    6   34 1    
    38   10   35 1    
    39   10   36 1    
    40   13   37 1    
    41   14   38 1    
    42   16   39 1    
    43   16   40 1    
    44   17   41 1    
    45   17   42 1    
    46   18   43 1    
    47   19   44 1    
    48   19   45 1    
    49   20   46 1    
    50   20   47 1    
    51   21   48 1    
    52   21   49 1    
    53   22   50 1    
    54   22   51 1    
    55   26   52 1    
    56   27   53 1    
    57   28   54 1    
    58   29   55 1    
    59   30   56 1    
@<TRIPOS>SUBSTRUCTURE
     1 9LQ         1 PERM              0 ****  ****    0 ROOT 
