### 
### Created by X-TOOL on Mon Sep 10 21:13:12 2018
### 

@<TRIPOS>MOLECULE
3ux0_ligand
  113   112     1     0     0
SMALL
GAST_HUCK


@<TRIPOS>ATOM
      1 N          33.4700   -6.0040   14.6480 N.4       1 LYS         0.2377
      2 CA         32.7640   -6.8280   13.6180 C.3       1 LYS         0.0621
      3 C          31.4210   -7.3040   14.1710 C.2       1 LYS         0.2264
      4 O          31.2650   -7.5220   15.3910 O.2       1 LYS        -0.3907
      5 CB         33.6160   -8.0350   13.1990 C.3       1 LYS        -0.0040
      6 N          30.4460   -7.4470   13.2830 N.am      1 ARG        -0.2610
      7 CA         29.2040   -8.0730   13.6820 C.3       1 ARG         0.1312
      8 C          29.2780   -9.5450   13.2810 C.2       1 ARG         0.2039
      9 O          29.7580   -9.8720   12.1860 O.2       1 ARG        -0.3944
     10 CB         28.0420   -7.3780   13.0090 C.3       1 ARG        -0.0092
     11 CG         26.6940   -8.0310   13.2890 C.3       1 ARG        -0.0156
     12 CD         25.5780   -7.1300   12.8040 C.3       1 ARG         0.0627
     13 NE         24.3340   -7.8850   12.6630 N.pl3     1 ARG        -0.2723
     14 CZ         23.4680   -8.1190   13.6430 C.cat     1 ARG         0.2882
     15 NH1        23.6650   -7.6290   14.8740 N.pl3     1 ARG        -0.2849
     16 NH2        22.3820   -8.8340   13.3890 N.pl3     1 ARG        -0.2849
     17 N          28.8160  -10.4260   14.1700 N.am      1 ARG        -0.2637
     18 CA         28.7860  -11.8860   13.8840 C.3       1 ARG         0.1311
     19 C          28.0640  -12.1610   12.5590 C.2       1 ARG         0.2039
     20 O          27.1790  -11.3780   12.1290 O.2       1 ARG        -0.3944
     21 CB         28.1870  -12.6760   15.0540 C.3       1 ARG        -0.0092
     22 CG         26.6380  -12.7050   15.1740 C.3       1 ARG        -0.0156
     23 CD         25.9410  -11.3160   15.0770 C.3       1 ARG         0.0627
     24 NE         24.5060  -11.5460   15.0980 N.pl3     1 ARG        -0.2723
     25 CZ         23.7580  -11.7890   14.0240 C.cat     1 ARG         0.2882
     26 NH1        24.3130  -11.8770   12.8190 N.pl3     1 ARG        -0.2849
     27 NH2        22.4420  -12.0080   14.1700 N.pl3     1 ARG        -0.2849
     28 N          28.4680  -13.2580   11.9180 N.am      1 LYS        -0.2637
     29 CA         27.9870  -13.6420   10.6090 C.3       1 LYS         0.1310
     30 C          26.8100  -14.5790   10.7130 C.2       1 LYS         0.2040
     31 O          26.8120  -15.4800   11.5470 O.2       1 LYS        -0.3944
     32 CB         29.0740  -14.3690    9.8310 C.3       1 LYS        -0.0122
     33 CG         30.4140  -13.5940    9.7670 C.3       1 LYS        -0.0440
     34 CD         30.1840  -12.1790    9.1760 C.3       1 LYS        -0.0124
     35 CE         31.4900  -11.3660    9.0860 C.3       1 LYS        -0.0354
     36 NZ         32.3850  -11.9620    8.0810 N.4       1 LYS         0.2185
     37 N          25.8160  -14.3620    9.8350 N.am      1 SEP        -0.2613
     38 CA         24.7600  -15.3850    9.6340 C.3       1 SEP         0.1586
     39 CB         23.4360  -14.9830   10.3080 C.3       1 SEP         0.1184
     40 OG         23.0930  -13.7050    9.8010 O.3       1 SEP        -0.2714
     41 C          24.6100  -15.4600    8.1070 C.2       1 SEP         0.2060
     42 O          25.1860  -14.6170    7.3640 O.2       1 SEP        -0.3943
     43 P          21.6060  -13.2470   10.2370 P.3       1 SEP         0.2010
     44 O1P        21.4570  -11.9160    9.3840 O.co2     1 SEP        -0.5537
     45 O2P        20.5240  -14.3070    9.7710 O.co2     1 SEP        -0.5537
     46 O3P        21.4810  -12.9510   11.7480 O.co2     1 SEP        -0.5537
     47 N          23.8780  -16.4550    7.5980 N.am      1 VAL        -0.2692
     48 CA         23.7720  -16.5950    6.1300 C.3       1 VAL         0.0967
     49 C          22.4090  -17.0650    5.6950 C.2       1 VAL         0.0603
     50 O          22.0190  -16.9300    4.5080 O.co2     1 VAL        -0.5666
     51 CB         24.8800  -17.5480    5.5660 C.3       1 VAL        -0.0118
     52 CG1        24.5410  -19.0030    5.9230 C.3       1 VAL        -0.0590
     53 CG2        25.0300  -17.3860    4.0400 C.3       1 VAL        -0.0590
     54 OXT        21.6400  -17.6240    6.5050 O.co2     1 VAL        -0.5666
     55 H1         34.3550   -5.6920   14.2798 H         1 LYS         0.2015
     56 H2         33.6270   -6.5605   15.4736 H         1 LYS         0.2015
     57 H3         32.9038   -5.2043   14.8845 H         1 LYS         0.2015
     58 H4         32.5820   -6.2026   12.7316 H         1 LYS         0.1095
     59 H5         33.0738   -8.6217   12.4428 H         1 LYS         0.0310
     60 H6         33.8161   -8.6654   14.0779 H         1 LYS         0.0310
     61 H7         34.5683   -7.6825   12.7761 H         1 LYS         0.0310
     62 H8         30.5685   -7.1244   12.3444 H         1 ARG         0.1884
     63 H9         29.0835   -7.9969   14.7727 H         1 ARG         0.0800
     64 H10        28.2135   -7.3871   11.9225 H         1 ARG         0.0313
     65 H11        28.0051   -6.3381   13.3657 H         1 ARG         0.0313
     66 H12        26.5859   -8.1963   14.3711 H         1 ARG         0.0301
     67 H13        26.6392   -8.9957   12.7634 H         1 ARG         0.0301
     68 H14        25.8551   -6.7038   11.8285 H         1 ARG         0.0689
     69 H15        25.4277   -6.3173   13.5299 H         1 ARG         0.0689
     70 H16        24.1118   -8.2649   11.7318 H         1 ARG         0.2642
     71 H17        22.9818   -7.8216   15.6204 H         1 ARG         0.2615
     72 H18        24.4996   -7.0596   15.0742 H         1 ARG         0.2615
     73 H19        22.2246   -9.2136   12.4445 H         1 ARG         0.2615
     74 H20        21.6951   -9.0103   14.1360 H         1 ARG         0.2615
     75 H21        28.4808  -10.0962   15.0525 H         1 ARG         0.1883
     76 H22        29.8268  -12.2216   13.7655 H         1 ARG         0.0800
     77 H23        28.5825  -12.2409   15.9837 H         1 ARG         0.0313
     78 H24        28.5309  -13.7167   14.9608 H         1 ARG         0.0313
     79 H25        26.3800  -13.1483   16.1471 H         1 ARG         0.0301
     80 H26        26.2456  -13.3401   14.3661 H         1 ARG         0.0301
     81 H27        26.2277  -10.8163   14.1399 H         1 ARG         0.0689
     82 H28        26.2334  -10.6883   15.9317 H         1 ARG         0.0689
     83 H29        24.0324  -11.5189   16.0123 H         1 ARG         0.2642
     84 H30        23.7258  -12.0653   11.9940 H         1 ARG         0.2615
     85 H31        25.3302  -11.7568   12.7105 H         1 ARG         0.2615
     86 H32        22.0090  -11.9406   15.1021 H         1 ARG         0.2615
     87 H33        21.8650  -12.2435   13.3499 H         1 ARG         0.2615
     88 H34        29.1400  -13.8473   12.3665 H         1 LYS         0.1883
     89 H35        27.6864  -12.7359   10.0626 H         1 LYS         0.0800
     90 H36        28.7168  -14.5315    8.8034 H         1 LYS         0.0312
     91 H37        29.2567  -15.3404   10.3137 H         1 LYS         0.0312
     92 H38        31.1221  -14.1437    9.1295 H         1 LYS         0.0269
     93 H39        30.8295  -13.5014   10.7813 H         1 LYS         0.0269
     94 H40        29.4736  -11.6380    9.8184 H         1 LYS         0.0317
     95 H41        29.7604  -12.2815    8.1660 H         1 LYS         0.0317
     96 H42        31.9894  -11.3690   10.0661 H         1 LYS         0.0813
     97 H43        31.2557  -10.3308    8.7970 H         1 LYS         0.0813
     98 H44        33.2362  -11.4247    8.0284 H         1 LYS         0.1994
     99 H45        31.9297  -11.9590    7.1817 H         1 LYS         0.1994
    100 H46        32.6021  -12.9104    8.3446 H         1 LYS         0.1994
    101 H47        25.7879  -13.5081    9.3153 H         1 SEP         0.1884
    102 H48        25.0848  -16.3555   10.0373 H         1 SEP         0.0827
    103 H49        23.5651  -14.9357   11.3994 H         1 SEP         0.0662
    104 H50        22.6493  -15.7117   10.0630 H         1 SEP         0.0662
    105 H51        23.4074  -17.0975    8.2028 H         1 VAL         0.1875
    106 H52        23.9336  -15.5983    5.6936 H         1 VAL         0.0729
    107 H53        25.8387  -17.2853    6.0371 H         1 VAL         0.0336
    108 H54        25.3208  -19.6693    5.5256 H         1 VAL         0.0234
    109 H55        23.5696  -19.2719    5.4825 H         1 VAL         0.0234
    110 H56        24.4899  -19.1099    7.0166 H         1 VAL         0.0234
    111 H57        25.2723  -16.3392    3.8045 H         1 VAL         0.0234
    112 H58        24.0866  -17.6637    3.5473 H         1 VAL         0.0234
    113 H59        25.8382  -18.0394    3.6796 H         1 VAL         0.0234
@<TRIPOS>BOND
     1    1    2 1  
     2    2    3 1  
     3    2    5 1  
     4    3    4 2  
     5    3    6 am 
     6    6    7 1  
     7    7    8 1  
     8    7   10 1  
     9    8    9 2  
    10    8   17 am 
    11   10   11 1  
    12   11   12 1  
    13   12   13 1  
    14   13   14 ar 
    15   14   15 ar 
    16   14   16 ar 
    17   17   18 1  
    18   18   19 1  
    19   18   21 1  
    20   19   20 2  
    21   19   28 am 
    22   21   22 1  
    23   22   23 1  
    24   23   24 1  
    25   24   25 ar 
    26   25   26 ar 
    27   25   27 ar 
    28   28   29 1  
    29   29   30 1  
    30   29   32 1  
    31   30   31 2  
    32   30   37 am 
    33   32   33 1  
    34   33   34 1  
    35   34   35 1  
    36   35   36 1  
    37   37   38 1  
    38   38   39 1  
    39   38   41 1  
    40   39   40 1  
    41   40   43 1  
    42   41   42 2  
    43   41   47 am 
    44   43   44 ar 
    45   43   45 ar 
    46   43   46 ar 
    47   47   48 1  
    48   48   49 1  
    49   48   51 1  
    50   49   50 ar 
    51   49   54 ar 
    52   51   52 1  
    53   51   53 1  
    54    1   55 1  
    55    1   56 1  
    56    1   57 1  
    57    2   58 1  
    58    5   59 1  
    59    5   60 1  
    60    5   61 1  
    61    6   62 1  
    62    7   63 1  
    63   10   64 1  
    64   10   65 1  
    65   11   66 1  
    66   11   67 1  
    67   12   68 1  
    68   12   69 1  
    69   13   70 1  
    70   15   71 1  
    71   15   72 1  
    72   16   73 1  
    73   16   74 1  
    74   17   75 1  
    75   18   76 1  
    76   21   77 1  
    77   21   78 1  
    78   22   79 1  
    79   22   80 1  
    80   23   81 1  
    81   23   82 1  
    82   24   83 1  
    83   26   84 1  
    84   26   85 1  
    85   27   86 1  
    86   27   87 1  
    87   28   88 1  
    88   29   89 1  
    89   32   90 1  
    90   32   91 1  
    91   33   92 1  
    92   33   93 1  
    93   34   94 1  
    94   34   95 1  
    95   35   96 1  
    96   35   97 1  
    97   36   98 1  
    98   36   99 1  
    99   36  100 1  
   100   37  101 1  
   101   38  102 1  
   102   39  103 1  
   103   39  104 1  
   104   47  105 1  
   105   48  106 1  
   106   51  107 1  
   107   52  108 1  
   108   52  109 1  
   109   52  110 1  
   110   53  111 1  
   111   53  112 1  
   112   53  113 1  
@<TRIPOS>SUBSTRUCTURE
     1 LYS         1

