3ux0_ligand
  -I-interpret- 

114113  0  0  0  0  0  0  0  0999 V2000
   33.4700   -6.0040   14.6480 N   0  3  0  0  0
   32.7640   -6.8280   13.6180 C   0  0  0  0  0
   31.4210   -7.3040   14.1710 C   0  0  0  0  0
   31.2650   -7.5220   15.3910 O   0  0  0  0  0
   33.6160   -8.0350   13.1990 C   0  0  0  0  0
   30.4460   -7.4470   13.2830 N   0  0  0  0  0
   29.2040   -8.0730   13.6820 C   0  0  0  0  0
   29.2780   -9.5450   13.2810 C   0  0  0  0  0
   29.7580   -9.8720   12.1860 O   0  0  0  0  0
   28.0420   -7.3780   13.0090 C   0  0  0  0  0
   26.6940   -8.0310   13.2890 C   0  0  0  0  0
   25.5780   -7.1300   12.8040 C   0  0  0  0  0
   24.3340   -7.8850   12.6630 N   0  0  0  0  0
   23.4680   -8.1190   13.6430 C   0  0  0  0  0
   23.6650   -7.6290   14.8740 N   0  0  0  0  0
   22.3820   -8.8340   13.3890 N   0  0  0  0  0
   28.8160  -10.4260   14.1700 N   0  0  0  0  0
   28.7860  -11.8860   13.8840 C   0  0  0  0  0
   28.0640  -12.1610   12.5590 C   0  0  0  0  0
   27.1790  -11.3780   12.1290 O   0  0  0  0  0
   28.1870  -12.6760   15.0540 C   0  0  0  0  0
   26.6380  -12.7050   15.1740 C   0  0  0  0  0
   25.9410  -11.3160   15.0770 C   0  0  0  0  0
   24.5060  -11.5460   15.0980 N   0  0  0  0  0
   23.7580  -11.7890   14.0240 C   0  0  0  0  0
   24.3130  -11.8770   12.8190 N   0  0  0  0  0
   22.4420  -12.0080   14.1700 N   0  0  0  0  0
   28.4680  -13.2580   11.9180 N   0  0  0  0  0
   27.9870  -13.6420   10.6090 C   0  0  0  0  0
   26.8100  -14.5790   10.7130 C   0  0  0  0  0
   26.8120  -15.4800   11.5470 O   0  0  0  0  0
   29.0740  -14.3690    9.8310 C   0  0  0  0  0
   30.4140  -13.5940    9.7670 C   0  0  0  0  0
   30.1840  -12.1790    9.1760 C   0  0  0  0  0
   31.4900  -11.3660    9.0860 C   0  0  0  0  0
   32.3850  -11.9620    8.0810 N   0  3  0  0  0
   25.8160  -14.3620    9.8350 N   0  0  0  0  0
   24.7600  -15.3850    9.6340 C   0  0  0  0  0
   23.4360  -14.9830   10.3080 C   0  0  0  0  0
   23.0930  -13.7050    9.8010 O   0  0  0  0  0
   24.6100  -15.4600    8.1070 C   0  0  0  0  0
   25.1860  -14.6170    7.3640 O   0  0  0  0  0
   21.6060  -13.2470   10.2370 P   0  0  0  0  0
   21.4570  -11.9160    9.3840 O   0  0  0  0  0
   20.5240  -14.3070    9.7710 O   0  0  0  0  0
   21.4810  -12.9510   11.7480 O   0  0  0  0  0
   23.8780  -16.4550    7.5980 N   0  0  0  0  0
   23.7720  -16.5950    6.1300 C   0  0  0  0  0
   22.4090  -17.0650    5.6950 C   0  0  0  0  0
   22.0190  -16.9300    4.5080 O   0  0  0  0  0
   24.8800  -17.5480    5.5660 C   0  0  0  0  0
   24.5410  -19.0030    5.9230 C   0  0  0  0  0
   25.0300  -17.3860    4.0400 C   0  0  0  0  0
   21.6400  -17.6240    6.5050 O   0  0  0  0  0
   32.8834   -5.2110   14.9078 H   0  0  0  0  0
   33.6542   -6.5765   15.4718 H   0  0  0  0  0
   34.3520   -5.6647   14.2641 H   0  0  0  0  0
   32.5963   -6.2085   12.7370 H   0  0  0  0  0
   33.7898   -8.6736   14.0651 H   0  0  0  0  0
   33.0900   -8.5997   12.4292 H   0  0  0  0  0
   34.5708   -7.6854   12.8063 H   0  0  0  0  0
   30.5709   -7.1180   12.3256 H   0  0  0  0  0
   29.0526   -7.9948   14.7586 H   0  0  0  0  0
   28.2111   -7.4267   11.9333 H   0  0  0  0  0
   27.9994   -6.3611   13.3992 H   0  0  0  0  0
   26.5871   -8.1921   14.3617 H   0  0  0  0  0
   26.6400   -8.9857   12.7657 H   0  0  0  0  0
   25.8532   -6.7170   11.8335 H   0  0  0  0  0
   25.4269   -6.3315   13.5304 H   0  0  0  0  0
   24.1139   -8.2612   11.7408 H   0  0  0  0  0
   22.9809   -7.8071   15.6093 H   0  0  0  0  0
   24.4991   -7.0777   15.0760 H   0  0  0  0  0
   22.2188   -9.1975   12.4501 H   0  0  0  0  0
   28.4741  -10.0896   15.0702 H   0  0  0  0  0
   29.8123  -12.2358   13.7727 H   0  0  0  0  0
   28.5441  -12.1820   15.9576 H   0  0  0  0  0
   28.4907  -13.7111   14.8978 H   0  0  0  0  0
   26.4075  -13.1031   16.1622 H   0  0  0  0  0
   26.2699  -13.2996   14.3379 H   0  0  0  0  0
   26.2323  -10.8062   14.1587 H   0  0  0  0  0
   26.2379  -10.6810   15.9117 H   0  0  0  0  0
   24.0370  -11.5192   16.0034 H   0  0  0  0  0
   25.3203  -11.7580   12.7115 H   0  0  0  0  0
   21.8706  -12.2412   13.3579 H   0  0  0  0  0
   22.0132  -11.9413   15.0931 H   0  0  0  0  0
   29.1534  -13.8591   12.3755 H   0  0  0  0  0
   27.6937  -12.7241   10.0996 H   0  0  0  0  0
   28.7178  -14.4914    8.8081 H   0  0  0  0  0
   29.2661  -15.3127   10.3416 H   0  0  0  0  0
   31.1118  -14.1382    9.1306 H   0  0  0  0  0
   30.8207  -13.4992   10.7738 H   0  0  0  0  0
   29.4969  -11.6451    9.8324 H   0  0  0  0  0
   29.7857  -12.2933    8.1678 H   0  0  0  0  0
   31.9851  -11.3737   10.0570 H   0  0  0  0  0
   31.2558  -10.3418    8.7956 H   0  0  0  0  0
   33.2459  -11.4175    8.0286 H   0  0  0  0  0
   32.6039  -12.9216    8.3488 H   0  0  0  0  0
   31.9232  -11.9585    7.1715 H   0  0  0  0  0
   25.7873  -13.4910    9.3049 H   0  0  0  0  0
   25.0219  -16.3439   10.0813 H   0  0  0  0  0
   23.5449  -14.9545   11.3922 H   0  0  0  0  0
   22.6533  -15.7099   10.0912 H   0  0  0  0  0
   21.5380  -12.1248    8.4505 H   0  0  0  0  0
   20.6238  -14.4722    8.8306 H   0  0  0  0  0
   23.3980  -17.1103    8.2149 H   0  0  0  0  0
   23.9241  -15.5987    5.7149 H   0  0  0  0  0
   22.7010  -16.4885    3.9966 H   0  0  0  0  0
   25.8331  -17.2797    6.0218 H   0  0  0  0  0
   24.4906  -19.1076    7.0068 H   0  0  0  0  0
   23.5783  -19.2682    5.4860 H   0  0  0  0  0
   25.3144  -19.6622    5.5287 H   0  0  0  0  0
   24.0837  -17.6266    3.5556 H   0  0  0  0  0
   25.3057  -16.3567    3.8105 H   0  0  0  0  0
   25.8063  -18.0606    3.6789 H   0  0  0  0  0
  1  2  1  0  0  0
  2  3  1  0  0  0
  2  5  1  0  0  0
  3  4  2  0  0  0
  3  6  1  0  0  0
  6  7  1  0  0  0
  7  8  1  0  0  0
  7 10  1  0  0  0
  8  9  2  0  0  0
  8 17  1  0  0  0
 10 11  1  0  0  0
 11 12  1  0  0  0
 12 13  1  0  0  0
 13 14  1  0  0  0
 14 15  1  0  0  0
 14 16  2  0  0  0
 17 18  1  0  0  0
 18 19  1  0  0  0
 18 21  1  0  0  0
 19 20  2  0  0  0
 19 28  1  0  0  0
 21 22  1  0  0  0
 22 23  1  0  0  0
 23 24  1  0  0  0
 24 25  1  0  0  0
 25 26  2  0  0  0
 25 27  1  0  0  0
 28 29  1  0  0  0
 29 30  1  0  0  0
 29 32  1  0  0  0
 30 31  2  0  0  0
 30 37  1  0  0  0
 32 33  1  0  0  0
 33 34  1  0  0  0
 34 35  1  0  0  0
 35 36  1  0  0  0
 37 38  1  0  0  0
 38 39  1  0  0  0
 38 41  1  0  0  0
 39 40  1  0  0  0
 40 43  1  0  0  0
 41 42  2  0  0  0
 41 47  1  0  0  0
 43 44  1  0  0  0
 43 45  1  0  0  0
 43 46  2  0  0  0
 47 48  1  0  0  0
 48 49  1  0  0  0
 48 51  1  0  0  0
 49 50  1  0  0  0
 49 54  2  0  0  0
 51 52  1  0  0  0
 51 53  1  0  0  0
  1 55  1  0  0  0
  1 56  1  0  0  0
  1 57  1  0  0  0
  2 58  1  0  0  0
  5 59  1  0  0  0
  5 60  1  0  0  0
  5 61  1  0  0  0
  6 62  1  0  0  0
  7 63  1  0  0  0
 10 64  1  0  0  0
 10 65  1  0  0  0
 11 66  1  0  0  0
 11 67  1  0  0  0
 12 68  1  0  0  0
 12 69  1  0  0  0
 13 70  1  0  0  0
 15 71  1  0  0  0
 15 72  1  0  0  0
 16 73  1  0  0  0
 17 74  1  0  0  0
 18 75  1  0  0  0
 21 76  1  0  0  0
 21 77  1  0  0  0
 22 78  1  0  0  0
 22 79  1  0  0  0
 23 80  1  0  0  0
 23 81  1  0  0  0
 24 82  1  0  0  0
 26 83  1  0  0  0
 27 84  1  0  0  0
 27 85  1  0  0  0
 28 86  1  0  0  0
 29 87  1  0  0  0
 32 88  1  0  0  0
 32 89  1  0  0  0
 33 90  1  0  0  0
 33 91  1  0  0  0
 34 92  1  0  0  0
 34 93  1  0  0  0
 35 94  1  0  0  0
 35 95  1  0  0  0
 36 96  1  0  0  0
 36 97  1  0  0  0
 36 98  1  0  0  0
 37 99  1  0  0  0
 38100  1  0  0  0
 39101  1  0  0  0
 39102  1  0  0  0
 44103  1  0  0  0
 45104  1  0  0  0
 47105  1  0  0  0
 48106  1  0  0  0
 50107  1  0  0  0
 51108  1  0  0  0
 52109  1  0  0  0
 52110  1  0  0  0
 52111  1  0  0  0
 53112  1  0  0  0
 53113  1  0  0  0
 53114  1  0  0  0
M  END
$$$$
