5tnt_ligand
  -I-interpret- 

 54 59  0  0  0  0  0  0  0  0999 V2000
  -10.6150  -34.0170   -7.2810 Cl  0  0  0  0  0
  -11.7160  -34.3470   -8.5960 C   0  0  0  0  0
  -13.0880  -34.0550   -8.5340 C   0  0  0  0  0
  -14.1090  -33.4990   -7.6460 C   0  0  0  0  0
  -13.9600  -33.1740   -6.3560 N   0  0  0  0  0
  -15.2780  -33.5000   -8.2250 N   0  0  0  0  0
  -15.1390  -34.1010   -9.5070 O   0  0  0  0  0
  -13.8310  -34.4120   -9.6720 C   0  0  0  0  0
  -11.2420  -34.9500   -9.7640 C   0  0  0  0  0
  -11.9580  -35.2980  -10.8410 N   0  0  0  0  0
  -13.2710  -35.0300  -10.8050 C   0  0  0  0  0
  -13.9870  -35.4300  -11.9530 N   0  0  0  0  0
  -13.3120  -36.0860  -13.1350 C   0  0  0  0  0
  -14.4900  -36.3340  -14.0760 C   0  0  0  0  0
  -15.4270  -35.2840  -12.2260 C   0  0  0  0  0
  -15.2720  -34.1710  -13.2750 C   0  0  0  0  0
  -14.7260  -34.8880  -14.5420 C   0  0  0  0  0
  -15.6410  -36.5300  -13.0980 C   0  0  0  0  0
  -15.5240  -37.7360  -12.2880 N   0  0  0  0  0
  -15.5300  -38.9720  -12.8130 C   0  0  0  0  0
  -15.6700  -39.1810  -14.0200 O   0  0  0  0  0
  -15.3640  -40.1150  -11.8580 C   0  0  0  0  0
  -16.3270  -41.1210  -11.8630 C   0  0  0  0  0
  -16.1990  -42.2350  -11.0590 C   0  0  0  0  0
  -14.2600  -40.2700  -11.0150 C   0  0  0  0  0
  -12.9440  -39.1280  -11.0720 Cl  0  0  0  0  0
  -14.1300  -41.3740  -10.1870 C   0  0  0  0  0
  -15.1110  -42.3750  -10.2030 C   0  0  0  0  0
  -15.0190  -43.5380   -9.3680 N   0  0  0  0  0
  -14.6660  -43.6710   -8.0810 C   0  0  0  0  0
  -14.7770  -44.9190   -7.6700 N   0  0  0  0  0
  -15.3770  -44.7590   -9.8700 N   0  0  0  0  0
  -15.2010  -45.5380   -8.8220 C   0  0  0  0  0
  -15.3990  -47.0120   -8.8900 C   0  0  0  0  0
  -13.0593  -33.3090   -5.8968 H   0  0  0  0  0
  -14.7472  -32.7914   -5.8323 H   0  0  0  0  0
  -10.1731  -35.1600   -9.8028 H   0  0  0  0  0
  -12.7699  -36.9947  -12.8731 H   0  0  0  0  0
  -12.5268  -35.4737  -13.5783 H   0  0  0  0  0
  -14.3801  -37.1084  -14.8351 H   0  0  0  0  0
  -16.1419  -35.1421  -11.4155 H   0  0  0  0  0
  -14.5992  -33.3842  -12.9338 H   0  0  0  0  0
  -16.2177  -33.6659  -13.4718 H   0  0  0  0  0
  -15.4198  -34.8315  -15.3808 H   0  0  0  0  0
  -13.8168  -34.4220  -14.9218 H   0  0  0  0  0
  -16.6132  -36.6422  -13.5779 H   0  0  0  0  0
  -15.4335  -37.6367  -11.2769 H   0  0  0  0  0
  -17.1967  -41.0267  -12.5132 H   0  0  0  0  0
  -16.9596  -43.0150  -11.0949 H   0  0  0  0  0
  -13.2680  -41.4634   -9.5258 H   0  0  0  0  0
  -14.3285  -42.8477   -7.4514 H   0  0  0  0  0
  -14.4566  -47.5143   -8.6717 H   0  0  0  0  0
  -16.1495  -47.3106   -8.1581 H   0  0  0  0  0
  -15.7354  -47.2864   -9.8898 H   0  0  0  0  0
  1  2  1  0  0  0
  2  3  4  0  0  0
  2  9  4  0  0  0
  3  4  4  0  0  0
  3  8  4  0  0  0
  4  5  1  0  0  0
  4  6  4  0  0  0
  6  7  4  0  0  0
  7  8  4  0  0  0
  8 11  4  0  0  0
  9 10  4  0  0  0
 10 11  4  0  0  0
 11 12  1  0  0  0
 12 13  1  0  0  0
 12 15  1  0  0  0
 13 14  1  0  0  0
 14 17  1  0  0  0
 14 18  1  0  0  0
 15 16  1  0  0  0
 15 18  1  0  0  0
 16 17  1  0  0  0
 18 19  1  0  0  0
 19 20  1  0  0  0
 20 21  2  0  0  0
 20 22  1  0  0  0
 22 23  4  0  0  0
 22 25  4  0  0  0
 23 24  4  0  0  0
 24 28  4  0  0  0
 25 26  1  0  0  0
 25 27  4  0  0  0
 27 28  4  0  0  0
 28 29  1  0  0  0
 29 30  4  0  0  0
 29 32  4  0  0  0
 30 31  4  0  0  0
 31 33  4  0  0  0
 32 33  4  0  0  0
 33 34  1  0  0  0
  5 35  1  0  0  0
  5 36  1  0  0  0
  9 37  1  0  0  0
 13 38  1  0  0  0
 13 39  1  0  0  0
 14 40  1  0  0  0
 15 41  1  0  0  0
 16 42  1  0  0  0
 16 43  1  0  0  0
 17 44  1  0  0  0
 17 45  1  0  0  0
 18 46  1  0  0  0
 19 47  1  0  0  0
 23 48  1  0  0  0
 24 49  1  0  0  0
 27 50  1  0  0  0
 30 51  1  0  0  0
 34 52  1  0  0  0
 34 53  1  0  0  0
 34 54  1  0  0  0
M  END
$$$$
