### 
### Created by X-TOOL on Mon Sep 10 21:13:14 2018
### 

@<TRIPOS>MOLECULE
4hfz_ligand
  192   195     1     0     0
SMALL
GAST_HUCK


@<TRIPOS>ATOM
      1 N         -11.8500  -13.0370    5.2590 N.4       1 GLU         0.2380
      2 CA        -10.4280  -13.3780    5.6160 C.3       1 GLU         0.0665
      3 C         -10.2770  -14.9100    5.8720 C.2       1 GLU         0.2269
      4 O         -10.8150  -15.4350    6.8640 O.2       1 GLU        -0.3907
      5 CB         -9.9490  -12.5280    6.8320 C.3       1 GLU         0.0194
      6 CG        -10.8310  -12.5980    8.0890 C.3       1 GLU         0.0075
      7 CD        -10.0750  -12.4040    9.4050 C.2       1 GLU         0.0351
      8 OE1        -9.0030  -11.7610    9.3920 O.co2     1 GLU        -0.5690
      9 OE2       -10.5760  -12.8790   10.4630 O.co2     1 GLU        -0.5690
     10 N          -9.6100  -15.6370    4.9710 N.am      1 THR        -0.2586
     11 CA         -9.3870  -17.0850    5.2020 C.3       1 THR         0.1566
     12 C          -7.9740  -17.3330    5.7190 C.2       1 THR         0.2066
     13 O          -7.0680  -16.5320    5.4340 O.2       1 THR        -0.3943
     14 CB         -9.5650  -17.9740    3.9580 C.3       1 THR         0.0924
     15 OG1        -8.5750  -17.6220    2.9800 O.3       1 THR        -0.3874
     16 CG2       -10.9640  -17.8550    3.3960 C.3       1 THR        -0.0346
     17 N          -7.7750  -18.4340    6.4580 N.am      1 PHE        -0.2619
     18 CA         -6.4660  -18.7280    7.0020 C.3       1 PHE         0.1404
     19 C          -5.3910  -18.7950    5.8980 C.2       1 PHE         0.2060
     20 O          -4.3270  -18.1560    6.0110 O.2       1 PHE        -0.3942
     21 CB         -6.4660  -20.0000    7.8350 C.3       1 PHE         0.0214
     22 CG         -5.1070  -20.3580    8.3080 C.ar      1 PHE        -0.0386
     23 CD1        -4.5450  -19.6790    9.3820 C.ar      1 PHE        -0.0601
     24 CD2        -4.3460  -21.2840    7.6160 C.ar      1 PHE        -0.0601
     25 CE1        -3.2740  -19.9690    9.8030 C.ar      1 PHE        -0.0686
     26 CE2        -3.0630  -21.5640    7.9950 C.ar      1 PHE        -0.0686
     27 CZ         -2.5290  -20.8970    9.0990 C.ar      1 PHE        -0.0687
     28 N          -5.6890  -19.5410    4.8270 N.am      1 SER        -0.2614
     29 CA         -4.7900  -19.7320    3.6940 C.3       1 SER         0.1539
     30 C          -4.3780  -18.4370    3.0380 C.2       1 SER         0.2063
     31 O          -3.2030  -18.2720    2.7480 O.2       1 SER        -0.3943
     32 CB         -5.4230  -20.6640    2.6640 C.3       1 SER         0.0843
     33 OG         -5.7080  -21.9070    3.2900 O.3       1 SER        -0.3903
     34 N          -5.3100  -17.5450    2.8190 N.am      1 ASP        -0.2621
     35 CA         -5.0040  -16.2750    2.2590 C.3       1 ASP         0.1423
     36 C          -4.1650  -15.4560    3.1560 C.2       1 ASP         0.2056
     37 O          -3.2460  -14.8430    2.7260 O.2       1 ASP        -0.3943
     38 CB         -6.2820  -15.5110    2.0180 C.3       1 ASP         0.0406
     39 CG         -7.0480  -16.0240    0.8470 C.2       1 ASP         0.0393
     40 OD1        -6.4360  -16.5360   -0.1090 O.co2     1 ASP        -0.5688
     41 OD2        -8.2780  -15.9190    0.8820 O.co2     1 ASP        -0.5688
     42 N          -4.5160  -15.4230    4.4130 N.am      1 LEU        -0.2636
     43 CA         -3.8580  -14.6200    5.3970 C.3       1 LEU         0.1312
     44 C          -2.4640  -15.0890    5.7580 C.2       1 LEU         0.2040
     45 O          -1.6240  -14.3030    6.0890 O.2       1 LEU        -0.3944
     46 CB         -4.7150  -14.6660    6.6320 C.3       1 LEU        -0.0101
     47 CG         -5.2270  -13.4970    7.4270 C.3       1 LEU        -0.0425
     48 CD1        -5.2900  -12.2750    6.6670 C.3       1 LEU        -0.0625
     49 CD2        -6.5380  -13.8840    7.8590 C.3       1 LEU        -0.0625
     50 N          -2.2470  -16.3880    5.7320 N.am      1 TRP        -0.2627
     51 CA         -0.9570  -16.9810    6.0080 C.3       1 TRP         0.1352
     52 C           0.0210  -16.7020    4.9050 C.2       1 TRP         0.2052
     53 O           1.1680  -16.5250    5.1470 O.2       1 TRP        -0.3942
     54 CB         -1.0950  -18.4840    6.2150 C.3       1 TRP         0.0042
     55 CG          0.1200  -19.1430    6.7420 C.2       1 TRP        -0.0418
     56 CD1         1.0080  -19.8540    6.0510 C.2       1 TRP         0.0167
     57 CD2         0.5710  -19.1450    8.0870 C.ar      1 TRP        -0.0214
     58 NE1         1.9950  -20.2950    6.8580 N.pl3     1 TRP        -0.2890
     59 CE2         1.7500  -19.8670    8.1240 C.ar      1 TRP         0.0603
     60 CE3         0.0930  -18.5950    9.2600 C.ar      1 TRP        -0.0747
     61 CZ2         2.4470  -20.0690    9.2790 C.ar      1 TRP        -0.0443
     62 CZ3         0.7870  -18.7950   10.3890 C.ar      1 TRP        -0.0792
     63 CH2         1.9470  -19.5220   10.4000 C.ar      1 TRP        -0.0768
     64 N          -0.4550  -16.6730    3.6830 N.am      1 LYS        -0.2636
     65 CA          0.3500  -16.3390    2.5200 C.3       1 LYS         0.1310
     66 C           0.8740  -14.8840    2.5230 C.2       1 LYS         0.2039
     67 O           1.7590  -14.5380    1.7460 O.2       1 LYS        -0.3944
     68 CB         -0.4150  -16.6770    1.2350 C.3       1 LYS        -0.0122
     69 CG         -0.4620  -18.1690    0.9340 C.3       1 LYS        -0.0440
     70 CD         -1.4390  -18.5010   -0.2010 C.3       1 LYS        -0.0124
     71 CE         -1.7020  -20.0000   -0.3840 C.3       1 LYS        -0.0354
     72 NZ         -2.2920  -20.6470    0.8320 N.4       1 LYS         0.2185
     73 N           0.3820  -14.0750    3.4480 N.am      1 LEU        -0.2637
     74 CA          0.8060  -12.6870    3.5560 C.3       1 LEU         0.1312
     75 C           1.9460  -12.4700    4.5370 C.2       1 LEU         0.2039
     76 O           2.3280  -11.3410    4.7950 O.2       1 LEU        -0.3944
     77 CB         -0.3640  -11.8180    3.9930 C.3       1 LEU        -0.0101
     78 CG         -1.4360  -11.5470    2.9510 C.3       1 LEU        -0.0425
     79 CD1        -2.6350  -10.9240    3.6180 C.3       1 LEU        -0.0625
     80 CD2        -0.8860  -10.6420    1.8800 C.3       1 LEU        -0.0625
     81 N           2.4810  -13.5460    5.0920 N.am      1 LEU        -0.2637
     82 CA          3.4820  -13.4340    6.1390 C.3       1 LEU         0.1314
     83 C           4.8270  -12.9130    5.6460 C.2       1 LEU         0.2058
     84 O           5.3240  -11.9000    6.1350 O.2       1 LEU        -0.3942
     85 CB          3.6610  -14.7720    6.8470 C.3       1 LEU        -0.0101
     86 CG          3.1210  -14.8120    8.2720 C.3       1 LEU        -0.0425
     87 CD1         1.6220  -14.7810    8.2460 C.3       1 LEU        -0.0625
     88 CD2         3.5970  -16.0370    8.9760 C.3       1 LEU        -0.0625
     89 N           5.4190  -13.6080    4.6850 N.am      1 PRO        -0.2556
     90 CA          6.7320  -13.2130    4.1720 C.3       1 PRO         0.0972
     91 C           6.7400  -11.7720    3.6810 C.2       1 PRO         0.0603
     92 O           6.5559  -10.8443    4.5135 O.co2     1 PRO        -0.5666
     93 CB          6.9460  -14.1750    3.0110 C.3       1 PRO        -0.0159
     94 CG          6.1760  -15.3830    3.3940 C.3       1 PRO        -0.0288
     95 CD          4.9630  -14.8800    4.1010 C.3       1 PRO         0.0362
     96 O           6.9276  -11.5114    2.4626 O.co2     1 PRO        -0.5666
     97 H1        -11.9273  -12.0450    5.0977 H         1 GLU         0.2015
     98 H2        -12.4596  -13.3027    6.0165 H         1 GLU         0.2015
     99 H3        -12.1154  -13.5349    4.4237 H         1 GLU         0.2015
    100 H4         -9.7914  -13.1194    4.7570 H         1 GLU         0.1099
    101 H5         -9.9025  -11.4769    6.5111 H         1 GLU         0.0363
    102 H6         -8.9413  -12.8722    7.1078 H         1 GLU         0.0363
    103 H7        -11.3165  -13.5847    8.1138 H         1 GLU         0.0434
    104 H8        -11.5984  -11.8135    8.0146 H         1 GLU         0.0434
    105 H9         -9.2607  -15.2043    4.1399 H         1 THR         0.1885
    106 H10       -10.1103  -17.4122    5.9634 H         1 THR         0.0826
    107 H11        -9.4049  -19.0216    4.2529 H         1 THR         0.0639
    108 H12        -8.6810  -16.7095    2.7380 H         1 THR         0.2101
    109 H13       -11.0594  -18.5003    2.5103 H         1 THR         0.0257
    110 H14       -11.1570  -16.8103    3.1110 H         1 THR         0.0257
    111 H15       -11.6931  -18.1679    4.1579 H         1 THR         0.0257
    112 H16        -8.5369  -19.0571    6.6348 H         1 PHE         0.1885
    113 H17        -6.1986  -17.8975    7.6718 H         1 PHE         0.0823
    114 H18        -6.8568  -20.8254    7.2218 H         1 PHE         0.0474
    115 H19        -7.1178  -19.8517    8.7086 H         1 PHE         0.0474
    116 H20        -5.1176  -18.9125    9.8916 H         1 PHE         0.0557
    117 H21        -4.7738  -21.7947    6.7609 H         1 PHE         0.0557
    118 H22        -2.8584  -19.4780   10.6755 H         1 PHE         0.0599
    119 H23        -2.4715  -22.2900    7.4489 H         1 PHE         0.0599
    120 H24        -1.5126  -21.1103    9.4097 H         1 PHE         0.0559
    121 H25        -6.5802  -19.9939    4.8022 H         1 SER         0.1884
    122 H26        -3.8778  -20.2145    4.0748 H         1 SER         0.0823
    123 H27        -4.7248  -20.8216    1.8287 H         1 SER         0.0606
    124 H28        -6.3543  -20.2185    2.2844 H         1 SER         0.0606
    125 H29        -4.9016  -22.2874    3.6180 H         1 SER         0.2097
    126 H30        -6.2584  -17.7616    3.0507 H         1 ASP         0.1884
    127 H31        -4.4752  -16.4258    1.3063 H         1 ASP         0.0819
    128 H32        -6.0320  -14.4548    1.8393 H         1 ASP         0.0478
    129 H33        -6.9143  -15.5916    2.9145 H         1 ASP         0.0478
    130 H34        -5.2868  -15.9899    4.7037 H         1 LEU         0.1883
    131 H35        -3.7911  -13.5872    5.0244 H         1 LEU         0.0800
    132 H36        -4.1407  -15.2674    7.3521 H         1 LEU         0.0315
    133 H37        -5.6168  -15.2185    6.3296 H         1 LEU         0.0315
    134 H38        -4.5757  -13.3323    8.2980 H         1 LEU         0.0298
    135 H39        -5.6710  -11.4649    7.3062 H         1 LEU         0.0232
    136 H40        -5.9633  -12.4117    5.8080 H         1 LEU         0.0232
    137 H41        -4.2838  -12.0151    6.3065 H         1 LEU         0.0232
    138 H42        -6.4728  -14.8175    8.4371 H         1 LEU         0.0232
    139 H43        -7.1820  -14.0406    6.9811 H         1 LEU         0.0232
    140 H44        -6.9651  -13.0909    8.4903 H         1 LEU         0.0232
    141 H45        -3.0114  -16.9936    5.5107 H         1 TRP         0.1884
    142 H46        -0.5665  -16.5365    6.9353 H         1 TRP         0.0815
    143 H47        -1.3427  -18.9432    5.2466 H         1 TRP         0.0397
    144 H48        -1.9167  -18.6594    6.9249 H         1 TRP         0.0397
    145 H49         0.9463  -20.0523    4.9820 H         1 TRP         0.0795
    146 H50         2.8019  -20.8630    6.5628 H         1 TRP         0.2216
    147 H51        -0.8226  -18.0148    9.2675 H         1 TRP         0.0540
    148 H52         3.3647  -20.6459    9.2920 H         1 TRP         0.0541
    149 H53         0.4206  -18.3705   11.3167 H         1 TRP         0.0510
    150 H54         2.4754  -19.6598   11.3364 H         1 TRP         0.0530
    151 H55        -1.4209  -16.8918    3.5446 H         1 LYS         0.1883
    152 H56         1.2370  -16.9889    2.5493 H         1 LYS         0.0800
    153 H57         0.0752  -16.1667    0.3928 H         1 LYS         0.0312
    154 H58        -1.4467  -16.3091    1.3363 H         1 LYS         0.0312
    155 H59        -0.7787  -18.7036    1.8416 H         1 LYS         0.0269
    156 H60         0.5449  -18.5037    0.6438 H         1 LYS         0.0269
    157 H61        -1.0241  -18.1063   -1.1401 H         1 LYS         0.0317
    158 H62        -2.3977  -18.0060    0.0130 H         1 LYS         0.0317
    159 H63        -0.7485  -20.4967   -0.6168 H         1 LYS         0.0813
    160 H64        -2.3994  -20.1329   -1.2242 H         1 LYS         0.0813
    161 H65        -2.4417  -21.6274    0.6517 H         1 LYS         0.1994
    162 H66        -3.1720  -20.2078    1.0528 H         1 LYS         0.1994
    163 H67        -1.6592  -20.5412    1.6094 H         1 LYS         0.1994
    164 H68        -0.2993  -14.4270    4.0898 H         1 LEU         0.1883
    165 H69         1.1421  -12.3594    2.5611 H         1 LEU         0.0800
    166 H70         0.0425  -10.8475    4.3138 H         1 LEU         0.0315
    167 H71        -0.8472  -12.3139    4.8478 H         1 LEU         0.0315
    168 H72        -1.7394  -12.4986    2.4901 H         1 LEU         0.0298
    169 H73        -3.4123  -10.7270    2.8650 H         1 LEU         0.0232
    170 H74        -2.3389   -9.9782    4.0953 H         1 LEU         0.0232
    171 H75        -3.0291  -11.6119    4.3805 H         1 LEU         0.0232
    172 H76        -0.0134  -11.1188    1.4096 H         1 LEU         0.0232
    173 H77        -0.5830   -9.6846    2.3289 H         1 LEU         0.0232
    174 H78        -1.6598  -10.4617    1.1192 H         1 LEU         0.0232
    175 H79         2.1909  -14.4525    4.7851 H         1 LEU         0.1883
    176 H80         3.1027  -12.7105    6.8756 H         1 LEU         0.0800
    177 H81         4.7363  -15.0014    6.8808 H         1 LEU         0.0315
    178 H82         3.1398  -15.5431    6.2607 H         1 LEU         0.0315
    179 H83         3.4862  -13.9279    8.8150 H         1 LEU         0.0298
    180 H84         1.2368  -14.8100    9.2759 H         1 LEU         0.0232
    181 H85         1.2468  -15.6525    7.6895 H         1 LEU         0.0232
    182 H86         1.2828  -13.8577    7.7536 H         1 LEU         0.0232
    183 H87         4.6969  -16.0486    8.9887 H         1 LEU         0.0232
    184 H88         3.2270  -16.9294    8.4499 H         1 LEU         0.0232
    185 H89         3.2184  -16.0369   10.0088 H         1 LEU         0.0232
    186 H90         7.5079  -13.3405    4.9412 H         1 PRO         0.0728
    187 H91         8.0134  -14.4136    2.8935 H         1 PRO         0.0306
    188 H92         6.5605  -13.7474    2.0737 H         1 PRO         0.0306
    189 H93         6.7720  -16.0221    4.0620 H         1 PRO         0.0286
    190 H94         5.8890  -15.9548    2.4992 H         1 PRO         0.0286
    191 H95         4.1348  -14.7161    3.3959 H         1 PRO         0.0524
    192 H96         4.6436  -15.5823    4.8851 H         1 PRO         0.0524
@<TRIPOS>BOND
     1    1    2 1  
     2    2    3 1  
     3    2    5 1  
     4    3    4 2  
     5    3   10 am 
     6    5    6 1  
     7    6    7 1  
     8    7    8 ar 
     9    7    9 ar 
    10   10   11 1  
    11   11   12 1  
    12   11   14 1  
    13   12   13 2  
    14   12   17 am 
    15   14   15 1  
    16   14   16 1  
    17   17   18 1  
    18   18   19 1  
    19   18   21 1  
    20   19   20 2  
    21   19   28 am 
    22   21   22 1  
    23   22   23 ar 
    24   22   24 ar 
    25   23   25 ar 
    26   24   26 ar 
    27   25   27 ar 
    28   26   27 ar 
    29   28   29 1  
    30   29   30 1  
    31   29   32 1  
    32   30   31 2  
    33   30   34 am 
    34   32   33 1  
    35   34   35 1  
    36   35   36 1  
    37   35   38 1  
    38   36   37 2  
    39   36   42 am 
    40   38   39 1  
    41   39   40 ar 
    42   39   41 ar 
    43   42   43 1  
    44   43   44 1  
    45   43   46 1  
    46   44   45 2  
    47   44   50 am 
    48   46   47 1  
    49   47   48 1  
    50   47   49 1  
    51   50   51 1  
    52   51   52 1  
    53   51   54 1  
    54   52   53 2  
    55   52   64 am 
    56   54   55 1  
    57   55   56 2  
    58   55   57 1  
    59   56   58 1  
    60   57   59 ar 
    61   57   60 ar 
    62   58   59 1  
    63   59   61 ar 
    64   60   62 ar 
    65   61   63 ar 
    66   62   63 ar 
    67   64   65 1  
    68   65   66 1  
    69   65   68 1  
    70   66   67 2  
    71   66   73 am 
    72   68   69 1  
    73   69   70 1  
    74   70   71 1  
    75   71   72 1  
    76   73   74 1  
    77   74   75 1  
    78   74   77 1  
    79   75   76 2  
    80   75   81 am 
    81   77   78 1  
    82   78   79 1  
    83   78   80 1  
    84   81   82 1  
    85   82   83 1  
    86   82   85 1  
    87   83   84 2  
    88   83   89 am 
    89   85   86 1  
    90   86   87 1  
    91   86   88 1  
    92   89   90 1  
    93   89   95 1  
    94   90   91 1  
    95   90   93 1  
    96   91   92 ar 
    97   93   94 1  
    98   94   95 1  
    99   91   96 ar 
   100    1   97 1  
   101    1   98 1  
   102    1   99 1  
   103    2  100 1  
   104    5  101 1  
   105    5  102 1  
   106    6  103 1  
   107    6  104 1  
   108   10  105 1  
   109   11  106 1  
   110   14  107 1  
   111   15  108 1  
   112   16  109 1  
   113   16  110 1  
   114   16  111 1  
   115   17  112 1  
   116   18  113 1  
   117   21  114 1  
   118   21  115 1  
   119   23  116 1  
   120   24  117 1  
   121   25  118 1  
   122   26  119 1  
   123   27  120 1  
   124   28  121 1  
   125   29  122 1  
   126   32  123 1  
   127   32  124 1  
   128   33  125 1  
   129   34  126 1  
   130   35  127 1  
   131   38  128 1  
   132   38  129 1  
   133   42  130 1  
   134   43  131 1  
   135   46  132 1  
   136   46  133 1  
   137   47  134 1  
   138   48  135 1  
   139   48  136 1  
   140   48  137 1  
   141   49  138 1  
   142   49  139 1  
   143   49  140 1  
   144   50  141 1  
   145   51  142 1  
   146   54  143 1  
   147   54  144 1  
   148   56  145 1  
   149   58  146 1  
   150   60  147 1  
   151   61  148 1  
   152   62  149 1  
   153   63  150 1  
   154   64  151 1  
   155   65  152 1  
   156   68  153 1  
   157   68  154 1  
   158   69  155 1  
   159   69  156 1  
   160   70  157 1  
   161   70  158 1  
   162   71  159 1  
   163   71  160 1  
   164   72  161 1  
   165   72  162 1  
   166   72  163 1  
   167   73  164 1  
   168   74  165 1  
   169   77  166 1  
   170   77  167 1  
   171   78  168 1  
   172   79  169 1  
   173   79  170 1  
   174   79  171 1  
   175   80  172 1  
   176   80  173 1  
   177   80  174 1  
   178   81  175 1  
   179   82  176 1  
   180   85  177 1  
   181   85  178 1  
   182   86  179 1  
   183   87  180 1  
   184   87  181 1  
   185   87  182 1  
   186   88  183 1  
   187   88  184 1  
   188   88  185 1  
   189   90  186 1  
   190   93  187 1  
   191   93  188 1  
   192   94  189 1  
   193   94  190 1  
   194   95  191 1  
   195   95  192 1  
@<TRIPOS>SUBSTRUCTURE
     1 GLU         1

