4hfz_ligand
  -I-interpret- 

194197  0  0  0  0  0  0  0  0999 V2000
  -11.8500  -13.0370    5.2590 N   0  3  0  0  0
  -10.4280  -13.3780    5.6160 C   0  0  0  0  0
  -10.2770  -14.9100    5.8720 C   0  0  0  0  0
  -10.8150  -15.4350    6.8640 O   0  0  0  0  0
   -9.9490  -12.5280    6.8320 C   0  0  0  0  0
  -10.8310  -12.5980    8.0890 C   0  0  0  0  0
  -10.0750  -12.4040    9.4050 C   0  0  0  0  0
   -9.0030  -11.7610    9.3920 O   0  0  0  0  0
  -10.5760  -12.8790   10.4630 O   0  0  0  0  0
   -9.6100  -15.6370    4.9710 N   0  0  0  0  0
   -9.3870  -17.0850    5.2020 C   0  0  0  0  0
   -7.9740  -17.3330    5.7190 C   0  0  0  0  0
   -7.0680  -16.5320    5.4340 O   0  0  0  0  0
   -9.5650  -17.9740    3.9580 C   0  0  0  0  0
   -8.5750  -17.6220    2.9800 O   0  0  0  0  0
  -10.9640  -17.8550    3.3960 C   0  0  0  0  0
   -7.7750  -18.4340    6.4580 N   0  0  0  0  0
   -6.4660  -18.7280    7.0020 C   0  0  0  0  0
   -5.3910  -18.7950    5.8980 C   0  0  0  0  0
   -4.3270  -18.1560    6.0110 O   0  0  0  0  0
   -6.4660  -20.0000    7.8350 C   0  0  0  0  0
   -5.1070  -20.3580    8.3080 C   0  0  0  0  0
   -4.5450  -19.6790    9.3820 C   0  0  0  0  0
   -4.3460  -21.2840    7.6160 C   0  0  0  0  0
   -3.2740  -19.9690    9.8030 C   0  0  0  0  0
   -3.0630  -21.5640    7.9950 C   0  0  0  0  0
   -2.5290  -20.8970    9.0990 C   0  0  0  0  0
   -5.6890  -19.5410    4.8270 N   0  0  0  0  0
   -4.7900  -19.7320    3.6940 C   0  0  0  0  0
   -4.3780  -18.4370    3.0380 C   0  0  0  0  0
   -3.2030  -18.2720    2.7480 O   0  0  0  0  0
   -5.4230  -20.6640    2.6640 C   0  0  0  0  0
   -5.7080  -21.9070    3.2900 O   0  0  0  0  0
   -5.3100  -17.5450    2.8190 N   0  0  0  0  0
   -5.0040  -16.2750    2.2590 C   0  0  0  0  0
   -4.1650  -15.4560    3.1560 C   0  0  0  0  0
   -3.2460  -14.8430    2.7260 O   0  0  0  0  0
   -6.2820  -15.5110    2.0180 C   0  0  0  0  0
   -7.0480  -16.0240    0.8470 C   0  0  0  0  0
   -6.4360  -16.5360   -0.1090 O   0  0  0  0  0
   -8.2780  -15.9190    0.8820 O   0  0  0  0  0
   -4.5160  -15.4230    4.4130 N   0  0  0  0  0
   -3.8580  -14.6200    5.3970 C   0  0  0  0  0
   -2.4640  -15.0890    5.7580 C   0  0  0  0  0
   -1.6240  -14.3030    6.0890 O   0  0  0  0  0
   -4.7150  -14.6660    6.6320 C   0  0  0  0  0
   -5.2270  -13.4970    7.4270 C   0  0  0  0  0
   -5.2900  -12.2750    6.6670 C   0  0  0  0  0
   -6.5380  -13.8840    7.8590 C   0  0  0  0  0
   -2.2470  -16.3880    5.7320 N   0  0  0  0  0
   -0.9570  -16.9810    6.0080 C   0  0  0  0  0
    0.0210  -16.7020    4.9050 C   0  0  0  0  0
    1.1680  -16.5250    5.1470 O   0  0  0  0  0
   -1.0950  -18.4840    6.2150 C   0  0  0  0  0
    0.1200  -19.1430    6.7420 C   0  0  0  0  0
    1.0080  -19.8540    6.0510 C   0  0  0  0  0
    0.5710  -19.1450    8.0870 C   0  0  0  0  0
    1.9950  -20.2950    6.8580 N   0  0  0  0  0
    1.7500  -19.8670    8.1240 C   0  0  0  0  0
    0.0930  -18.5950    9.2600 C   0  0  0  0  0
    2.4470  -20.0690    9.2790 C   0  0  0  0  0
    0.7870  -18.7950   10.3890 C   0  0  0  0  0
    1.9470  -19.5220   10.4000 C   0  0  0  0  0
   -0.4550  -16.6730    3.6830 N   0  0  0  0  0
    0.3500  -16.3390    2.5200 C   0  0  0  0  0
    0.8740  -14.8840    2.5230 C   0  0  0  0  0
    1.7590  -14.5380    1.7460 O   0  0  0  0  0
   -0.4150  -16.6770    1.2350 C   0  0  0  0  0
   -0.4620  -18.1690    0.9340 C   0  0  0  0  0
   -1.4390  -18.5010   -0.2010 C   0  0  0  0  0
   -1.7020  -20.0000   -0.3840 C   0  0  0  0  0
   -2.2920  -20.6470    0.8320 N   0  3  0  0  0
    0.3820  -14.0750    3.4480 N   0  0  0  0  0
    0.8060  -12.6870    3.5560 C   0  0  0  0  0
    1.9460  -12.4700    4.5370 C   0  0  0  0  0
    2.3280  -11.3410    4.7950 O   0  0  0  0  0
   -0.3640  -11.8180    3.9930 C   0  0  0  0  0
   -1.4360  -11.5470    2.9510 C   0  0  0  0  0
   -2.6350  -10.9240    3.6180 C   0  0  0  0  0
   -0.8860  -10.6420    1.8800 C   0  0  0  0  0
    2.4810  -13.5460    5.0920 N   0  0  0  0  0
    3.4820  -13.4340    6.1390 C   0  0  0  0  0
    4.8270  -12.9130    5.6460 C   0  0  0  0  0
    5.3240  -11.9000    6.1350 O   0  0  0  0  0
    3.6610  -14.7720    6.8470 C   0  0  0  0  0
    3.1210  -14.8120    8.2720 C   0  0  0  0  0
    1.6220  -14.7810    8.2460 C   0  0  0  0  0
    3.5970  -16.0370    8.9760 C   0  0  0  0  0
    5.4190  -13.6080    4.6850 N   0  0  0  0  0
    6.7320  -13.2130    4.1720 C   0  0  0  0  0
    6.7400  -11.7720    3.6810 C   0  0  0  0  0
    6.5559  -10.8443    4.5135 O   0  0  0  0  0
    6.9460  -14.1750    3.0110 C   0  0  0  0  0
    6.1760  -15.3830    3.3940 C   0  0  0  0  0
    4.9630  -14.8800    4.1010 C   0  0  0  0  0
    6.9276  -11.5114    2.4626 O   0  0  0  0  0
  -12.1443  -13.6025    4.4628 H   0  0  0  0  0
  -12.4553  -13.2301    6.0570 H   0  0  0  0  0
  -11.9106  -12.0482    5.0162 H   0  0  0  0  0
   -9.7835  -13.1277    4.7734 H   0  0  0  0  0
   -9.9632  -11.4885    6.5045 H   0  0  0  0  0
   -8.9745  -12.9236    7.1183 H   0  0  0  0  0
  -11.2692  -13.5957    8.1165 H   0  0  0  0  0
  -11.5568  -11.7882    8.0153 H   0  0  0  0  0
  -11.3948  -13.3335   10.2520 H   0  0  0  0  0
   -9.2537  -15.1956    4.1233 H   0  0  0  0  0
  -10.1535  -17.3590    5.9270 H   0  0  0  0  0
   -9.4264  -19.0174    4.2413 H   0  0  0  0  0
   -8.6837  -18.1750    2.2029 H   0  0  0  0  0
  -11.6854  -18.1653    4.1519 H   0  0  0  0  0
  -11.1540  -16.8194    3.1140 H   0  0  0  0  0
  -11.0573  -18.4948    2.5185 H   0  0  0  0  0
   -8.5522  -19.0695    6.6383 H   0  0  0  0  0
   -6.2130  -17.9014    7.6659 H   0  0  0  0  0
   -6.8341  -20.8145    7.2112 H   0  0  0  0  0
   -7.0969  -19.8342    8.7083 H   0  0  0  0  0
   -5.1208  -18.9083    9.8944 H   0  0  0  0  0
   -4.7761  -21.7975    6.7561 H   0  0  0  0  0
   -2.8561  -19.4753   10.6803 H   0  0  0  0  0
   -2.4683  -22.2940    7.4459 H   0  0  0  0  0
   -1.5070  -21.1115    9.4114 H   0  0  0  0  0
   -6.5980  -20.0030    4.8017 H   0  0  0  0  0
   -3.8824  -20.1853    4.0926 H   0  0  0  0  0
   -4.7363  -20.8172    1.8315 H   0  0  0  0  0
   -6.3430  -20.2226    2.2808 H   0  0  0  0  0
   -6.1069  -22.5019    2.6508 H   0  0  0  0  0
   -6.2773  -17.7659    3.0554 H   0  0  0  0  0
   -4.4601  -16.4596    1.3326 H   0  0  0  0  0
   -6.0179  -14.4730    1.8159 H   0  0  0  0  0
   -6.9095  -15.6217    2.9024 H   0  0  0  0  0
   -5.4928  -16.5162    0.0689 H   0  0  0  0  0
   -5.3022  -16.0013    4.7095 H   0  0  0  0  0
   -3.7365  -13.6185    4.9842 H   0  0  0  0  0
   -4.0377  -15.1330    7.3471 H   0  0  0  0  0
   -5.6422  -15.0798    6.2357 H   0  0  0  0  0
   -4.5507  -13.2790    8.2536 H   0  0  0  0  0
   -4.2924  -12.0186    6.3103 H   0  0  0  0  0
   -5.9574  -12.4118    5.8162 H   0  0  0  0  0
   -5.6676  -11.4731    7.3014 H   0  0  0  0  0
   -7.1625  -14.0819    6.9879 H   0  0  0  0  0
   -6.4671  -14.7846    8.4690 H   0  0  0  0  0
   -6.9777  -13.0787    8.4475 H   0  0  0  0  0
   -3.0266  -17.0057    5.5062 H   0  0  0  0  0
   -0.5742  -16.5287    6.9229 H   0  0  0  0  0
   -1.2992  -18.9237    5.2387 H   0  0  0  0  0
   -1.8848  -18.6341    6.9510 H   0  0  0  0  0
    0.9463  -20.0525    4.9810 H   0  0  0  0  0
   -0.8277  -18.0115    9.2675 H   0  0  0  0  0
    3.3697  -20.6491    9.2921 H   0  0  0  0  0
    0.4186  -18.3681   11.3218 H   0  0  0  0  0
    2.4783  -19.6606   11.3416 H   0  0  0  0  0
   -1.4402  -16.8962    3.5419 H   0  0  0  0  0
    1.2476  -16.9557    2.5652 H   0  0  0  0  0
    0.1017  -16.1909    0.4075 H   0  0  0  0  0
   -1.4420  -16.3354    1.3645 H   0  0  0  0  0
   -0.7984  -18.6857    1.8329 H   0  0  0  0  0
    0.5350  -18.4843    0.6262 H   0  0  0  0  0
   -0.9929  -18.1371   -1.1266 H   0  0  0  0  0
   -2.3923  -18.0349    0.0482 H   0  0  0  0  0
   -0.7449  -20.4819   -0.5837 H   0  0  0  0  0
   -2.4169  -20.1134   -1.1989 H   0  0  0  0  0
   -2.4430  -21.6389    0.6484 H   0  0  0  0  0
   -1.6508  -20.5392    1.6179 H   0  0  0  0  0
   -3.1823  -20.2017    1.0544 H   0  0  0  0  0
   -0.3129  -14.4341    4.1026 H   0  0  0  0  0
    1.1641  -12.4101    2.5645 H   0  0  0  0  0
    0.0607  -10.8470    4.2477 H   0  0  0  0  0
   -0.8578  -12.3609    4.7989 H   0  0  0  0  0
   -1.7438  -12.4825    2.4839 H   0  0  0  0  0
   -3.0245  -11.6066    4.3733 H   0  0  0  0  0
   -2.3403   -9.9870    4.0906 H   0  0  0  0  0
   -3.4045  -10.7293    2.8709 H   0  0  0  0  0
   -0.5711   -9.6999    2.3287 H   0  0  0  0  0
   -0.0315  -11.1226    1.4036 H   0  0  0  0  0
   -1.6588  -10.4509    1.1354 H   0  0  0  0  0
    2.1851  -14.4706    4.7789 H   0  0  0  0  0
    3.1052  -12.6908    6.8417 H   0  0  0  0  0
    4.7331  -14.9595    6.9073 H   0  0  0  0  0
    3.1031  -15.5126    6.2741 H   0  0  0  0  0
    3.4883  -13.9396    8.8125 H   0  0  0  0  0
    1.2872  -13.8658    7.7578 H   0  0  0  0  0
    1.2515  -15.6450    7.6943 H   0  0  0  0  0
    1.2415  -14.8098    9.2670 H   0  0  0  0  0
    3.2500  -16.9205    8.4401 H   0  0  0  0  0
    4.6865  -16.0352    9.0093 H   0  0  0  0  0
    3.2012  -16.0478    9.9916 H   0  0  0  0  0
    7.5106  -13.2597    4.9334 H   0  0  0  0  0
    8.0011  -14.3942    2.8472 H   0  0  0  0  0
    6.6101  -13.7564    2.0623 H   0  0  0  0  0
    6.7632  -16.0434    4.0321 H   0  0  0  0  0
    5.9093  -15.9782    2.5207 H   0  0  0  0  0
    4.1090  -14.7554    3.4352 H   0  0  0  0  0
    4.5928  -15.5789    4.8511 H   0  0  0  0  0
    7.0491  -12.3302    1.9764 H   0  0  0  0  0
  1  2  1  0  0  0
  2  3  1  0  0  0
  2  5  1  0  0  0
  3  4  2  0  0  0
  3 10  1  0  0  0
  5  6  1  0  0  0
  6  7  1  0  0  0
  7  8  2  0  0  0
  7  9  1  0  0  0
 10 11  1  0  0  0
 11 12  1  0  0  0
 11 14  1  0  0  0
 12 13  2  0  0  0
 12 17  1  0  0  0
 14 15  1  0  0  0
 14 16  1  0  0  0
 17 18  1  0  0  0
 18 19  1  0  0  0
 18 21  1  0  0  0
 19 20  2  0  0  0
 19 28  1  0  0  0
 21 22  1  0  0  0
 22 23  4  0  0  0
 22 24  4  0  0  0
 23 25  4  0  0  0
 24 26  4  0  0  0
 25 27  4  0  0  0
 26 27  4  0  0  0
 28 29  1  0  0  0
 29 30  1  0  0  0
 29 32  1  0  0  0
 30 31  2  0  0  0
 30 34  1  0  0  0
 32 33  1  0  0  0
 34 35  1  0  0  0
 35 36  1  0  0  0
 35 38  1  0  0  0
 36 37  2  0  0  0
 36 42  1  0  0  0
 38 39  1  0  0  0
 39 40  1  0  0  0
 39 41  2  0  0  0
 42 43  1  0  0  0
 43 44  1  0  0  0
 43 46  1  0  0  0
 44 45  2  0  0  0
 44 50  1  0  0  0
 46 47  1  0  0  0
 47 48  1  0  0  0
 47 49  1  0  0  0
 50 51  1  0  0  0
 51 52  1  0  0  0
 51 54  1  0  0  0
 52 53  2  0  0  0
 52 64  1  0  0  0
 54 55  1  0  0  0
 55 56  4  0  0  0
 55 57  4  0  0  0
 56 58  4  0  0  0
 57 59  4  0  0  0
 57 60  4  0  0  0
 58 59  4  0  0  0
 59 61  4  0  0  0
 60 62  4  0  0  0
 61 63  4  0  0  0
 62 63  4  0  0  0
 64 65  1  0  0  0
 65 66  1  0  0  0
 65 68  1  0  0  0
 66 67  2  0  0  0
 66 73  1  0  0  0
 68 69  1  0  0  0
 69 70  1  0  0  0
 70 71  1  0  0  0
 71 72  1  0  0  0
 73 74  1  0  0  0
 74 75  1  0  0  0
 74 77  1  0  0  0
 75 76  2  0  0  0
 75 81  1  0  0  0
 77 78  1  0  0  0
 78 79  1  0  0  0
 78 80  1  0  0  0
 81 82  1  0  0  0
 82 83  1  0  0  0
 82 85  1  0  0  0
 83 84  2  0  0  0
 83 89  1  0  0  0
 85 86  1  0  0  0
 86 87  1  0  0  0
 86 88  1  0  0  0
 89 90  1  0  0  0
 89 95  1  0  0  0
 90 91  1  0  0  0
 90 93  1  0  0  0
 91 92  2  0  0  0
 93 94  1  0  0  0
 94 95  1  0  0  0
 91 96  1  0  0  0
  1 97  1  0  0  0
  1 98  1  0  0  0
  1 99  1  0  0  0
  2100  1  0  0  0
  5101  1  0  0  0
  5102  1  0  0  0
  6103  1  0  0  0
  6104  1  0  0  0
  9105  1  0  0  0
 10106  1  0  0  0
 11107  1  0  0  0
 14108  1  0  0  0
 15109  1  0  0  0
 16110  1  0  0  0
 16111  1  0  0  0
 16112  1  0  0  0
 17113  1  0  0  0
 18114  1  0  0  0
 21115  1  0  0  0
 21116  1  0  0  0
 23117  1  0  0  0
 24118  1  0  0  0
 25119  1  0  0  0
 26120  1  0  0  0
 27121  1  0  0  0
 28122  1  0  0  0
 29123  1  0  0  0
 32124  1  0  0  0
 32125  1  0  0  0
 33126  1  0  0  0
 34127  1  0  0  0
 35128  1  0  0  0
 38129  1  0  0  0
 38130  1  0  0  0
 40131  1  0  0  0
 42132  1  0  0  0
 43133  1  0  0  0
 46134  1  0  0  0
 46135  1  0  0  0
 47136  1  0  0  0
 48137  1  0  0  0
 48138  1  0  0  0
 48139  1  0  0  0
 49140  1  0  0  0
 49141  1  0  0  0
 49142  1  0  0  0
 50143  1  0  0  0
 51144  1  0  0  0
 54145  1  0  0  0
 54146  1  0  0  0
 56147  1  0  0  0
 60148  1  0  0  0
 61149  1  0  0  0
 62150  1  0  0  0
 63151  1  0  0  0
 64152  1  0  0  0
 65153  1  0  0  0
 68154  1  0  0  0
 68155  1  0  0  0
 69156  1  0  0  0
 69157  1  0  0  0
 70158  1  0  0  0
 70159  1  0  0  0
 71160  1  0  0  0
 71161  1  0  0  0
 72162  1  0  0  0
 72163  1  0  0  0
 72164  1  0  0  0
 73165  1  0  0  0
 74166  1  0  0  0
 77167  1  0  0  0
 77168  1  0  0  0
 78169  1  0  0  0
 79170  1  0  0  0
 79171  1  0  0  0
 79172  1  0  0  0
 80173  1  0  0  0
 80174  1  0  0  0
 80175  1  0  0  0
 81176  1  0  0  0
 82177  1  0  0  0
 85178  1  0  0  0
 85179  1  0  0  0
 86180  1  0  0  0
 87181  1  0  0  0
 87182  1  0  0  0
 87183  1  0  0  0
 88184  1  0  0  0
 88185  1  0  0  0
 88186  1  0  0  0
 90187  1  0  0  0
 93188  1  0  0  0
 93189  1  0  0  0
 94190  1  0  0  0
 94191  1  0  0  0
 95192  1  0  0  0
 95193  1  0  0  0
 96194  1  0  0  0
M  END
$$$$
