### 
### Created by X-TOOL on Mon Sep 10 21:13:03 2018
### 

@<TRIPOS>MOLECULE
3ixg_ligand
   19    20     1     0     0
SMALL
GAST_HUCK


@<TRIPOS>ATOM
      1 B          71.2320    4.8160   23.4870 B         1 BZB         3.0000
      2 O1         70.6030    5.1430   22.1310 O.3       1 BZB        -0.8710
      3 O2         71.9550    3.4640   23.6230 O.3       1 BZB        -0.8710
      4 C1         71.8440    5.9460   24.3470 C.2       1 BZB        -0.1102
      5 C2         71.9300    7.3110   24.0330 C.2       1 BZB        -0.1652
      6 C8         73.0250    7.0200   26.2500 C.ar      1 BZB        -0.0361
      7 C3         72.6280    7.9470   25.1620 C.ar      1 BZB        -0.1161
      8 C7         73.6910    7.4290   27.4100 C.ar      1 BZB        -0.1132
      9 S          72.5390    5.4670   25.8570 S.3       1 BZB        -0.1356
     10 C4         72.9680    9.2950   25.3480 C.ar      1 BZB        -0.1362
     11 C6         74.0030    8.7940   27.5280 C.ar      1 BZB        -0.1356
     12 C5         73.6440    9.6980   26.5140 C.ar      1 BZB        -0.1337
     13 H          69.9446    4.4781   21.9162 H         1 BZB        -0.1290
     14 H          71.3347    2.7519   23.4503 H         1 BZB        -0.1290
     15 H          71.5555    7.8013   23.1344 H         1 BZB        -0.0010
     16 H          73.9574    6.7172   28.1913 H         1 BZB         0.0222
     17 H          72.7080   10.0316   24.5878 H         1 BZB         0.0096
     18 H          74.5275    9.1543   28.4129 H         1 BZB         0.0101
     19 H          73.8988   10.7508   26.6354 H         1 BZB         0.0409
@<TRIPOS>BOND
     1    1    2 1  
     2    1    3 1  
     3    1    4 1  
     4    4    5 2  
     5    4    9 1  
     6    5    7 1  
     7    7    6 ar 
     8    6    8 ar 
     9    6    9 1  
    10    7   10 ar 
    11    8   11 ar 
    12   10   12 ar 
    13   11   12 ar 
    14    2   13 1  
    15    3   14 1  
    16    5   15 1  
    17    8   16 1  
    18   10   17 1  
    19   11   18 1  
    20   12   19 1  
@<TRIPOS>SUBSTRUCTURE
     1 BZB         1

