2vrx_ligand
  -I-interpret- 

 70 74  0  0  0  0  0  0  0  0999 V2000
   16.9480   -4.8250    2.4360 C   0  0  0  0  0
   17.3820   -6.2530    2.0430 C   0  0  0  0  0
   16.5960   -7.2470    2.7910 O   0  0  0  0  0
   15.1470   -7.1230    2.5830 C   0  0  0  0  0
   14.6970   -5.6620    2.7900 C   0  0  0  0  0
   15.8080   -4.8830    3.3800 N   0  3  0  0  0
   15.3820   -3.5720    3.9270 C   0  0  0  0  0
   15.0790   -2.4420    2.9320 C   0  0  0  0  0
   14.4450   -1.2650    3.6960 C   0  0  0  0  0
   13.0060   -1.3450    3.5830 O   0  0  0  0  0
   12.2380   -0.2830    3.9940 C   0  0  0  0  0
   12.7310    0.7920    4.7430 C   0  0  0  0  0
   10.8780   -0.3020    3.6260 C   0  0  0  0  0
   10.3890   -1.3700    2.9090 O   0  0  0  0  0
   10.9840   -1.6140    1.6320 C   0  0  0  0  0
   10.0240    0.7310    4.0110 C   0  0  0  0  0
   10.5130    1.8090    4.7560 C   0  0  0  0  0
   11.8710    1.8320    5.1180 C   0  0  0  0  0
   12.3590    2.8570    5.8350 N   0  0  0  0  0
   11.5260    3.9110    6.2290 C   0  0  0  0  0
   10.1700    3.8940    5.8630 N   0  0  0  0  0
    9.6760    2.8680    5.1470 C   0  0  0  0  0
    8.3690    2.7990    4.7810 N   0  0  0  0  0
    7.4690    3.7150    5.2320 C   0  0  0  0  0
    6.5350    4.2520    4.3440 C   0  0  0  0  0
    5.5910    5.1880    4.7760 C   0  0  0  0  0
    7.4250    4.1240    6.5690 C   0  0  0  0  0
    6.4830    5.0570    7.0060 C   0  0  0  0  0
    5.5490    5.5900    6.1190 C   0  0  0  0  0
    4.6720    6.5130    6.5840 N   0  0  0  0  0
    3.4990    6.7670    5.9550 C   0  0  0  0  0
    3.1050    6.1950    4.9340 O   0  0  0  0  0
    2.7220    7.7630    6.5530 C   0  0  0  0  0
    1.4280    8.0110    6.0900 C   0  0  0  0  0
    0.6540    9.0080    6.6780 C   0  0  0  0  0
    1.1690    9.7650    7.7290 C   0  0  0  0  0
    2.4560    9.5160    8.1970 C   0  0  0  0  0
    3.2330    8.5240    7.6040 C   0  0  0  0  0
   16.6442   -4.2835    1.5401 H   0  0  0  0  0
   17.7841   -4.3153    2.9148 H   0  0  0  0  0
   18.4383   -6.3825    2.2789 H   0  0  0  0  0
   17.2145   -6.3957    0.9754 H   0  0  0  0  0
   14.6296   -7.7590    3.3013 H   0  0  0  0  0
   14.9073   -7.4273    1.5642 H   0  0  0  0  0
   13.8391   -5.6377    3.4619 H   0  0  0  0  0
   14.4185   -5.2279    1.8297 H   0  0  0  0  0
   16.1414   -5.3756    4.2086 H   0  0  0  0  0
   16.2250   -3.2176    4.5201 H   0  0  0  0  0
   14.4409   -3.7648    4.4421 H   0  0  0  0  0
   14.3905   -2.7990    2.1661 H   0  0  0  0  0
   16.0013   -2.1162    2.4509 H   0  0  0  0  0
   14.7935   -0.3233    3.2718 H   0  0  0  0  0
   14.7327   -1.3132    4.7462 H   0  0  0  0  0
   13.7812    0.8196    5.0336 H   0  0  0  0  0
   10.8446   -0.7407    0.9948 H   0  0  0  0  0
   12.0494   -1.8058    1.7597 H   0  0  0  0  0
   10.5101   -2.4808    1.1714 H   0  0  0  0  0
    8.9713    0.6982    3.7302 H   0  0  0  0  0
   11.9265    4.7382    6.8151 H   0  0  0  0  0
    8.0586    2.0513    4.1605 H   0  0  0  0  0
    6.5420    3.9373    3.3004 H   0  0  0  0  0
    4.8817    5.6089    4.0633 H   0  0  0  0  0
    8.1376    3.7076    7.2810 H   0  0  0  0  0
    6.4778    5.3714    8.0497 H   0  0  0  0  0
    4.9017    7.0314    7.4319 H   0  0  0  0  0
    1.0230    7.4228    5.2665 H   0  0  0  0  0
   -0.3565    9.1969    6.3157 H   0  0  0  0  0
    0.5651   10.5504    8.1835 H   0  0  0  0  0
    2.8558   10.0975    9.0277 H   0  0  0  0  0
    4.2458    8.3414    7.9632 H   0  0  0  0  0
  1  2  1  0  0  0
  1  6  1  0  0  0
  2  3  1  0  0  0
  3  4  1  0  0  0
  4  5  1  0  0  0
  5  6  1  0  0  0
  6  7  1  0  0  0
  7  8  1  0  0  0
  8  9  1  0  0  0
  9 10  1  0  0  0
 10 11  1  0  0  0
 11 12  4  0  0  0
 11 13  4  0  0  0
 12 18  4  0  0  0
 13 14  1  0  0  0
 13 16  4  0  0  0
 14 15  1  0  0  0
 16 17  4  0  0  0
 17 18  4  0  0  0
 17 22  4  0  0  0
 18 19  4  0  0  0
 19 20  4  0  0  0
 20 21  4  0  0  0
 21 22  4  0  0  0
 22 23  1  0  0  0
 23 24  1  0  0  0
 24 25  4  0  0  0
 24 27  4  0  0  0
 25 26  4  0  0  0
 26 29  4  0  0  0
 27 28  4  0  0  0
 28 29  4  0  0  0
 29 30  1  0  0  0
 30 31  1  0  0  0
 31 32  2  0  0  0
 31 33  1  0  0  0
 33 34  4  0  0  0
 33 38  4  0  0  0
 34 35  4  0  0  0
 35 36  4  0  0  0
 36 37  4  0  0  0
 37 38  4  0  0  0
  1 39  1  0  0  0
  1 40  1  0  0  0
  2 41  1  0  0  0
  2 42  1  0  0  0
  4 43  1  0  0  0
  4 44  1  0  0  0
  5 45  1  0  0  0
  5 46  1  0  0  0
  6 47  1  0  0  0
  7 48  1  0  0  0
  7 49  1  0  0  0
  8 50  1  0  0  0
  8 51  1  0  0  0
  9 52  1  0  0  0
  9 53  1  0  0  0
 12 54  1  0  0  0
 15 55  1  0  0  0
 15 56  1  0  0  0
 15 57  1  0  0  0
 16 58  1  0  0  0
 20 59  1  0  0  0
 23 60  1  0  0  0
 25 61  1  0  0  0
 26 62  1  0  0  0
 27 63  1  0  0  0
 28 64  1  0  0  0
 30 65  1  0  0  0
 34 66  1  0  0  0
 35 67  1  0  0  0
 36 68  1  0  0  0
 37 69  1  0  0  0
 38 70  1  0  0  0
M  END
$$$$
