2peh_ligand
  -I-interpret- 

173175  0  0  0  0  0  0  0  0999 V2000
   24.7380  -21.7170    0.8570 N   0  3  0  0  0
   23.2840  -21.6270    0.9030 C   0  0  0  0  0
   22.8070  -21.0730    2.2410 C   0  0  0  0  0
   21.7950  -21.5190    2.7830 O   0  0  0  0  0
   22.6540  -22.9980    0.6460 C   0  0  0  0  0
   22.4120  -23.8150    1.9050 C   0  0  0  0  0
   22.5690  -25.3020    1.6360 C   0  0  0  0  0
   23.2290  -26.0090    2.8090 C   0  0  0  0  0
   22.5900  -25.6490    4.1050 N   0  3  0  0  0
   23.5420  -20.1000    2.7690 N   0  0  0  0  0
   23.0110  -19.2090    3.7910 C   0  0  0  0  0
   21.6290  -18.7100    3.4050 C   0  0  0  0  0
   21.3900  -18.3890    2.2500 O   0  0  0  0  0
   23.9490  -18.0290    3.9440 C   0  0  0  0  0
   23.5050  -16.9210    4.8810 C   0  0  0  0  0
   23.8120  -15.5800    4.2410 C   0  0  0  0  0
   24.9600  -15.7330    3.3480 N   0  0  0  0  0
   25.2000  -14.9680    2.2920 C   0  0  0  0  0
   24.3960  -13.9580    2.0020 N   0  0  0  0  0
   26.2630  -15.2110    1.5320 N   0  0  0  0  0
   20.7300  -18.6810    4.3830 N   0  0  0  0  0
   19.3360  -18.3010    4.1730 C   0  0  0  0  0
   19.2660  -16.8990    3.6010 C   0  0  0  0  0
   20.0480  -16.0270    4.0120 O   0  0  0  0  0
   18.5550  -18.3600    5.4770 C   0  0  0  0  0
   18.3620  -16.7250    2.6280 N   0  0  0  0  0
   18.1340  -15.4620    1.9880 C   0  0  0  0  0
   17.4860  -14.4830    2.9540 C   0  0  0  0  0
   16.9070  -14.8730    3.9830 O   0  0  0  0  0
   17.1990  -15.6310    0.7760 C   0  0  0  0  0
   15.8400  -15.7740    1.1980 O   0  0  0  0  0
   17.5530  -13.2140    2.5780 N   0  0  0  0  0
   16.8400  -12.1620    3.2780 C   0  0  0  0  0
   15.3290  -12.1520    2.9980 C   0  0  0  0  0
   14.6070  -11.4290    3.6540 O   0  0  0  0  0
   17.4610  -10.7960    2.9420 C   0  0  0  0  0
   18.7520  -10.5100    3.7230 C   0  0  0  0  0
   19.5230   -9.3590    3.1230 C   0  0  0  0  0
   20.1840   -9.7540    1.8910 N   0  0  0  0  0
   20.9780   -8.9660    1.1810 C   0  0  0  0  0
   21.2150   -7.7180    1.5790 N   0  0  0  0  0
   21.5540   -9.4300    0.0780 N   0  0  0  0  0
   14.8310  -12.9210    2.0280 N   0  0  0  0  0
   13.3880  -12.9520    1.7940 C   0  0  0  0  0
   12.5950  -13.3420    3.0380 C   0  0  0  0  0
   12.9370  -14.3010    3.7410 O   0  0  0  0  0
   13.0240  -13.8700    0.6170 C   0  0  0  0  0
   13.4870  -13.2850   -0.6670 C   0  0  0  0  0
   14.5620  -13.6720   -1.3770 C   0  0  0  0  0
   12.9510  -12.1460   -1.3330 C   0  0  0  0  0
   14.7300  -12.8710   -2.4580 N   0  0  0  0  0
   13.7570  -11.9120   -2.4560 C   0  0  0  0  0
   11.8820  -11.2760   -1.0730 C   0  0  0  0  0
   13.4880  -10.9010   -3.3700 C   0  0  0  0  0
   11.6450  -10.2470   -1.9440 C   0  0  0  0  0
   12.4500  -10.0650   -3.0900 C   0  0  0  0  0
   11.5390  -12.5710    3.2930 N   0  0  0  0  0
   10.6000  -12.7570    4.4370 C   0  0  0  0  0
   11.1980  -12.5360    5.8190 C   0  0  0  0  0
   10.6090  -12.9350    6.8240 O   0  0  0  0  0
    9.9330  -14.1270    4.4030 C   0  0  0  0  0
    9.2700  -14.3920    3.1050 C   0  0  0  0  0
    9.6450  -15.3880    2.4680 O   0  0  0  0  0
    8.3960  -13.5960    2.7190 O   0  0  0  0  0
   12.3660  -11.9020    5.8580 N   0  0  0  0  0
   12.9840  -11.4980    7.1140 C   0  0  0  0  0
   12.3210  -10.2470    7.6800 C   0  0  0  0  0
   12.3120   -9.1930    7.0450 O   0  0  0  0  0
   14.4830  -11.2570    6.9210 C   0  0  0  0  0
   15.3680  -12.0960    7.8270 C   0  0  0  0  0
   16.8350  -12.0060    7.4550 C   0  0  0  0  0
   17.3270  -10.8780    7.2410 O   0  0  0  0  0
   17.4960  -13.0620    7.3760 O   0  0  0  0  0
   11.7660  -10.3770    8.8800 N   0  0  0  0  0
   11.1710   -9.2490    9.5850 C   0  0  0  0  0
   12.2730   -8.3620   10.1750 C   0  0  0  0  0
   13.4320   -8.7960   10.2810 O   0  0  0  0  0
   10.2610   -9.7500   10.7280 C   0  0  0  0  0
   11.0690  -10.3690   11.7350 O   0  0  0  0  0
    9.2370  -10.7720   10.2170 C   0  0  0  0  0
   11.9130   -7.1260   10.5710 N   0  0  0  0  0
   12.8050   -6.2300   11.2940 C   0  0  0  0  0
   13.3560   -6.7880   12.5950 C   0  0  0  0  0
   12.7690   -7.6890   13.2350 O   0  0  0  0  0
   11.9010   -5.0340   11.6350 C   0  0  0  0  0
   10.8040   -5.0770   10.6890 C   0  0  0  0  0
   10.5900   -6.5060   10.3430 C   0  0  0  0  0
   14.3750   -6.2560   13.0530 O   0  0  0  0  0
   25.1401  -20.7957    1.0301 H   0  0  0  0  0
   25.0598  -22.3696    1.5718 H   0  0  0  0  0
   25.0280  -22.0485   -0.0630 H   0  0  0  0  0
   22.9680  -20.9395    0.1184 H   0  0  0  0  0
   23.3498  -23.5615    0.0244 H   0  0  0  0  0
   21.6830  -22.8251    0.1819 H   0  0  0  0  0
   21.3943  -23.6299    2.2488 H   0  0  0  0  0
   23.1435  -23.5190    2.6569 H   0  0  0  0  0
   23.1978  -25.4307    0.7550 H   0  0  0  0  0
   21.5797  -25.7333    1.4830 H   0  0  0  0  0
   24.2748  -25.7043    2.8472 H   0  0  0  0  0
   23.1241  -27.0841    2.6631 H   0  0  0  0  0
   23.0606  -26.1427    4.8634 H   0  0  0  0  0
   22.6675  -24.6428    4.2530 H   0  0  0  0  0
   21.6058  -25.9158    4.0831 H   0  0  0  0  0
   24.5027  -19.9740    2.4503 H   0  0  0  0  0
   22.9295  -19.7539    4.7315 H   0  0  0  0  0
   24.0228  -17.5746    2.9560 H   0  0  0  0  0
   24.8690  -18.4304    4.3690 H   0  0  0  0  0
   24.0366  -17.0062    5.8288 H   0  0  0  0  0
   22.4340  -17.0033    5.0660 H   0  0  0  0  0
   24.0417  -14.8467    5.0141 H   0  0  0  0  0
   22.9472  -15.2359    3.6737 H   0  0  0  0  0
   25.6228  -16.4810    3.5519 H   0  0  0  0  0
   23.5868  -13.7647    2.5921 H   0  0  0  0  0
   26.4591  -14.6188    0.7250 H   0  0  0  0  0
   26.8827  -15.9897    1.7558 H   0  0  0  0  0
   21.0277  -18.9362    5.3246 H   0  0  0  0  0
   18.8910  -19.0058    3.4706 H   0  0  0  0  0
   18.5864  -19.3754    5.8722 H   0  0  0  0  0
   19.0010  -17.6744    6.1975 H   0  0  0  0  0
   17.5200  -18.0724    5.2924 H   0  0  0  0  0
   17.8098  -17.5285    2.3282 H   0  0  0  0  0
   19.1010  -15.0788    1.6621 H   0  0  0  0  0
   17.4926  -16.5264    0.2281 H   0  0  0  0  0
   17.2793  -14.7463    0.1444 H   0  0  0  0  0
   15.2762  -15.8777    0.4279 H   0  0  0  0  0
   18.1248  -12.9687    1.7697 H   0  0  0  0  0
   16.9461  -12.3668    4.3433 H   0  0  0  0  0
   16.7354  -10.0282    3.2106 H   0  0  0  0  0
   17.7105  -10.7985    1.8809 H   0  0  0  0  0
   19.3799  -11.4003    3.6871 H   0  0  0  0  0
   18.4838  -10.2478    4.7464 H   0  0  0  0  0
   20.2815   -9.0387    3.8373 H   0  0  0  0  0
   18.8252   -8.5519    2.8998 H   0  0  0  0  0
   20.0261  -10.7021    1.5495 H   0  0  0  0  0
   21.8383   -7.1195    1.0370 H   0  0  0  0  0
   20.7733   -7.3602    2.4259 H   0  0  0  0  0
   21.3846  -10.3905   -0.2204 H   0  0  0  0  0
   15.4550  -13.4855    1.4515 H   0  0  0  0  0
   13.1054  -11.9311    1.5373 H   0  0  0  0  0
   11.9407  -13.9851    0.5816 H   0  0  0  0  0
   13.5092  -14.8355    0.7598 H   0  0  0  0  0
   15.2075  -14.5117   -1.1194 H   0  0  0  0  0
   11.2523  -11.4166   -0.1945 H   0  0  0  0  0
   14.0838  -10.7816   -4.2749 H   0  0  0  0  0
   10.8229   -9.5580   -1.7502 H   0  0  0  0  0
   12.2357   -9.2369   -3.7656 H   0  0  0  0  0
   11.3587  -11.7940    2.6573 H   0  0  0  0  0
    9.8648  -11.9662    4.2876 H   0  0  0  0  0
    9.1737  -14.1550    5.1845 H   0  0  0  0  0
   10.7031  -14.8838    4.5522 H   0  0  0  0  0
    8.2777  -12.9081    3.3781 H   0  0  0  0  0
   12.8440  -11.6920    4.9818 H   0  0  0  0  0
   12.8445  -12.3093    7.8284 H   0  0  0  0  0
   14.6750  -10.2113    7.1612 H   0  0  0  0  0
   14.7236  -11.5291    5.8933 H   0  0  0  0  0
   15.0598  -13.1367    7.7268 H   0  0  0  0  0
   15.2565  -11.7220    8.8447 H   0  0  0  0  0
   16.6494  -10.2076    7.3554 H   0  0  0  0  0
   11.7560  -11.2961    9.3222 H   0  0  0  0  0
   10.5757   -8.6740    8.8757 H   0  0  0  0  0
    9.7236   -8.8943   11.1368 H   0  0  0  0  0
   10.5066  -10.6818   12.4474 H   0  0  0  0  0
    8.6126  -10.3081    9.4534 H   0  0  0  0  0
    9.7610  -11.6269    9.7897 H   0  0  0  0  0
    8.6125  -11.1044   11.0462 H   0  0  0  0  0
   13.6828   -6.0156   10.6844 H   0  0  0  0  0
   12.0041   -7.9871   12.7373 H   0  0  0  0  0
   12.4475   -4.0937   11.5620 H   0  0  0  0  0
   11.5387   -5.0940   12.6613 H   0  0  0  0  0
   11.0377   -4.4938    9.7983 H   0  0  0  0  0
    9.9022   -4.6442   11.1220 H   0  0  0  0  0
    9.8067   -6.9661   10.9454 H   0  0  0  0  0
   10.2411   -6.6373    9.3187 H   0  0  0  0  0
  1  2  1  0  0  0
  2  3  1  0  0  0
  2  5  1  0  0  0
  3  4  2  0  0  0
  3 10  1  0  0  0
  5  6  1  0  0  0
  6  7  1  0  0  0
  7  8  1  0  0  0
  8  9  1  0  0  0
 10 11  1  0  0  0
 11 12  1  0  0  0
 11 14  1  0  0  0
 12 13  2  0  0  0
 12 21  1  0  0  0
 14 15  1  0  0  0
 15 16  1  0  0  0
 16 17  1  0  0  0
 17 18  1  0  0  0
 18 19  2  0  0  0
 18 20  1  0  0  0
 21 22  1  0  0  0
 22 23  1  0  0  0
 22 25  1  0  0  0
 23 24  2  0  0  0
 23 26  1  0  0  0
 26 27  1  0  0  0
 27 28  1  0  0  0
 27 30  1  0  0  0
 28 29  2  0  0  0
 28 32  1  0  0  0
 30 31  1  0  0  0
 32 33  1  0  0  0
 33 34  1  0  0  0
 33 36  1  0  0  0
 34 35  2  0  0  0
 34 43  1  0  0  0
 36 37  1  0  0  0
 37 38  1  0  0  0
 38 39  1  0  0  0
 39 40  1  0  0  0
 40 41  1  0  0  0
 40 42  2  0  0  0
 43 44  1  0  0  0
 44 45  1  0  0  0
 44 47  1  0  0  0
 45 46  2  0  0  0
 45 57  1  0  0  0
 47 48  1  0  0  0
 48 49  4  0  0  0
 48 50  4  0  0  0
 49 51  4  0  0  0
 50 52  4  0  0  0
 50 53  4  0  0  0
 51 52  4  0  0  0
 52 54  4  0  0  0
 53 55  4  0  0  0
 54 56  4  0  0  0
 55 56  4  0  0  0
 57 58  1  0  0  0
 58 59  1  0  0  0
 58 61  1  0  0  0
 59 60  2  0  0  0
 59 65  1  0  0  0
 61 62  1  0  0  0
 62 63  2  0  0  0
 62 64  1  0  0  0
 65 66  1  0  0  0
 66 67  1  0  0  0
 66 69  1  0  0  0
 67 68  2  0  0  0
 67 74  1  0  0  0
 69 70  1  0  0  0
 70 71  1  0  0  0
 71 72  1  0  0  0
 71 73  2  0  0  0
 74 75  1  0  0  0
 75 76  1  0  0  0
 75 78  1  0  0  0
 76 77  2  0  0  0
 76 81  1  0  0  0
 78 79  1  0  0  0
 78 80  1  0  0  0
 81 82  1  0  0  0
 81 87  1  0  0  0
 82 83  1  0  0  0
 82 85  1  0  0  0
 83 84  1  0  0  0
 83 88  2  0  0  0
 85 86  1  0  0  0
 86 87  1  0  0  0
  1 89  1  0  0  0
  1 90  1  0  0  0
  1 91  1  0  0  0
  2 92  1  0  0  0
  5 93  1  0  0  0
  5 94  1  0  0  0
  6 95  1  0  0  0
  6 96  1  0  0  0
  7 97  1  0  0  0
  7 98  1  0  0  0
  8 99  1  0  0  0
  8100  1  0  0  0
  9101  1  0  0  0
  9102  1  0  0  0
  9103  1  0  0  0
 10104  1  0  0  0
 11105  1  0  0  0
 14106  1  0  0  0
 14107  1  0  0  0
 15108  1  0  0  0
 15109  1  0  0  0
 16110  1  0  0  0
 16111  1  0  0  0
 17112  1  0  0  0
 19113  1  0  0  0
 20114  1  0  0  0
 20115  1  0  0  0
 21116  1  0  0  0
 22117  1  0  0  0
 25118  1  0  0  0
 25119  1  0  0  0
 25120  1  0  0  0
 26121  1  0  0  0
 27122  1  0  0  0
 30123  1  0  0  0
 30124  1  0  0  0
 31125  1  0  0  0
 32126  1  0  0  0
 33127  1  0  0  0
 36128  1  0  0  0
 36129  1  0  0  0
 37130  1  0  0  0
 37131  1  0  0  0
 38132  1  0  0  0
 38133  1  0  0  0
 39134  1  0  0  0
 41135  1  0  0  0
 41136  1  0  0  0
 42137  1  0  0  0
 43138  1  0  0  0
 44139  1  0  0  0
 47140  1  0  0  0
 47141  1  0  0  0
 49142  1  0  0  0
 53143  1  0  0  0
 54144  1  0  0  0
 55145  1  0  0  0
 56146  1  0  0  0
 57147  1  0  0  0
 58148  1  0  0  0
 61149  1  0  0  0
 61150  1  0  0  0
 64151  1  0  0  0
 65152  1  0  0  0
 66153  1  0  0  0
 69154  1  0  0  0
 69155  1  0  0  0
 70156  1  0  0  0
 70157  1  0  0  0
 72158  1  0  0  0
 74159  1  0  0  0
 75160  1  0  0  0
 78161  1  0  0  0
 79162  1  0  0  0
 80163  1  0  0  0
 80164  1  0  0  0
 80165  1  0  0  0
 82166  1  0  0  0
 84167  1  0  0  0
 85168  1  0  0  0
 85169  1  0  0  0
 86170  1  0  0  0
 86171  1  0  0  0
 87172  1  0  0  0
 87173  1  0  0  0
M  END
$$$$
