### 
### Created by X-TOOL on Mon Sep 10 21:12:56 2018
### 

@<TRIPOS>MOLECULE
2peh_ligand
  173   175     1     0     0
SMALL
GAST_HUCK


@<TRIPOS>ATOM
      1 N          24.7380  -21.7170    0.8570 N.4       1 LYS         0.2379
      2 CA         23.2840  -21.6270    0.9030 C.3       1 LYS         0.0650
      3 C          22.8070  -21.0730    2.2410 C.2       1 LYS         0.2267
      4 O          21.7950  -21.5190    2.7830 O.2       1 LYS        -0.3907
      5 CB         22.6540  -22.9980    0.6460 C.3       1 LYS         0.0080
      6 CG         22.4120  -23.8150    1.9050 C.3       1 LYS        -0.0410
      7 CD         22.5690  -25.3020    1.6360 C.3       1 LYS        -0.0123
      8 CE         23.2290  -26.0090    2.8090 C.3       1 LYS        -0.0354
      9 NZ         22.5900  -25.6490    4.1050 N.4       1 LYS         0.2185
     10 N          23.5420  -20.1000    2.7690 N.am      1 ARG        -0.2610
     11 CA         23.0110  -19.2090    3.7910 C.3       1 ARG         0.1312
     12 C          21.6290  -18.7100    3.4050 C.2       1 ARG         0.2039
     13 O          21.3900  -18.3890    2.2500 O.2       1 ARG        -0.3944
     14 CB         23.9490  -18.0290    3.9440 C.3       1 ARG        -0.0092
     15 CG         23.5050  -16.9210    4.8810 C.3       1 ARG        -0.0156
     16 CD         23.8120  -15.5800    4.2410 C.3       1 ARG         0.0627
     17 NE         24.9600  -15.7330    3.3480 N.pl3     1 ARG        -0.2723
     18 CZ         25.2000  -14.9680    2.2920 C.cat     1 ARG         0.2882
     19 NH1        24.3960  -13.9580    2.0020 N.pl3     1 ARG        -0.2849
     20 NH2        26.2630  -15.2110    1.5320 N.pl3     1 ARG        -0.2849
     21 N          20.7300  -18.6810    4.3830 N.am      1 LYS        -0.2640
     22 CA         19.3360  -18.3010    4.1730 C.3       1 LYS         0.1282
     23 C          19.2660  -16.8990    3.6010 C.2       1 LYS         0.2037
     24 O          20.0480  -16.0270    4.0120 O.2       1 LYS        -0.3944
     25 CB         18.5550  -18.3600    5.4770 C.3       1 LYS        -0.0244
     26 N          18.3620  -16.7250    2.6280 N.am      1 SER        -0.2616
     27 CA         18.1340  -15.4620    1.9880 C.3       1 SER         0.1539
     28 C          17.4860  -14.4830    2.9540 C.2       1 SER         0.2062
     29 O          16.9070  -14.8730    3.9830 O.2       1 SER        -0.3943
     30 CB         17.1990  -15.6310    0.7760 C.3       1 SER         0.0843
     31 OG         15.8400  -15.7740    1.1980 O.3       1 SER        -0.3903
     32 N          17.5530  -13.2140    2.5780 N.am      1 ARG        -0.2637
     33 CA         16.8400  -12.1620    3.2780 C.3       1 ARG         0.1311
     34 C          15.3290  -12.1520    2.9980 C.2       1 ARG         0.2040
     35 O          14.6070  -11.4290    3.6540 O.2       1 ARG        -0.3944
     36 CB         17.4610  -10.7960    2.9420 C.3       1 ARG        -0.0092
     37 CG         18.7520  -10.5100    3.7230 C.3       1 ARG        -0.0156
     38 CD         19.5230   -9.3590    3.1230 C.3       1 ARG         0.0627
     39 NE         20.1840   -9.7540    1.8910 N.pl3     1 ARG        -0.2723
     40 CZ         20.9780   -8.9660    1.1810 C.cat     1 ARG         0.2882
     41 NH1        21.2150   -7.7180    1.5790 N.pl3     1 ARG        -0.2849
     42 NH2        21.5540   -9.4300    0.0780 N.pl3     1 ARG        -0.2849
     43 N          14.8310  -12.9210    2.0280 N.am      1 TRP        -0.2627
     44 CA         13.3880  -12.9520    1.7940 C.3       1 TRP         0.1352
     45 C          12.5950  -13.3420    3.0380 C.2       1 TRP         0.2052
     46 O          12.9370  -14.3010    3.7410 O.2       1 TRP        -0.3942
     47 CB         13.0240  -13.8700    0.6170 C.3       1 TRP         0.0042
     48 CG         13.4870  -13.2850   -0.6670 C.2       1 TRP        -0.0418
     49 CD1        14.5620  -13.6720   -1.3770 C.2       1 TRP         0.0167
     50 CD2        12.9510  -12.1460   -1.3330 C.ar      1 TRP        -0.0214
     51 NE1        14.7300  -12.8710   -2.4580 N.pl3     1 TRP        -0.2890
     52 CE2        13.7570  -11.9120   -2.4560 C.ar      1 TRP         0.0603
     53 CE3        11.8820  -11.2760   -1.0730 C.ar      1 TRP        -0.0747
     54 CZ2        13.4880  -10.9010   -3.3700 C.ar      1 TRP        -0.0443
     55 CZ3        11.6450  -10.2470   -1.9440 C.ar      1 TRP        -0.0792
     56 CH2        12.4500  -10.0650   -3.0900 C.ar      1 TRP        -0.0768
     57 N          11.5390  -12.5710    3.2930 N.am      1 ASP        -0.2621
     58 CA         10.6000  -12.7570    4.4370 C.3       1 ASP         0.1423
     59 C          11.1980  -12.5360    5.8190 C.2       1 ASP         0.2056
     60 O          10.6090  -12.9350    6.8240 O.2       1 ASP        -0.3943
     61 CB          9.9330  -14.1270    4.4030 C.3       1 ASP         0.0406
     62 CG          9.2700  -14.3920    3.1050 C.2       1 ASP         0.0393
     63 OD1         9.6450  -15.3880    2.4680 O.co2     1 ASP        -0.5688
     64 OD2         8.3960  -13.5960    2.7190 O.co2     1 ASP        -0.5688
     65 N          12.3660  -11.9020    5.8580 N.am      1 GLU        -0.2635
     66 CA         12.9840  -11.4980    7.1140 C.3       1 GLU         0.1325
     67 C          12.3210  -10.2470    7.6800 C.2       1 GLU         0.2041
     68 O          12.3120   -9.1930    7.0450 O.2       1 GLU        -0.3944
     69 CB         14.4830  -11.2570    6.9210 C.3       1 GLU        -0.0008
     70 CG         15.3680  -12.0960    7.8270 C.3       1 GLU         0.0044
     71 CD         16.8350  -12.0060    7.4550 C.2       1 GLU         0.0350
     72 OE1        17.3270  -10.8780    7.2410 O.co2     1 GLU        -0.5690
     73 OE2        17.4960  -13.0620    7.3760 O.co2     1 GLU        -0.5690
     74 N          11.7660  -10.3770    8.8800 N.am      1 THR        -0.2613
     75 CA         11.1710   -9.2490    9.5850 C.3       1 THR         0.1566
     76 C          12.2730   -8.3620   10.1750 C.2       1 THR         0.2084
     77 O          13.4320   -8.7960   10.2810 O.2       1 THR        -0.3941
     78 CB         10.2610   -9.7500   10.7280 C.3       1 THR         0.0924
     79 OG1        11.0690  -10.3690   11.7350 O.3       1 THR        -0.3874
     80 CG2         9.2370  -10.7720   10.2170 C.3       1 THR        -0.0346
     81 N          11.9130   -7.1260   10.5710 N.am      1 PRO        -0.2555
     82 CA         12.8050   -6.2300   11.2940 C.3       1 PRO         0.0972
     83 C          13.3560   -6.7880   12.5950 C.2       1 PRO         0.0603
     84 O          12.7690   -7.6890   13.2350 O.co2     1 PRO        -0.5666
     85 CB         11.9010   -5.0340   11.6350 C.3       1 PRO        -0.0159
     86 CG         10.8040   -5.0770   10.6890 C.3       1 PRO        -0.0288
     87 CD         10.5900   -6.5060   10.3430 C.3       1 PRO         0.0362
     88 OXT        14.3750   -6.2560   13.0530 O.co2     1 PRO        -0.5666
     89 H1         25.0237  -22.0854   -0.0367 H         1 LYS         0.2015
     90 H2         25.0602  -22.3282    1.5909 H         1 LYS         0.2015
     91 H3         25.1357  -20.7996    0.9849 H         1 LYS         0.2015
     92 H4         22.9569  -20.9398    0.1088 H         1 LYS         0.1098
     93 H5         23.3252  -23.5688   -0.0126 H         1 LYS         0.0346
     94 H6         21.6882  -22.8455    0.1421 H         1 LYS         0.0346
     95 H7         21.3913  -23.6221    2.2669 H         1 LYS         0.0270
     96 H8         23.1373  -23.5114    2.6743 H         1 LYS         0.0270
     97 H9         23.1902  -25.4402    0.7388 H         1 LYS         0.0317
     98 H10        21.5754  -25.7421    1.4654 H         1 LYS         0.0317
     99 H11        24.2907  -25.7236    2.8446 H         1 LYS         0.0813
    100 H12        23.1462  -27.0959    2.6615 H         1 LYS         0.0813
    101 H13        23.0543  -26.1364    4.8553 H         1 LYS         0.1994
    102 H14        21.6172  -25.9123    4.0846 H         1 LYS         0.1994
    103 H15        22.6660  -24.6548    4.2524 H         1 LYS         0.1994
    104 H16        24.4839  -19.9765    2.4565 H         1 ARG         0.1884
    105 H17        22.9443  -19.7513    4.7457 H         1 ARG         0.0800
    106 H18        24.0915  -17.5854    2.9476 H         1 ARG         0.0313
    107 H19        24.9104  -18.4136    4.3151 H         1 ARG         0.0313
    108 H20        24.0453  -17.0064    5.8353 H         1 ARG         0.0301
    109 H21        22.4234  -17.0035    5.0633 H         1 ARG         0.0301
    110 H22        24.0480  -14.8431    5.0228 H         1 ARG         0.0689
    111 H23        22.9396  -15.2372    3.6654 H         1 ARG         0.0689
    112 H24        25.6293  -16.4883    3.5539 H         1 ARG         0.2642
    113 H25        24.5873  -13.3670    1.1804 H         1 ARG         0.2615
    114 H26        23.5788  -13.7628    2.5978 H         1 ARG         0.2615
    115 H27        26.8887  -15.9973    1.7580 H         1 ARG         0.2615
    116 H28        26.4610  -14.6130    0.7171 H         1 ARG         0.2615
    117 H29        21.0219  -18.9312    5.3062 H         1 LYS         0.1883
    118 H30        18.8828  -19.0025    3.4571 H         1 LYS         0.0797
    119 H31        17.5102  -18.0699    5.2920 H         1 LYS         0.0277
    120 H32        19.0041  -17.6684    6.2050 H         1 LYS         0.0277
    121 H33        18.5858  -19.3843    5.8769 H         1 LYS         0.0277
    122 H34        17.8207  -17.5128    2.3341 H         1 SER         0.1884
    123 H35        19.0985  -15.0554    1.6499 H         1 SER         0.0823
    124 H36        17.4976  -16.5273    0.2125 H         1 SER         0.0606
    125 H37        17.2842  -14.7457    0.1288 H         1 SER         0.0606
    126 H38        15.7614  -16.5396    1.7548 H         1 SER         0.2097
    127 H39        18.1136  -12.9735    1.7856 H         1 ARG         0.1883
    128 H40        16.9705  -12.3380    4.3559 H         1 ARG         0.0800
    129 H41        16.7279  -10.0109    3.1789 H         1 ARG         0.0313
    130 H42        17.6903  -10.7712    1.8665 H         1 ARG         0.0313
    131 H43        19.3848  -11.4096    3.7078 H         1 ARG         0.0301
    132 H44        18.4924  -10.2619    4.7627 H         1 ARG         0.0301
    133 H45        20.2814   -9.0205    3.8443 H         1 ARG         0.0689
    134 H46        18.8273   -8.5344    2.9083 H         1 ARG         0.0689
    135 H47        20.0246  -10.7114    1.5462 H         1 ARG         0.2642
    136 H48        21.8329   -7.1090    1.0239 H         1 ARG         0.2615
    137 H49        20.7804   -7.3614    2.4421 H         1 ARG         0.2615
    138 H50        21.3716  -10.3954   -0.2312 H         1 ARG         0.2615
    139 H51        22.1831   -8.8245   -0.4683 H         1 ARG         0.2615
    140 H52        15.4428  -13.4744    1.4628 H         1 TRP         0.1884
    141 H53        13.0848  -11.9304    1.5215 H         1 TRP         0.0815
    142 H54        11.9320  -13.9976    0.5827 H         1 TRP         0.0397
    143 H55        13.5033  -14.8495    0.7612 H         1 TRP         0.0397
    144 H56        15.2069  -14.5110   -1.1197 H         1 TRP         0.0795
    145 H57        15.4714  -12.9696   -3.1662 H         1 TRP         0.2216
    146 H58        11.2557  -11.4158   -0.1993 H         1 TRP         0.0540
    147 H59        14.0805  -10.7823   -4.2699 H         1 TRP         0.0541
    148 H60        10.8274   -9.5618   -1.7513 H         1 TRP         0.0510
    149 H61        12.2369   -9.2414   -3.7618 H         1 TRP         0.0530
    150 H62        11.3623  -11.8092    2.6698 H         1 ASP         0.1884
    151 H63         9.8100  -12.0022    4.3100 H         1 ASP         0.0819
    152 H64         9.1790  -14.1744    5.2025 H         1 ASP         0.0478
    153 H65        10.6982  -14.8984    4.5744 H         1 ASP         0.0478
    154 H66        12.8347  -11.6961    4.9989 H         1 GLU         0.1883
    155 H67        12.8539  -12.3150    7.8389 H         1 GLU         0.0801
    156 H68        14.6909  -10.1956    7.1217 H         1 GLU         0.0330
    157 H69        14.7386  -11.4897    5.8767 H         1 GLU         0.0330
    158 H70        15.0502  -13.1466    7.7552 H         1 GLU         0.0433
    159 H71        15.2450  -11.7456    8.8624 H         1 GLU         0.0433
    160 H72        11.7562  -11.2781    9.3135 H         1 THR         0.1884
    161 H73        10.5705   -8.6595    8.8765 H         1 THR         0.0826
    162 H74         9.7265   -8.8923   11.1623 H         1 THR         0.0639
    163 H75        11.6898   -9.7354   12.0750 H         1 THR         0.2101
    164 H76         8.6061  -11.1083   11.0530 H         1 THR         0.0257
    165 H77         9.7646  -11.6354    9.7855 H         1 THR         0.0257
    166 H78         8.6062  -10.3051    9.4463 H         1 THR         0.0257
    167 H79        13.6428   -5.9300   10.6474 H         1 PRO         0.0728
    168 H80        12.4587   -4.0917   11.5302 H         1 PRO         0.0306
    169 H81        11.5217   -5.1231   12.6637 H         1 PRO         0.0306
    170 H82        11.0601   -4.5032    9.7861 H         1 PRO         0.0286
    171 H83         9.8948   -4.6576   11.1444 H         1 PRO         0.0286
    172 H84         9.8280   -6.9573   10.9955 H         1 PRO         0.0524
    173 H85        10.2829   -6.6130    9.2922 H         1 PRO         0.0524
@<TRIPOS>BOND
     1    1    2 1  
     2    2    3 1  
     3    2    5 1  
     4    3    4 2  
     5    3   10 am 
     6    5    6 1  
     7    6    7 1  
     8    7    8 1  
     9    8    9 1  
    10   10   11 1  
    11   11   12 1  
    12   11   14 1  
    13   12   13 2  
    14   12   21 am 
    15   14   15 1  
    16   15   16 1  
    17   16   17 1  
    18   17   18 ar 
    19   18   19 ar 
    20   18   20 ar 
    21   21   22 1  
    22   22   23 1  
    23   22   25 1  
    24   23   24 2  
    25   23   26 am 
    26   26   27 1  
    27   27   28 1  
    28   27   30 1  
    29   28   29 2  
    30   28   32 am 
    31   30   31 1  
    32   32   33 1  
    33   33   34 1  
    34   33   36 1  
    35   34   35 2  
    36   34   43 am 
    37   36   37 1  
    38   37   38 1  
    39   38   39 1  
    40   39   40 ar 
    41   40   41 ar 
    42   40   42 ar 
    43   43   44 1  
    44   44   45 1  
    45   44   47 1  
    46   45   46 2  
    47   45   57 am 
    48   47   48 1  
    49   48   49 2  
    50   48   50 1  
    51   49   51 1  
    52   50   52 ar 
    53   50   53 ar 
    54   51   52 1  
    55   52   54 ar 
    56   53   55 ar 
    57   54   56 ar 
    58   55   56 ar 
    59   57   58 1  
    60   58   59 1  
    61   58   61 1  
    62   59   60 2  
    63   59   65 am 
    64   61   62 1  
    65   62   63 ar 
    66   62   64 ar 
    67   65   66 1  
    68   66   67 1  
    69   66   69 1  
    70   67   68 2  
    71   67   74 am 
    72   69   70 1  
    73   70   71 1  
    74   71   72 ar 
    75   71   73 ar 
    76   74   75 1  
    77   75   76 1  
    78   75   78 1  
    79   76   77 2  
    80   76   81 am 
    81   78   79 1  
    82   78   80 1  
    83   81   82 1  
    84   81   87 1  
    85   82   83 1  
    86   82   85 1  
    87   83   84 ar 
    88   83   88 ar 
    89   85   86 1  
    90   86   87 1  
    91    1   89 1  
    92    1   90 1  
    93    1   91 1  
    94    2   92 1  
    95    5   93 1  
    96    5   94 1  
    97    6   95 1  
    98    6   96 1  
    99    7   97 1  
   100    7   98 1  
   101    8   99 1  
   102    8  100 1  
   103    9  101 1  
   104    9  102 1  
   105    9  103 1  
   106   10  104 1  
   107   11  105 1  
   108   14  106 1  
   109   14  107 1  
   110   15  108 1  
   111   15  109 1  
   112   16  110 1  
   113   16  111 1  
   114   17  112 1  
   115   19  113 1  
   116   19  114 1  
   117   20  115 1  
   118   20  116 1  
   119   21  117 1  
   120   22  118 1  
   121   25  119 1  
   122   25  120 1  
   123   25  121 1  
   124   26  122 1  
   125   27  123 1  
   126   30  124 1  
   127   30  125 1  
   128   31  126 1  
   129   32  127 1  
   130   33  128 1  
   131   36  129 1  
   132   36  130 1  
   133   37  131 1  
   134   37  132 1  
   135   38  133 1  
   136   38  134 1  
   137   39  135 1  
   138   41  136 1  
   139   41  137 1  
   140   42  138 1  
   141   42  139 1  
   142   43  140 1  
   143   44  141 1  
   144   47  142 1  
   145   47  143 1  
   146   49  144 1  
   147   51  145 1  
   148   53  146 1  
   149   54  147 1  
   150   55  148 1  
   151   56  149 1  
   152   57  150 1  
   153   58  151 1  
   154   61  152 1  
   155   61  153 1  
   156   65  154 1  
   157   66  155 1  
   158   69  156 1  
   159   69  157 1  
   160   70  158 1  
   161   70  159 1  
   162   74  160 1  
   163   75  161 1  
   164   78  162 1  
   165   79  163 1  
   166   80  164 1  
   167   80  165 1  
   168   80  166 1  
   169   82  167 1  
   170   85  168 1  
   171   85  169 1  
   172   86  170 1  
   173   86  171 1  
   174   87  172 1  
   175   87  173 1  
@<TRIPOS>SUBSTRUCTURE
     1 LYS         1

