2ipo_ligand
  -I-interpret- 

 27 26  0  0  0  0  0  0  0  0999 V2000
   46.3370   27.8020   15.8210 O   0  0  0  0  0
   45.2020   28.9150   16.0730 P   0  0  0  0  0
   45.5620   30.1270   15.0730 O   0  0  0  0  0
   45.1510   29.3620   17.4870 O   0  0  0  0  0
   43.6480   28.1940   15.4930 C   0  0  0  0  0
   42.4670   29.1140   15.8100 C   0  0  0  0  0
   42.2250   30.1020   15.1150 O   0  0  0  0  0
   41.7630   28.7530   16.8780 N   0  0  0  0  0
   40.5790   29.4950   17.3350 C   0  0  0  0  0
   40.9650   30.8580   17.9110 C   0  0  0  0  0
   40.0440   31.5490   18.3970 O   0  0  0  0  0
   42.1720   31.1850   17.8490 O   0  0  0  0  0
   39.8350   28.6660   18.3840 C   0  0  0  0  0
   40.7070   28.3230   19.5960 C   0  0  0  0  0
   40.3060   27.5270   20.4420 O   0  0  0  0  0
   41.8830   28.9400   19.6600 N   0  0  0  0  0
   46.3318   27.5450   14.8961 H   0  0  0  0  0
   45.5856   29.7997   14.1708 H   0  0  0  0  0
   43.4944   27.2401   15.9976 H   0  0  0  0  0
   43.7063   28.0581   14.4131 H   0  0  0  0  0
   42.0560   27.9281   17.4015 H   0  0  0  0  0
   39.9278   29.6718   16.4790 H   0  0  0  0  0
   42.6723   30.4801   17.4313 H   0  0  0  0  0
   39.5306   27.7300   17.9157 H   0  0  0  0  0
   38.9890   29.2555   18.7372 H   0  0  0  0  0
   42.5100   28.7625   20.4447 H   0  0  0  0  0
   42.1582   29.5908   18.9244 H   0  0  0  0  0
  1  2  1  0  0  0
  2  3  1  0  0  0
  2  4  2  0  0  0
  2  5  1  0  0  0
  5  6  1  0  0  0
  6  7  2  0  0  0
  6  8  1  0  0  0
  8  9  1  0  0  0
  9 10  1  0  0  0
  9 13  1  0  0  0
 10 11  2  0  0  0
 10 12  1  0  0  0
 13 14  1  0  0  0
 14 15  2  0  0  0
 14 16  1  0  0  0
  1 17  1  0  0  0
  3 18  1  0  0  0
  5 19  1  0  0  0
  5 20  1  0  0  0
  8 21  1  0  0  0
  9 22  1  0  0  0
 12 23  1  0  0  0
 13 24  1  0  0  0
 13 25  1  0  0  0
 16 26  1  0  0  0
 16 27  1  0  0  0
M  END
$$$$
