### 
### Created by X-TOOL on Mon Sep 10 21:12:56 2018
### 

@<TRIPOS>MOLECULE
2ipo_ligand
   24    23     1     0     0
SMALL
GAST_HUCK


@<TRIPOS>ATOM
      1 OAG        46.3370   27.8020   15.8210 O.co2     1 1IP        -0.5606
      2 PAP        45.2020   28.9150   16.0730 P.3       1 1IP         0.0776
      3 OAH        45.5620   30.1270   15.0730 O.co2     1 1IP        -0.5606
      4 OAE        45.1510   29.3620   17.4870 O.co2     1 1IP        -0.5606
      5 CAJ        43.6480   28.1940   15.4930 C.3       1 1IP         0.1085
      6 CAM        42.4670   29.1140   15.8100 C.2       1 1IP         0.1943
      7 OAC        42.2250   30.1020   15.1150 O.2       1 1IP        -0.3954
      8 N          41.7630   28.7530   16.8780 N.am      1 1IP        -0.2681
      9 CA         40.5790   29.4950   17.3350 C.3       1 1IP         0.1110
     10 C          40.9650   30.8580   17.9110 C.2       1 1IP         0.0624
     11 O1         40.0440   31.5490   18.3970 O.co2     1 1IP        -0.5665
     12 O          42.1720   31.1850   17.8490 O.co2     1 1IP        -0.5665
     13 CB         39.8350   28.6660   18.3840 C.3       1 1IP         0.0718
     14 CG         40.7070   28.3230   19.5960 C.2       1 1IP         0.1774
     15 OD1        40.3060   27.5270   20.4420 O.2       1 1IP        -0.3971
     16 ND2        41.8830   28.9400   19.6600 N.am      1 1IP        -0.3007
     17 H1         43.4930   27.2250   15.9899 H         1 1IP         0.0692
     18 H2         43.7050   28.0432   14.4049 H         1 1IP         0.0692
     19 H3         42.0502   27.9442   17.3913 H         1 1IP         0.1877
     20 H4         39.9133   29.6576   16.4746 H         1 1IP         0.0752
     21 H5         39.4977   27.7289   17.9171 H         1 1IP         0.0544
     22 H6         38.9617   29.2384   18.7299 H         1 1IP         0.0544
     23 H7         42.5006   28.7608   20.4258 H         1 1IP         0.1814
     24 H8         42.1498   29.5833   18.9424 H         1 1IP         0.1814
@<TRIPOS>BOND
     1    1    2 ar 
     2    2    3 ar 
     3    2    4 ar 
     4    2    5 1  
     5    5    6 1  
     6    6    7 2  
     7    6    8 am 
     8    8    9 1  
     9    9   10 1  
    10    9   13 1  
    11   10   11 ar 
    12   10   12 ar 
    13   13   14 1  
    14   14   15 2  
    15   14   16 am 
    16    5   17 1  
    17    5   18 1  
    18    8   19 1  
    19    9   20 1  
    20   13   21 1  
    21   13   22 1  
    22   16   23 1  
    23   16   24 1  
@<TRIPOS>SUBSTRUCTURE
     1 1IP         1

