4ca7_ligand
  -I-interpret- 

 89 93  0  0  0  0  0  0  0  0999 V2000
   24.3480    1.4950   11.5670 O   0  0  0  0  0
   25.1730    4.6820   17.6130 C   0  0  0  0  0
   24.2360    5.2470   16.7440 C   0  0  0  0  0
   25.7940    3.4690   17.2900 C   0  0  0  0  0
   23.9140    4.5970   15.5460 C   0  0  0  0  0
   25.4660    2.8130   16.0920 C   0  0  0  0  0
   24.1910    2.7190   14.0160 C   0  0  0  0  0
   25.4070    2.1860   13.4630 O   0  0  0  0  0
   25.3760    1.5470   12.2530 C   0  0  0  0  0
   24.5180    3.3740   15.2280 C   0  0  0  0  0
   27.9020   -1.8030   11.8380 O   0  0  0  0  0
   26.6850   -1.5190   11.0590 P   0  0  0  0  0
   25.3740   -1.9020   11.6190 O   0  0  0  0  0
   26.6290    0.2590   10.5750 C   0  0  0  0  0
   26.5030    0.9650   11.8450 N   0  0  0  0  0
   27.8800    0.8150    9.8380 C   0  0  0  0  0
   27.7620    2.2230    9.6510 C   0  0  0  0  0
   27.1170    2.7430    8.5230 C   0  0  0  0  0
   26.9870    4.1270    8.3430 C   0  0  0  0  0
   27.5200    5.0210    9.2810 C   0  0  0  0  0
   28.1760    4.5110   10.4180 C   0  0  0  0  0
   28.2940    3.1290   10.5880 C   0  0  0  0  0
   29.5250   -2.5790    9.2090 O   0  0  0  0  0
   26.9530  -11.5990   11.7530 C   0  0  0  0  0
   26.6390  -10.3370   12.2730 C   0  0  0  0  0
   27.4320  -11.7120   10.4440 C   0  0  0  0  0
   26.8160   -9.1850   11.4960 C   0  0  0  0  0
   27.6010  -10.5610    9.6750 C   0  0  0  0  0
   26.9700   -6.9810    9.6180 C   0  0  0  0  0
   27.0210   -4.6840    8.4190 C   0  0  0  0  0
   26.8290   -2.3960    9.4110 C   0  0  0  0  0
   28.2000   -8.2480    8.3020 N   0  0  0  0  0
   28.1080   -6.8460    7.7490 O   0  0  0  0  0
   29.0120   -3.6350    9.5900 C   0  0  0  0  0
   27.3620   -6.1750    8.6120 C   0  0  0  0  0
   27.3010   -9.2900   10.1920 C   0  0  0  0  0
   27.4750   -8.2150    9.4190 C   0  0  0  0  0
   27.4770   -3.7880    9.5930 C   0  0  0  0  0
   29.7280   -4.7100    9.9780 N   0  0  0  0  0
   31.2190   -4.6850    9.9560 C   0  0  0  0  0
   31.7560   -4.6380    8.5000 C   0  0  0  0  0
   33.0010   -4.5370    8.3450 O   0  0  0  0  0
   31.8860   -5.9200   10.5640 C   0  0  0  0  0
   31.2090   -6.9100   11.2690 C   0  0  0  0  0
   31.2710   -8.2320   10.8130 C   0  0  0  0  0
   30.5470   -6.6000   12.4630 C   0  0  0  0  0
   30.6380   -9.2530   11.5370 C   0  0  0  0  0
   29.9190   -7.6180   13.1830 C   0  0  0  0  0
   29.9730   -8.9350   12.7270 C   0  0  0  0  0
   29.3600   -9.9050   13.4590 O   0  0  0  0  0
   30.9140   -4.7190    7.5720 O   0  0  0  0  0
   25.4217    5.1874   18.5462 H   0  0  0  0  0
   23.7564    6.1922   16.9981 H   0  0  0  0  0
   26.5301    3.0350   17.9666 H   0  0  0  0  0
   23.1931    5.0430   14.8609 H   0  0  0  0  0
   25.9483    1.8697   15.8358 H   0  0  0  0  0
   23.4755    1.9175   14.1999 H   0  0  0  0  0
   23.7332    3.4202   13.3182 H   0  0  0  0  0
   24.6799   -1.6556   11.0032 H   0  0  0  0  0
   25.8171    0.3922    9.8600 H   0  0  0  0  0
   27.3206    1.0159   12.4528 H   0  0  0  0  0
   27.9612    0.3332    8.8637 H   0  0  0  0  0
   28.7661    0.6098   10.4387 H   0  0  0  0  0
   26.7104    2.0628    7.7746 H   0  0  0  0  0
   26.4667    4.5111    7.4656 H   0  0  0  0  0
   27.4281    6.0969    9.1326 H   0  0  0  0  0
   28.5899    5.1913   11.1623 H   0  0  0  0  0
   28.8103    2.7433   11.4671 H   0  0  0  0  0
   26.8244  -12.4905   12.3668 H   0  0  0  0  0
   26.2543  -10.2507   13.2892 H   0  0  0  0  0
   27.6711  -12.6909   10.0285 H   0  0  0  0  0
   26.5747   -8.2061   11.9103 H   0  0  0  0  0
   27.9727  -10.6493    8.6541 H   0  0  0  0  0
   26.3441   -6.6827   10.4590 H   0  0  0  0  0
   25.9363   -4.6033    8.3484 H   0  0  0  0  0
   27.5430   -4.3424    7.5252 H   0  0  0  0  0
   27.4529   -1.7992    8.7457 H   0  0  0  0  0
   25.8321   -2.5220    8.9887 H   0  0  0  0  0
   27.1750   -4.2392   10.5381 H   0  0  0  0  0
   29.2434   -5.5513   10.2906 H   0  0  0  0  0
   31.4621   -3.7990   10.5425 H   0  0  0  0  0
   33.4266   -4.4913    9.2043 H   0  0  0  0  0
   32.5362   -5.4886   11.3250 H   0  0  0  0  0
   32.2415   -6.4558    9.6838 H   0  0  0  0  0
   31.8108   -8.4678    9.8959 H   0  0  0  0  0
   30.5221   -5.5730   12.8272 H   0  0  0  0  0
   30.6636  -10.2816   11.1774 H   0  0  0  0  0
   29.3852   -7.3830   14.1038 H   0  0  0  0  0
   28.9579   -9.5114   14.2368 H   0  0  0  0  0
  9  1  2  0  0  0
  3  2  4  0  0  0
  4  2  4  0  0  0
  5  3  4  0  0  0
  6  4  4  0  0  0
 10  5  4  0  0  0
 10  6  4  0  0  0
  8  7  1  0  0  0
  7 10  1  0  0  0
  9  8  1  0  0  0
 15  9  1  0  0  0
 12 11  2  0  0  0
 12 13  1  0  0  0
 12 14  1  0  0  0
 31 12  1  0  0  0
 14 15  1  0  0  0
 14 16  1  0  0  0
 16 17  1  0  0  0
 17 18  4  0  0  0
 17 22  4  0  0  0
 18 19  4  0  0  0
 19 20  4  0  0  0
 21 20  4  0  0  0
 22 21  4  0  0  0
 34 23  2  0  0  0
 25 24  4  0  0  0
 26 24  4  0  0  0
 27 25  4  0  0  0
 28 26  4  0  0  0
 36 27  4  0  0  0
 36 28  4  0  0  0
 29 35  4  0  0  0
 37 29  4  0  0  0
 35 30  1  0  0  0
 30 38  1  0  0  0
 38 31  1  0  0  0
 32 33  4  0  0  0
 37 32  4  0  0  0
 33 35  4  0  0  0
 38 34  1  0  0  0
 34 39  1  0  0  0
 36 37  1  0  0  0
 39 40  1  0  0  0
 40 41  1  0  0  0
 40 43  1  0  0  0
 41 42  1  0  0  0
 41 51  2  0  0  0
 43 44  1  0  0  0
 44 45  4  0  0  0
 44 46  4  0  0  0
 45 47  4  0  0  0
 46 48  4  0  0  0
 47 49  4  0  0  0
 48 49  4  0  0  0
 49 50  1  0  0  0
  2 52  1  0  0  0
  3 53  1  0  0  0
  4 54  1  0  0  0
  5 55  1  0  0  0
  6 56  1  0  0  0
  7 57  1  0  0  0
  7 58  1  0  0  0
 13 59  1  0  0  0
 14 60  1  0  0  0
 15 61  1  0  0  0
 16 62  1  0  0  0
 16 63  1  0  0  0
 18 64  1  0  0  0
 19 65  1  0  0  0
 20 66  1  0  0  0
 21 67  1  0  0  0
 22 68  1  0  0  0
 24 69  1  0  0  0
 25 70  1  0  0  0
 26 71  1  0  0  0
 27 72  1  0  0  0
 28 73  1  0  0  0
 29 74  1  0  0  0
 30 75  1  0  0  0
 30 76  1  0  0  0
 31 77  1  0  0  0
 31 78  1  0  0  0
 38 79  1  0  0  0
 39 80  1  0  0  0
 40 81  1  0  0  0
 42 82  1  0  0  0
 43 83  1  0  0  0
 43 84  1  0  0  0
 45 85  1  0  0  0
 46 86  1  0  0  0
 47 87  1  0  0  0
 48 88  1  0  0  0
 50 89  1  0  0  0
M  END
$$$$
