### 
### Created by X-TOOL on Mon Sep 10 21:13:11 2018
### 

@<TRIPOS>MOLECULE
4ekg_ligand
   73    76     1     0     0
SMALL
GAST_HUCK


@<TRIPOS>ATOM
      1 C2         44.0570   46.0530   13.2430 C.ar      1 0QJ         0.0533
      2 C4         45.4740   47.9780   13.1910 C.ar      1 0QJ         0.1613
      3 C5         46.5490   47.2170   13.3950 C.ar      1 0QJ         0.1045
      4 C6         46.4040   45.8920   13.5310 C.ar      1 0QJ         0.1298
      5 C8         47.2090   49.2740   13.2390 C.2       1 0QJ         0.1123
      6 CBA        48.1740   52.8370   -0.5350 C.3       1 0QJ        -0.0969
      7 CAZ        46.8080   53.4890   -0.6960 C.3       1 0QJ        -0.0678
      8 CBB        46.0880   52.8260   -1.8690 C.3       1 0QJ        -0.0969
      9 CBC        47.0140   54.9550   -1.0570 C.3       1 0QJ        -0.0969
     10 CAY        46.0020   53.3370    0.4640 C.ar      1 0QJ        -0.0739
     11 CBD        45.3850   54.4450    1.0840 C.ar      1 0QJ        -0.0517
     12 CBE        44.5800   54.2750    2.2170 C.ar      1 0QJ        -0.0048
     13 CAX        45.7690   52.0520    0.9910 C.ar      1 0QJ        -0.0517
     14 CAW        44.9580   51.8820    2.1170 C.ar      1 0QJ        -0.0048
     15 CAV        44.3620   52.9860    2.7480 C.ar      1 0QJ         0.1104
     16 NAU        43.5640   52.7540    3.8160 N.am      1 0QJ        -0.1928
     17 CAT        43.4430   53.6530    4.8070 C.2       1 0QJ         0.3056
     18 OBF        44.0970   54.7040    4.8310 O.2       1 0QJ        -0.3819
     19 NAS        42.5700   53.3370    5.7810 N.am      1 0QJ        -0.2644
     20 CAR        42.3630   54.1560    6.9880 C.3       1 0QJ         0.0304
     21 CAQ        43.7560   54.3900    7.5890 C.3       1 0QJ        -0.0515
     22 CAP        43.8820   53.7920    8.9850 C.3       1 0QJ        -0.1115
     23 NAN        44.9260   52.7350    9.1080 N.4       1 0QJ         0.4026
     24 CAO        45.9800   52.7020    8.0890 C.3       1 0QJ        -0.1255
     25 CAM        45.5260   52.8000   10.4430 C.3       1 0QJ        -0.0839
     26 CAL        44.6280   52.0010   11.4010 C.3       1 0QJ         0.0723
     27 OBG        45.2670   50.7450   11.5740 O.3       1 0QJ        -0.3411
     28 CAJ        44.5640   52.6290   12.7810 C.3       1 0QJ         0.1105
     29 OAK        43.1830   52.8610   13.0850 O.3       1 0QJ        -0.3865
     30 CAH        45.1490   51.5400   13.6950 C.3       1 0QJ         0.1383
     31 OAI        44.4180   51.4450   14.9390 O.3       1 0QJ        -0.3836
     32 CAG        44.9150   50.3200   12.8730 C.3       1 0QJ         0.2008
     33 N9         45.8870   49.2430   13.1100 N.pl3     1 0QJ        -0.1919
     34 N7         47.6160   48.0230   13.4210 N.2       1 0QJ        -0.2958
     35 N3         44.2340   47.4360   13.1120 N.ar      1 0QJ        -0.2714
     36 N1         45.2060   45.2880   13.4620 N.ar      1 0QJ        -0.2698
     37 N6         47.5120   45.1810   13.7260 N.pl3     1 0QJ        -0.3152
     38 H          43.0701   45.5950   13.1773 H         1 0QJ         0.0996
     39 H          47.8416   50.1609   13.2023 H         1 0QJ         0.1349
     40 H          48.0462   51.7723   -0.3394 H         1 0QJ         0.0096
     41 H          48.7502   52.9730   -1.4502 H         1 0QJ         0.0096
     42 H          48.7003   53.3004    0.2995 H         1 0QJ         0.0096
     43 H          45.1289   53.3183   -2.0301 H         1 0QJ         0.0096
     44 H          46.6995   52.9162   -2.7668 H         1 0QJ         0.0096
     45 H          45.9237   51.7722   -1.6441 H         1 0QJ         0.0096
     46 H          47.6161   55.0236   -1.9630 H         1 0QJ         0.0096
     47 H          46.0456   55.4257   -1.2263 H         1 0QJ         0.0096
     48 H          47.5272   55.4606   -0.2390 H         1 0QJ         0.0096
     49 H          45.5370   55.4443    0.6761 H         1 0QJ         0.0800
     50 H          44.1198   55.1421    2.6908 H         1 0QJ         0.0628
     51 H          46.2248   51.1827    0.5170 H         1 0QJ         0.0800
     52 H          44.7861   50.8800    2.5101 H         1 0QJ         0.0628
     53 H          43.0436   51.8784    3.8697 H         1 0QJ         0.2487
     54 H          42.0213   52.4834    5.6780 H         1 0QJ         0.1858
     55 H          41.7077   53.6516    7.6981 H         1 0QJ         0.0517
     56 H          41.8760   55.1002    6.7441 H         1 0QJ         0.0517
     57 H          43.9198   55.4651    7.6623 H         1 0QJ         0.0265
     58 H          44.4912   53.9088    6.9440 H         1 0QJ         0.0265
     59 H          42.9252   53.3267    9.2220 H         1 0QJ         0.0017
     60 H          44.1656   54.6024    9.6565 H         1 0QJ         0.0017
     61 H          45.5303   52.5507    7.1077 H         1 0QJ        -0.0019
     62 H          46.5233   53.6469    8.0993 H         1 0QJ        -0.0019
     63 H          46.6671   51.8840    8.3052 H         1 0QJ        -0.0019
     64 H          45.6039   53.8360   10.7729 H         1 0QJ         0.0043
     65 H          46.5313   52.3790   10.4270 H         1 0QJ         0.0043
     66 H          43.6210   51.9513   10.9869 H         1 0QJ         0.0603
     67 H          45.0967   53.5745   12.8821 H         1 0QJ         0.0646
     68 H          42.7093   52.0260   13.0735 H         1 0QJ         0.2100
     69 H          46.1865   51.7154   13.9795 H         1 0QJ         0.0676
     70 H          43.5013   51.2279   14.7544 H         1 0QJ         0.2101
     71 H          43.9070   49.9542   13.0687 H         1 0QJ         0.0996
     72 H          48.4176   45.6486   13.7659 H         1 0QJ         0.1820
     73 H          47.4556   44.1685   13.8355 H         1 0QJ         0.1820
@<TRIPOS>BOND
     1   35    1 ar 
     2    1   36 ar 
     3    2    3 ar 
     4   33    2 1  
     5    2   35 ar 
     6    3    4 ar 
     7   34    3 1  
     8    4   36 ar 
     9    4   37 1  
    10   33    5 1  
    11    5   34 2  
    12    7    6 1  
    13    7    8 1  
    14    7    9 1  
    15   10    7 1  
    16   11   10 ar 
    17   13   10 ar 
    18   12   11 ar 
    19   15   12 ar 
    20   14   13 ar 
    21   15   14 ar 
    22   16   15 1  
    23   17   16 am 
    24   17   18 2  
    25   19   17 am 
    26   20   19 1  
    27   21   20 1  
    28   22   21 1  
    29   23   22 1  
    30   23   24 1  
    31   25   23 1  
    32   26   25 1  
    33   27   26 1  
    34   28   26 1  
    35   32   27 1  
    36   28   29 1  
    37   30   28 1  
    38   30   31 1  
    39   32   30 1  
    40   32   33 1  
    41    1   38 1  
    42    5   39 1  
    43    6   40 1  
    44    6   41 1  
    45    6   42 1  
    46    8   43 1  
    47    8   44 1  
    48    8   45 1  
    49    9   46 1  
    50    9   47 1  
    51    9   48 1  
    52   11   49 1  
    53   12   50 1  
    54   13   51 1  
    55   14   52 1  
    56   16   53 1  
    57   19   54 1  
    58   20   55 1  
    59   20   56 1  
    60   21   57 1  
    61   21   58 1  
    62   22   59 1  
    63   22   60 1  
    64   24   61 1  
    65   24   62 1  
    66   24   63 1  
    67   25   64 1  
    68   25   65 1  
    69   26   66 1  
    70   28   67 1  
    71   29   68 1  
    72   30   69 1  
    73   31   70 1  
    74   32   71 1  
    75   37   72 1  
    76   37   73 1  
@<TRIPOS>SUBSTRUCTURE
     1 0QJ         1

