4ekg_ligand
  -I-interpret- 

 74 77  0  0  0  0  0  0  0  0999 V2000
   44.0570   46.0530   13.2430 C   0  0  0  0  0
   45.4740   47.9780   13.1910 C   0  0  0  0  0
   46.5490   47.2170   13.3950 C   0  0  0  0  0
   46.4040   45.8920   13.5310 C   0  0  0  0  0
   47.2090   49.2740   13.2390 C   0  0  0  0  0
   48.1740   52.8370   -0.5350 C   0  0  0  0  0
   46.8080   53.4890   -0.6960 C   0  0  0  0  0
   46.0880   52.8260   -1.8690 C   0  0  0  0  0
   47.0140   54.9550   -1.0570 C   0  0  0  0  0
   46.0020   53.3370    0.4640 C   0  0  0  0  0
   45.3850   54.4450    1.0840 C   0  0  0  0  0
   44.5800   54.2750    2.2170 C   0  0  0  0  0
   45.7690   52.0520    0.9910 C   0  0  0  0  0
   44.9580   51.8820    2.1170 C   0  0  0  0  0
   44.3620   52.9860    2.7480 C   0  0  0  0  0
   43.5640   52.7540    3.8160 N   0  0  0  0  0
   43.4430   53.6530    4.8070 C   0  0  0  0  0
   44.0970   54.7040    4.8310 O   0  0  0  0  0
   42.5700   53.3370    5.7810 N   0  0  0  0  0
   42.3630   54.1560    6.9880 C   0  0  0  0  0
   43.7560   54.3900    7.5890 C   0  0  0  0  0
   43.8820   53.7920    8.9850 C   0  0  0  0  0
   44.9260   52.7350    9.1080 N   0  3  0  0  0
   45.9800   52.7020    8.0890 C   0  0  0  0  0
   45.5260   52.8000   10.4430 C   0  0  0  0  0
   44.6280   52.0010   11.4010 C   0  0  0  0  0
   45.2670   50.7450   11.5740 O   0  0  0  0  0
   44.5640   52.6290   12.7810 C   0  0  0  0  0
   43.1830   52.8610   13.0850 O   0  0  0  0  0
   45.1490   51.5400   13.6950 C   0  0  0  0  0
   44.4180   51.4450   14.9390 O   0  0  0  0  0
   44.9150   50.3200   12.8730 C   0  0  0  0  0
   45.8870   49.2430   13.1100 N   0  0  0  0  0
   47.6160   48.0230   13.4210 N   0  0  0  0  0
   44.2340   47.4360   13.1120 N   0  0  0  0  0
   45.2060   45.2880   13.4620 N   0  0  0  0  0
   47.5120   45.1810   13.7260 N   0  0  0  0  0
   43.0701   45.5950   13.1773 H   0  0  0  0  0
   47.8416   50.1609   13.2023 H   0  0  0  0  0
   48.0462   51.7723   -0.3394 H   0  0  0  0  0
   48.7502   52.9730   -1.4502 H   0  0  0  0  0
   48.7003   53.3004    0.2995 H   0  0  0  0  0
   45.1289   53.3183   -2.0301 H   0  0  0  0  0
   46.6995   52.9162   -2.7668 H   0  0  0  0  0
   45.9237   51.7722   -1.6441 H   0  0  0  0  0
   47.6161   55.0236   -1.9630 H   0  0  0  0  0
   46.0456   55.4257   -1.2263 H   0  0  0  0  0
   47.5272   55.4606   -0.2390 H   0  0  0  0  0
   45.5370   55.4443    0.6761 H   0  0  0  0  0
   44.1198   55.1421    2.6908 H   0  0  0  0  0
   46.2248   51.1827    0.5170 H   0  0  0  0  0
   44.7861   50.8800    2.5101 H   0  0  0  0  0
   43.0436   51.8784    3.8697 H   0  0  0  0  0
   42.0213   52.4834    5.6780 H   0  0  0  0  0
   41.7077   53.6516    7.6981 H   0  0  0  0  0
   41.8760   55.1002    6.7441 H   0  0  0  0  0
   43.9198   55.4651    7.6623 H   0  0  0  0  0
   44.4912   53.9088    6.9440 H   0  0  0  0  0
   42.9252   53.3267    9.2220 H   0  0  0  0  0
   44.1656   54.6024    9.6565 H   0  0  0  0  0
   44.4169   51.8656    8.9488 H   0  0  0  0  0
   45.5303   52.5507    7.1077 H   0  0  0  0  0
   46.5233   53.6469    8.0993 H   0  0  0  0  0
   46.6671   51.8840    8.3052 H   0  0  0  0  0
   45.6039   53.8360   10.7729 H   0  0  0  0  0
   46.5313   52.3790   10.4270 H   0  0  0  0  0
   43.6210   51.9513   10.9869 H   0  0  0  0  0
   45.0967   53.5745   12.8821 H   0  0  0  0  0
   43.1107   53.2593   13.9555 H   0  0  0  0  0
   46.1865   51.7154   13.9795 H   0  0  0  0  0
   44.8068   50.7583   15.4857 H   0  0  0  0  0
   43.9070   49.9542   13.0687 H   0  0  0  0  0
   48.4176   45.6486   13.7659 H   0  0  0  0  0
   47.4556   44.1685   13.8355 H   0  0  0  0  0
 35  1  4  0  0  0
  1 36  4  0  0  0
  2  3  4  0  0  0
 33  2  4  0  0  0
  2 35  4  0  0  0
  3  4  4  0  0  0
 34  3  4  0  0  0
  4 36  4  0  0  0
  4 37  1  0  0  0
 33  5  4  0  0  0
  5 34  4  0  0  0
  7  6  1  0  0  0
  7  8  1  0  0  0
  7  9  1  0  0  0
 10  7  1  0  0  0
 11 10  4  0  0  0
 13 10  4  0  0  0
 12 11  4  0  0  0
 15 12  4  0  0  0
 14 13  4  0  0  0
 15 14  4  0  0  0
 16 15  1  0  0  0
 17 16  1  0  0  0
 17 18  2  0  0  0
 19 17  1  0  0  0
 20 19  1  0  0  0
 21 20  1  0  0  0
 22 21  1  0  0  0
 23 22  1  0  0  0
 23 24  1  0  0  0
 25 23  1  0  0  0
 26 25  1  0  0  0
 27 26  1  0  0  0
 28 26  1  0  0  0
 32 27  1  0  0  0
 28 29  1  0  0  0
 30 28  1  0  0  0
 30 31  1  0  0  0
 32 30  1  0  0  0
 32 33  1  0  0  0
  1 38  1  0  0  0
  5 39  1  0  0  0
  6 40  1  0  0  0
  6 41  1  0  0  0
  6 42  1  0  0  0
  8 43  1  0  0  0
  8 44  1  0  0  0
  8 45  1  0  0  0
  9 46  1  0  0  0
  9 47  1  0  0  0
  9 48  1  0  0  0
 11 49  1  0  0  0
 12 50  1  0  0  0
 13 51  1  0  0  0
 14 52  1  0  0  0
 16 53  1  0  0  0
 19 54  1  0  0  0
 20 55  1  0  0  0
 20 56  1  0  0  0
 21 57  1  0  0  0
 21 58  1  0  0  0
 22 59  1  0  0  0
 22 60  1  0  0  0
 23 61  1  0  0  0
 24 62  1  0  0  0
 24 63  1  0  0  0
 24 64  1  0  0  0
 25 65  1  0  0  0
 25 66  1  0  0  0
 26 67  1  0  0  0
 28 68  1  0  0  0
 29 69  1  0  0  0
 30 70  1  0  0  0
 31 71  1  0  0  0
 32 72  1  0  0  0
 37 73  1  0  0  0
 37 74  1  0  0  0
M  END
$$$$
