6qat_ligand
  -I-interpret- 

 70 74  0  0  0  0  0  0  0  0999 V2000
  -31.7600   10.3370  -75.3470 C   0  0  0  0  0
  -34.3500   10.1030  -71.4610 C   0  0  0  0  0
  -30.7250   10.8790  -76.1230 C   0  0  0  0  0
  -30.4670   12.2430  -76.1430 C   0  0  0  0  0
  -33.0520    8.5170  -73.3530 C   0  0  0  0  0
  -31.2550   13.0590  -75.3260 C   0  0  0  0  0
  -30.5200    8.6440  -76.2650 C   0  0  0  0  0
  -31.6250    8.9270  -75.3670 C   0  0  0  0  0
  -32.2150    8.0430  -74.4840 C   0  0  0  0  0
  -34.3300    9.0120  -73.5920 C   0  0  0  0  0
  -34.9590    9.8240  -72.6560 C   0  0  0  0  0
  -30.0310    9.8390  -76.6780 N   0  0  0  0  0
  -32.0410    6.7380  -74.6730 N   0  0  0  0  0
  -32.5570   11.1560  -74.6360 C   0  0  0  0  0
  -33.6350    1.3580  -71.4290 N   0  3  0  0  0
  -30.0860    7.5550  -76.5760 O   0  0  0  0  0
  -32.2970   12.4990  -74.5630 C   0  0  0  0  0
  -33.0670   13.1620  -73.5760 N   0  0  0  0  0
  -32.8750   14.5640  -73.0150 S   0  0  0  0  0
  -34.1710   15.1720  -73.0300 O   0  0  0  0  0
  -31.7980   15.1710  -73.7490 O   0  0  0  0  0
  -32.3840   14.3320  -71.3380 C   0  0  0  0  0
  -31.1920   13.4200  -71.2280 C   0  0  0  0  0
  -32.4760    8.7540  -72.1110 C   0  0  0  0  0
  -33.1240    9.5470  -71.1740 C   0  0  0  0  0
  -32.6720    5.6630  -73.9980 C   0  0  0  0  0
  -33.7030    5.8800  -73.0870 C   0  0  0  0  0
  -34.2670    4.8150  -72.4110 C   0  0  0  0  0
  -33.8430    3.5150  -72.6410 C   0  0  0  0  0
  -32.8120    3.3080  -73.5480 C   0  0  0  0  0
  -32.2400    4.3640  -74.2320 C   0  0  0  0  0
  -34.5530    2.3490  -72.0030 C   0  0  0  0  0
  -33.0190    1.8660  -70.1970 C   0  0  0  0  0
  -31.8530    1.0110  -69.7870 C   0  0  0  0  0
  -32.1110   -0.4400  -70.1010 C   0  0  0  0  0
  -33.6030   -0.7350  -70.0860 C   0  0  0  0  0
  -34.3410    0.1020  -71.1290 C   0  0  0  0  0
  -34.8342   10.7624  -70.7407 H   0  0  0  0  0
  -29.6806   12.6614  -76.7713 H   0  0  0  0  0
  -31.0622   14.1308  -75.2797 H   0  0  0  0  0
  -34.8420    8.7609  -74.5209 H   0  0  0  0  0
  -35.9422   10.2412  -72.8738 H   0  0  0  0  0
  -29.2462    9.9486  -77.3202 H   0  0  0  0  0
  -31.3687    6.4779  -75.3947 H   0  0  0  0  0
  -33.4200   10.7456  -74.1118 H   0  0  0  0  0
  -32.9072    1.1799  -72.1211 H   0  0  0  0  0
  -33.8498   12.6325  -73.1923 H   0  0  0  0  0
  -33.2144   13.8786  -70.7967 H   0  0  0  0  0
  -32.1134   15.3025  -70.9220 H   0  0  0  0  0
  -31.4405   12.4467  -71.6511 H   0  0  0  0  0
  -30.3539   13.8520  -71.7748 H   0  0  0  0  0
  -30.9212   13.3030  -70.1787 H   0  0  0  0  0
  -31.5082    8.3140  -71.8707 H   0  0  0  0  0
  -32.6593    9.7305  -70.2053 H   0  0  0  0  0
  -34.0657    6.8920  -72.9070 H   0  0  0  0  0
  -35.0585    4.9999  -71.6847 H   0  0  0  0  0
  -32.4478    2.2957  -73.7234 H   0  0  0  0  0
  -31.4478    4.1768  -74.9569 H   0  0  0  0  0
  -35.1672    2.7396  -71.1917 H   0  0  0  0  0
  -35.1341    1.8509  -72.7791 H   0  0  0  0  0
  -33.7630    1.8486  -69.4006 H   0  0  0  0  0
  -32.6633    2.8806  -70.3760 H   0  0  0  0  0
  -31.7036    1.1152  -68.7123 H   0  0  0  0  0
  -30.9701    1.3363  -70.3372 H   0  0  0  0  0
  -31.6219   -1.0565  -69.3469 H   0  0  0  0  0
  -31.7175   -0.6617  -71.0930 H   0  0  0  0  0
  -33.9968   -0.4889  -69.0999 H   0  0  0  0  0
  -33.7518   -1.7898  -70.3171 H   0  0  0  0  0
  -34.4065   -0.4799  -72.0484 H   0  0  0  0  0
  -35.3250    0.3509  -70.7317 H   0  0  0  0  0
  1  3  4  0  0  0
  8  1  1  0  0  0
  1 14  4  0  0  0
 11  2  4  0  0  0
 25  2  4  0  0  0
  3  4  4  0  0  0
 12  3  1  0  0  0
  4  6  4  0  0  0
  9  5  1  0  0  0
  5 10  4  0  0  0
  5 24  4  0  0  0
 17  6  4  0  0  0
  8  7  1  0  0  0
  7 12  1  0  0  0
  7 16  2  0  0  0
  9  8  2  0  0  0
 13  9  1  0  0  0
 10 11  4  0  0  0
 26 13  1  0  0  0
 14 17  4  0  0  0
 32 15  1  0  0  0
 15 33  1  0  0  0
 15 37  1  0  0  0
 17 18  1  0  0  0
 18 19  1  0  0  0
 19 20  2  0  0  0
 19 21  2  0  0  0
 19 22  1  0  0  0
 22 23  1  0  0  0
 24 25  4  0  0  0
 27 26  4  0  0  0
 26 31  4  0  0  0
 28 27  4  0  0  0
 29 28  4  0  0  0
 29 30  4  0  0  0
 29 32  1  0  0  0
 30 31  4  0  0  0
 33 34  1  0  0  0
 34 35  1  0  0  0
 35 36  1  0  0  0
 36 37  1  0  0  0
  2 38  1  0  0  0
  4 39  1  0  0  0
  6 40  1  0  0  0
 10 41  1  0  0  0
 11 42  1  0  0  0
 12 43  1  0  0  0
 13 44  1  0  0  0
 14 45  1  0  0  0
 15 46  1  0  0  0
 18 47  1  0  0  0
 22 48  1  0  0  0
 22 49  1  0  0  0
 23 50  1  0  0  0
 23 51  1  0  0  0
 23 52  1  0  0  0
 24 53  1  0  0  0
 25 54  1  0  0  0
 27 55  1  0  0  0
 28 56  1  0  0  0
 30 57  1  0  0  0
 31 58  1  0  0  0
 32 59  1  0  0  0
 32 60  1  0  0  0
 33 61  1  0  0  0
 33 62  1  0  0  0
 34 63  1  0  0  0
 34 64  1  0  0  0
 35 65  1  0  0  0
 35 66  1  0  0  0
 36 67  1  0  0  0
 36 68  1  0  0  0
 37 69  1  0  0  0
 37 70  1  0  0  0
M  END
$$$$
