3gs6_ligand
  -I-interpret- 

 50 51  0  0  0  0  0  0  0  0999 V2000
  -17.4930  -10.8880    1.3230 O   0  0  0  0  0
  -16.4370  -11.5020    1.4510 C   0  0  0  0  0
  -15.9130  -12.2910    0.4990 N   0  0  0  0  0
  -16.4570  -12.5110   -0.7840 C   0  0  0  0  0
  -15.8770  -13.4880   -1.6080 C   0  0  0  0  0
  -16.3760  -13.7280   -2.8900 C   0  0  0  0  0
  -17.4540  -12.9780   -3.3610 C   0  0  0  0  0
  -18.0280  -11.9940   -2.5440 C   0  0  0  0  0
  -17.5330  -11.7540   -1.2600 C   0  0  0  0  0
  -15.6880  -11.3950    2.7110 O   0  0  0  0  0
  -16.0060  -10.6100    3.6510 N   0  0  0  0  0
  -15.2550  -10.4880    4.6720 C   0  0  0  0  0
  -14.0550  -11.3110    4.7740 O   0  0  0  0  0
  -13.1640  -11.1530    5.8830 C   0  0  0  0  0
  -12.5230  -12.5040    6.1410 C   0  0  0  0  0
  -13.2260  -13.5000    6.3110 O   0  0  0  0  0
  -13.8670  -10.5790    7.1200 C   0  0  0  0  0
  -12.9260  -10.4240    8.1970 O   0  0  0  0  0
  -14.5870   -9.2670    6.7610 C   0  0  0  0  0
  -15.1110   -8.5930    7.9270 O   0  0  0  0  0
  -15.7340   -9.5900    5.7870 C   0  0  0  0  0
  -16.2770   -8.3270    5.3100 N   0  0  0  0  0
  -17.5060   -7.9370    5.6470 C   0  0  0  0  0
  -18.2410   -8.6120    6.3500 O   0  0  0  0  0
  -17.9790   -6.6000    5.1100 C   0  0  0  0  0
  -19.4260   -6.7590    4.6550 C   0  0  0  0  0
  -19.5010   -7.6780    3.4400 C   0  0  0  0  0
  -15.0435  -12.7747    0.7237 H   0  0  0  0  0
  -15.0277  -14.0658   -1.2433 H   0  0  0  0  0
  -15.9261  -14.4964   -3.5187 H   0  0  0  0  0
  -17.8487  -13.1566   -4.3612 H   0  0  0  0  0
  -18.8700  -11.4096   -2.9148 H   0  0  0  0  0
  -17.9816  -10.9829   -0.6337 H   0  0  0  0  0
  -12.3932  -10.4193    5.6471 H   0  0  0  0  0
  -11.9975  -12.3783    7.0877 H   0  0  0  0  0
  -11.9655  -12.7181    5.2291 H   0  0  0  0  0
  -12.6650  -14.2646    6.4604 H   0  0  0  0  0
  -14.6319  -11.2746    7.4652 H   0  0  0  0  0
  -13.3765  -10.0646    8.9648 H   0  0  0  0  0
  -13.8638   -8.5936    6.3009 H   0  0  0  0  0
  -15.5499   -7.7831    7.6568 H   0  0  0  0  0
  -16.5277  -10.1460    6.2861 H   0  0  0  0  0
  -15.7083   -7.7311    4.7085 H   0  0  0  0  0
  -17.3537   -6.2880    4.2735 H   0  0  0  0  0
  -17.9102   -5.8373    5.8857 H   0  0  0  0  0
  -19.8240   -5.7805    4.3862 H   0  0  0  0  0
  -20.0085   -7.1944    5.4669 H   0  0  0  0  0
  -18.9163   -7.2500    2.6257 H   0  0  0  0  0
  -19.0999   -8.6572    3.7014 H   0  0  0  0  0
  -20.5402   -7.7812    3.1277 H   0  0  0  0  0
  1  2  2  0  0  0
  2  3  1  0  0  0
  2 10  1  0  0  0
  3  4  1  0  0  0
  4  5  4  0  0  0
  4  9  4  0  0  0
  5  6  4  0  0  0
  6  7  4  0  0  0
  7  8  4  0  0  0
  8  9  4  0  0  0
 10 11  1  0  0  0
 11 12  2  0  0  0
 12 13  1  0  0  0
 12 21  1  0  0  0
 13 14  1  0  0  0
 14 15  1  0  0  0
 14 17  1  0  0  0
 15 16  1  0  0  0
 17 18  1  0  0  0
 17 19  1  0  0  0
 19 20  1  0  0  0
 19 21  1  0  0  0
 21 22  1  0  0  0
 22 23  1  0  0  0
 23 24  2  0  0  0
 23 25  1  0  0  0
 25 26  1  0  0  0
 26 27  1  0  0  0
  3 28  1  0  0  0
  5 29  1  0  0  0
  6 30  1  0  0  0
  7 31  1  0  0  0
  8 32  1  0  0  0
  9 33  1  0  0  0
 14 34  1  0  0  0
 15 35  1  0  0  0
 15 36  1  0  0  0
 16 37  1  0  0  0
 17 38  1  0  0  0
 18 39  1  0  0  0
 19 40  1  0  0  0
 20 41  1  0  0  0
 21 42  1  0  0  0
 22 43  1  0  0  0
 25 44  1  0  0  0
 25 45  1  0  0  0
 26 46  1  0  0  0
 26 47  1  0  0  0
 27 48  1  0  0  0
 27 49  1  0  0  0
 27 50  1  0  0  0
M  END
$$$$
