3ezr_ligand
  -I-interpret- 

 60 65  0  0  0  0  0  0  0  0999 V2000
   -2.5790   33.9250   11.9540 C   0  0  0  0  0
    4.6110   28.1650    5.9080 C   0  0  0  0  0
    4.3960   26.1670    7.2380 C   0  0  0  0  0
   -3.4190   34.5520   12.8420 C   0  0  0  0  0
   -1.3160   32.9490    9.6090 C   0  0  0  0  0
    0.1260   31.1070    8.9290 C   0  0  0  0  0
    2.9850   27.9640    7.7160 C   0  0  0  0  0
   -0.3300   32.4030    8.8280 C   0  0  0  0  0
   -4.5760   33.9270   13.2500 C   0  0  0  0  0
    2.0200   29.8720    7.6570 C   0  0  0  0  0
    2.8920   26.5480   10.3570 C   0  0  0  0  0
    3.1370   24.5010    9.0020 C   0  0  0  0  0
    3.4500   23.9300   10.3750 C   0  0  0  0  0
   -5.6460   30.5640   11.9180 C   0  0  0  0  0
    4.9910   26.8800    6.2230 C   0  0  0  0  0
   -0.4560   30.2590    9.8570 C   0  0  0  0  0
   -1.4650   30.7970   10.6320 C   0  0  0  0  0
   -4.8700   32.6810   12.7480 C   0  0  0  0  0
   -1.8880   32.1060   10.5320 C   0  0  0  0  0
   -2.8620   32.6750   11.4360 C   0  0  0  0  0
    3.5950   28.6620    6.6930 C   0  0  0  0  0
    3.3830   26.6720    8.0280 C   0  0  0  0  0
   -4.0230   32.0620   11.8520 C   0  0  0  0  0
    1.1540   31.0270    7.9520 C   0  0  0  0  0
    1.9520   25.7920   11.2700 C   0  0  0  0  0
    1.5410   23.4300   11.8880 C   0  0  0  0  0
    2.0120   28.7310    8.3070 N   0  0  0  0  0
    1.3350   32.1770    7.3000 N   0  0  0  0  0
    2.9660   29.8700    6.6760 N   0  0  0  0  0
    0.4230   32.9860    7.8550 N   0  0  0  0  0
    2.7890   25.9170    9.0580 N   0  0  0  0  0
   -5.4480   34.5370   14.1590 N   0  0  0  0  0
    2.5290   24.4330   11.4400 N   0  3  0  0  0
   -4.3580   30.8110   11.3760 O   0  0  0  0  0
   -1.6617   34.4284   11.6487 H   0  0  0  0  0
    5.0746   28.7396    5.1061 H   0  0  0  0  0
    4.7423   25.1511    7.4281 H   0  0  0  0  0
   -3.1700   35.5425   13.2229 H   0  0  0  0  0
   -1.6273   33.9883    9.5043 H   0  0  0  0  0
    3.9153   26.5127   10.7307 H   0  0  0  0  0
    2.6235   27.6030   10.3035 H   0  0  0  0  0
    2.2830   23.9584    8.5965 H   0  0  0  0  0
    4.0264   24.3954    8.3808 H   0  0  0  0  0
    4.4622   24.2361   10.6393 H   0  0  0  0  0
    3.3337   22.8477   10.3191 H   0  0  0  0  0
   -5.5912   30.5863   13.0064 H   0  0  0  0  0
   -6.3378   31.3320   11.5720 H   0  0  0  0  0
   -5.9949   29.5847   11.5905 H   0  0  0  0  0
    5.7904   26.4116    5.6488 H   0  0  0  0  0
   -0.1352   29.2234    9.9696 H   0  0  0  0  0
   -1.9535   30.1519   11.3623 H   0  0  0  0  0
   -5.7836   32.1761   13.0619 H   0  0  0  0  0
    0.9509   25.7397   10.8419 H   0  0  0  0  0
    1.8526   26.2963   12.2312 H   0  0  0  0  0
    0.9257   23.1247   11.0416 H   0  0  0  0  0
    2.0632   22.5622   12.2910 H   0  0  0  0  0
    0.9077   23.8657   12.6608 H   0  0  0  0  0
   -5.2313   35.4614   14.5318 H   0  0  0  0  0
   -6.3002   34.0572   14.4487 H   0  0  0  0  0
    3.1791   24.5817   12.2118 H   0  0  0  0  0
  1  4  4  0  0  0
 20  1  4  0  0  0
  2 15  4  0  0  0
 21  2  4  0  0  0
 15  3  4  0  0  0
 22  3  4  0  0  0
  9  4  4  0  0  0
  5  8  4  0  0  0
 19  5  4  0  0  0
  8  6  4  0  0  0
 16  6  4  0  0  0
  6 24  4  0  0  0
 21  7  4  0  0  0
  7 22  4  0  0  0
 27  7  4  0  0  0
  8 30  4  0  0  0
 18  9  4  0  0  0
  9 32  1  0  0  0
 24 10  1  0  0  0
 10 27  4  0  0  0
 10 29  4  0  0  0
 11 25  1  0  0  0
 31 11  1  0  0  0
 12 13  1  0  0  0
 31 12  1  0  0  0
 13 33  1  0  0  0
 34 14  1  0  0  0
 17 16  4  0  0  0
 19 17  4  0  0  0
 23 18  4  0  0  0
 20 19  1  0  0  0
 23 20  4  0  0  0
 29 21  4  0  0  0
 22 31  1  0  0  0
 23 34  1  0  0  0
 24 28  4  0  0  0
 25 33  1  0  0  0
 33 26  1  0  0  0
 28 30  4  0  0  0
  1 35  1  0  0  0
  2 36  1  0  0  0
  3 37  1  0  0  0
  4 38  1  0  0  0
  5 39  1  0  0  0
 11 40  1  0  0  0
 11 41  1  0  0  0
 12 42  1  0  0  0
 12 43  1  0  0  0
 13 44  1  0  0  0
 13 45  1  0  0  0
 14 46  1  0  0  0
 14 47  1  0  0  0
 14 48  1  0  0  0
 15 49  1  0  0  0
 16 50  1  0  0  0
 17 51  1  0  0  0
 18 52  1  0  0  0
 25 53  1  0  0  0
 25 54  1  0  0  0
 26 55  1  0  0  0
 26 56  1  0  0  0
 26 57  1  0  0  0
 32 58  1  0  0  0
 32 59  1  0  0  0
 33 60  1  0  0  0
M  END
$$$$
