6iql_ligand
  -I-interpret- 

 42 45  0  0  0  0  0  0  0  0999 V2000
   16.1170   16.1000   22.1040 C   0  0  0  0  0
   22.2270   13.8820   26.6730 C   0  0  0  0  0
   23.5300   13.8040   24.6720 C   0  0  0  0  0
   22.1760   14.0870   24.0060 C   0  0  0  0  0
   23.7980   12.0100   26.3450 C   0  0  0  0  0
   24.4240   11.6460   27.5300 C   0  0  0  0  0
   24.7410   10.3010   27.7590 C   0  0  0  0  0
   24.4280    9.3320   26.7970 C   0  0  0  0  0
   23.8000    9.7020   25.6080 C   0  0  0  0  0
   23.4840   11.0400   25.3810 C   0  0  0  0  0
   16.3450   17.1330   21.2070 C   0  0  0  0  0
   17.1660   15.5750   22.8890 C   0  0  0  0  0
   18.4560   16.1510   22.7180 C   0  0  0  0  0
   18.6370   17.1610   21.8300 C   0  0  0  0  0
   20.6380   16.7890   22.7420 C   0  0  0  0  0
   19.7680   15.9100   23.3160 C   0  0  0  0  0
   20.1500   14.8570   24.4050 C   0  0  0  0  0
   21.6730   15.1530   26.0240 C   0  0  0  0  0
   17.5660   17.6250   21.0950 N   0  0  0  0  0
   19.9500   17.5340   21.8610 N   0  0  0  0  0
   21.4150   15.0110   24.6660 N   0  3  0  0  0
   23.4560   13.3800   26.0770 N   0  0  0  0  0
   24.8280    7.6200   27.0780 Cl  0  0  0  0  0
   15.1130   15.6876   22.2042 H   0  0  0  0  0
   21.4725   13.1059   26.5448 H   0  0  0  0  0
   22.4554   14.1292   27.7097 H   0  0  0  0  0
   24.0900   14.7390   24.6551 H   0  0  0  0  0
   23.9863   12.9826   24.1196 H   0  0  0  0  0
   21.6164   13.1516   24.0001 H   0  0  0  0  0
   22.3811   14.4865   23.0128 H   0  0  0  0  0
   24.6670   12.4018   28.2768 H   0  0  0  0  0
   25.2319   10.0079   28.6870 H   0  0  0  0  0
   23.5574    8.9477   24.8595 H   0  0  0  0  0
   22.9923   11.3335   24.4535 H   0  0  0  0  0
   15.5297   17.5326   20.6040 H   0  0  0  0  0
   16.9953   14.7631   23.5960 H   0  0  0  0  0
   21.7028   16.8724   22.9594 H   0  0  0  0  0
   19.9536   13.8467   24.0460 H   0  0  0  0  0
   19.5530   15.0035   25.3051 H   0  0  0  0  0
   22.4251   15.9340   26.1359 H   0  0  0  0  0
   20.7289   15.3884   26.5152 H   0  0  0  0  0
   21.7135   15.9088   24.2849 H   0  0  0  0  0
  1 11  4  0  0  0
 12  1  4  0  0  0
  2 18  1  0  0  0
 22  2  1  0  0  0
  4  3  1  0  0  0
  3 22  1  0  0  0
 21  4  1  0  0  0
  5  6  4  0  0  0
  5 10  4  0  0  0
 22  5  1  0  0  0
  6  7  4  0  0  0
  7  8  4  0  0  0
  9  8  4  0  0  0
  8 23  1  0  0  0
 10  9  4  0  0  0
 19 11  4  0  0  0
 13 12  4  0  0  0
 13 14  4  0  0  0
 16 13  4  0  0  0
 14 19  4  0  0  0
 20 14  4  0  0  0
 16 15  4  0  0  0
 15 20  4  0  0  0
 17 16  1  0  0  0
 17 21  1  0  0  0
 18 21  1  0  0  0
  1 24  1  0  0  0
  2 25  1  0  0  0
  2 26  1  0  0  0
  3 27  1  0  0  0
  3 28  1  0  0  0
  4 29  1  0  0  0
  4 30  1  0  0  0
  6 31  1  0  0  0
  7 32  1  0  0  0
  9 33  1  0  0  0
 10 34  1  0  0  0
 11 35  1  0  0  0
 12 36  1  0  0  0
 15 37  1  0  0  0
 17 38  1  0  0  0
 17 39  1  0  0  0
 18 40  1  0  0  0
 18 41  1  0  0  0
 21 42  1  0  0  0
M  END
$$$$
