4iif_ligand
  -I-interpret- 

 29 30  0  0  0  0  0  0  0  0999 V2000
   20.9580  -20.2160   23.3600 C   0  0  0  0  0
   22.1030  -19.6860   24.2130 C   0  0  0  0  0
   21.6330  -18.7700   25.3240 C   0  0  0  0  0
   20.7290  -17.6740   24.7620 C   0  0  0  0  0
   19.5830  -18.4220   24.0430 C   0  0  0  0  0
   18.6030  -17.5360   23.3480 C   0  0  0  0  0
   22.7460  -20.7620   24.8610 O   0  0  0  0  0
   22.7910  -18.2690   25.9400 O   0  0  0  0  0
   20.2420  -16.7980   25.7810 O   0  0  0  0  0
   19.3370  -16.5460   22.5980 O   0  0  0  0  0
   20.1900  -19.0870   22.8770 N   0  3  0  0  0
   17.9380  -18.5310   22.3870 C   0  0  0  0  0
   19.0500  -19.5430   22.0510 C   0  0  0  0  0
   20.3229  -20.8736   23.9536 H   0  0  0  0  0
   21.3516  -20.7874   22.5194 H   0  0  0  0  0
   22.7563  -19.1411   23.5315 H   0  0  0  0  0
   21.0268  -19.2937   26.0632 H   0  0  0  0  0
   21.2729  -17.0214   24.0791 H   0  0  0  0  0
   19.1016  -19.0284   24.8102 H   0  0  0  0  0
   17.9052  -17.0064   23.9966 H   0  0  0  0  0
   23.0690  -21.3829   24.2039 H   0  0  0  0  0
   23.3172  -19.0000   26.2722 H   0  0  0  0  0
   20.9826  -16.3547   26.2012 H   0  0  0  0  0
   19.7499  -15.9275   23.2051 H   0  0  0  0  0
   20.8099  -18.4822   22.3382 H   0  0  0  0  0
   17.5486  -18.0401   21.4951 H   0  0  0  0  0
   17.0684  -19.0125   22.8342 H   0  0  0  0  0
   18.7602  -20.5710   22.2685 H   0  0  0  0  0
   19.2869  -19.5669   20.9873 H   0  0  0  0  0
  1  2  1  0  0  0
  1 11  1  0  0  0
  2  3  1  0  0  0
  2  7  1  0  0  0
  3  4  1  0  0  0
  3  8  1  0  0  0
  4  5  1  0  0  0
  4  9  1  0  0  0
  5  6  1  0  0  0
  5 11  1  0  0  0
  6 10  1  0  0  0
  6 12  1  0  0  0
 11 13  1  0  0  0
 12 13  1  0  0  0
  1 14  1  0  0  0
  1 15  1  0  0  0
  2 16  1  0  0  0
  3 17  1  0  0  0
  4 18  1  0  0  0
  5 19  1  0  0  0
  6 20  1  0  0  0
  7 21  1  0  0  0
  8 22  1  0  0  0
  9 23  1  0  0  0
 10 24  1  0  0  0
 11 25  1  0  0  0
 12 26  1  0  0  0
 12 27  1  0  0  0
 13 28  1  0  0  0
 13 29  1  0  0  0
M  END
$$$$
