2ri9_ligand
  -I-interpret- 

 19 19  0  0  0  0  0  0  0  0999 V2000
   35.3470   25.9220  -41.9130 C   0  0  0  0  0
   34.3750   26.9450  -41.5990 O   0  0  0  0  0
   34.3100   28.0180  -42.5730 C   0  0  0  0  0
   34.1570   27.4770  -44.0240 C   0  0  0  0  0
   34.5000   28.5090  -44.9430 O   0  0  0  0  0
   35.0190   26.2330  -44.3330 C   0  0  0  0  0
   36.3720   26.6090  -44.5430 O   0  0  0  0  0
   34.9530   25.2220  -43.1960 C   0  0  0  0  0
   33.6300   24.7050  -43.0840 O   0  0  0  0  0
   35.3829   25.1957  -41.1010 H   0  0  0  0  0
   36.3277   26.3810  -42.0379 H   0  0  0  0  0
   35.2380   28.5870  -42.5167 H   0  0  0  0  0
   33.4403   28.6342  -42.3448 H   0  0  0  0  0
   33.1168   27.1673  -44.1248 H   0  0  0  0  0
   33.9697   29.2881  -44.7601 H   0  0  0  0  0
   34.6210   25.7729  -45.2374 H   0  0  0  0  0
   36.4183   27.2465  -45.2592 H   0  0  0  0  0
   35.6322   24.3922  -43.3912 H   0  0  0  0  0
   33.5960   24.0689  -42.3658 H   0  0  0  0  0
  1  2  1  0  0  0
  1  8  1  0  0  0
  2  3  1  0  0  0
  3  4  1  0  0  0
  4  5  1  0  0  0
  4  6  1  0  0  0
  6  7  1  0  0  0
  6  8  1  0  0  0
  8  9  1  0  0  0
  1 10  1  0  0  0
  1 11  1  0  0  0
  3 12  1  0  0  0
  3 13  1  0  0  0
  4 14  1  0  0  0
  5 15  1  0  0  0
  6 16  1  0  0  0
  7 17  1  0  0  0
  8 18  1  0  0  0
  9 19  1  0  0  0
M  END
$$$$
