3mke_ligand
  -I-interpret- 

 37 37  0  0  0  0  0  0  0  0999 V2000
   32.2280   62.9740    6.1920 B   0  0  0  0  0
   31.2240   62.9460    7.3580 O   0  0  0  0  0
   33.6580   63.4660    6.4480 O   0  0  0  0  0
   31.5750   63.8770    5.0270 C   0  0  0  0  0
   32.3910   64.0220    3.8140 N   0  0  0  0  0
   32.0070   64.8370    2.8180 C   0  0  0  0  0
   30.9390   65.4520    2.8770 O   0  0  0  0  0
   32.8430   64.9910    1.6200 C   0  0  0  0  0
   33.9270   64.3010    1.3780 N   0  0  0  0  0
   34.4770   63.3540    2.1520 O   0  0  0  0  0
   35.7930   62.9460    1.7810 C   0  0  0  0  0
   32.5770   65.9660    0.5410 C   0  0  0  0  0
   31.4990   66.8540    0.5210 C   0  0  0  0  0
   31.5350   67.8230   -0.9230 S   0  0  0  0  0
   32.9680   66.9910   -1.3910 C   0  0  0  0  0
   33.6060   67.2880   -2.5620 N   0  0  0  0  0
   33.4100   66.0410   -0.5450 N   0  0  0  0  0
   35.7400   62.2980    0.4010 C   0  0  0  0  0
   36.8170   64.0930    1.7900 C   0  0  0  0  0
   36.1420   61.9450    2.8240 C   0  0  0  0  0
   37.3350   61.7830    3.1180 O   0  0  0  0  0
   35.1870   61.3580    3.3590 O   0  0  0  0  0
   31.5810   62.4147    8.0735 H   0  0  0  0  0
   34.0585   62.9356    7.1407 H   0  0  0  0  0
   31.4498   64.8777    5.4406 H   0  0  0  0  0
   30.6533   63.3793    4.7257 H   0  0  0  0  0
   33.2609   63.4966    3.7271 H   0  0  0  0  0
   30.7414   66.9292    1.3010 H   0  0  0  0  0
   33.2344   68.0132   -3.1755 H   0  0  0  0  0
   34.4539   66.7845   -2.8228 H   0  0  0  0  0
   35.0805   61.4308    0.4333 H   0  0  0  0  0
   35.3596   63.0186   -0.3230 H   0  0  0  0  0
   36.7422   61.9833    0.1101 H   0  0  0  0  0
   36.5034   64.8639    1.0861 H   0  0  0  0  0
   36.8769   64.5171    2.7923 H   0  0  0  0  0
   37.7941   63.7083    1.4979 H   0  0  0  0  0
   34.3662   61.6538    2.9586 H   0  0  0  0  0
  1  2  1  0  0  0
  1  3  1  0  0  0
  1  4  1  0  0  0
  4  5  1  0  0  0
  5  6  1  0  0  0
  6  7  2  0  0  0
  6  8  1  0  0  0
  8  9  2  0  0  0
  8 12  1  0  0  0
  9 10  1  0  0  0
 10 11  1  0  0  0
 11 18  1  0  0  0
 11 19  1  0  0  0
 11 20  1  0  0  0
 12 13  4  0  0  0
 12 17  4  0  0  0
 13 14  4  0  0  0
 14 15  4  0  0  0
 15 16  1  0  0  0
 15 17  4  0  0  0
 20 21  2  0  0  0
 20 22  1  0  0  0
  2 23  1  0  0  0
  3 24  1  0  0  0
  4 25  1  0  0  0
  4 26  1  0  0  0
  5 27  1  0  0  0
 13 28  1  0  0  0
 16 29  1  0  0  0
 16 30  1  0  0  0
 18 31  1  0  0  0
 18 32  1  0  0  0
 18 33  1  0  0  0
 19 34  1  0  0  0
 19 35  1  0  0  0
 19 36  1  0  0  0
 22 37  1  0  0  0
M  END
$$$$
