### 
### Created by X-TOOL on Mon Sep 10 21:13:02 2018
### 

@<TRIPOS>MOLECULE
3mke_ligand
   36    36     1     0     0
SMALL
GAST_HUCK


@<TRIPOS>ATOM
      1 B          32.2280   62.9740    6.1920 B         1 CB4         3.0000
      2 OB1        31.2240   62.9460    7.3580 O.3       1 CB4        -0.8710
      3 OB2        33.6580   63.4660    6.4480 O.3       1 CB4        -0.8710
      4 C7         31.5750   63.8770    5.0270 C.3       1 CB4        -0.2415
      5 N10        32.3910   64.0220    3.8140 N.am      1 CB4        -0.4404
      6 C11        32.0070   64.8370    2.8180 C.2       1 CB4         0.1880
      7 O12        30.9390   65.4520    2.8770 O.2       1 CB4        -0.3890
      8 C13        32.8430   64.9910    1.6200 C.2       1 CB4         0.1460
      9 N16        33.9270   64.3010    1.3780 N.2       1 CB4        -0.1297
     10 O17        34.4770   63.3540    2.1520 O.3       1 CB4        -0.2177
     11 C18        35.7930   62.9460    1.7810 C.3       1 CB4         0.1563
     12 C14        32.5770   65.9660    0.5410 C.2       1 CB4         0.0259
     13 C15        31.4990   66.8540    0.5210 C.2       1 CB4         0.0081
     14 S16        31.5350   67.8230   -0.9230 S.3       1 CB4         0.0150
     15 C17        32.9680   66.9910   -1.3910 C.2       1 CB4         0.1779
     16 N18        33.6060   67.2880   -2.5620 N.pl3     1 CB4        -0.2979
     17 N19        33.4100   66.0410   -0.5450 N.2       1 CB4        -0.3138
     18 C19        35.7400   62.2980    0.4010 C.3       1 CB4        -0.0232
     19 C20        36.8170   64.0930    1.7900 C.3       1 CB4        -0.0232
     20 C21        36.1420   61.9450    2.8240 C.2       1 CB4         0.0845
     21 O2A        37.3350   61.7830    3.1180 O.co2     1 CB4        -0.5445
     22 O2B        35.1870   61.3580    3.3590 O.co2     1 CB4        -0.5445
     23 H          30.3789   62.6167    7.0433 H         1 CB4        -0.1290
     24 H          33.6317   64.3722    6.7636 H         1 CB4        -0.1290
     25 H          31.4498   64.8777    5.4406 H         1 CB4        -0.1856
     26 H          30.6533   63.3793    4.7257 H         1 CB4        -0.1856
     27 H          33.2609   63.4966    3.7271 H         1 CB4         0.1450
     28 H          30.7414   66.9292    1.3010 H         1 CB4         0.0635
     29 H          34.4519   66.7821   -2.8245 H         1 CB4         0.1863
     30 H          33.2364   68.0157   -3.1738 H         1 CB4         0.1863
     31 H          35.0805   61.4308    0.4333 H         1 CB4         0.0256
     32 H          35.3596   63.0186   -0.3230 H         1 CB4         0.0256
     33 H          36.7422   61.9833    0.1101 H         1 CB4         0.0256
     34 H          36.5034   64.8639    1.0861 H         1 CB4         0.0256
     35 H          36.8769   64.5171    2.7923 H         1 CB4         0.0256
     36 H          37.7941   63.7083    1.4979 H         1 CB4         0.0256
@<TRIPOS>BOND
     1    1    2 1  
     2    1    3 1  
     3    1    4 1  
     4    4    5 1  
     5    5    6 am 
     6    6    7 2  
     7    6    8 1  
     8    8    9 2  
     9    8   12 1  
    10    9   10 1  
    11   10   11 1  
    12   11   18 1  
    13   11   19 1  
    14   11   20 1  
    15   12   13 2  
    16   12   17 1  
    17   13   14 1  
    18   14   15 1  
    19   15   16 1  
    20   15   17 2  
    21   20   21 ar 
    22   20   22 ar 
    23    2   23 1  
    24    3   24 1  
    25    4   25 1  
    26    4   26 1  
    27    5   27 1  
    28   13   28 1  
    29   16   29 1  
    30   16   30 1  
    31   18   31 1  
    32   18   32 1  
    33   18   33 1  
    34   19   34 1  
    35   19   35 1  
    36   19   36 1  
@<TRIPOS>SUBSTRUCTURE
     1 CB4         1

