2x7d_ligand
  -I-interpret- 

 42 44  0  0  0  0  0  0  0  0999 V2000
   -8.3160   12.2300   34.3450 O   0  0  0  0  0
   -7.3830   13.0190   33.7290 C   0  0  0  0  0
   -7.4140   13.1510   32.3250 C   0  0  0  0  0
   -6.4240   13.6850   34.4880 C   0  0  0  0  0
   -5.4880   14.4790   33.8150 C   0  0  0  0  0
   -5.5150   14.5990   32.4090 C   0  0  0  0  0
   -6.4620   13.9050   31.6310 C   0  0  0  0  0
   -6.5500   14.0070   30.0820 C   0  0  0  0  0
   -6.9250   15.4310   29.6360 C   0  0  0  0  0
   -8.1950   15.9250   29.9200 C   0  0  0  0  0
   -8.9970   15.1350   30.4080 O   0  0  0  0  0
   -8.6820   17.3460   29.5590 C   0  0  0  0  0
   -7.4820   18.3370   29.5540 C   0  0  0  0  0
   -6.8650   18.4810   30.9520 C   0  0  0  0  0
   -7.9560   19.7280   29.0970 C   0  0  0  0  0
   -6.4070   17.7490   28.6130 C   0  0  0  0  0
   -6.0230   16.2830   29.0230 C   0  0  0  0  0
   -4.7990   15.8390   28.6810 N   0  0  0  0  0
   -4.3290   14.6130   29.3070 C   0  0  0  0  0
   -2.8540   14.0330   28.4520 S   0  0  0  0  0
   -5.3260   13.5580   29.3740 N   0  3  0  0  0
   -8.1663   12.2403   35.2932 H   0  0  0  0  0
   -8.2033   12.6505   31.7642 H   0  0  0  0  0
   -6.4029   13.5908   35.5737 H   0  0  0  0  0
   -4.7273   15.0123   34.3851 H   0  0  0  0  0
   -4.7873   15.2426   31.9146 H   0  0  0  0  0
   -7.3424   13.3148   29.7974 H   0  0  0  0  0
   -9.4127   17.6726   30.2989 H   0  0  0  0  0
   -9.1353   17.3279   28.5679 H   0  0  0  0  0
   -7.6194   18.8555   31.6439 H   0  0  0  0  0
   -6.5087   17.5087   31.2924 H   0  0  0  0  0
   -6.0303   19.1806   30.9090 H   0  0  0  0  0
   -8.3697   19.6571   28.0910 H   0  0  0  0  0
   -8.7221   20.0924   29.7814 H   0  0  0  0  0
   -7.1108   20.4163   29.0960 H   0  0  0  0  0
   -5.5141   18.3707   28.6778 H   0  0  0  0  0
   -6.8081   17.7303   27.5997 H   0  0  0  0  0
   -4.2224   16.3437   28.0077 H   0  0  0  0  0
   -4.0996   14.8606   30.3434 H   0  0  0  0  0
   -2.4239   12.9120   29.0240 H   0  0  0  0  0
   -5.5822   13.2960   28.4221 H   0  0  0  0  0
   -4.9281   12.7708   29.8862 H   0  0  0  0  0
  1  2  1  0  0  0
  2  3  4  0  0  0
  2  4  4  0  0  0
  3  7  4  0  0  0
  4  5  4  0  0  0
  5  6  4  0  0  0
  6  7  4  0  0  0
  7  8  1  0  0  0
  8  9  1  0  0  0
  8 21  1  0  0  0
  9 10  1  0  0  0
  9 17  2  0  0  0
 10 11  2  0  0  0
 10 12  1  0  0  0
 12 13  1  0  0  0
 13 14  1  0  0  0
 13 15  1  0  0  0
 13 16  1  0  0  0
 16 17  1  0  0  0
 17 18  1  0  0  0
 18 19  1  0  0  0
 19 20  1  0  0  0
 19 21  1  0  0  0
  1 22  1  0  0  0
  3 23  1  0  0  0
  4 24  1  0  0  0
  5 25  1  0  0  0
  6 26  1  0  0  0
  8 27  1  0  0  0
 12 28  1  0  0  0
 12 29  1  0  0  0
 14 30  1  0  0  0
 14 31  1  0  0  0
 14 32  1  0  0  0
 15 33  1  0  0  0
 15 34  1  0  0  0
 15 35  1  0  0  0
 16 36  1  0  0  0
 16 37  1  0  0  0
 18 38  1  0  0  0
 19 39  1  0  0  0
 20 40  1  0  0  0
 21 41  1  0  0  0
 21 42  1  0  0  0
M  END
$$$$
