6r0k_ligand
  -I-interpret- 

 33 34  0  0  0  0  0  0  0  0999 V2000
   -7.0800   25.2080   -5.7270 O   0  0  0  0  0
   -7.0290   26.1240   -4.8960 C   0  0  0  0  0
   -7.9240   26.2290   -3.9270 N   0  0  0  0  0
   -8.8080   25.1750   -3.7430 O   0  0  0  0  0
   -5.8820   27.0270   -4.7940 C   0  0  0  0  0
   -5.8010   28.2370   -4.0950 C   0  0  0  0  0
   -4.5300   28.6570   -4.2330 C   0  0  0  0  0
   -3.7890   29.8670   -3.7840 C   0  0  0  0  0
   -2.3030   29.6380   -3.5070 C   0  0  0  0  0
   -1.5280   29.3970   -4.7230 N   0  0  0  0  0
   -1.1600   30.3640   -5.5750 C   0  0  0  0  0
   -1.4280   31.5560   -5.3940 O   0  0  0  0  0
   -0.3560   29.9450   -6.7720 C   0  0  0  0  0
   -0.2960   30.7240   -7.9220 C   0  0  0  0  0
    0.4670   30.3280   -9.0110 C   0  0  0  0  0
    1.1810   29.1420   -8.9420 C   0  0  0  0  0
    2.1470   28.6300  -10.2870 Cl  0  0  0  0  0
    1.1230   28.3720   -7.7930 C   0  0  0  0  0
    2.0020   26.8920   -7.6710 Cl  0  0  0  0  0
    0.3630   28.7680   -6.7170 C   0  0  0  0  0
   -3.8560   27.7570   -4.9870 O   0  0  0  0  0
   -4.7280   26.7110   -5.3250 N   0  0  0  0  0
   -7.9630   27.0581   -3.3342 H   0  0  0  0  0
   -9.3989   25.3779   -3.0141 H   0  0  0  0  0
   -6.6026   28.7364   -3.5508 H   0  0  0  0  0
   -4.2417   30.1868   -2.8454 H   0  0  0  0  0
   -3.8531   30.5967   -4.5912 H   0  0  0  0  0
   -2.2145   28.7542   -2.8752 H   0  0  0  0  0
   -1.9099   30.5382   -3.0347 H   0  0  0  0  0
   -1.2516   28.4383   -4.9351 H   0  0  0  0  0
   -0.8558   31.6581   -7.9687 H   0  0  0  0  0
    0.5045   30.9425   -9.9105 H   0  0  0  0  0
    0.3285   28.1511   -5.8191 H   0  0  0  0  0
  1  2  2  0  0  0
  2  3  1  0  0  0
  2  5  1  0  0  0
  3  4  1  0  0  0
  5  6  4  0  0  0
  5 22  4  0  0  0
  6  7  4  0  0  0
  7  8  1  0  0  0
  7 21  4  0  0  0
  8  9  1  0  0  0
  9 10  1  0  0  0
 10 11  1  0  0  0
 11 12  2  0  0  0
 11 13  1  0  0  0
 13 14  4  0  0  0
 13 20  4  0  0  0
 14 15  4  0  0  0
 15 16  4  0  0  0
 16 17  1  0  0  0
 16 18  4  0  0  0
 18 19  1  0  0  0
 18 20  4  0  0  0
 21 22  4  0  0  0
  3 23  1  0  0  0
  4 24  1  0  0  0
  6 25  1  0  0  0
  8 26  1  0  0  0
  8 27  1  0  0  0
  9 28  1  0  0  0
  9 29  1  0  0  0
 10 30  1  0  0  0
 14 31  1  0  0  0
 15 32  1  0  0  0
 20 33  1  0  0  0
M  END
$$$$
