6g9f_ligand
  -I-interpret- 

 31 31  0  0  0  0  0  0  0  0999 V2000
   11.0040   38.5670   43.5520 O   0  0  0  0  0
   10.1390   37.8770   43.0580 C   0  0  0  0  0
    9.0560   37.5410   43.7280 N   0  0  0  0  0
    7.8480   36.9390   43.1930 C   0  0  0  0  0
    9.0640   37.7540   45.1700 C   0  0  0  0  0
    9.0640   36.4410   45.8940 C   0  0  0  0  0
    8.3980   36.3200   46.9030 O   0  0  0  0  0
    9.8130   35.4570   45.4010 N   0  0  0  0  0
    7.8620   38.6340   45.5300 C   0  0  0  0  0
    6.5740   38.1680   44.8640 C   0  0  0  0  0
    6.7710   37.9920   43.3720 C   0  0  0  0  0
    7.1810   39.2680   42.7500 N   0  3  0  0  0
    6.3130   40.2500   43.0950 O   0  0  0  0  0
    6.6690   41.7480   42.9400 S   0  0  0  0  0
    7.3770   42.2770   44.1290 O   0  0  0  0  0
    7.5910   41.9030   41.7930 O   0  0  0  0  0
    5.4100   42.5130   42.7260 O   0  0  0  0  0
   10.2603   37.5256   42.0334 H   0  0  0  0  0
    7.5962   36.0124   43.7089 H   0  0  0  0  0
    7.9668   36.6570   42.1468 H   0  0  0  0  0
    9.9725   38.2689   45.4823 H   0  0  0  0  0
    9.8444   34.5539   45.8741 H   0  0  0  0  0
   10.3554   35.6062   44.5502 H   0  0  0  0  0
    8.0716   39.6459   45.1833 H   0  0  0  0  0
    7.7193   38.5814   46.6093 H   0  0  0  0  0
    5.8016   38.9191   45.0298 H   0  0  0  0  0
    6.2829   37.2101   45.2949 H   0  0  0  0  0
    5.8435   37.6831   42.8899 H   0  0  0  0  0
    7.1829   39.1621   41.7355 H   0  0  0  0  0
    8.1154   39.5157   43.0755 H   0  0  0  0  0
    4.9541   42.1675   41.9550 H   0  0  0  0  0
  1  2  2  0  0  0
  2  3  1  0  0  0
  3  4  1  0  0  0
  3  5  1  0  0  0
  4 11  1  0  0  0
  5  6  1  0  0  0
  5  9  1  0  0  0
  6  7  2  0  0  0
  6  8  1  0  0  0
  9 10  1  0  0  0
 10 11  1  0  0  0
 11 12  1  0  0  0
 12 13  1  0  0  0
 13 14  1  0  0  0
 14 15  2  0  0  0
 14 16  2  0  0  0
 14 17  1  0  0  0
  2 18  1  0  0  0
  4 19  1  0  0  0
  4 20  1  0  0  0
  5 21  1  0  0  0
  8 22  1  0  0  0
  8 23  1  0  0  0
  9 24  1  0  0  0
  9 25  1  0  0  0
 10 26  1  0  0  0
 10 27  1  0  0  0
 11 28  1  0  0  0
 12 29  1  0  0  0
 12 30  1  0  0  0
 17 31  1  0  0  0
M  END
$$$$
