3zns_ligand
  -I-interpret- 

 62 66  0  0  0  0  0  0  0  0999 V2000
   -8.6360    6.4160  -21.3400 C   0  0  0  0  0
   -9.8630    6.1430  -20.5640 N   0  3  0  0  0
   -2.6060   -1.0940  -12.6540 F   0  0  0  0  0
   -3.7900   -1.4100  -12.1410 C   0  0  0  0  0
   -4.0880   -2.6420  -12.5280 F   0  0  0  0  0
   -3.7880   -1.3210  -10.8150 F   0  0  0  0  0
   -4.8300   -0.4430  -12.6230 C   0  0  0  0  0
   -5.9250   -0.7340  -13.3010 N   0  0  0  0  0
   -6.6180    0.4560  -13.5390 C   0  0  0  0  0
   -5.9340    1.4530  -13.0120 N   0  0  0  0  0
   -4.7880    0.9260  -12.4080 O   0  0  0  0  0
   -7.8800    0.5880  -14.2860 C   0  0  0  0  0
   -8.5900   -0.5500  -14.6850 C   0  0  0  0  0
   -9.7810   -0.4010  -15.4110 C   0  0  0  0  0
  -10.2540    0.8770  -15.7410 C   0  0  0  0  0
   -9.5370    2.0150  -15.3410 C   0  0  0  0  0
   -8.3440    1.8660  -14.6210 C   0  0  0  0  0
  -10.0240    3.3650  -15.7100 C   0  0  0  0  0
  -11.2330    3.6150  -15.7010 O   0  0  0  0  0
   -9.1200    4.2620  -16.1150 N   0  0  0  0  0
   -9.4850    5.5720  -16.6920 C   0  0  0  0  0
   -8.5790    5.8860  -17.8960 C   0  0  0  0  0
   -8.9700    7.2590  -18.5040 C   0  0  0  0  0
  -10.1020    7.1830  -19.5490 C   0  0  0  0  0
   -9.7920    4.8220  -19.9250 C   0  0  0  0  0
   -8.6180    4.7330  -18.9310 C   0  0  0  0  0
   -7.1650    5.9680  -17.3580 C   0  0  0  0  0
   -6.3800    4.9630  -16.9980 N   0  0  0  0  0
   -5.0930    5.2700  -16.5300 C   0  0  0  0  0
   -4.7760    6.5760  -16.4990 C   0  0  0  0  0
   -6.2070    7.4290  -17.0950 S   0  0  0  0  0
   -4.1380    4.2110  -16.0930 C   0  0  0  0  0
   -2.7500    4.4460  -16.0500 C   0  0  0  0  0
   -1.8680    3.4410  -15.6350 C   0  0  0  0  0
   -2.3600    2.1880  -15.2530 C   0  0  0  0  0
   -3.7380    1.9460  -15.2900 C   0  0  0  0  0
   -4.6250    2.9520  -15.7060 C   0  0  0  0  0
   -8.7337    7.3766  -21.8457 H   0  0  0  0  0
   -7.7800    6.4442  -20.6658 H   0  0  0  0  0
   -8.4922    5.6278  -22.0791 H   0  0  0  0  0
  -10.6457    6.1519  -21.2180 H   0  0  0  0  0
   -8.2205   -1.5442  -14.4337 H   0  0  0  0  0
  -10.3416   -1.2832  -15.7201 H   0  0  0  0  0
  -11.1784    0.9865  -16.3081 H   0  0  0  0  0
   -7.7761    2.7467  -14.3211 H   0  0  0  0  0
   -8.1309    4.0311  -16.0213 H   0  0  0  0  0
   -9.3575    6.3459  -15.9351 H   0  0  0  0  0
  -10.5234    5.5423  -17.0220 H   0  0  0  0  0
   -8.0881    7.6512  -19.0106 H   0  0  0  0  0
   -9.3266    7.8850  -17.6861 H   0  0  0  0  0
  -11.0264    6.9370  -19.0264 H   0  0  0  0  0
  -10.1544    8.1450  -20.0588 H   0  0  0  0  0
   -9.6423    4.0721  -20.7017 H   0  0  0  0  0
  -10.7195    4.6548  -19.3773 H   0  0  0  0  0
   -8.7354    3.8031  -18.3746 H   0  0  0  0  0
   -7.6975    4.7891  -19.5121 H   0  0  0  0  0
   -3.8338    7.0175  -16.1744 H   0  0  0  0  0
   -2.3585    5.4202  -16.3428 H   0  0  0  0  0
   -0.7957    3.6350  -15.6094 H   0  0  0  0  0
   -1.6743    1.4053  -14.9286 H   0  0  0  0  0
   -4.1250    0.9709  -14.9942 H   0  0  0  0  0
   -5.6968    2.7547  -15.7286 H   0  0  0  0  0
  2  1  1  0  0  0
 24  2  1  0  0  0
  2 25  1  0  0  0
  4  3  1  0  0  0
  4  5  1  0  0  0
  4  6  1  0  0  0
  7  4  1  0  0  0
  8  7  4  0  0  0
 11  7  4  0  0  0
  9  8  4  0  0  0
  9 10  4  0  0  0
 12  9  1  0  0  0
 10 11  4  0  0  0
 12 13  4  0  0  0
 17 12  4  0  0  0
 14 13  4  0  0  0
 15 14  4  0  0  0
 16 15  4  0  0  0
 16 17  4  0  0  0
 18 16  1  0  0  0
 18 19  2  0  0  0
 20 18  1  0  0  0
 21 20  1  0  0  0
 22 21  1  0  0  0
 23 22  1  0  0  0
 22 26  1  0  0  0
 22 27  1  0  0  0
 23 24  1  0  0  0
 25 26  1  0  0  0
 27 28  4  0  0  0
 27 31  4  0  0  0
 28 29  4  0  0  0
 29 30  4  0  0  0
 29 32  1  0  0  0
 30 31  4  0  0  0
 32 33  4  0  0  0
 32 37  4  0  0  0
 33 34  4  0  0  0
 34 35  4  0  0  0
 35 36  4  0  0  0
 36 37  4  0  0  0
  1 38  1  0  0  0
  1 39  1  0  0  0
  1 40  1  0  0  0
  2 41  1  0  0  0
 13 42  1  0  0  0
 14 43  1  0  0  0
 15 44  1  0  0  0
 17 45  1  0  0  0
 20 46  1  0  0  0
 21 47  1  0  0  0
 21 48  1  0  0  0
 23 49  1  0  0  0
 23 50  1  0  0  0
 24 51  1  0  0  0
 24 52  1  0  0  0
 25 53  1  0  0  0
 25 54  1  0  0  0
 26 55  1  0  0  0
 26 56  1  0  0  0
 30 57  1  0  0  0
 33 58  1  0  0  0
 34 59  1  0  0  0
 35 60  1  0  0  0
 36 61  1  0  0  0
 37 62  1  0  0  0
M  END
$$$$
