3l1n_ligand
  -I-interpret- 

 50 49  0  0  0  0  0  0  0  0999 V2000
    8.0240   16.1360   37.0170 C   0  0  0  0  0
    8.8030   15.2590   37.4570 O   0  0  0  0  0
    8.3200   16.7100   35.9460 O   0  0  0  0  0
    6.7390   16.4880   37.7360 C   0  0  0  0  0
    6.9460   16.6960   39.2350 C   0  0  0  0  0
    5.6200   17.0240   39.9190 C   0  0  0  0  0
    5.7750   17.3450   41.4050 C   0  0  0  0  0
    5.4300   16.1420   42.2780 C   0  0  0  0  0
    5.2610   16.5080   43.7500 C   0  0  0  0  0
    5.1260   15.2610   44.6200 C   0  0  0  0  0
    5.2690   15.5870   46.1040 C   0  0  0  0  0
    4.6520   14.5100   46.9900 C   0  0  0  0  0
    4.7630   14.8790   48.4690 C   0  0  0  0  0
    3.5780   15.7180   48.9460 C   0  0  0  0  0
    2.5850   14.8820   49.7490 C   0  0  0  0  0
    1.3630   15.6860   50.1790 C   0  0  0  0  0
    0.4470   14.8510   51.0670 C   0  0  0  0  0
   -0.7340   15.6630   51.5840 C   0  0  0  0  0
    8.4539   14.9056   38.2785 H   0  0  0  0  0
    6.0422   15.6602   37.6043 H   0  0  0  0  0
    6.3630   17.4208   37.3157 H   0  0  0  0  0
    7.6362   17.5262   39.3849 H   0  0  0  0  0
    7.3497   15.7802   39.6668 H   0  0  0  0  0
    4.9782   16.1470   39.8349 H   0  0  0  0  0
    5.2051   17.9061   39.4312 H   0  0  0  0  0
    5.0939   18.1585   41.6546 H   0  0  0  0  0
    6.8131   17.6198   41.5917 H   0  0  0  0  0
    6.2513   15.4292   42.2036 H   0  0  0  0  0
    4.4830   15.7340   41.9248 H   0  0  0  0  0
    4.3556   17.1054   43.8571 H   0  0  0  0  0
    6.1421   17.0625   44.0729 H   0  0  0  0  0
    5.9173   14.5638   44.3446 H   0  0  0  0  0
    4.1361   14.8349   44.4567 H   0  0  0  0  0
    4.7493   16.5254   46.2976 H   0  0  0  0  0
    6.3318   15.6513   46.3371 H   0  0  0  0  0
    5.1869   13.5749   46.8240 H   0  0  0  0  0
    3.5969   14.4121   46.7345 H   0  0  0  0  0
    5.6708   15.4670   48.6043 H   0  0  0  0  0
    4.7795   13.9558   49.0483 H   0  0  0  0  0
    3.0643   16.1171   48.0714 H   0  0  0  0  0
    3.9557   16.5143   49.5873 H   0  0  0  0  0
    3.0903   14.5294   50.6481 H   0  0  0  0  0
    2.2442   14.0628   49.1159 H   0  0  0  0  0
    0.8100   15.9861   49.2889 H   0  0  0  0  0
    1.6972   16.5577   50.7417 H   0  0  0  0  0
    1.0244   14.5028   51.9234 H   0  0  0  0  0
    0.0596   14.0214   50.4755 H   0  0  0  0  0
   -0.3656   16.5062   52.1683 H   0  0  0  0  0
   -1.3173   16.0313   50.7401 H   0  0  0  0  0
   -1.3611   15.0303   52.2122 H   0  0  0  0  0
  1  2  1  0  0  0
  1  3  2  0  0  0
  1  4  1  0  0  0
  4  5  1  0  0  0
  5  6  1  0  0  0
  6  7  1  0  0  0
  7  8  1  0  0  0
  8  9  1  0  0  0
  9 10  1  0  0  0
 10 11  1  0  0  0
 11 12  1  0  0  0
 12 13  1  0  0  0
 13 14  1  0  0  0
 14 15  1  0  0  0
 15 16  1  0  0  0
 16 17  1  0  0  0
 17 18  1  0  0  0
  2 19  1  0  0  0
  4 20  1  0  0  0
  4 21  1  0  0  0
  5 22  1  0  0  0
  5 23  1  0  0  0
  6 24  1  0  0  0
  6 25  1  0  0  0
  7 26  1  0  0  0
  7 27  1  0  0  0
  8 28  1  0  0  0
  8 29  1  0  0  0
  9 30  1  0  0  0
  9 31  1  0  0  0
 10 32  1  0  0  0
 10 33  1  0  0  0
 11 34  1  0  0  0
 11 35  1  0  0  0
 12 36  1  0  0  0
 12 37  1  0  0  0
 13 38  1  0  0  0
 13 39  1  0  0  0
 14 40  1  0  0  0
 14 41  1  0  0  0
 15 42  1  0  0  0
 15 43  1  0  0  0
 16 44  1  0  0  0
 16 45  1  0  0  0
 17 46  1  0  0  0
 17 47  1  0  0  0
 18 48  1  0  0  0
 18 49  1  0  0  0
 18 50  1  0  0  0
M  END
$$$$
