5tzd_ligand
  -I-interpret- 

 70 76  0  0  0  0  0  0  0  0999 V2000
  -33.6860   13.4350   -2.9750 P   0  0  0  0  0
  -32.4050   13.8790   -3.6620 O   0  0  0  0  0
  -33.7920   14.0140   -1.6060 O   0  0  0  0  0
  -33.8170   11.9080   -2.9330 O   0  0  0  0  0
  -33.5580   11.1970   -4.0640 C   0  0  0  0  0
  -34.1930    9.8320   -4.0510 C   0  0  0  0  0
  -33.7040    9.0350   -2.9820 O   0  0  0  0  0
  -35.7130    9.8710   -3.8370 C   0  0  0  0  0
  -36.3960   10.0740   -5.0670 O   0  0  0  0  0
  -35.7660    8.5080   -3.4450 C   0  0  0  0  0
  -35.8560    7.4220   -4.3540 O   0  0  0  0  0
  -34.7340    8.2260   -2.5000 C   0  0  0  0  0
  -34.8070    8.6560   -1.0640 N   0  0  0  0  0
  -34.3050    9.7230   -0.4370 C   0  0  0  0  0
  -34.5320    9.7000    0.7750 N   0  0  0  0  0
  -35.2080    8.6030    1.1220 C   0  0  0  0  0
  -35.7240    8.0150    2.2690 C   0  0  0  0  0
  -35.6310    8.5940    3.4620 O   0  0  0  0  0
  -36.3790    6.8290    2.1720 N   0  0  0  0  0
  -36.5150    6.1760    0.9810 C   0  0  0  0  0
  -37.2280    4.8990    0.9730 N   0  0  0  0  0
  -36.0790    6.6750   -0.1740 N   0  0  0  0  0
  -35.4060    7.8370   -0.1040 C   0  0  0  0  0
  -37.9530   10.5020   -4.9750 P   0  0  0  0  0
  -38.3160   10.4390   -6.4340 O   0  0  0  0  0
  -38.6220    9.5720   -4.0550 O   0  0  0  0  0
  -38.0050   11.9460   -4.4530 O   0  0  0  0  0
  -37.4320   12.9400   -5.2660 C   0  0  0  0  0
  -37.0770   14.2010   -4.5240 C   0  0  0  0  0
  -38.3180   14.7730   -3.9290 O   0  0  0  0  0
  -36.1490   14.0140   -3.3720 C   0  0  0  0  0
  -34.8630   14.0630   -3.8750 O   0  0  0  0  0
  -36.5210   15.1450   -2.4760 C   0  0  0  0  0
  -36.0170   16.3590   -2.8640 O   0  0  0  0  0
  -38.0230   15.2440   -2.6620 C   0  0  0  0  0
  -38.7790   14.4760   -1.6930 N   0  0  0  0  0
  -39.3770   13.3200   -1.8150 C   0  0  0  0  0
  -39.9410   12.9390   -0.7530 N   0  0  0  0  0
  -39.8020   13.7940    0.2490 C   0  0  0  0  0
  -40.1740   13.9610    1.6060 C   0  0  0  0  0
  -40.8830   13.0810    2.2780 O   0  0  0  0  0
  -39.7730   15.0760    2.2700 N   0  0  0  0  0
  -39.0580   16.0120    1.6460 C   0  0  0  0  0
  -38.6260   17.1850    2.3230 N   0  0  0  0  0
  -38.6630   15.9450    0.3690 N   0  0  0  0  0
  -39.0250   14.8600   -0.3340 C   0  0  0  0  0
  -32.3632   13.4922   -4.5396 H   0  0  0  0  0
  -32.4786   11.0631   -4.1351 H   0  0  0  0  0
  -33.9702   11.7496   -4.9083 H   0  0  0  0  0
  -33.9450    9.4211   -5.0297 H   0  0  0  0  0
  -36.1383   10.6304   -3.1808 H   0  0  0  0  0
  -36.7897    8.5116   -3.0708 H   0  0  0  0  0
  -35.8782    6.5969   -3.8638 H   0  0  0  0  0
  -34.6996    7.1378   -2.4483 H   0  0  0  0  0
  -33.7581   10.5216   -0.9383 H   0  0  0  0  0
  -36.7807    6.4145    3.0130 H   0  0  0  0  0
  -37.3834    4.4072    0.0930 H   0  0  0  0  0
  -37.5698    4.5002    1.8474 H   0  0  0  0  0
  -37.8091   11.0955   -6.9174 H   0  0  0  0  0
  -38.1691   13.2052   -6.0239 H   0  0  0  0  0
  -36.5077   12.5324   -5.6755 H   0  0  0  0  0
  -36.5897   14.8337   -5.2658 H   0  0  0  0  0
  -36.2090   13.0733   -2.8246 H   0  0  0  0  0
  -36.1484   14.9531   -1.4698 H   0  0  0  0  0
  -36.2974   17.0342   -2.2419 H   0  0  0  0  0
  -38.3077   16.2870   -2.5232 H   0  0  0  0  0
  -39.3872   12.7439   -2.7403 H   0  0  0  0  0
  -40.0205   15.1978    3.2520 H   0  0  0  0  0
  -38.0665   17.8813    1.8305 H   0  0  0  0  0
  -38.8756   17.3304    3.3013 H   0  0  0  0  0
  1  2  1  0  0  0
  1  3  2  0  0  0
  1  4  1  0  0  0
  1 32  1  0  0  0
  4  5  1  0  0  0
  5  6  1  0  0  0
  6  7  1  0  0  0
  6  8  1  0  0  0
  7 12  1  0  0  0
  8  9  1  0  0  0
  8 10  1  0  0  0
  9 24  1  0  0  0
 10 11  1  0  0  0
 10 12  1  0  0  0
 12 13  1  0  0  0
 13 14  4  0  0  0
 13 23  4  0  0  0
 14 15  4  0  0  0
 15 16  4  0  0  0
 16 17  1  0  0  0
 16 23  4  0  0  0
 17 18  2  0  0  0
 17 19  1  0  0  0
 19 20  1  0  0  0
 20 21  1  0  0  0
 20 22  2  0  0  0
 22 23  1  0  0  0
 24 25  1  0  0  0
 24 26  2  0  0  0
 24 27  1  0  0  0
 27 28  1  0  0  0
 28 29  1  0  0  0
 29 30  1  0  0  0
 29 31  1  0  0  0
 30 35  1  0  0  0
 31 32  1  0  0  0
 31 33  1  0  0  0
 33 34  1  0  0  0
 33 35  1  0  0  0
 35 36  1  0  0  0
 36 37  4  0  0  0
 36 46  4  0  0  0
 37 38  4  0  0  0
 38 39  4  0  0  0
 39 40  1  0  0  0
 39 46  4  0  0  0
 40 41  2  0  0  0
 40 42  1  0  0  0
 42 43  1  0  0  0
 43 44  1  0  0  0
 43 45  2  0  0  0
 45 46  1  0  0  0
  2 47  1  0  0  0
  5 48  1  0  0  0
  5 49  1  0  0  0
  6 50  1  0  0  0
  8 51  1  0  0  0
 10 52  1  0  0  0
 11 53  1  0  0  0
 12 54  1  0  0  0
 14 55  1  0  0  0
 19 56  1  0  0  0
 21 57  1  0  0  0
 21 58  1  0  0  0
 25 59  1  0  0  0
 28 60  1  0  0  0
 28 61  1  0  0  0
 29 62  1  0  0  0
 31 63  1  0  0  0
 33 64  1  0  0  0
 34 65  1  0  0  0
 35 66  1  0  0  0
 37 67  1  0  0  0
 42 68  1  0  0  0
 44 69  1  0  0  0
 44 70  1  0  0  0
M  END
$$$$
