### 
### Created by X-TOOL on Mon Sep 10 21:13:33 2018
### 

@<TRIPOS>MOLECULE
5tzd_ligand
   68    74     1     0     0
SMALL
GAST_HUCK


@<TRIPOS>ATOM
      1 P1        -33.6860   13.4350   -2.9750 P.3       1 C2E         0.2557
      2 O2P       -32.4050   13.8790   -3.6620 O.co2     1 C2E        -0.6177
      3 O1P       -33.7920   14.0140   -1.6060 O.co2     1 C2E        -0.6177
      4 O5'       -33.8170   11.9080   -2.9330 O.3       1 C2E        -0.2514
      5 C5'       -33.5580   11.1970   -4.0640 C.3       1 C2E         0.1128
      6 C4'       -34.1930    9.8320   -4.0510 C.3       1 C2E         0.1242
      7 O4'       -33.7040    9.0350   -2.9820 O.3       1 C2E        -0.3359
      8 C3'       -35.7130    9.8710   -3.8370 C.3       1 C2E         0.1540
      9 O3'       -36.3960   10.0740   -5.0670 O.3       1 C2E        -0.2453
     10 C2'       -35.7660    8.5080   -3.4450 C.3       1 C2E         0.1440
     11 O2'       -35.8560    7.4220   -4.3540 O.3       1 C2E        -0.3832
     12 C1'       -34.7340    8.2260   -2.5000 C.3       1 C2E         0.1996
     13 N9        -34.8070    8.6560   -1.0640 N.pl3     1 C2E        -0.2101
     14 C8        -34.3050    9.7230   -0.4370 C.2       1 C2E         0.0957
     15 N7        -34.5320    9.7000    0.7750 N.2       1 C2E        -0.3235
     16 C5        -35.2080    8.6030    1.1220 C.2       1 C2E         0.0926
     17 C6        -35.7240    8.0150    2.2690 C.2       1 C2E         0.2135
     18 O6        -35.6310    8.5940    3.4620 O.2       1 C2E        -0.4091
     19 N1        -36.3790    6.8290    2.1720 N.am      1 C2E        -0.1839
     20 C2        -36.5150    6.1760    0.9810 C.2       1 C2E         0.2340
     21 N2        -37.2280    4.8990    0.9730 N.pl3     1 C2E        -0.2807
     22 N3        -36.0790    6.6750   -0.1740 N.2       1 C2E        -0.2765
     23 C4        -35.4060    7.8370   -0.1040 C.2       1 C2E         0.1159
     24 P11       -37.9530   10.5020   -4.9750 P.3       1 C2E         0.2557
     25 O21       -38.3160   10.4390   -6.4340 O.co2     1 C2E        -0.6177
     26 O11       -38.6220    9.5720   -4.0550 O.co2     1 C2E        -0.6177
     27 O5A       -38.0050   11.9460   -4.4530 O.3       1 C2E        -0.2514
     28 C5A       -37.4320   12.9400   -5.2660 C.3       1 C2E         0.1128
     29 C4A       -37.0770   14.2010   -4.5240 C.3       1 C2E         0.1242
     30 O4A       -38.3180   14.7730   -3.9290 O.3       1 C2E        -0.3359
     31 C3A       -36.1490   14.0140   -3.3720 C.3       1 C2E         0.1540
     32 O3A       -34.8630   14.0630   -3.8750 O.3       1 C2E        -0.2453
     33 C2A       -36.5210   15.1450   -2.4760 C.3       1 C2E         0.1440
     34 O2A       -36.0170   16.3590   -2.8640 O.3       1 C2E        -0.3832
     35 C1A       -38.0230   15.2440   -2.6620 C.3       1 C2E         0.1996
     36 N91       -38.7790   14.4760   -1.6930 N.pl3     1 C2E        -0.2101
     37 C81       -39.3770   13.3200   -1.8150 C.2       1 C2E         0.0957
     38 N71       -39.9410   12.9390   -0.7530 N.2       1 C2E        -0.3235
     39 C51       -39.8020   13.7940    0.2490 C.2       1 C2E         0.0926
     40 C61       -40.1740   13.9610    1.6060 C.2       1 C2E         0.2135
     41 O61       -40.8830   13.0810    2.2780 O.2       1 C2E        -0.4091
     42 N11       -39.7730   15.0760    2.2700 N.am      1 C2E        -0.1839
     43 C21       -39.0580   16.0120    1.6460 C.2       1 C2E         0.2340
     44 N21       -38.6260   17.1850    2.3230 N.pl3     1 C2E        -0.2807
     45 N31       -38.6630   15.9450    0.3690 N.2       1 C2E        -0.2765
     46 C41       -39.0250   14.8600   -0.3340 C.2       1 C2E         0.1159
     47 H1        -32.4690   11.0774   -4.1628 H         1 C2E         0.0647
     48 H2        -33.9453   11.7569   -4.9280 H         1 C2E         0.0647
     49 H3        -33.9708    9.3437   -5.0113 H         1 C2E         0.0655
     50 H4        -36.0522   10.5841   -3.0712 H         1 C2E         0.0712
     51 H5        -36.7124    8.4488   -2.8875 H         1 C2E         0.0681
     52 H6        -35.8780    6.6055   -3.8689 H         1 C2E         0.2102
     53 H7        -34.5006    7.1517   -2.5370 H         1 C2E         0.0998
     54 H8        -33.7586   10.5208   -0.9379 H         1 C2E         0.1179
     55 H9        -36.7728    6.4227    2.9965 H         1 C2E         0.2515
     56 H10       -37.3476    4.3815    0.0905 H         1 C2E         0.1897
     57 H11       -37.6105    4.5172    1.8498 H         1 C2E         0.1897
     58 H12       -38.1494   13.1950   -6.0599 H         1 C2E         0.0647
     59 H13       -36.5150   12.5332   -5.7172 H         1 C2E         0.0647
     60 H14       -36.6301   14.9099   -5.2365 H         1 C2E         0.0655
     61 H15       -36.3086   13.0521   -2.8629 H         1 C2E         0.0712
     62 H16       -36.2371   14.9294   -1.4354 H         1 C2E         0.0681
     63 H17       -35.0681   16.3161   -2.8801 H         1 C2E         0.2102
     64 H18       -38.3205   16.2998   -2.5797 H         1 C2E         0.0998
     65 H19       -39.3872   12.7445   -2.7394 H         1 C2E         0.1179
     66 H20       -40.0156   15.1954    3.2327 H         1 C2E         0.2515
     67 H21       -38.0743   17.8955    1.8213 H         1 C2E         0.1897
     68 H22       -38.8647   17.3244    3.3152 H         1 C2E         0.1897
@<TRIPOS>BOND
     1    1    2 ar 
     2    1    3 ar 
     3    1    4 1  
     4    1   32 1  
     5    4    5 1  
     6    5    6 1  
     7    6    7 1  
     8    6    8 1  
     9    7   12 1  
    10    8    9 1  
    11    8   10 1  
    12    9   24 1  
    13   10   11 1  
    14   10   12 1  
    15   12   13 1  
    16   13   14 1  
    17   13   23 1  
    18   14   15 2  
    19   15   16 1  
    20   16   17 1  
    21   16   23 2  
    22   17   18 2  
    23   17   19 am 
    24   19   20 am 
    25   20   21 1  
    26   20   22 2  
    27   22   23 1  
    28   24   25 ar 
    29   24   26 ar 
    30   24   27 1  
    31   27   28 1  
    32   28   29 1  
    33   29   30 1  
    34   29   31 1  
    35   30   35 1  
    36   31   32 1  
    37   31   33 1  
    38   33   34 1  
    39   33   35 1  
    40   35   36 1  
    41   36   37 1  
    42   36   46 1  
    43   37   38 2  
    44   38   39 1  
    45   39   40 1  
    46   39   46 2  
    47   40   41 2  
    48   40   42 am 
    49   42   43 am 
    50   43   44 1  
    51   43   45 2  
    52   45   46 1  
    53    5   47 1  
    54    5   48 1  
    55    6   49 1  
    56    8   50 1  
    57   10   51 1  
    58   11   52 1  
    59   12   53 1  
    60   14   54 1  
    61   19   55 1  
    62   21   56 1  
    63   21   57 1  
    64   28   58 1  
    65   28   59 1  
    66   29   60 1  
    67   31   61 1  
    68   33   62 1  
    69   34   63 1  
    70   35   64 1  
    71   37   65 1  
    72   42   66 1  
    73   44   67 1  
    74   44   68 1  
@<TRIPOS>SUBSTRUCTURE
     1 C2E         1

