4cd5_ligand
  -I-interpret- 

 47 49  0  0  0  0  0  0  0  0999 V2000
  -12.0880  -20.3130   15.2340 C   0  0  0  0  0
  -13.2040  -19.9120   16.1850 C   0  0  0  0  0
  -12.7140  -20.0380   17.6250 C   0  0  0  0  0
  -12.2470  -21.4560   17.8960 C   0  0  0  0  0
  -11.2380  -21.8910   16.8300 C   0  0  0  0  0
  -10.8720  -23.3690   16.9470 C   0  0  0  0  0
  -14.3590  -20.7180   15.9870 O   0  0  0  0  0
  -13.7850  -19.6670   18.5060 O   0  0  0  0  0
  -11.6810  -21.5590   19.2030 O   0  0  0  0  0
  -11.7440  -21.6750   15.5070 O   0  0  0  0  0
  -12.0150  -24.2020   16.7850 O   0  0  0  0  0
  -10.6770  -20.4450   10.3360 C   0  0  0  0  0
  -11.6490  -19.5660   10.5460 N   0  0  0  0  0
  -10.6150  -21.1020   12.7080 C   0  0  0  0  0
  -11.6880  -20.0100   12.8790 C   0  0  0  0  0
  -12.5960  -19.7830   11.6560 C   0  0  0  0  0
  -13.5730  -18.6330   11.8040 C   0  0  0  0  0
  -10.5050  -18.8420    8.8370 C   0  0  0  0  0
  -11.5910  -18.5630    9.6340 C   0  0  0  0  0
   -9.9790  -20.0210    9.2710 N   0  0  0  0  0
   -9.3420  -20.5540   13.1100 O   0  0  0  0  0
   -9.3660  -22.3650   11.0210 O   0  0  0  0  0
  -12.5650  -20.2690   13.9700 O   0  0  0  0  0
  -10.5590  -21.6210   11.2870 C   0  0  0  0  0
  -12.9580  -17.3870   12.1770 O   0  0  0  0  0
  -11.2313  -19.6499   15.3541 H   0  0  0  0  0
  -13.4796  -18.8770   15.9825 H   0  0  0  0  0
  -11.8656  -19.3748   17.7939 H   0  0  0  0  0
  -13.1084  -22.1223   17.8495 H   0  0  0  0  0
  -10.3521  -21.2799   17.0025 H   0  0  0  0  0
  -10.4537  -23.5444   17.9381 H   0  0  0  0  0
  -10.1539  -23.6107   16.1634 H   0  0  0  0  0
  -14.6572  -20.6303   15.0787 H   0  0  0  0  0
  -14.0599  -18.7677   18.3128 H   0  0  0  0  0
  -12.3297  -21.2819   19.8542 H   0  0  0  0  0
  -11.7527  -25.1221   16.8637 H   0  0  0  0  0
  -10.8697  -21.9555   13.3364 H   0  0  0  0  0
  -11.0793  -19.1212   13.0449 H   0  0  0  0  0
  -13.2565  -20.6358   11.4993 H   0  0  0  0  0
  -14.2693  -18.9006   12.5988 H   0  0  0  0  0
  -14.0450  -18.4827   10.8330 H   0  0  0  0  0
  -10.1346  -18.2332    8.0122 H   0  0  0  0  0
  -12.2661  -17.7113    9.5501 H   0  0  0  0  0
   -8.6608  -21.2229   13.0094 H   0  0  0  0  0
   -9.3083  -23.1039   11.6312 H   0  0  0  0  0
  -11.3895  -22.3119   11.1416 H   0  0  0  0  0
  -13.6327  -16.7082   12.2519 H   0  0  0  0  0
  1  2  1  0  0  0
  1 10  1  0  0  0
 23  1  1  0  0  0
  2  3  1  0  0  0
  2  7  1  0  0  0
  3  4  1  0  0  0
  3  8  1  0  0  0
  5  4  1  0  0  0
  4  9  1  0  0  0
  5  6  1  0  0  0
 10  5  1  0  0  0
  6 11  1  0  0  0
 13 12  4  0  0  0
 12 20  4  0  0  0
 24 12  1  0  0  0
 16 13  1  0  0  0
 13 19  4  0  0  0
 15 14  1  0  0  0
 14 21  1  0  0  0
 14 24  1  0  0  0
 15 16  1  0  0  0
 15 23  1  0  0  0
 16 17  1  0  0  0
 17 25  1  0  0  0
 19 18  4  0  0  0
 18 20  4  0  0  0
 24 22  1  0  0  0
  1 26  1  0  0  0
  2 27  1  0  0  0
  3 28  1  0  0  0
  4 29  1  0  0  0
  5 30  1  0  0  0
  6 31  1  0  0  0
  6 32  1  0  0  0
  7 33  1  0  0  0
  8 34  1  0  0  0
  9 35  1  0  0  0
 11 36  1  0  0  0
 14 37  1  0  0  0
 15 38  1  0  0  0
 16 39  1  0  0  0
 17 40  1  0  0  0
 17 41  1  0  0  0
 18 42  1  0  0  0
 19 43  1  0  0  0
 21 44  1  0  0  0
 22 45  1  0  0  0
 24 46  1  0  0  0
 25 47  1  0  0  0
M  END
$$$$
