### 
### Created by X-TOOL on Mon Sep 10 21:12:50 2018
### 

@<TRIPOS>MOLECULE
1ox9_ligand
  109   109     1     0     0
SMALL
GAST_HUCK


@<TRIPOS>ATOM
      1 N          14.8000  -11.7210   47.7650 N.4       1 ALA         0.2377
      2 CA         13.4880  -11.5360   47.0890 C.3       1 ALA         0.0621
      3 C          13.6510  -11.6380   45.5700 C.2       1 ALA         0.2264
      4 O          14.7630  -11.7860   45.0570 O.2       1 ALA        -0.3907
      5 CB         12.8950  -10.1810   47.4740 C.3       1 ALA        -0.0040
      6 N          12.5340  -11.5540   44.8570 N.am      1 ALA        -0.2613
      7 CA         12.5390  -11.6450   43.4120 C.3       1 ALA         0.1283
      8 C          13.1930  -10.4350   42.7910 C.2       1 ALA         0.2037
      9 O          13.8830  -10.5580   41.7860 O.2       1 ALA        -0.3944
     10 CB         11.1280  -11.7840   42.9040 C.3       1 ALA        -0.0244
     11 N          12.9760   -9.2660   43.3780 N.am      1 ASN        -0.2616
     12 CA         13.5650   -8.0380   42.8500 C.3       1 ASN         0.1476
     13 C          14.8970   -7.7500   43.5210 C.2       1 ASN         0.2063
     14 O          15.1710   -8.2800   44.6010 O.2       1 ASN        -0.3942
     15 CB         12.6200   -6.8570   43.0640 C.3       1 ASN         0.0773
     16 CG         12.2050   -6.6950   44.5160 C.2       1 ASN         0.1780
     17 OD1        11.7080   -7.6330   45.1390 O.2       1 ASN        -0.3970
     18 ND2        12.3990   -5.4990   45.0580 N.am      1 ASN        -0.3007
     19 N          15.7190   -6.9050   42.8970 N.am      1 ASP        -0.2620
     20 CA         17.0380   -6.5660   43.4520 C.3       1 ASP         0.1423
     21 C          16.9800   -5.6770   44.7100 C.2       1 ASP         0.2056
     22 O          15.9640   -5.0410   44.9930 O.2       1 ASP        -0.3943
     23 CB         17.9060   -5.8970   42.3720 C.3       1 ASP         0.0406
     24 CG         18.0020   -6.7310   41.0930 C.2       1 ASP         0.0393
     25 OD1        18.0970   -7.9730   41.2090 O.co2     1 ASP        -0.5688
     26 OD2        17.9890   -6.1480   39.9760 O.co2     1 ASP        -0.5688
     27 N          18.0740   -5.6310   45.4580 N.am      1 GLU        -0.2635
     28 CA         18.1260   -4.8250   46.6700 C.3       1 GLU         0.1325
     29 C          18.1220   -3.3130   46.4600 C.2       1 GLU         0.2041
     30 O          17.7180   -2.5760   47.3390 O.2       1 GLU        -0.3944
     31 CB         19.3590   -5.2050   47.4840 C.3       1 GLU        -0.0008
     32 CG         19.2790   -6.5760   48.1140 C.3       1 GLU         0.0044
     33 CD         18.2300   -6.6410   49.1990 C.2       1 GLU         0.0350
     34 OE1        18.3980   -5.9390   50.2250 O.co2     1 GLU        -0.5690
     35 OE2        17.2430   -7.3910   49.0220 O.co2     1 GLU        -0.5690
     36 N          18.5820   -2.8460   45.3080 N.am      1 ASN        -0.2616
     37 CA         18.6280   -1.4100   45.0520 C.3       1 ASN         0.1476
     38 C          18.0370   -1.0090   43.7110 C.2       1 ASN         0.2064
     39 O          18.3930   -1.5670   42.6740 O.2       1 ASN        -0.3942
     40 CB         20.0690   -0.9090   45.1210 C.3       1 ASN         0.0773
     41 CG         20.6570   -1.0180   46.5150 C.2       1 ASN         0.1780
     42 OD1        20.3120   -0.2400   47.4040 O.2       1 ASN        -0.3970
     43 ND2        21.5380   -1.9960   46.7170 N.am      1 ASN        -0.3007
     44 N          17.1200   -0.0460   43.7550 N.am      1 TYR        -0.2620
     45 CA         16.4800    0.4910   42.5660 C.3       1 TYR         0.1390
     46 C          17.2420    1.7850   42.2430 C.2       1 TYR         0.2052
     47 O          16.6920    2.7310   41.6970 O.2       1 TYR        -0.3943
     48 CB         15.0000    0.7860   42.8480 C.3       1 TYR         0.0163
     49 CG         14.2090    1.2880   41.6480 C.ar      1 TYR        -0.0493
     50 CD1        13.9090    0.4440   40.5820 C.ar      1 TYR        -0.0685
     51 CD2        13.7840    2.6160   41.5720 C.ar      1 TYR        -0.0685
     52 CE1        13.2060    0.9080   39.4660 C.ar      1 TYR        -0.0398
     53 CE2        13.0850    3.0890   40.4640 C.ar      1 TYR        -0.0398
     54 CZ         12.7990    2.2310   39.4130 C.ar      1 TYR         0.0805
     55 OH         12.1160    2.6910   38.3110 O.3       1 TYR        -0.3376
     56 N          18.5190    1.8220   42.6060 N.am      1 ALA        -0.2696
     57 CA         19.3720    2.9850   42.3510 C.3       1 ALA         0.0916
     58 C          19.7160    3.1000   40.8600 C.2       1 ALA         0.0598
     59 O          20.9280    3.0680   40.5180 O.co2     1 ALA        -0.5666
     60 CB         20.6610    2.8720   43.1720 C.3       1 ALA        -0.0300
     61 OXT        18.7650    3.2210   40.0540 O.co2     1 ALA        -0.5666
     62 H1         14.6765  -11.6513   48.7630 H         1 ALA         0.2015
     63 H2         15.4412  -11.0076   47.4551 H         1 ALA         0.2015
     64 H3         15.1713  -12.6295   47.5351 H         1 ALA         0.2015
     65 H4         12.8030  -12.3293   47.4227 H         1 ALA         0.1095
     66 H5         11.9253  -10.0491   46.9717 H         1 ALA         0.0310
     67 H6         13.5808   -9.3790   47.1634 H         1 ALA         0.0310
     68 H7         12.7520  -10.1396   48.5639 H         1 ALA         0.0310
     69 H8         11.6637  -11.4241   45.3320 H         1 ALA         0.1884
     70 H9         13.1100  -12.5387   43.1201 H         1 ALA         0.0797
     71 H10        11.1387  -11.8526   41.8062 H         1 ALA         0.0277
     72 H11        10.5397  -10.9066   43.2108 H         1 ALA         0.0277
     73 H12        10.6751  -12.6943   43.3239 H         1 ALA         0.0277
     74 H13        12.4003   -9.2244   44.1946 H         1 ASN         0.1885
     75 H14        13.7332   -8.1662   41.7705 H         1 ASN         0.0826
     76 H15        11.7173   -7.0136   42.4553 H         1 ASN         0.0551
     77 H16        13.1270   -5.9368   42.7380 H         1 ASN         0.0551
     78 H17        12.1444   -5.3347   46.0110 H         1 ASN         0.1814
     79 H18        12.7997   -4.7623   44.5133 H         1 ASN         0.1814
     80 H19        15.4319   -6.4927   42.0323 H         1 ASP         0.1884
     81 H20        17.5225   -7.5100   43.7420 H         1 ASP         0.0819
     82 H21        18.9193   -5.7519   42.7746 H         1 ASP         0.0478
     83 H22        17.4670   -4.9197   42.1229 H         1 ASP         0.0478
     84 H23        18.8779   -6.1593   45.1849 H         1 GLU         0.1883
     85 H24        17.2312   -5.0729   47.2598 H         1 GLU         0.0801
     86 H25        19.4870   -4.4627   48.2856 H         1 GLU         0.0330
     87 H26        20.2344   -5.1805   46.8183 H         1 GLU         0.0330
     88 H27        20.2576   -6.8234   48.5512 H         1 GLU         0.0433
     89 H28        19.0293   -7.3108   47.3345 H         1 GLU         0.0433
     90 H29        18.9008   -3.4841   44.6072 H         1 ASN         0.1885
     91 H30        18.0450   -0.9123   45.8409 H         1 ASN         0.0826
     92 H31        20.0907    0.1461   44.8108 H         1 ASN         0.0551
     93 H32        20.6834   -1.5066   44.4315 H         1 ASN         0.0551
     94 H33        21.9568   -2.1136   47.6174 H         1 ASN         0.1814
     95 H34        21.7807   -2.6128   45.9683 H         1 ASN         0.1814
     96 H35        16.8595    0.3249   44.6464 H         1 TYR         0.1885
     97 H36        16.5593   -0.2199   41.7304 H         1 TYR         0.0821
     98 H37        14.9478    1.5512   43.6365 H         1 TYR         0.0453
     99 H38        14.5282   -0.1413   43.2051 H         1 TYR         0.0453
    100 H39        14.2263   -0.5919   40.6180 H         1 TYR         0.0530
    101 H40        14.0023    3.2917   42.3910 H         1 TYR         0.0530
    102 H41        12.9806    0.2356   38.6462 H         1 TYR         0.0525
    103 H42        12.7657    4.1241   40.4235 H         1 TYR         0.0525
    104 H43        12.0042    1.9809   37.6899 H         1 TYR         0.2458
    105 H44        18.9119    1.0279   43.0697 H         1 ALA         0.1875
    106 H45        18.8314    3.8923   42.6587 H         1 ALA         0.0723
    107 H46        21.2978    3.7475   42.9770 H         1 ALA         0.0270
    108 H47        21.1990    1.9562   42.8858 H         1 ALA         0.0270
    109 H48        20.4115    2.8313   44.2425 H         1 ALA         0.0270
@<TRIPOS>BOND
     1    1    2 1  
     2    2    3 1  
     3    2    5 1  
     4    3    4 2  
     5    3    6 am 
     6    6    7 1  
     7    7    8 1  
     8    7   10 1  
     9    8    9 2  
    10    8   11 am 
    11   11   12 1  
    12   12   13 1  
    13   12   15 1  
    14   13   14 2  
    15   13   19 am 
    16   15   16 1  
    17   16   17 2  
    18   16   18 am 
    19   19   20 1  
    20   20   21 1  
    21   20   23 1  
    22   21   22 2  
    23   21   27 am 
    24   23   24 1  
    25   24   25 ar 
    26   24   26 ar 
    27   27   28 1  
    28   28   29 1  
    29   28   31 1  
    30   29   30 2  
    31   29   36 am 
    32   31   32 1  
    33   32   33 1  
    34   33   34 ar 
    35   33   35 ar 
    36   36   37 1  
    37   37   38 1  
    38   37   40 1  
    39   38   39 2  
    40   38   44 am 
    41   40   41 1  
    42   41   42 2  
    43   41   43 am 
    44   44   45 1  
    45   45   46 1  
    46   45   48 1  
    47   46   47 2  
    48   46   56 am 
    49   48   49 1  
    50   49   50 ar 
    51   49   51 ar 
    52   50   52 ar 
    53   51   53 ar 
    54   52   54 ar 
    55   53   54 ar 
    56   54   55 1  
    57   56   57 1  
    58   57   58 1  
    59   57   60 1  
    60   58   59 ar 
    61   58   61 ar 
    62    1   62 1  
    63    1   63 1  
    64    1   64 1  
    65    2   65 1  
    66    5   66 1  
    67    5   67 1  
    68    5   68 1  
    69    6   69 1  
    70    7   70 1  
    71   10   71 1  
    72   10   72 1  
    73   10   73 1  
    74   11   74 1  
    75   12   75 1  
    76   15   76 1  
    77   15   77 1  
    78   18   78 1  
    79   18   79 1  
    80   19   80 1  
    81   20   81 1  
    82   23   82 1  
    83   23   83 1  
    84   27   84 1  
    85   28   85 1  
    86   31   86 1  
    87   31   87 1  
    88   32   88 1  
    89   32   89 1  
    90   36   90 1  
    91   37   91 1  
    92   40   92 1  
    93   40   93 1  
    94   43   94 1  
    95   43   95 1  
    96   44   96 1  
    97   45   97 1  
    98   48   98 1  
    99   48   99 1  
   100   50  100 1  
   101   51  101 1  
   102   52  102 1  
   103   53  103 1  
   104   55  104 1  
   105   56  105 1  
   106   57  106 1  
   107   60  107 1  
   108   60  108 1  
   109   60  109 1  
@<TRIPOS>SUBSTRUCTURE
     1 ALA         1

