1ox9_ligand
  -I-interpret- 

112112  0  0  0  0  0  0  0  0999 V2000
   14.8000  -11.7210   47.7650 N   0  3  0  0  0
   13.4880  -11.5360   47.0890 C   0  0  0  0  0
   13.6510  -11.6380   45.5700 C   0  0  0  0  0
   14.7630  -11.7860   45.0570 O   0  0  0  0  0
   12.8950  -10.1810   47.4740 C   0  0  0  0  0
   12.5340  -11.5540   44.8570 N   0  0  0  0  0
   12.5390  -11.6450   43.4120 C   0  0  0  0  0
   13.1930  -10.4350   42.7910 C   0  0  0  0  0
   13.8830  -10.5580   41.7860 O   0  0  0  0  0
   11.1280  -11.7840   42.9040 C   0  0  0  0  0
   12.9760   -9.2660   43.3780 N   0  0  0  0  0
   13.5650   -8.0380   42.8500 C   0  0  0  0  0
   14.8970   -7.7500   43.5210 C   0  0  0  0  0
   15.1710   -8.2800   44.6010 O   0  0  0  0  0
   12.6200   -6.8570   43.0640 C   0  0  0  0  0
   12.2050   -6.6950   44.5160 C   0  0  0  0  0
   11.7080   -7.6330   45.1390 O   0  0  0  0  0
   12.3990   -5.4990   45.0580 N   0  0  0  0  0
   15.7190   -6.9050   42.8970 N   0  0  0  0  0
   17.0380   -6.5660   43.4520 C   0  0  0  0  0
   16.9800   -5.6770   44.7100 C   0  0  0  0  0
   15.9640   -5.0410   44.9930 O   0  0  0  0  0
   17.9060   -5.8970   42.3720 C   0  0  0  0  0
   18.0020   -6.7310   41.0930 C   0  0  0  0  0
   18.0970   -7.9730   41.2090 O   0  0  0  0  0
   17.9890   -6.1480   39.9760 O   0  0  0  0  0
   18.0740   -5.6310   45.4580 N   0  0  0  0  0
   18.1260   -4.8250   46.6700 C   0  0  0  0  0
   18.1220   -3.3130   46.4600 C   0  0  0  0  0
   17.7180   -2.5760   47.3390 O   0  0  0  0  0
   19.3590   -5.2050   47.4840 C   0  0  0  0  0
   19.2790   -6.5760   48.1140 C   0  0  0  0  0
   18.2300   -6.6410   49.1990 C   0  0  0  0  0
   18.3980   -5.9390   50.2250 O   0  0  0  0  0
   17.2430   -7.3910   49.0220 O   0  0  0  0  0
   18.5820   -2.8460   45.3080 N   0  0  0  0  0
   18.6280   -1.4100   45.0520 C   0  0  0  0  0
   18.0370   -1.0090   43.7110 C   0  0  0  0  0
   18.3930   -1.5670   42.6740 O   0  0  0  0  0
   20.0690   -0.9090   45.1210 C   0  0  0  0  0
   20.6570   -1.0180   46.5150 C   0  0  0  0  0
   20.3120   -0.2400   47.4040 O   0  0  0  0  0
   21.5380   -1.9960   46.7170 N   0  0  0  0  0
   17.1200   -0.0460   43.7550 N   0  0  0  0  0
   16.4800    0.4910   42.5660 C   0  0  0  0  0
   17.2420    1.7850   42.2430 C   0  0  0  0  0
   16.6920    2.7310   41.6970 O   0  0  0  0  0
   15.0000    0.7860   42.8480 C   0  0  0  0  0
   14.2090    1.2880   41.6480 C   0  0  0  0  0
   13.9090    0.4440   40.5820 C   0  0  0  0  0
   13.7840    2.6160   41.5720 C   0  0  0  0  0
   13.2060    0.9080   39.4660 C   0  0  0  0  0
   13.0850    3.0890   40.4640 C   0  0  0  0  0
   12.7990    2.2310   39.4130 C   0  0  0  0  0
   12.1160    2.6910   38.3110 O   0  0  0  0  0
   18.5190    1.8220   42.6060 N   0  0  0  0  0
   19.3720    2.9850   42.3510 C   0  0  0  0  0
   19.7160    3.1000   40.8600 C   0  0  0  0  0
   20.9280    3.0680   40.5180 O   0  0  0  0  0
   20.6610    2.8720   43.1720 C   0  0  0  0  0
   18.7650    3.2210   40.0540 O   0  0  0  0  0
   15.1907  -12.6265   47.5044 H   0  0  0  0  0
   15.4373  -10.9787   47.4767 H   0  0  0  0  0
   14.6685  -11.6843   48.7758 H   0  0  0  0  0
   12.8078  -12.3239   47.4126 H   0  0  0  0  0
   13.5585   -9.3857   47.1343 H   0  0  0  0  0
   11.9182  -10.0666   47.0040 H   0  0  0  0  0
   12.7868  -10.1278   48.5573 H   0  0  0  0  0
   11.6463  -11.4215   45.3415 H   0  0  0  0  0
   13.1165  -12.5248   43.1281 H   0  0  0  0  0
   10.5588  -10.8925   43.1675 H   0  0  0  0  0
   11.1431  -11.8998   41.8203 H   0  0  0  0  0
   10.6644  -12.6599   43.3578 H   0  0  0  0  0
   12.3888   -9.2236   44.2110 H   0  0  0  0  0
   13.7292   -8.1762   41.7813 H   0  0  0  0  0
   11.7198   -7.0376   42.4765 H   0  0  0  0  0
   13.1437   -5.9500   42.7621 H   0  0  0  0  0
   12.1327   -5.3293   46.0279 H   0  0  0  0  0
   12.8144   -4.7496   44.5046 H   0  0  0  0  0
   15.4262   -6.4845   42.0151 H   0  0  0  0  0
   17.4848   -7.5081   43.7695 H   0  0  0  0  0
   18.9127   -5.7832   42.7742 H   0  0  0  0  0
   17.4458   -4.9426   42.1160 H   0  0  0  0  0
   17.9099   -5.2009   40.1115 H   0  0  0  0  0
   18.8940   -6.1699   45.1795 H   0  0  0  0  0
   17.1983   -5.0515   47.1955 H   0  0  0  0  0
   19.4481   -4.4811   48.2940 H   0  0  0  0  0
   20.2086   -5.2114   46.8011 H   0  0  0  0  0
   20.2467   -6.8018   48.5620 H   0  0  0  0  0
   19.0106   -7.2923   47.3375 H   0  0  0  0  0
   19.2184   -5.4471   50.1440 H   0  0  0  0  0
   18.9071   -3.4969   44.5931 H   0  0  0  0  0
   18.0152   -0.9507   45.8276 H   0  0  0  0  0
   20.0728    0.1431   44.8362 H   0  0  0  0  0
   20.6712   -1.5252   44.4533 H   0  0  0  0  0
   21.9562   -2.1234   47.6386 H   0  0  0  0  0
   21.7946   -2.6177   45.9502 H   0  0  0  0  0
   16.8543    0.3324   44.6642 H   0  0  0  0  0
   16.5090   -0.2099   41.7317 H   0  0  0  0  0
   14.9723    1.5762   43.5983 H   0  0  0  0  0
   14.5433   -0.1542   43.1571 H   0  0  0  0  0
   14.2281   -0.5976   40.6182 H   0  0  0  0  0
   14.0035    3.2955   42.3956 H   0  0  0  0  0
   12.9793    0.2319   38.6416 H   0  0  0  0  0
   12.7640    4.1299   40.4233 H   0  0  0  0  0
   11.9080    3.6206   38.4299 H   0  0  0  0  0
   18.9198    1.0120   43.0790 H   0  0  0  0  0
   18.8263    3.8810   42.6469 H   0  0  0  0  0
   21.4773    2.9699   41.2992 H   0  0  0  0  0
   20.4124    2.8317   44.2325 H   0  0  0  0  0
   21.1931    1.9642   42.8875 H   0  0  0  0  0
   21.2911    3.7400   42.9779 H   0  0  0  0  0
  1  2  1  0  0  0
  2  3  1  0  0  0
  2  5  1  0  0  0
  3  4  2  0  0  0
  3  6  1  0  0  0
  6  7  1  0  0  0
  7  8  1  0  0  0
  7 10  1  0  0  0
  8  9  2  0  0  0
  8 11  1  0  0  0
 11 12  1  0  0  0
 12 13  1  0  0  0
 12 15  1  0  0  0
 13 14  2  0  0  0
 13 19  1  0  0  0
 15 16  1  0  0  0
 16 17  2  0  0  0
 16 18  1  0  0  0
 19 20  1  0  0  0
 20 21  1  0  0  0
 20 23  1  0  0  0
 21 22  2  0  0  0
 21 27  1  0  0  0
 23 24  1  0  0  0
 24 25  2  0  0  0
 24 26  1  0  0  0
 27 28  1  0  0  0
 28 29  1  0  0  0
 28 31  1  0  0  0
 29 30  2  0  0  0
 29 36  1  0  0  0
 31 32  1  0  0  0
 32 33  1  0  0  0
 33 34  1  0  0  0
 33 35  2  0  0  0
 36 37  1  0  0  0
 37 38  1  0  0  0
 37 40  1  0  0  0
 38 39  2  0  0  0
 38 44  1  0  0  0
 40 41  1  0  0  0
 41 42  2  0  0  0
 41 43  1  0  0  0
 44 45  1  0  0  0
 45 46  1  0  0  0
 45 48  1  0  0  0
 46 47  2  0  0  0
 46 56  1  0  0  0
 48 49  1  0  0  0
 49 50  4  0  0  0
 49 51  4  0  0  0
 50 52  4  0  0  0
 51 53  4  0  0  0
 52 54  4  0  0  0
 53 54  4  0  0  0
 54 55  1  0  0  0
 56 57  1  0  0  0
 57 58  1  0  0  0
 57 60  1  0  0  0
 58 59  1  0  0  0
 58 61  2  0  0  0
  1 62  1  0  0  0
  1 63  1  0  0  0
  1 64  1  0  0  0
  2 65  1  0  0  0
  5 66  1  0  0  0
  5 67  1  0  0  0
  5 68  1  0  0  0
  6 69  1  0  0  0
  7 70  1  0  0  0
 10 71  1  0  0  0
 10 72  1  0  0  0
 10 73  1  0  0  0
 11 74  1  0  0  0
 12 75  1  0  0  0
 15 76  1  0  0  0
 15 77  1  0  0  0
 18 78  1  0  0  0
 18 79  1  0  0  0
 19 80  1  0  0  0
 20 81  1  0  0  0
 23 82  1  0  0  0
 23 83  1  0  0  0
 26 84  1  0  0  0
 27 85  1  0  0  0
 28 86  1  0  0  0
 31 87  1  0  0  0
 31 88  1  0  0  0
 32 89  1  0  0  0
 32 90  1  0  0  0
 34 91  1  0  0  0
 36 92  1  0  0  0
 37 93  1  0  0  0
 40 94  1  0  0  0
 40 95  1  0  0  0
 43 96  1  0  0  0
 43 97  1  0  0  0
 44 98  1  0  0  0
 45 99  1  0  0  0
 48100  1  0  0  0
 48101  1  0  0  0
 50102  1  0  0  0
 51103  1  0  0  0
 52104  1  0  0  0
 53105  1  0  0  0
 55106  1  0  0  0
 56107  1  0  0  0
 57108  1  0  0  0
 59109  1  0  0  0
 60110  1  0  0  0
 60111  1  0  0  0
 60112  1  0  0  0
M  END
$$$$
