2y76_ligand
  -I-interpret- 

 55 59  0  0  0  0  0  0  0  0999 V2000
    5.1690   15.2480   28.8970 C   0  0  0  0  0
    4.6510   14.3430   29.8240 C   0  0  0  0  0
    4.4460   13.0150   29.6800 C   0  0  0  0  0
    3.9260   12.3470   30.7200 C   0  0  0  0  0
    3.6590   13.4770   31.9440 S   0  0  0  0  0
    4.2500   14.8220   31.0880 C   0  0  0  0  0
    4.3840   16.1690   31.4200 C   0  0  0  0  0
    4.9060   17.0580   30.4770 C   0  0  0  0  0
    5.3140   16.5970   29.2200 C   0  0  0  0  0
    5.8730   17.5650   28.1720 C   0  0  0  0  0
    7.1700   18.2480   28.5730 C   0  0  0  0  0
    7.1020   19.7270   29.0020 C   0  0  0  0  0
    5.8770   20.0850   29.8470 C   0  0  0  0  0
    6.0140   20.1240   31.0870 O   0  0  0  0  0
    4.8470   20.3900   29.2110 O   0  0  0  0  0
    7.0080   20.4830   27.7810 O   0  0  0  0  0
    8.3610   20.1340   29.7780 C   0  0  0  0  0
    9.5740   19.8260   28.9090 C   0  0  0  0  0
   10.7390   20.3920   29.5220 O   0  0  0  0  0
    9.7390   18.3030   28.7530 C   0  0  0  0  0
   10.6040   17.9590   27.6630 O   0  0  0  0  0
    8.4140   17.6370   28.4280 C   0  0  0  0  0
    8.5200   16.3540   28.0440 O   0  0  0  0  0
    8.6700   15.6330   29.3450 C   0  0  0  0  0
    8.2970   14.2920   29.5510 C   0  0  0  0  0
    8.4450   13.6590   30.7850 C   0  0  0  0  0
    8.0720   12.3250   30.9730 C   0  0  0  0  0
    8.1470   11.5600   32.0870 C   0  0  0  0  0
    7.7090   10.2990   31.9840 C   0  0  0  0  0
    7.1870   10.1180   30.3840 S   0  0  0  0  0
    7.5420   11.6420   29.8820 C   0  0  0  0  0
    7.3840   12.2610   28.6690 C   0  0  0  0  0
    7.7620   13.5800   28.5030 C   0  0  0  0  0
    5.4640   14.8964   27.9083 H   0  0  0  0  0
    4.6949   12.5041   28.7499 H   0  0  0  0  0
    3.7160   11.2784   30.7658 H   0  0  0  0  0
    4.0845   16.5254   32.4056 H   0  0  0  0  0
    4.9960   18.1164   30.7216 H   0  0  0  0  0
    5.1290   18.3495   28.0335 H   0  0  0  0  0
    6.0844   16.9792   27.2774 H   0  0  0  0  0
    5.0055   20.2716   28.2716 H   0  0  0  0  0
    6.9623   21.4192   27.9883 H   0  0  0  0  0
    8.4200   19.5800   30.7148 H   0  0  0  0  0
    8.3289   21.1976   30.0143 H   0  0  0  0  0
    9.4370   20.2590   27.9181 H   0  0  0  0  0
   11.5085   20.2023   28.9802 H   0  0  0  0  0
   10.1492   17.9648   29.7045 H   0  0  0  0  0
   10.6774   17.0037   27.6034 H   0  0  0  0  0
    7.9871   16.1748   29.9993 H   0  0  0  0  0
    9.7513   15.6043   29.4797 H   0  0  0  0  0
    8.8615   14.2180   31.6229 H   0  0  0  0  0
    8.5449   11.9517   33.0231 H   0  0  0  0  0
    7.6920    9.5436   32.7696 H   0  0  0  0  0
    6.9579   11.7098   27.8307 H   0  0  0  0  0
    7.6350   14.0603   27.5328 H   0  0  0  0  0
  1  2  4  0  0  0
  1  9  4  0  0  0
  2  3  4  0  0  0
  2  6  4  0  0  0
  3  4  4  0  0  0
  4  5  4  0  0  0
  5  6  4  0  0  0
  6  7  4  0  0  0
  7  8  4  0  0  0
  8  9  4  0  0  0
  9 10  1  0  0  0
 10 11  1  0  0  0
 11 12  1  0  0  0
 11 22  2  0  0  0
 12 13  1  0  0  0
 12 16  1  0  0  0
 12 17  1  0  0  0
 13 14  2  0  0  0
 13 15  1  0  0  0
 17 18  1  0  0  0
 18 19  1  0  0  0
 18 20  1  0  0  0
 20 21  1  0  0  0
 20 22  1  0  0  0
 22 23  1  0  0  0
 23 24  1  0  0  0
 24 25  1  0  0  0
 25 26  4  0  0  0
 25 33  4  0  0  0
 26 27  4  0  0  0
 27 28  4  0  0  0
 27 31  4  0  0  0
 28 29  4  0  0  0
 29 30  4  0  0  0
 30 31  4  0  0  0
 31 32  4  0  0  0
 32 33  4  0  0  0
  1 34  1  0  0  0
  3 35  1  0  0  0
  4 36  1  0  0  0
  7 37  1  0  0  0
  8 38  1  0  0  0
 10 39  1  0  0  0
 10 40  1  0  0  0
 15 41  1  0  0  0
 16 42  1  0  0  0
 17 43  1  0  0  0
 17 44  1  0  0  0
 18 45  1  0  0  0
 19 46  1  0  0  0
 20 47  1  0  0  0
 21 48  1  0  0  0
 24 49  1  0  0  0
 24 50  1  0  0  0
 26 51  1  0  0  0
 28 52  1  0  0  0
 29 53  1  0  0  0
 32 54  1  0  0  0
 33 55  1  0  0  0
M  END
$$$$
