2upj_ligand
  -I-interpret- 

 81 84  0  0  0  0  0  0  0  0999 V2000
    4.0140   25.4800    1.3280 C   0  0  0  0  0
    5.3230   24.0290    2.8610 C   0  0  0  0  0
    6.4610   25.1010    0.9090 C   0  0  0  0  0
    5.3820   25.2890    1.9860 C   0  0  0  0  0
    5.7870   26.4810    2.6900 O   0  0  0  0  0
    5.1160   26.8180    3.8620 C   0  0  0  0  0
    4.1610   26.1280    4.2490 O   0  0  0  0  0
    5.5360   27.9080    4.4860 N   0  0  0  0  0
    5.0140   28.2630    5.8170 C   0  0  0  0  0
    5.9780   28.9610    6.7900 C   0  0  0  0  0
    7.3950   28.4150    6.7650 C   0  0  0  0  0
    8.3630   29.1260    6.4950 O   0  0  0  0  0
    7.5380   27.1250    7.0150 N   0  0  0  0  0
    8.8640   26.6390    6.9340 C   0  0  0  0  0
    9.7160   26.9400    7.9910 C   0  0  0  0  0
   11.0270   26.4770    8.0040 C   0  0  0  0  0
   11.4940   25.6990    6.9530 C   0  0  0  0  0
   10.6620   25.4080    5.8760 C   0  0  0  0  0
    9.3270   25.8440    5.8740 C   0  0  0  0  0
   11.3190   24.6560    4.7140 C   0  0  0  0  0
   10.2740   23.9690    3.8860 C   0  0  0  0  0
   10.3680   23.7310    2.3980 C   0  0  0  0  0
    9.2720   24.6160    2.9590 C   0  0  0  0  0
   12.4910   23.7470    5.1550 C   0  0  0  0  0
   12.1290   22.5830    5.8630 C   0  0  0  0  0
   11.0030   22.1540    5.9050 O   0  0  0  0  0
   13.0740   21.7400    6.2300 O   0  0  0  0  0
   14.3780   21.9500    5.9520 C   0  0  0  0  0
   14.8180   23.1090    5.3040 C   0  0  0  0  0
   13.8540   24.0260    4.8810 C   0  0  0  0  0
   14.3710   25.2190    4.4690 O   0  0  0  0  0
   15.3440   20.8500    6.0810 C   0  0  0  0  0
   16.5300   21.2650    6.9660 C   0  0  0  0  0
   16.0620   22.0760    8.1950 C   0  0  0  0  0
   15.6310   20.4160    4.6300 C   0  0  0  0  0
   16.8180   19.5060    4.3900 C   0  0  0  0  0
   17.1050   19.1090    3.0910 C   0  0  0  0  0
   18.2020   18.2940    2.8400 C   0  0  0  0  0
   19.0090   17.8650    3.8860 C   0  0  0  0  0
   18.7070   18.2570    5.1840 C   0  0  0  0  0
   17.6110   19.0730    5.4380 C   0  0  0  0  0
    3.2718   25.7038    2.0942 H   0  0  0  0  0
    4.0657   26.3057    0.6183 H   0  0  0  0  0
    3.7334   24.5662    0.8043 H   0  0  0  0  0
    6.3097   23.8330    3.2806 H   0  0  0  0  0
    4.6073   24.1823    3.6687 H   0  0  0  0  0
    5.0103   23.1802    2.2529 H   0  0  0  0  0
    6.4785   25.9748    0.2577 H   0  0  0  0  0
    7.4333   24.9832    1.3873 H   0  0  0  0  0
    6.2341   24.2120    0.3205 H   0  0  0  0  0
    6.2291   28.5088    4.0398 H   0  0  0  0  0
    4.7492   27.3181    6.2914 H   0  0  0  0  0
    4.2090   28.9757    5.6375 H   0  0  0  0  0
    5.5902   28.8008    7.7960 H   0  0  0  0  0
    6.0324   30.0080    6.4918 H   0  0  0  0  0
    6.7487   26.5230    7.2495 H   0  0  0  0  0
    9.3514   27.5467    8.8199 H   0  0  0  0  0
   11.6859   26.7239    8.8364 H   0  0  0  0  0
   12.5141   25.3155    6.9715 H   0  0  0  0  0
    8.6582   25.5682    5.0587 H   0  0  0  0  0
   11.8040   25.3867    4.0667 H   0  0  0  0  0
   10.1925   23.3481    4.7782 H   0  0  0  0  0
   10.4708   22.8934    1.7081 H   0  0  0  0  0
   11.1210   23.7606    1.6104 H   0  0  0  0  0
    8.8414   25.6008    2.7774 H   0  0  0  0  0
    8.1917   24.7343    2.8750 H   0  0  0  0  0
   15.8794   23.2903    5.1348 H   0  0  0  0  0
   15.3206   25.1335    4.3574 H   0  0  0  0  0
   14.9863   19.9730    6.6204 H   0  0  0  0  0
   17.2003   21.8891    6.3750 H   0  0  0  0  0
   17.0310   20.3631    7.3176 H   0  0  0  0  0
   15.5485   22.9772    7.8599 H   0  0  0  0  0
   15.3811   21.4688    8.7915 H   0  0  0  0  0
   16.9274   22.3521    8.7975 H   0  0  0  0  0
   15.8538   21.3355    4.0888 H   0  0  0  0  0
   14.7570   19.8444    4.3179 H   0  0  0  0  0
   16.4698   19.4366    2.2680 H   0  0  0  0  0
   18.4302   17.9901    1.8184 H   0  0  0  0  0
   19.8708   17.2270    3.6902 H   0  0  0  0  0
   19.3346   17.9220    6.0098 H   0  0  0  0  0
   17.3768   19.3711    6.4600 H   0  0  0  0  0
  1  4  1  0  0  0
  4  2  1  0  0  0
  4  3  1  0  0  0
  4  5  1  0  0  0
  5  6  1  0  0  0
  6  7  2  0  0  0
  6  8  1  0  0  0
  8  9  1  0  0  0
  9 10  1  0  0  0
 10 11  1  0  0  0
 11 12  2  0  0  0
 11 13  1  0  0  0
 13 14  1  0  0  0
 14 15  4  0  0  0
 14 19  4  0  0  0
 15 16  4  0  0  0
 16 17  4  0  0  0
 17 18  4  0  0  0
 18 19  4  0  0  0
 18 20  1  0  0  0
 20 21  1  0  0  0
 20 24  1  0  0  0
 21 22  1  0  0  0
 21 23  1  0  0  0
 22 23  1  0  0  0
 24 25  1  0  0  0
 24 30  2  0  0  0
 25 26  2  0  0  0
 25 27  1  0  0  0
 27 28  1  0  0  0
 28 29  2  0  0  0
 28 32  1  0  0  0
 29 30  1  0  0  0
 30 31  1  0  0  0
 32 33  1  0  0  0
 32 35  1  0  0  0
 33 34  1  0  0  0
 35 36  1  0  0  0
 36 37  4  0  0  0
 36 41  4  0  0  0
 37 38  4  0  0  0
 38 39  4  0  0  0
 39 40  4  0  0  0
 40 41  4  0  0  0
  1 42  1  0  0  0
  1 43  1  0  0  0
  1 44  1  0  0  0
  2 45  1  0  0  0
  2 46  1  0  0  0
  2 47  1  0  0  0
  3 48  1  0  0  0
  3 49  1  0  0  0
  3 50  1  0  0  0
  8 51  1  0  0  0
  9 52  1  0  0  0
  9 53  1  0  0  0
 10 54  1  0  0  0
 10 55  1  0  0  0
 13 56  1  0  0  0
 15 57  1  0  0  0
 16 58  1  0  0  0
 17 59  1  0  0  0
 19 60  1  0  0  0
 20 61  1  0  0  0
 21 62  1  0  0  0
 22 63  1  0  0  0
 22 64  1  0  0  0
 23 65  1  0  0  0
 23 66  1  0  0  0
 29 67  1  0  0  0
 31 68  1  0  0  0
 32 69  1  0  0  0
 33 70  1  0  0  0
 33 71  1  0  0  0
 34 72  1  0  0  0
 34 73  1  0  0  0
 34 74  1  0  0  0
 35 75  1  0  0  0
 35 76  1  0  0  0
 37 77  1  0  0  0
 38 78  1  0  0  0
 39 79  1  0  0  0
 40 80  1  0  0  0
 41 81  1  0  0  0
M  END
$$$$
