5yr4_ligand
  -I-interpret- 

 52 53  0  0  0  0  0  0  0  0999 V2000
   11.2580    3.7000   20.3360 C   0  0  0  0  0
   12.6730    4.3110   20.1780 C   0  0  0  0  0
   13.6590    3.1460   19.8850 C   0  0  0  0  0
   13.3530    2.4580   18.5840 C   0  0  0  0  0
   11.9350    1.8930   18.6400 C   0  0  0  0  0
   10.9220    2.9800   19.0230 C   0  0  0  0  0
   10.1070    4.6980   20.5390 C   0  0  0  0  0
   11.2880    2.6690   21.3510 O   0  0  0  0  0
   13.4550    5.0240   21.3040 C   0  0  0  0  0
   12.7040    6.2950   21.7470 C   0  0  0  0  0
   12.3720    7.0780   22.9990 C   0  0  0  0  0
   11.0600    6.6160   23.5790 C   0  0  0  0  0
    9.9550    7.3210   23.8480 C   0  0  0  0  0
   13.4550    4.2870   22.6700 C   0  0  0  0  0
   13.8710    6.3920   21.0520 O   0  0  0  0  0
    9.7100    8.7690   23.5920 C   0  0  0  0  0
    8.8340    6.4980   24.3640 C   0  0  0  0  0
   16.0050    2.6520   20.0590 C   0  0  0  0  0
   14.9790    3.6650   19.8540 O   0  0  0  0  0
   14.6370    3.5740   16.8510 C   0  0  0  0  0
   13.4170    3.4730   17.5830 O   0  0  0  0  0
   15.0220    4.7890   16.4040 N   0  0  0  0  0
   15.2380    2.5390   16.6880 O   0  0  0  0  0
   12.4161    5.0825   19.4522 H   0  0  0  0  0
   13.5545    2.4024   20.6751 H   0  0  0  0  0
   14.0468    1.6426   18.3792 H   0  0  0  0  0
   11.9028    1.1054   19.3928 H   0  0  0  0  0
   11.6749    1.5052   17.6551 H   0  0  0  0  0
   10.9300    3.7275   18.2297 H   0  0  0  0  0
    9.9558    2.4933   19.1558 H   0  0  0  0  0
    9.1562    4.1661   20.5041 H   0  0  0  0  0
   10.2169    5.1852   21.5079 H   0  0  0  0  0
   10.1345    5.4480   19.7485 H   0  0  0  0  0
   12.0217    2.0741   21.1797 H   0  0  0  0  0
   11.6376    6.5188   21.7191 H   0  0  0  0  0
   12.2939    8.1351   22.7450 H   0  0  0  0  0
   13.1599    6.9189   23.7352 H   0  0  0  0  0
   11.0029    5.5530   23.8134 H   0  0  0  0  0
   13.9772    4.8945   23.4091 H   0  0  0  0  0
   12.4269    4.1234   22.9931 H   0  0  0  0  0
   13.9608    3.3273   22.5636 H   0  0  0  0  0
   10.4443    9.3623   24.1369 H   0  0  0  0  0
    9.8002    8.9682   22.5242 H   0  0  0  0  0
    8.7070    9.0315   23.9284 H   0  0  0  0  0
    8.5669    5.7447   23.6229 H   0  0  0  0  0
    9.1402    6.0078   25.2882 H   0  0  0  0  0
    7.9741    7.1389   24.5588 H   0  0  0  0  0
   15.8606    2.1821   21.0319 H   0  0  0  0  0
   15.9310    1.8980   19.2753 H   0  0  0  0  0
   16.9886    3.1204   20.0227 H   0  0  0  0  0
   15.8903    4.8872   15.8778 H   0  0  0  0  0
   14.4445    5.6083   16.5926 H   0  0  0  0  0
  1  2  1  0  0  0
  1  6  1  0  0  0
  1  7  1  0  0  0
  1  8  1  0  0  0
  2  3  1  0  0  0
  2  9  1  0  0  0
  3  4  1  0  0  0
  3 19  1  0  0  0
  4  5  1  0  0  0
  4 21  1  0  0  0
  5  6  1  0  0  0
  9 10  1  0  0  0
  9 14  1  0  0  0
  9 15  1  0  0  0
 10 11  1  0  0  0
 10 15  1  0  0  0
 11 12  1  0  0  0
 12 13  2  0  0  0
 13 16  1  0  0  0
 13 17  1  0  0  0
 19 18  1  0  0  0
 21 20  1  0  0  0
 20 22  1  0  0  0
 20 23  2  0  0  0
  2 24  1  0  0  0
  3 25  1  0  0  0
  4 26  1  0  0  0
  5 27  1  0  0  0
  5 28  1  0  0  0
  6 29  1  0  0  0
  6 30  1  0  0  0
  7 31  1  0  0  0
  7 32  1  0  0  0
  7 33  1  0  0  0
  8 34  1  0  0  0
 10 35  1  0  0  0
 11 36  1  0  0  0
 11 37  1  0  0  0
 12 38  1  0  0  0
 14 39  1  0  0  0
 14 40  1  0  0  0
 14 41  1  0  0  0
 16 42  1  0  0  0
 16 43  1  0  0  0
 16 44  1  0  0  0
 17 45  1  0  0  0
 17 46  1  0  0  0
 17 47  1  0  0  0
 18 48  1  0  0  0
 18 49  1  0  0  0
 18 50  1  0  0  0
 22 51  1  0  0  0
 22 52  1  0  0  0
M  END
$$$$
