3wyy_ligand
  -I-interpret- 

 75 79  0  0  0  0  0  0  0  0999 V2000
  -32.9620  -17.4130   -2.2690 N   0  0  0  0  0
  -33.4470  -17.6640   -3.2990 C   0  0  0  0  0
  -34.0670  -17.9820   -4.6010 C   0  0  0  0  0
  -33.1200  -17.8750   -5.6780 O   0  0  0  0  0
  -33.5250  -17.6620   -6.9840 C   0  0  0  0  0
  -33.5900  -16.2770   -7.5340 C   0  0  0  0  0
  -33.2970  -15.1490   -6.6230 C   0  0  0  0  0
  -34.3700  -15.0510   -5.8280 C   0  0  0  0  0
  -34.6640  -14.1290   -4.7180 C   0  0  0  0  0
  -33.9500  -14.1550   -3.7270 O   0  0  0  0  0
  -35.7380  -13.3370   -4.8180 N   0  0  0  0  0
  -35.7620  -12.1460   -5.6560 C   0  0  0  0  0
  -36.9790  -11.2660   -5.3680 C   0  0  0  0  0
  -36.5760  -10.1100   -4.6220 O   0  0  0  0  0
  -37.3570   -8.9470   -4.9280 C   0  0  0  0  0
  -33.8560  -18.7270   -7.8230 C   0  0  0  0  0
  -34.2710  -18.4980   -9.1390 C   0  0  0  0  0
  -34.3380  -17.1890   -9.6430 C   0  0  0  0  0
  -34.0160  -16.0810   -8.8520 C   0  0  0  0  0
  -34.5640  -19.5940   -9.8920 N   0  0  0  0  0
  -35.4370  -19.7200  -10.9410 C   0  0  0  0  0
  -35.9040  -18.6520  -11.6540 N   0  0  0  0  0
  -36.7570  -18.7790  -12.7060 C   0  0  0  0  0
  -37.2060  -20.1370  -13.1030 C   0  0  0  0  0
  -38.0160  -20.3120  -14.0890 C   0  0  0  0  0
  -38.7570  -20.4860  -14.9640 N   0  0  0  0  0
  -36.6900  -21.2810  -12.3290 C   0  0  0  0  0
  -37.0600  -22.5450  -12.6420 N   0  0  0  0  0
  -35.8220  -21.0230  -11.2770 C   0  0  0  0  0
  -37.2180  -17.7180  -13.4220 N   0  0  0  0  0
  -36.9230  -16.3230  -13.1470 C   0  0  0  0  0
  -37.3170  -15.5010  -14.3870 C   0  0  0  0  0
  -37.0740  -13.9990  -14.1480 C   0  0  0  0  0
  -35.5930  -13.7500  -13.8400 C   0  0  0  0  0
  -37.9170  -13.5730  -12.9390 C   0  0  0  0  0
  -37.5280  -14.3730  -11.6860 C   0  0  0  0  0
  -37.7450  -15.8690  -11.9310 C   0  0  0  0  0
  -36.0380  -14.1490  -11.4020 C   0  0  0  0  0
  -35.1870  -14.5740  -12.6120 C   0  0  0  0  0
  -35.4270  -16.0680  -12.8930 C   0  0  0  0  0
  -34.8746  -17.2723   -4.7805 H   0  0  0  0  0
  -34.4348  -19.0075   -4.5662 H   0  0  0  0  0
  -32.3999  -14.5302   -6.6031 H   0  0  0  0  0
  -35.1576  -15.7748   -6.0375 H   0  0  0  0  0
  -36.5741  -13.5773   -4.2855 H   0  0  0  0  0
  -35.8103  -12.4635   -6.6976 H   0  0  0  0  0
  -34.8642  -11.5644   -5.4468 H   0  0  0  0  0
  -37.7058  -11.8344   -4.7876 H   0  0  0  0  0
  -37.4261  -10.9493   -6.3103 H   0  0  0  0  0
  -37.2552   -8.7109   -5.9873 H   0  0  0  0  0
  -38.4041   -9.1430   -4.6971 H   0  0  0  0  0
  -37.0033   -8.1061   -4.3314 H   0  0  0  0  0
  -33.7904  -19.7486   -7.4486 H   0  0  0  0  0
  -34.6486  -17.0324  -10.6760 H   0  0  0  0  0
  -34.0964  -15.0732   -9.2593 H   0  0  0  0  0
  -34.0609  -20.4444   -9.6387 H   0  0  0  0  0
  -37.7003  -22.7115  -13.4183 H   0  0  0  0  0
  -36.6985  -23.3309  -12.1015 H   0  0  0  0  0
  -35.4295  -21.8580  -10.6967 H   0  0  0  0  0
  -37.8217  -17.9194  -14.2191 H   0  0  0  0  0
  -38.3764  -15.6575  -14.5901 H   0  0  0  0  0
  -36.7086  -15.8253  -15.2313 H   0  0  0  0  0
  -37.3495  -13.4294  -15.0355 H   0  0  0  0  0
  -35.4348  -12.6906  -13.6379 H   0  0  0  0  0
  -34.9868  -14.0466  -14.6959 H   0  0  0  0  0
  -38.9673  -13.7613  -13.1616 H   0  0  0  0  0
  -37.7416  -12.5146  -12.7462 H   0  0  0  0  0
  -38.1407  -14.0436  -10.8468 H   0  0  0  0  0
  -37.4254  -16.4279  -11.0515 H   0  0  0  0  0
  -38.8022  -16.0528  -12.1222 H   0  0  0  0  0
  -35.7488  -14.7480  -10.5385 H   0  0  0  0  0
  -35.8707  -13.0898  -11.2067 H   0  0  0  0  0
  -34.1318  -14.4035  -12.3983 H   0  0  0  0  0
  -34.8585  -16.3625  -13.7752 H   0  0  0  0  0
  -35.1057  -16.6510  -12.0299 H   0  0  0  0  0
  1  2  3  0  0  0
  2  3  1  0  0  0
  3  4  1  0  0  0
  4  5  1  0  0  0
  5  6  4  0  0  0
  5 16  4  0  0  0
  6  7  1  0  0  0
  6 19  4  0  0  0
  7  8  2  0  0  0
  8  9  1  0  0  0
  9 10  2  0  0  0
  9 11  1  0  0  0
 11 12  1  0  0  0
 12 13  1  0  0  0
 13 14  1  0  0  0
 14 15  1  0  0  0
 16 17  4  0  0  0
 17 18  4  0  0  0
 17 20  1  0  0  0
 18 19  4  0  0  0
 20 21  1  0  0  0
 21 22  4  0  0  0
 21 29  4  0  0  0
 22 23  4  0  0  0
 23 24  4  0  0  0
 23 30  1  0  0  0
 24 25  1  0  0  0
 24 27  4  0  0  0
 25 26  3  0  0  0
 27 28  1  0  0  0
 27 29  4  0  0  0
 30 31  1  0  0  0
 31 32  1  0  0  0
 31 37  1  0  0  0
 31 40  1  0  0  0
 32 33  1  0  0  0
 33 34  1  0  0  0
 33 35  1  0  0  0
 34 39  1  0  0  0
 35 36  1  0  0  0
 36 37  1  0  0  0
 36 38  1  0  0  0
 38 39  1  0  0  0
 39 40  1  0  0  0
  3 41  1  0  0  0
  3 42  1  0  0  0
  7 43  1  0  0  0
  8 44  1  0  0  0
 11 45  1  0  0  0
 12 46  1  0  0  0
 12 47  1  0  0  0
 13 48  1  0  0  0
 13 49  1  0  0  0
 15 50  1  0  0  0
 15 51  1  0  0  0
 15 52  1  0  0  0
 16 53  1  0  0  0
 18 54  1  0  0  0
 19 55  1  0  0  0
 20 56  1  0  0  0
 28 57  1  0  0  0
 28 58  1  0  0  0
 29 59  1  0  0  0
 30 60  1  0  0  0
 32 61  1  0  0  0
 32 62  1  0  0  0
 33 63  1  0  0  0
 34 64  1  0  0  0
 34 65  1  0  0  0
 35 66  1  0  0  0
 35 67  1  0  0  0
 36 68  1  0  0  0
 37 69  1  0  0  0
 37 70  1  0  0  0
 38 71  1  0  0  0
 38 72  1  0  0  0
 39 73  1  0  0  0
 40 74  1  0  0  0
 40 75  1  0  0  0
M  END
$$$$
