6chn_ligand
  -I-interpret- 

 58 61  0  0  0  0  0  0  0  0999 V2000
  147.0390   28.3060   35.8480 C   0  0  0  0  0
  146.0050   27.0290   33.9880 C   0  0  0  0  0
  146.8270   26.2970   32.9190 C   0  0  0  0  0
  146.6790   29.3880   35.4420 O   0  0  0  0  0
  146.1630   24.0280   33.5880 O   0  0  0  0  0
  145.9970   27.9580   29.3370 O   0  0  0  0  0
  143.4590   23.7830   31.1650 C   0  0  0  0  0
  144.1850   24.0760   32.3150 C   0  0  0  0  0
  142.0420   24.3110   30.9810 C   0  0  0  0  0
  141.0030   23.3190   31.5470 C   0  0  0  0  0
  141.0400   22.0540   30.8190 C   0  0  0  0  0
  142.6590   26.7650   31.3330 C   0  0  0  0  0
  145.3600   28.5900   30.1770 C   0  0  0  0  0
  145.6780   29.8800   30.6980 C   0  0  0  0  0
  144.9340   30.5010   31.6540 C   0  0  0  0  0
  145.3080   31.8140   32.2770 C   0  0  0  0  0
  143.4470   28.6550   31.6990 C   0  0  0  0  0
  143.8020   29.8890   32.1440 N   0  0  0  0  0
  144.1970   28.0420   30.7560 N   0  0  0  0  0
  143.6840   26.7980   30.4960 N   0  0  0  0  0
  142.4550   27.8830   32.0980 N   0  0  0  0  0
  141.8220   25.6410   31.5570 N   0  0  0  0  0
  141.0990   21.0940   30.2330 N   0  0  0  0  0
  144.0570   23.0090   30.1740 C   0  0  0  0  0
  145.3480   22.5270   30.3340 C   0  0  0  0  0
  146.0710   22.8190   31.4790 C   0  0  0  0  0
  145.4860   23.6120   32.4610 C   0  0  0  0  0
  147.3000   24.9470   33.4330 C   0  0  0  0  0
  148.0300   25.0710   34.7550 C   0  0  0  0  0
  147.1670   25.8170   35.7720 C   0  0  0  0  0
  146.7560   27.1310   35.2460 N   0  0  0  0  0
  147.7590   28.1170   36.9610 O   0  0  0  0  0
  148.3160   29.3100   37.5570 C   0  0  0  0  0
  145.0884   26.4683   34.1709 H   0  0  0  0  0
  145.7803   28.0340   33.6309 H   0  0  0  0  0
  147.6979   26.9029   32.6691 H   0  0  0  0  0
  146.2008   26.1392   32.0409 H   0  0  0  0  0
  143.7304   24.6729   33.1057 H   0  0  0  0  0
  141.9108   24.4112   29.9036 H   0  0  0  0  0
  140.0093   23.7546   31.4425 H   0  0  0  0  0
  141.2356   23.1275   32.5945 H   0  0  0  0  0
  146.5590   30.3927   30.3119 H   0  0  0  0  0
  146.2760   31.7187   32.7690 H   0  0  0  0  0
  145.3664   32.5787   31.5024 H   0  0  0  0  0
  144.5523   32.0950   33.0105 H   0  0  0  0  0
  143.2289   30.3627   32.8422 H   0  0  0  0  0
  141.0101   25.7675   32.1614 H   0  0  0  0  0
  143.5048   22.7793   29.2627 H   0  0  0  0  0
  145.7970   21.9137   29.5527 H   0  0  0  0  0
  147.0823   22.4335   31.6085 H   0  0  0  0  0
  147.9959   24.5489   32.6945 H   0  0  0  0  0
  148.9550   25.6262   34.5991 H   0  0  0  0  0
  148.2457   24.0730   35.1365 H   0  0  0  0  0
  147.7479   25.9687   36.6818 H   0  0  0  0  0
  146.2746   25.2256   35.9766 H   0  0  0  0  0
  148.9796   29.7961   36.8418 H   0  0  0  0  0
  147.5086   29.9909   37.8264 H   0  0  0  0  0
  148.8784   29.0396   38.4507 H   0  0  0  0  0
  1  4  2  0  0  0
 31  1  1  0  0  0
  1 32  1  0  0  0
  3  2  1  0  0  0
  2 31  1  0  0  0
 28  3  1  0  0  0
 27  5  1  0  0  0
  5 28  1  0  0  0
 13  6  2  0  0  0
  7  8  4  0  0  0
  9  7  1  0  0  0
  7 24  4  0  0  0
  8 27  4  0  0  0
  9 10  1  0  0  0
 22  9  1  0  0  0
 10 11  1  0  0  0
 11 23  3  0  0  0
 12 20  4  0  0  0
 21 12  4  0  0  0
 12 22  1  0  0  0
 13 14  1  0  0  0
 19 13  1  0  0  0
 15 14  2  0  0  0
 15 16  1  0  0  0
 18 15  1  0  0  0
 17 18  1  0  0  0
 17 19  4  0  0  0
 17 21  4  0  0  0
 19 20  4  0  0  0
 24 25  4  0  0  0
 25 26  4  0  0  0
 26 27  4  0  0  0
 28 29  1  0  0  0
 29 30  1  0  0  0
 30 31  1  0  0  0
 32 33  1  0  0  0
  2 34  1  0  0  0
  2 35  1  0  0  0
  3 36  1  0  0  0
  3 37  1  0  0  0
  8 38  1  0  0  0
  9 39  1  0  0  0
 10 40  1  0  0  0
 10 41  1  0  0  0
 14 42  1  0  0  0
 16 43  1  0  0  0
 16 44  1  0  0  0
 16 45  1  0  0  0
 18 46  1  0  0  0
 22 47  1  0  0  0
 24 48  1  0  0  0
 25 49  1  0  0  0
 26 50  1  0  0  0
 28 51  1  0  0  0
 29 52  1  0  0  0
 29 53  1  0  0  0
 30 54  1  0  0  0
 30 55  1  0  0  0
 33 56  1  0  0  0
 33 57  1  0  0  0
 33 58  1  0  0  0
M  END
$$$$
