5nai_ligand
  -I-interpret- 

 44 47  0  0  0  0  0  0  0  0999 V2000
   15.8760  -13.4310   18.2960 C   0  0  0  0  0
   17.3110  -15.3470   17.3060 C   0  0  0  0  0
   16.3800  -14.1400   17.2240 C   0  0  0  0  0
   15.8310  -13.5300   16.0760 C   0  0  0  0  0
   19.1810  -14.0480   18.4190 C   0  0  0  0  0
   22.1480  -16.3070   13.4430 O   0  0  0  0  0
   20.2830  -15.1500   15.3140 C   0  0  0  0  0
   21.1880  -15.4390   12.9710 C   0  0  0  0  0
   20.9970  -14.5680    8.8780 C   0  0  0  0  0
   21.9540  -15.4660    9.3180 C   0  0  0  0  0
   22.0380  -15.7700   10.6700 C   0  0  0  0  0
   21.1540  -15.1530   11.5940 C   0  0  0  0  0
   20.2050  -14.2700   11.1600 C   0  0  0  0  0
   20.1270  -13.9720    9.7820 C   0  0  0  0  0
   19.3370  -13.6820   12.1150 C   0  0  0  0  0
   19.4100  -13.9700   13.3990 N   0  0  0  0  0
   20.3330  -14.7980   13.8480 C   0  0  0  0  0
   21.0370  -15.9050   15.8380 O   0  0  0  0  0
   19.1120  -14.6340   15.9800 N   0  0  0  0  0
   18.8160  -15.0330   17.3210 C   0  0  0  0  0
   18.9310  -14.3840   19.5980 O   0  0  0  0  0
   19.7340  -12.9540   18.1760 O   0  0  0  0  0
   15.0390  -12.4820   16.5240 C   0  0  0  0  0
   15.0970  -12.4520   17.8650 N   0  0  0  0  0
   14.3530  -11.6510   15.6220 C   0  0  0  0  0
   14.4700  -11.8940   14.2700 C   0  0  0  0  0
   15.2620  -12.9490   13.8130 C   0  0  0  0  0
   15.9500  -13.7710   14.6960 C   0  0  0  0  0
   18.1060  -12.5210   11.6170 Cl  0  0  0  0  0
   16.0885  -13.6460   19.3433 H   0  0  0  0  0
   17.1291  -15.9371   16.4078 H   0  0  0  0  0
   17.0907  -15.8414   18.2521 H   0  0  0  0  0
   22.0496  -16.4054   14.3929 H   0  0  0  0  0
   20.9258  -14.3274    7.8173 H   0  0  0  0  0
   22.6372  -15.9315    8.6076 H   0  0  0  0  0
   22.7833  -16.4830   11.0225 H   0  0  0  0  0
   19.3765  -13.2672    9.4241 H   0  0  0  0  0
   18.4945  -13.9838   15.4939 H   0  0  0  0  0
   19.4424  -15.8848   17.5860 H   0  0  0  0  0
   18.5088  -15.2462   19.6012 H   0  0  0  0  0
   13.7383  -10.8275   15.9855 H   0  0  0  0  0
   13.9429  -11.2610   13.5562 H   0  0  0  0  0
   15.3420  -13.1312   12.7413 H   0  0  0  0  0
   16.5704  -14.5874   14.3262 H   0  0  0  0  0
  3  1  4  0  0  0
  1 24  4  0  0  0
  2  3  1  0  0  0
 20  2  1  0  0  0
  3  4  4  0  0  0
  4 23  4  0  0  0
  4 28  4  0  0  0
 20  5  1  0  0  0
  5 21  1  0  0  0
  5 22  2  0  0  0
  8  6  1  0  0  0
  7 17  1  0  0  0
  7 18  2  0  0  0
 19  7  1  0  0  0
  8 12  4  0  0  0
 17  8  4  0  0  0
 10  9  4  0  0  0
 14  9  4  0  0  0
 11 10  4  0  0  0
 12 11  4  0  0  0
 12 13  4  0  0  0
 13 14  4  0  0  0
 15 13  4  0  0  0
 16 15  4  0  0  0
 15 29  1  0  0  0
 17 16  4  0  0  0
 19 20  1  0  0  0
 23 24  4  0  0  0
 23 25  4  0  0  0
 25 26  4  0  0  0
 26 27  4  0  0  0
 27 28  4  0  0  0
  1 30  1  0  0  0
  2 31  1  0  0  0
  2 32  1  0  0  0
  6 33  1  0  0  0
  9 34  1  0  0  0
 10 35  1  0  0  0
 11 36  1  0  0  0
 14 37  1  0  0  0
 19 38  1  0  0  0
 20 39  1  0  0  0
 21 40  1  0  0  0
 25 41  1  0  0  0
 26 42  1  0  0  0
 27 43  1  0  0  0
 28 44  1  0  0  0
M  END
$$$$
