3qt6_ligand
  -I-interpret- 

 33 33  0  0  0  0  0  0  0  0999 V2000
  -25.2360  -23.2340  -18.4070 C   0  0  0  0  0
  -27.0380  -22.4710  -19.7900 N   0  0  0  0  0
  -24.5740  -23.1160  -17.3430 O   0  0  0  0  0
  -26.6360  -22.7670  -18.4540 C   0  0  0  0  0
  -27.5340  -23.8540  -17.9730 C   0  0  0  0  0
  -27.8900  -23.4920  -20.2990 C   0  0  0  0  0
  -28.4920  -24.1450  -19.0980 C   0  0  0  0  0
  -27.0920  -21.2310  -21.6910 O   0  0  0  0  0
  -25.4300  -14.6190  -19.8330 O   0  0  0  0  0
  -23.4860  -18.0640  -22.0650 O   0  0  0  0  0
  -23.8420  -15.7710  -18.3320 O   0  0  0  0  0
  -23.1720  -15.3450  -20.5960 O   0  0  0  0  0
  -23.2270  -18.8310  -19.6940 O   0  0  0  0  0
  -25.7610  -20.2670  -20.0230 C   0  0  0  0  0
  -25.2630  -19.4300  -21.0070 O   0  0  0  0  0
  -24.9670  -17.0590  -20.2170 O   0  0  0  0  0
  -26.6590  -21.3330  -20.5550 C   0  0  0  0  0
  -24.3680  -15.6790  -19.7420 P   0  0  0  0  0
  -24.1880  -18.3240  -20.7570 P   0  0  0  0  0
  -24.6740  -23.7410  -19.4210 O   0  0  0  0  0
  -26.7037  -21.8733  -17.8336 H   0  0  0  0  0
  -28.0688  -23.5494  -17.0734 H   0  0  0  0  0
  -26.9628  -24.7433  -17.7064 H   0  0  0  0  0
  -27.3367  -24.2074  -20.9073 H   0  0  0  0  0
  -28.6563  -23.0817  -20.9567 H   0  0  0  0  0
  -29.4901  -23.7607  -18.8876 H   0  0  0  0  0
  -28.6266  -25.2164  -19.2463 H   0  0  0  0  0
  -23.1654  -16.4506  -18.2878 H   0  0  0  0  0
  -22.5166  -16.0416  -20.5133 H   0  0  0  0  0
  -23.7074  -18.9852  -18.8773 H   0  0  0  0  0
  -26.3458  -19.6560  -19.3354 H   0  0  0  0  0
  -24.9121  -20.7581  -19.5472 H   0  0  0  0  0
  -25.2966  -23.7664  -20.1513 H   0  0  0  0  0
  1  3  2  0  0  0
  4  1  1  0  0  0
  1 20  1  0  0  0
  2  4  1  0  0  0
  2  6  1  0  0  0
 17  2  1  0  0  0
  4  5  1  0  0  0
  7  5  1  0  0  0
  6  7  1  0  0  0
 17  8  2  0  0  0
 18  9  2  0  0  0
 19 10  2  0  0  0
 18 11  1  0  0  0
 18 12  1  0  0  0
 19 13  1  0  0  0
 15 14  1  0  0  0
 14 17  1  0  0  0
 19 15  1  0  0  0
 16 18  1  0  0  0
 16 19  1  0  0  0
  4 21  1  0  0  0
  5 22  1  0  0  0
  5 23  1  0  0  0
  6 24  1  0  0  0
  6 25  1  0  0  0
  7 26  1  0  0  0
  7 27  1  0  0  0
 11 28  1  0  0  0
 12 29  1  0  0  0
 13 30  1  0  0  0
 14 31  1  0  0  0
 14 32  1  0  0  0
 20 33  1  0  0  0
M  END
$$$$
