### 
### Created by X-TOOL on Mon Sep 10 21:12:58 2018
### 

@<TRIPOS>MOLECULE
3d9o_ligand
  124   127     1     0     0
SMALL
GAST_HUCK


@<TRIPOS>ATOM
      1 N          12.8560    0.9580   -1.3290 N.4       1 PRO         0.2461
      2 CA         12.7300    1.3370   -2.7360 C.3       1 PRO         0.0670
      3 C          13.9450    2.1180   -3.2270 C.2       1 PRO         0.2268
      4 O          14.4000    3.0480   -2.5560 O.2       1 PRO        -0.3907
      5 CB         11.4790    2.2300   -2.7540 C.3       1 PRO         0.0127
      6 CG         11.2920    2.6740   -1.3390 C.3       1 PRO        -0.0053
      7 CD         11.7710    1.5220   -0.5080 C.3       1 PRO        -0.0313
      8 N          14.4570    1.7340   -4.3930 N.am      1 SER        -0.2589
      9 CA         15.6220    2.3850   -4.9900 C.3       1 SER         0.1540
     10 C          15.2390    3.7140   -5.6210 C.2       1 SER         0.2063
     11 O          14.0820    3.9190   -6.0000 O.2       1 SER        -0.3943
     12 CB         16.2660    1.4730   -6.0340 C.3       1 SER         0.0843
     13 OG         16.5400    0.1930   -5.4840 O.3       1 SER        -0.3903
     14 N          16.2170    4.6120   -5.7330 N.am      1 TYR        -0.2621
     15 CA         15.9870    5.9380   -6.2970 C.3       1 TYR         0.1390
     16 C          15.6790    5.8840   -7.7880 C.2       1 TYR         0.2058
     17 O          16.3790    5.2200   -8.5590 O.2       1 TYR        -0.3942
     18 CB         17.1840    6.8610   -6.0490 C.3       1 TYR         0.0163
     19 CG         17.0120    8.2590   -6.6050 C.ar      1 TYR        -0.0493
     20 CD1        16.3670    9.2480   -5.8660 C.ar      1 TYR        -0.0685
     21 CD2        17.5100    8.5980   -7.8660 C.ar      1 TYR        -0.0685
     22 CE1        16.2230   10.5340   -6.3620 C.ar      1 TYR        -0.0398
     23 CE2        17.3630    9.8880   -8.3790 C.ar      1 TYR        -0.0398
     24 CZ         16.7260   10.8470   -7.6200 C.ar      1 TYR         0.0805
     25 OH         16.5820   12.1140   -8.1260 O.3       1 TYR        -0.3376
     26 N          14.6250    6.6000   -8.1660 N.am      1 SER        -0.2614
     27 CA         14.2350    6.7780   -9.5490 C.3       1 SER         0.1541
     28 C          14.2780    8.2730   -9.8740 C.2       1 SER         0.2087
     29 O          13.7790    9.0920   -9.0850 O.2       1 SER        -0.3941
     30 CB         12.8210    6.2330   -9.7690 C.3       1 SER         0.0843
     31 OG         12.4010    6.4060  -11.1120 O.3       1 SER        -0.3903
     32 N          14.8690    8.6360  -11.0320 N.am      1 PRO        -0.2498
     33 CA         14.8700   10.0300  -11.4820 C.3       1 PRO         0.1338
     34 C          13.4780   10.5140  -11.9240 C.2       1 PRO         0.2042
     35 O          13.3220   11.6770  -12.2870 O.2       1 PRO        -0.3944
     36 CB         15.8440   10.0120  -12.6690 C.3       1 PRO        -0.0104
     37 CG         15.7450    8.6300  -13.2060 C.3       1 PRO        -0.0281
     38 CD         15.5820    7.7590  -11.9860 C.3       1 PRO         0.0369
     39 N          12.4910    9.6160  -11.9000 N.am      1 THR        -0.2613
     40 CA         11.0850    9.9740  -12.1440 C.3       1 THR         0.1565
     41 C          10.3280   10.3600  -10.8680 C.2       1 THR         0.2065
     42 O           9.2400   10.9410  -10.9350 O.2       1 THR        -0.3943
     43 CB         10.3100    8.8210  -12.8160 C.3       1 THR         0.0924
     44 OG1        10.4030    7.6450  -12.0030 O.3       1 THR        -0.3874
     45 CG2        10.8620    8.5270  -14.2010 C.3       1 THR        -0.0346
     46 N          10.8930   10.0170   -9.7130 N.am      1 SER        -0.2615
     47 CA         10.2360   10.2430   -8.4200 C.3       1 SER         0.1541
     48 C          10.2740   11.7070   -7.9760 C.2       1 SER         0.2087
     49 O          11.3290   12.3460   -8.0460 O.2       1 SER        -0.3941
     50 CB         10.8320    9.3350   -7.3370 C.3       1 SER         0.0843
     51 OG         10.0950    8.1260   -7.2300 O.3       1 SER        -0.3903
     52 N           9.1170   12.2430   -7.5330 N.am      1 PRO        -0.2498
     53 CA          9.0000   13.6250   -7.0520 C.3       1 PRO         0.1338
     54 C           9.9340   13.9690   -5.8870 C.2       1 PRO         0.2042
     55 O          10.3020   13.0920   -5.0990 O.2       1 PRO        -0.3944
     56 CB          7.5360   13.7170   -6.6030 C.3       1 PRO        -0.0104
     57 CG          6.8340   12.6810   -7.4080 C.3       1 PRO        -0.0281
     58 CD          7.8120   11.5510   -7.4990 C.3       1 PRO         0.0369
     59 N          10.2980   15.2460   -5.7890 N.am      1 SER        -0.2627
     60 CA         11.1730   15.7530   -4.7260 C.3       1 SER         0.1356
     61 C          10.5020   15.8040   -3.3520 C.2       1 SER         0.1267
     62 O           9.3130   15.5060   -3.2090 O.2       1 SER        -0.3724
     63 CB         11.7110   17.1370   -5.1000 C.3       1 SER         0.0830
     64 OG         12.5350   17.0570   -6.2550 O.3       1 SER        -0.3903
     65 H1         13.7388    1.2956   -0.9785 H         1 PRO         0.2035
     66 H2         12.8288   -0.0472   -1.2587 H         1 PRO         0.2035
     67 H3         12.5892    0.4473   -3.3673 H         1 PRO         0.1099
     68 H4         10.6034    1.6599   -3.0980 H         1 PRO         0.0347
     69 H5         11.6339    3.0972   -3.4128 H         1 PRO         0.0347
     70 H6         10.2314    2.8834   -1.1358 H         1 PRO         0.0320
     71 H7         11.8895    3.5744   -1.1335 H         1 PRO         0.0320
     72 H8         12.1487    1.8660    0.4662 H         1 PRO         0.0814
     73 H9         10.9689    0.7858   -0.3511 H         1 PRO         0.0814
     74 H10        14.0293    0.9719   -4.8792 H         1 SER         0.1885
     75 H11        16.3565    2.5775   -4.1941 H         1 SER         0.0823
     76 H12        17.2071    1.9267   -6.3781 H         1 SER         0.0606
     77 H13        15.5802    1.3600   -6.8866 H         1 SER         0.0606
     78 H14        17.1346    0.2861   -4.7490 H         1 SER         0.2097
     79 H15        17.1359    4.3701   -5.4213 H         1 TYR         0.1885
     80 H16        15.1127    6.3688   -5.7871 H         1 TYR         0.0821
     81 H17        18.0711    6.4097   -6.5173 H         1 TYR         0.0453
     82 H18        17.3417    6.9381   -4.9631 H         1 TYR         0.0453
     83 H19        15.9709    9.0076   -4.8860 H         1 TYR         0.0530
     84 H20        18.0198    7.8454   -8.4566 H         1 TYR         0.0530
     85 H21        15.7207   11.2922   -5.7722 H         1 TYR         0.0525
     86 H22        17.7454   10.1331   -9.3632 H         1 TYR         0.0525
     87 H23        16.0798   12.0769   -8.9316 H         1 TYR         0.2458
     88 H24        14.0721    7.0390   -7.4578 H         1 SER         0.1884
     89 H25        14.9369    6.2388  -10.2021 H         1 SER         0.0823
     90 H26        12.1249    6.7666   -9.1052 H         1 SER         0.0606
     91 H27        12.8095    5.1602   -9.5263 H         1 SER         0.0606
     92 H28        11.5228    6.0587  -11.2152 H         1 SER         0.2097
     93 H29        15.2396   10.6902  -10.6836 H         1 PRO         0.0802
     94 H30        16.8696   10.2272  -12.3345 H         1 PRO         0.0313
     95 H31        15.5444   10.7478  -13.4298 H         1 PRO         0.0313
     96 H32        16.6587    8.3607  -13.7561 H         1 PRO         0.0287
     97 H33        14.8744    8.5333  -13.8713 H         1 PRO         0.0287
     98 H34        14.9867    6.8637  -12.2182 H         1 PRO         0.0524
     99 H35        16.5605    7.4551  -11.5857 H         1 PRO         0.0524
    100 H36        12.7163    8.6608  -11.7083 H         1 THR         0.1884
    101 H37        11.0792   10.8402  -12.8220 H         1 THR         0.0826
    102 H38         9.2532    9.1112  -12.9099 H         1 THR         0.0639
    103 H39        11.3156    7.3996  -11.9063 H         1 THR         0.2101
    104 H40        10.2923    7.7031  -14.6554 H         1 THR         0.0257
    105 H41        11.9208    8.2399  -14.1204 H         1 THR         0.0257
    106 H42        10.7724    9.4252  -14.8297 H         1 THR         0.0257
    107 H43        11.7972    9.5901   -9.7264 H         1 SER         0.1884
    108 H44         9.1781    9.9670   -8.5411 H         1 SER         0.0823
    109 H45        10.8049    9.8604   -6.3710 H         1 SER         0.0606
    110 H46        11.8745    9.0998   -7.5973 H         1 SER         0.0606
    111 H47        10.4807    7.5800   -6.5550 H         1 SER         0.2097
    112 H48         9.1984   14.3254   -7.8767 H         1 PRO         0.0802
    113 H49         7.1268   14.7161   -6.8133 H         1 PRO         0.0313
    114 H50         7.4447   13.5021   -5.5281 H         1 PRO         0.0313
    115 H51         6.5901   13.0657   -8.4092 H         1 PRO         0.0287
    116 H52         5.9111   12.3569   -6.9049 H         1 PRO         0.0287
    117 H53         7.7369   10.8916   -6.6218 H         1 PRO         0.0524
    118 H54         7.6524   10.9628   -8.4147 H         1 PRO         0.0524
    119 H55         9.9584   15.8911   -6.4734 H         1 SER         0.1885
    120 H56        12.0276   15.0648   -4.6486 H         1 SER         0.0813
    121 H57        11.0845   16.1090   -2.4839 H         1 SER         0.1374
    122 H58        12.3015   17.5343   -4.2613 H         1 SER         0.0607
    123 H59        10.8657   17.8104   -5.3048 H         1 SER         0.0607
    124 H60        13.2676   16.4779   -6.0805 H         1 SER         0.2097
@<TRIPOS>BOND
     1    1    2 1  
     2    1    7 1  
     3    2    3 1  
     4    2    5 1  
     5    3    4 2  
     6    3    8 am 
     7    5    6 1  
     8    6    7 1  
     9    8    9 1  
    10    9   10 1  
    11    9   12 1  
    12   10   11 2  
    13   10   14 am 
    14   12   13 1  
    15   14   15 1  
    16   15   16 1  
    17   15   18 1  
    18   16   17 2  
    19   16   26 am 
    20   18   19 1  
    21   19   20 ar 
    22   19   21 ar 
    23   20   22 ar 
    24   21   23 ar 
    25   22   24 ar 
    26   23   24 ar 
    27   24   25 1  
    28   26   27 1  
    29   27   28 1  
    30   27   30 1  
    31   28   29 2  
    32   28   32 am 
    33   30   31 1  
    34   32   33 1  
    35   32   38 1  
    36   33   34 1  
    37   33   36 1  
    38   34   35 2  
    39   34   39 am 
    40   36   37 1  
    41   37   38 1  
    42   39   40 1  
    43   40   41 1  
    44   40   43 1  
    45   41   42 2  
    46   41   46 am 
    47   43   44 1  
    48   43   45 1  
    49   46   47 1  
    50   47   48 1  
    51   47   50 1  
    52   48   49 2  
    53   48   52 am 
    54   50   51 1  
    55   52   53 1  
    56   52   58 1  
    57   53   54 1  
    58   53   56 1  
    59   54   55 2  
    60   54   59 am 
    61   56   57 1  
    62   57   58 1  
    63   59   60 1  
    64   60   61 1  
    65   60   63 1  
    66   61   62 2  
    67   63   64 1  
    68    1   65 1  
    69    1   66 1  
    70    2   67 1  
    71    5   68 1  
    72    5   69 1  
    73    6   70 1  
    74    6   71 1  
    75    7   72 1  
    76    7   73 1  
    77    8   74 1  
    78    9   75 1  
    79   12   76 1  
    80   12   77 1  
    81   13   78 1  
    82   14   79 1  
    83   15   80 1  
    84   18   81 1  
    85   18   82 1  
    86   20   83 1  
    87   21   84 1  
    88   22   85 1  
    89   23   86 1  
    90   25   87 1  
    91   26   88 1  
    92   27   89 1  
    93   30   90 1  
    94   30   91 1  
    95   31   92 1  
    96   33   93 1  
    97   36   94 1  
    98   36   95 1  
    99   37   96 1  
   100   37   97 1  
   101   38   98 1  
   102   38   99 1  
   103   39  100 1  
   104   40  101 1  
   105   43  102 1  
   106   44  103 1  
   107   45  104 1  
   108   45  105 1  
   109   45  106 1  
   110   46  107 1  
   111   47  108 1  
   112   50  109 1  
   113   50  110 1  
   114   51  111 1  
   115   53  112 1  
   116   56  113 1  
   117   56  114 1  
   118   57  115 1  
   119   57  116 1  
   120   58  117 1  
   121   58  118 1  
   122   59  119 1  
   123   60  120 1  
   124   61  121 1  
   125   63  122 1  
   126   63  123 1  
   127   64  124 1  
@<TRIPOS>SUBSTRUCTURE
     1 PRO         1

