3d9o_ligand
  -I-interpret- 

124127  0  0  0  0  0  0  0  0999 V2000
   12.8560    0.9580   -1.3290 N   0  3  0  0  0
   12.7300    1.3370   -2.7360 C   0  0  0  0  0
   13.9450    2.1180   -3.2270 C   0  0  0  0  0
   14.4000    3.0480   -2.5560 O   0  0  0  0  0
   11.4790    2.2300   -2.7540 C   0  0  0  0  0
   11.2920    2.6740   -1.3390 C   0  0  0  0  0
   11.7710    1.5220   -0.5080 C   0  0  0  0  0
   14.4570    1.7340   -4.3930 N   0  0  0  0  0
   15.6220    2.3850   -4.9900 C   0  0  0  0  0
   15.2390    3.7140   -5.6210 C   0  0  0  0  0
   14.0820    3.9190   -6.0000 O   0  0  0  0  0
   16.2660    1.4730   -6.0340 C   0  0  0  0  0
   16.5400    0.1930   -5.4840 O   0  0  0  0  0
   16.2170    4.6120   -5.7330 N   0  0  0  0  0
   15.9870    5.9380   -6.2970 C   0  0  0  0  0
   15.6790    5.8840   -7.7880 C   0  0  0  0  0
   16.3790    5.2200   -8.5590 O   0  0  0  0  0
   17.1840    6.8610   -6.0490 C   0  0  0  0  0
   17.0120    8.2590   -6.6050 C   0  0  0  0  0
   16.3670    9.2480   -5.8660 C   0  0  0  0  0
   17.5100    8.5980   -7.8660 C   0  0  0  0  0
   16.2230   10.5340   -6.3620 C   0  0  0  0  0
   17.3630    9.8880   -8.3790 C   0  0  0  0  0
   16.7260   10.8470   -7.6200 C   0  0  0  0  0
   16.5820   12.1140   -8.1260 O   0  0  0  0  0
   14.6250    6.6000   -8.1660 N   0  0  0  0  0
   14.2350    6.7780   -9.5490 C   0  0  0  0  0
   14.2780    8.2730   -9.8740 C   0  0  0  0  0
   13.7790    9.0920   -9.0850 O   0  0  0  0  0
   12.8210    6.2330   -9.7690 C   0  0  0  0  0
   12.4010    6.4060  -11.1120 O   0  0  0  0  0
   14.8690    8.6360  -11.0320 N   0  0  0  0  0
   14.8700   10.0300  -11.4820 C   0  0  0  0  0
   13.4780   10.5140  -11.9240 C   0  0  0  0  0
   13.3220   11.6770  -12.2870 O   0  0  0  0  0
   15.8440   10.0120  -12.6690 C   0  0  0  0  0
   15.7450    8.6300  -13.2060 C   0  0  0  0  0
   15.5820    7.7590  -11.9860 C   0  0  0  0  0
   12.4910    9.6160  -11.9000 N   0  0  0  0  0
   11.0850    9.9740  -12.1440 C   0  0  0  0  0
   10.3280   10.3600  -10.8680 C   0  0  0  0  0
    9.2400   10.9410  -10.9350 O   0  0  0  0  0
   10.3100    8.8210  -12.8160 C   0  0  0  0  0
   10.4030    7.6450  -12.0030 O   0  0  0  0  0
   10.8620    8.5270  -14.2010 C   0  0  0  0  0
   10.8930   10.0170   -9.7130 N   0  0  0  0  0
   10.2360   10.2430   -8.4200 C   0  0  0  0  0
   10.2740   11.7070   -7.9760 C   0  0  0  0  0
   11.3290   12.3460   -8.0460 O   0  0  0  0  0
   10.8320    9.3350   -7.3370 C   0  0  0  0  0
   10.0950    8.1260   -7.2300 O   0  0  0  0  0
    9.1170   12.2430   -7.5330 N   0  0  0  0  0
    9.0000   13.6250   -7.0520 C   0  0  0  0  0
    9.9340   13.9690   -5.8870 C   0  0  0  0  0
   10.3020   13.0920   -5.0990 O   0  0  0  0  0
    7.5360   13.7170   -6.6030 C   0  0  0  0  0
    6.8340   12.6810   -7.4080 C   0  0  0  0  0
    7.8120   11.5510   -7.4990 C   0  0  0  0  0
   10.2980   15.2460   -5.7890 N   0  0  0  0  0
   11.1730   15.7530   -4.7260 C   0  0  0  0  0
   10.5020   15.8040   -3.3520 C   0  0  0  0  0
    9.3130   15.5060   -3.2090 O   0  0  0  0  0
   11.7110   17.1370   -5.1000 C   0  0  0  0  0
   12.5350   17.0570   -6.2550 O   0  0  0  0  0
   13.7429    1.3201   -0.9788 H   0  0  0  0  0
   12.8083   -0.0590   -1.2666 H   0  0  0  0  0
   12.6584    0.4684   -3.3907 H   0  0  0  0  0
   10.6067    1.6916   -3.1245 H   0  0  0  0  0
   11.6006    3.0779   -3.4281 H   0  0  0  0  0
   10.2522    2.9223   -1.1263 H   0  0  0  0  0
   11.8471    3.5871   -1.1241 H   0  0  0  0  0
   12.1030    1.8239    0.4853 H   0  0  0  0  0
   10.9843    0.7998   -0.2895 H   0  0  0  0  0
   14.0208    0.9567   -4.8889 H   0  0  0  0  0
   16.3439    2.5780   -4.1965 H   0  0  0  0  0
   17.2029    1.9222   -6.3634 H   0  0  0  0  0
   15.5780    1.3561   -6.8713 H   0  0  0  0  0
   16.9433   -0.3627   -6.1550 H   0  0  0  0  0
   17.1542    4.3652   -5.4151 H   0  0  0  0  0
   15.1131    6.3431   -5.7867 H   0  0  0  0  0
   18.0432    6.4172   -6.5520 H   0  0  0  0  0
   17.3004    6.9553   -4.9693 H   0  0  0  0  0
   15.9687    9.0063   -4.8806 H   0  0  0  0  0
   18.0226    7.8413   -8.4599 H   0  0  0  0  0
   15.7179   11.2964   -5.7689 H   0  0  0  0  0
   17.7475   10.1345   -9.3687 H   0  0  0  0  0
   16.9831   12.1569   -8.9971 H   0  0  0  0  0
   14.0610    7.0478   -7.4436 H   0  0  0  0  0
   14.9177    6.2349  -10.2025 H   0  0  0  0  0
   12.1358    6.7782   -9.1199 H   0  0  0  0  0
   12.8226    5.1669   -9.5422 H   0  0  0  0  0
   11.5135    6.0551  -11.2163 H   0  0  0  0  0
   15.1568   10.7164  -10.6853 H   0  0  0  0  0
   16.8612   10.2630  -12.3683 H   0  0  0  0  0
   15.5908   10.7620  -13.4183 H   0  0  0  0  0
   16.6243    8.3551  -13.7886 H   0  0  0  0  0
   14.9110    8.5208  -13.8992 H   0  0  0  0  0
   15.0364    6.8394  -12.1977 H   0  0  0  0  0
   16.5352    7.4026  -11.5954 H   0  0  0  0  0
   12.7208    8.6416  -11.7045 H   0  0  0  0  0
   11.1323   10.8402  -12.8039 H   0  0  0  0  0
    9.2670    9.1205  -12.9186 H   0  0  0  0  0
    9.9205    6.9286  -12.4221 H   0  0  0  0  0
   10.7727    9.4177  -14.8229 H   0  0  0  0  0
   11.9111    8.2427  -14.1198 H   0  0  0  0  0
   10.2967    7.7105  -14.6502 H   0  0  0  0  0
   11.8153    9.5816   -9.7267 H   0  0  0  0  0
    9.1861    9.9861   -8.5606 H   0  0  0  0  0
   10.7923    9.8564   -6.3806 H   0  0  0  0  0
   11.8610    9.0964   -7.6059 H   0  0  0  0  0
   10.4847    7.5743   -6.5479 H   0  0  0  0  0
    9.2850   14.3313   -7.8318 H   0  0  0  0  0
    7.1205   14.7116   -6.7652 H   0  0  0  0  0
    7.4255   13.5467   -5.5321 H   0  0  0  0  0
    6.5466   13.0529   -8.3915 H   0  0  0  0  0
    5.8951   12.3728   -6.9480 H   0  0  0  0  0
    7.7268   10.8506   -6.6682 H   0  0  0  0  0
    7.6465   10.9183   -8.3710 H   0  0  0  0  0
    9.9516   15.9040   -6.4871 H   0  0  0  0  0
   11.9947   15.0419   -4.6410 H   0  0  0  0  0
   11.0851   16.1093   -2.4831 H   0  0  0  0  0
   12.3026   17.5225   -4.2697 H   0  0  0  0  0
   10.8703   17.7980   -5.3106 H   0  0  0  0  0
   12.8627   17.9323   -6.4742 H   0  0  0  0  0
  1  2  1  0  0  0
  1  7  1  0  0  0
  2  3  1  0  0  0
  2  5  1  0  0  0
  3  4  2  0  0  0
  3  8  1  0  0  0
  5  6  1  0  0  0
  6  7  1  0  0  0
  8  9  1  0  0  0
  9 10  1  0  0  0
  9 12  1  0  0  0
 10 11  2  0  0  0
 10 14  1  0  0  0
 12 13  1  0  0  0
 14 15  1  0  0  0
 15 16  1  0  0  0
 15 18  1  0  0  0
 16 17  2  0  0  0
 16 26  1  0  0  0
 18 19  1  0  0  0
 19 20  4  0  0  0
 19 21  4  0  0  0
 20 22  4  0  0  0
 21 23  4  0  0  0
 22 24  4  0  0  0
 23 24  4  0  0  0
 24 25  1  0  0  0
 26 27  1  0  0  0
 27 28  1  0  0  0
 27 30  1  0  0  0
 28 29  2  0  0  0
 28 32  1  0  0  0
 30 31  1  0  0  0
 32 33  1  0  0  0
 32 38  1  0  0  0
 33 34  1  0  0  0
 33 36  1  0  0  0
 34 35  2  0  0  0
 34 39  1  0  0  0
 36 37  1  0  0  0
 37 38  1  0  0  0
 39 40  1  0  0  0
 40 41  1  0  0  0
 40 43  1  0  0  0
 41 42  2  0  0  0
 41 46  1  0  0  0
 43 44  1  0  0  0
 43 45  1  0  0  0
 46 47  1  0  0  0
 47 48  1  0  0  0
 47 50  1  0  0  0
 48 49  2  0  0  0
 48 52  1  0  0  0
 50 51  1  0  0  0
 52 53  1  0  0  0
 52 58  1  0  0  0
 53 54  1  0  0  0
 53 56  1  0  0  0
 54 55  2  0  0  0
 54 59  1  0  0  0
 56 57  1  0  0  0
 57 58  1  0  0  0
 59 60  1  0  0  0
 60 61  1  0  0  0
 60 63  1  0  0  0
 61 62  2  0  0  0
 63 64  1  0  0  0
  1 65  1  0  0  0
  1 66  1  0  0  0
  2 67  1  0  0  0
  5 68  1  0  0  0
  5 69  1  0  0  0
  6 70  1  0  0  0
  6 71  1  0  0  0
  7 72  1  0  0  0
  7 73  1  0  0  0
  8 74  1  0  0  0
  9 75  1  0  0  0
 12 76  1  0  0  0
 12 77  1  0  0  0
 13 78  1  0  0  0
 14 79  1  0  0  0
 15 80  1  0  0  0
 18 81  1  0  0  0
 18 82  1  0  0  0
 20 83  1  0  0  0
 21 84  1  0  0  0
 22 85  1  0  0  0
 23 86  1  0  0  0
 25 87  1  0  0  0
 26 88  1  0  0  0
 27 89  1  0  0  0
 30 90  1  0  0  0
 30 91  1  0  0  0
 31 92  1  0  0  0
 33 93  1  0  0  0
 36 94  1  0  0  0
 36 95  1  0  0  0
 37 96  1  0  0  0
 37 97  1  0  0  0
 38 98  1  0  0  0
 38 99  1  0  0  0
 39100  1  0  0  0
 40101  1  0  0  0
 43102  1  0  0  0
 44103  1  0  0  0
 45104  1  0  0  0
 45105  1  0  0  0
 45106  1  0  0  0
 46107  1  0  0  0
 47108  1  0  0  0
 50109  1  0  0  0
 50110  1  0  0  0
 51111  1  0  0  0
 53112  1  0  0  0
 56113  1  0  0  0
 56114  1  0  0  0
 57115  1  0  0  0
 57116  1  0  0  0
 58117  1  0  0  0
 58118  1  0  0  0
 59119  1  0  0  0
 60120  1  0  0  0
 61121  1  0  0  0
 63122  1  0  0  0
 63123  1  0  0  0
 64124  1  0  0  0
M  END
$$$$
