4eh2_ligand
  -I-interpret- 

 27 29  0  0  0  0  0  0  0  0999 V2000
    3.0150   -1.5750   18.0250 C   0  0  0  0  0
    3.3240   -2.0310   16.7430 C   0  0  0  0  0
    4.6350   -1.9640   16.2660 C   0  0  0  0  0
    5.6460   -1.4390   17.0700 C   0  0  0  0  0
    5.3420   -0.9830   18.3530 C   0  0  0  0  0
    4.0270   -1.0460   18.8320 C   0  0  0  0  0
    3.7710   -0.5900   20.1470 N   0  0  0  0  0
    3.5660    0.7790   20.4400 C   0  0  0  0  0
    3.3480    1.1720   21.6950 N   0  0  0  0  0
    3.3130    0.3020   22.7320 C   0  0  0  0  0
    3.0750    0.7690   24.0290 C   0  0  0  0  0
    3.0290   -0.1210   25.1050 C   0  0  0  0  0
    3.2250   -1.4850   24.8970 C   0  0  0  0  0
    3.4550   -1.9590   23.6040 C   0  0  0  0  0
    3.5030   -1.0700   22.5180 C   0  0  0  0  0
    3.7360   -1.5260   21.2110 C   0  0  0  0  0
    3.9020   -2.7270   20.9760 O   0  0  0  0  0
    1.9913   -1.6308   18.3950 H   0  0  0  0  0
    2.5375   -2.4420   16.1100 H   0  0  0  0  0
    4.8682   -2.3227   15.2635 H   0  0  0  0  0
    6.6691   -1.3851   16.6979 H   0  0  0  0  0
    6.1310   -0.5760   18.9854 H   0  0  0  0  0
    3.5864    1.5151   19.6364 H   0  0  0  0  0
    2.9244    1.8347   24.2013 H   0  0  0  0  0
    2.8391    0.2529   26.1111 H   0  0  0  0  0
    3.1989   -2.1774   25.7384 H   0  0  0  0  0
    3.5983   -3.0265   23.4364 H   0  0  0  0  0
  1  2  4  0  0  0
  1  6  4  0  0  0
  2  3  4  0  0  0
  3  4  4  0  0  0
  4  5  4  0  0  0
  5  6  4  0  0  0
  6  7  1  0  0  0
  7  8  1  0  0  0
  7 16  1  0  0  0
  8  9  2  0  0  0
  9 10  1  0  0  0
 10 11  4  0  0  0
 10 15  4  0  0  0
 11 12  4  0  0  0
 12 13  4  0  0  0
 13 14  4  0  0  0
 14 15  4  0  0  0
 15 16  1  0  0  0
 16 17  2  0  0  0
  1 18  1  0  0  0
  2 19  1  0  0  0
  3 20  1  0  0  0
  4 21  1  0  0  0
  5 22  1  0  0  0
  8 23  1  0  0  0
 11 24  1  0  0  0
 12 25  1  0  0  0
 13 26  1  0  0  0
 14 27  1  0  0  0
M  END
$$$$
