### 
### Created by X-TOOL on Mon Sep 10 21:13:25 2018
### 

@<TRIPOS>MOLECULE
5c6v_ligand
  100    99     1     0     0
SMALL
GAST_HUCK


@<TRIPOS>ATOM
      1 N           0.5480   62.4560  173.0980 N.4       1 GLY         0.2357
      2 CA         -0.8610   62.2960  173.4170 C.3       1 GLY         0.0545
      3 C          -1.7710   62.9170  172.3740 C.2       1 GLY         0.2236
      4 O          -2.5570   62.2210  171.7320 O.2       1 GLY        -0.3910
      5 N          -1.7210   64.2420  172.2710 N.am      1 LEU        -0.2613
      6 CA         -2.3810   64.9950  171.1960 C.3       1 LEU         0.1313
      7 C          -1.4430   65.4530  170.0840 C.2       1 LEU         0.2039
      8 O          -1.8050   66.3010  169.2610 O.2       1 LEU        -0.3944
      9 CB         -3.1450   66.1940  171.7370 C.3       1 LEU        -0.0101
     10 CG         -4.5300   65.9370  172.3330 C.3       1 LEU        -0.0425
     11 CD1        -4.6570   64.6500  173.1330 C.3       1 LEU        -0.0625
     12 CD2        -4.9160   67.1380  173.1680 C.3       1 LEU        -0.0625
     13 N          -0.2180   64.9460  170.1050 N.am      1 GLU        -0.2636
     14 CA          0.7570   65.2900  169.0910 C.3       1 GLU         0.1325
     15 C           0.2870   64.7470  167.7360 C.2       1 GLU         0.2040
     16 O          -0.2880   63.6550  167.6600 O.2       1 GLU        -0.3944
     17 CB          2.1120   64.6970  169.4790 C.3       1 GLU        -0.0008
     18 CG          3.3360   65.4210  168.9570 C.3       1 GLU         0.0044
     19 CD          4.6180   64.6720  169.2860 C.2       1 GLU         0.0350
     20 OE1         4.9180   63.6880  168.5770 O.co2     1 GLU        -0.5690
     21 OE2         5.3150   65.0530  170.2540 O.co2     1 GLU        -0.5690
     22 N           0.5020   65.5110  166.6700 N.am      1 LEU        -0.2637
     23 CA          0.1560   65.0290  165.3410 C.3       1 LEU         0.1312
     24 C           1.2600   64.0480  164.9430 C.2       1 LEU         0.2040
     25 O           2.4290   64.2890  165.2520 O.2       1 LEU        -0.3944
     26 CB          0.0240   66.1870  164.3570 C.3       1 LEU        -0.0101
     27 CG         -0.8730   67.3090  164.8910 C.3       1 LEU        -0.0425
     28 CD1        -1.0070   68.4610  163.9080 C.3       1 LEU        -0.0625
     29 CD2        -2.2380   66.7690  165.2630 C.3       1 LEU        -0.0625
     30 N           0.9120   62.9530  164.2690 N.am      1 SER        -0.2616
     31 CA          1.9190   61.9610  163.8600 C.3       1 SER         0.1539
     32 C           1.5210   61.1330  162.6430 C.2       1 SER         0.2062
     33 O           0.4030   61.2330  162.1500 O.2       1 SER        -0.3943
     34 CB          2.2400   61.0050  165.0190 C.3       1 SER         0.0843
     35 OG          2.9450   61.6630  166.0580 O.3       1 SER        -0.3903
     36 N           2.4470   60.3050  162.1690 N.am      1 LEU        -0.2637
     37 CA          2.1980   59.4750  160.9960 C.3       1 LEU         0.1312
     38 C           1.1790   58.3640  161.2490 C.2       1 LEU         0.2031
     39 O           0.3330   58.0870  160.3940 O.2       1 LEU        -0.3944
     40 CB          3.5150   58.8810  160.4910 C.3       1 LEU        -0.0101
     41 CG          4.0650   59.5800  159.2510 C.3       1 LEU        -0.0425
     42 CD1         5.3460   58.9320  158.7330 C.3       1 LEU        -0.0625
     43 CD2         2.9800   59.5240  158.1880 C.3       1 LEU        -0.0625
     44 N           1.2410   57.7450  162.4230 N.am      1 GLY        -0.2722
     45 CA          0.3460   56.6460  162.7410 C.3       1 GLY         0.0833
     46 C           0.0780   56.5080  164.2260 C.2       1 GLY         0.0570
     47 O          -0.0730   57.5030  164.9380 O.co2     1 GLY        -0.5669
     48 OXT         0.0050   55.3980  164.7560 O.co2     1 GLY        -0.5669
     49 H1          1.1066   62.0277  173.8195 H         1 GLY         0.2012
     50 H2          0.7699   63.4375  173.0395 H         1 GLY         0.2012
     51 H3          0.7447   62.0137  172.2138 H         1 GLY         0.2012
     52 H4         -1.0590   62.7753  174.3871 H         1 GLY         0.1061
     53 H5         -1.0865   61.2216  173.4860 H         1 GLY         0.1061
     54 H6         -1.2076   64.7521  172.9610 H         1 LEU         0.1884
     55 H7         -3.1137   64.3134  170.7392 H         1 LEU         0.0800
     56 H8         -3.2697   66.9067  170.9085 H         1 LEU         0.0315
     57 H9         -2.5271   66.6510  172.5240 H         1 LEU         0.0315
     58 H10        -5.2385   65.8611  171.4950 H         1 LEU         0.0298
     59 H11        -5.6835   64.5569  173.5173 H         1 LEU         0.0232
     60 H12        -3.9505   64.6709  173.9759 H         1 LEU         0.0232
     61 H13        -4.4290   63.7912  172.4846 H         1 LEU         0.0232
     62 H14        -4.8145   68.0520  172.5645 H         1 LEU         0.0232
     63 H15        -4.2552   67.2025  174.0450 H         1 LEU         0.0232
     64 H16        -5.9589   67.0328  173.5016 H         1 LEU         0.0232
     65 H17         0.0378   64.3132  170.8359 H         1 GLU         0.1883
     66 H18         0.8485   66.3843  169.0272 H         1 GLU         0.0801
     67 H19         2.1467   63.6647  169.1008 H         1 GLU         0.0330
     68 H20         2.1715   64.6874  170.5773 H         1 GLU         0.0330
     69 H21         3.3804   66.4206  169.4140 H         1 GLU         0.0433
     70 H22         3.2521   65.5205  167.8647 H         1 GLU         0.0433
     71 H23         0.9029   66.4203  166.7814 H         1 LEU         0.1883
     72 H24        -0.8060   64.4970  165.3806 H         1 LEU         0.0800
     73 H25        -0.4072   65.8063  163.4194 H         1 LEU         0.0315
     74 H26         1.0248   66.5987  164.1598 H         1 LEU         0.0315
     75 H27        -0.4037   67.7035  165.8043 H         1 LEU         0.0298
     76 H28        -1.6582   69.2362  164.3382 H         1 LEU         0.0232
     77 H29        -1.4463   68.0927  162.9692 H         1 LEU         0.0232
     78 H30        -0.0136   68.8877  163.7055 H         1 LEU         0.0232
     79 H31        -2.1221   65.9375  165.9737 H         1 LEU         0.0232
     80 H32        -2.7491   66.4091  164.3579 H         1 LEU         0.0232
     81 H33        -2.8343   67.5681  165.7277 H         1 LEU         0.0232
     82 H34        -0.0491   62.8027  164.0372 H         1 SER         0.1884
     83 H35         2.8350   62.5131  163.6027 H         1 SER         0.0823
     84 H36         2.8559   60.1768  164.6385 H         1 SER         0.0606
     85 H37         1.2983   60.6058  165.4238 H         1 SER         0.0606
     86 H38         2.4166   62.3769  166.3950 H         1 SER         0.2097
     87 H39         3.3342   60.2501  162.6271 H         1 LEU         0.1883
     88 H40         1.7902   60.1256  160.2084 H         1 LEU         0.0800
     89 H41         3.3478   57.8214  160.2474 H         1 LEU         0.0315
     90 H42         4.2623   58.9591  161.2943 H         1 LEU         0.0315
     91 H43         4.2824   60.6296  159.4982 H         1 LEU         0.0298
     92 H44         5.6967   59.4738  157.8422 H         1 LEU         0.0232
     93 H45         5.1455   57.8832  158.4688 H         1 LEU         0.0232
     94 H46         6.1191   58.9720  159.5145 H         1 LEU         0.0232
     95 H47         2.0636   59.9940  158.5744 H         1 LEU         0.0232
     96 H48         2.7733   58.4749  157.9299 H         1 LEU         0.0232
     97 H49         3.3179   60.0627  157.2904 H         1 LEU         0.0232
     98 H50         1.9155   58.0408  163.0994 H         1 GLY         0.1873
     99 H51         0.7975   55.7107  162.3784 H         1 GLY         0.0689
    100 H52        -0.6117   56.8144  162.2267 H         1 GLY         0.0689
@<TRIPOS>BOND
     1    1    2 1  
     2    2    3 1  
     3    3    4 2  
     4    3    5 am 
     5    5    6 1  
     6    6    7 1  
     7    6    9 1  
     8    7    8 2  
     9    7   13 am 
    10    9   10 1  
    11   10   11 1  
    12   10   12 1  
    13   13   14 1  
    14   14   15 1  
    15   14   17 1  
    16   15   16 2  
    17   15   22 am 
    18   17   18 1  
    19   18   19 1  
    20   19   20 ar 
    21   19   21 ar 
    22   22   23 1  
    23   23   24 1  
    24   23   26 1  
    25   24   25 2  
    26   24   30 am 
    27   26   27 1  
    28   27   28 1  
    29   27   29 1  
    30   30   31 1  
    31   31   32 1  
    32   31   34 1  
    33   32   33 2  
    34   32   36 am 
    35   34   35 1  
    36   36   37 1  
    37   37   38 1  
    38   37   40 1  
    39   38   39 2  
    40   38   44 am 
    41   40   41 1  
    42   41   42 1  
    43   41   43 1  
    44   44   45 1  
    45   45   46 1  
    46   46   47 ar 
    47   46   48 ar 
    48    1   49 1  
    49    1   50 1  
    50    1   51 1  
    51    2   52 1  
    52    2   53 1  
    53    5   54 1  
    54    6   55 1  
    55    9   56 1  
    56    9   57 1  
    57   10   58 1  
    58   11   59 1  
    59   11   60 1  
    60   11   61 1  
    61   12   62 1  
    62   12   63 1  
    63   12   64 1  
    64   13   65 1  
    65   14   66 1  
    66   17   67 1  
    67   17   68 1  
    68   18   69 1  
    69   18   70 1  
    70   22   71 1  
    71   23   72 1  
    72   26   73 1  
    73   26   74 1  
    74   27   75 1  
    75   28   76 1  
    76   28   77 1  
    77   28   78 1  
    78   29   79 1  
    79   29   80 1  
    80   29   81 1  
    81   30   82 1  
    82   31   83 1  
    83   34   84 1  
    84   34   85 1  
    85   35   86 1  
    86   36   87 1  
    87   37   88 1  
    88   40   89 1  
    89   40   90 1  
    90   41   91 1  
    91   42   92 1  
    92   42   93 1  
    93   42   94 1  
    94   43   95 1  
    95   43   96 1  
    96   43   97 1  
    97   44   98 1  
    98   45   99 1  
    99   45  100 1  
@<TRIPOS>SUBSTRUCTURE
     1 GLY         1

