5c6v_ligand
  -I-interpret- 

102101  0  0  0  0  0  0  0  0999 V2000
    0.5480   62.4560  173.0980 N   0  3  0  0  0
   -0.8610   62.2960  173.4170 C   0  0  0  0  0
   -1.7710   62.9170  172.3740 C   0  0  0  0  0
   -2.5570   62.2210  171.7320 O   0  0  0  0  0
   -1.7210   64.2420  172.2710 N   0  0  0  0  0
   -2.3810   64.9950  171.1960 C   0  0  0  0  0
   -1.4430   65.4530  170.0840 C   0  0  0  0  0
   -1.8050   66.3010  169.2610 O   0  0  0  0  0
   -3.1450   66.1940  171.7370 C   0  0  0  0  0
   -4.5300   65.9370  172.3330 C   0  0  0  0  0
   -4.6570   64.6500  173.1330 C   0  0  0  0  0
   -4.9160   67.1380  173.1680 C   0  0  0  0  0
   -0.2180   64.9460  170.1050 N   0  0  0  0  0
    0.7570   65.2900  169.0910 C   0  0  0  0  0
    0.2870   64.7470  167.7360 C   0  0  0  0  0
   -0.2880   63.6550  167.6600 O   0  0  0  0  0
    2.1120   64.6970  169.4790 C   0  0  0  0  0
    3.3360   65.4210  168.9570 C   0  0  0  0  0
    4.6180   64.6720  169.2860 C   0  0  0  0  0
    4.9180   63.6880  168.5770 O   0  0  0  0  0
    5.3150   65.0530  170.2540 O   0  0  0  0  0
    0.5020   65.5110  166.6700 N   0  0  0  0  0
    0.1560   65.0290  165.3410 C   0  0  0  0  0
    1.2600   64.0480  164.9430 C   0  0  0  0  0
    2.4290   64.2890  165.2520 O   0  0  0  0  0
    0.0240   66.1870  164.3570 C   0  0  0  0  0
   -0.8730   67.3090  164.8910 C   0  0  0  0  0
   -1.0070   68.4610  163.9080 C   0  0  0  0  0
   -2.2380   66.7690  165.2630 C   0  0  0  0  0
    0.9120   62.9530  164.2690 N   0  0  0  0  0
    1.9190   61.9610  163.8600 C   0  0  0  0  0
    1.5210   61.1330  162.6430 C   0  0  0  0  0
    0.4030   61.2330  162.1500 O   0  0  0  0  0
    2.2400   61.0050  165.0190 C   0  0  0  0  0
    2.9450   61.6630  166.0580 O   0  0  0  0  0
    2.4470   60.3050  162.1690 N   0  0  0  0  0
    2.1980   59.4750  160.9960 C   0  0  0  0  0
    1.1790   58.3640  161.2490 C   0  0  0  0  0
    0.3330   58.0870  160.3940 O   0  0  0  0  0
    3.5150   58.8810  160.4910 C   0  0  0  0  0
    4.0650   59.5800  159.2510 C   0  0  0  0  0
    5.3460   58.9320  158.7330 C   0  0  0  0  0
    2.9800   59.5240  158.1880 C   0  0  0  0  0
    1.2410   57.7450  162.4230 N   0  0  0  0  0
    0.3460   56.6460  162.7410 C   0  0  0  0  0
    0.0780   56.5080  164.2260 C   0  0  0  0  0
   -0.0730   57.5030  164.9380 O   0  0  0  0  0
    0.0050   55.3980  164.7560 O   0  0  0  0  0
    1.1122   62.0222  173.8287 H   0  0  0  0  0
    0.7458   62.0081  172.2032 H   0  0  0  0  0
    0.7713   63.4495  173.0390 H   0  0  0  0  0
   -1.0485   62.7976  174.3664 H   0  0  0  0  0
   -1.0763   61.2282  173.4562 H   0  0  0  0  0
   -1.1973   64.7623  172.9748 H   0  0  0  0  0
   -3.0764   64.2823  170.7527 H   0  0  0  0  0
   -3.3104   66.8478  170.8806 H   0  0  0  0  0
   -2.5401   66.5825  172.5563 H   0  0  0  0  0
   -5.2171   65.7969  171.4985 H   0  0  0  0  0
   -4.4308   63.7998  172.4894 H   0  0  0  0  0
   -3.9565   64.6720  173.9678 H   0  0  0  0  0
   -5.6745   64.5589  173.5132 H   0  0  0  0  0
   -4.1846   67.2754  173.9644 H   0  0  0  0  0
   -4.9384   68.0260  172.5363 H   0  0  0  0  0
   -5.9021   66.9748  173.6028 H   0  0  0  0  0
    0.0429   64.3006  170.8505 H   0  0  0  0  0
    0.8605   66.3723  169.0132 H   0  0  0  0  0
    2.1418   63.6980  169.0440 H   0  0  0  0  0
    2.1674   64.7523  170.5662 H   0  0  0  0  0
    3.3814   66.4021  169.4297 H   0  0  0  0  0
    3.2525   65.4977  167.8729 H   0  0  0  0  0
    4.9059   65.8215  170.6586 H   0  0  0  0  0
    0.9110   66.4385  166.7837 H   0  0  0  0  0
   -0.8133   64.5305  165.3323 H   0  0  0  0  0
   -0.4264   65.8021  163.4421 H   0  0  0  0  0
    1.0180   66.6014  164.1890 H   0  0  0  0  0
   -0.3907   67.7039  165.7852 H   0  0  0  0  0
   -0.0220   68.8829  163.7081 H   0  0  0  0  0
   -1.4423   68.0948  162.9782 H   0  0  0  0  0
   -1.6524   69.2284  164.3354 H   0  0  0  0  0
   -2.7065   66.3308  164.3817 H   0  0  0  0  0
   -2.1279   66.0068  166.0344 H   0  0  0  0  0
   -2.8586   67.5820  165.6397 H   0  0  0  0  0
   -0.0683   62.7997  164.0326 H   0  0  0  0  0
    2.7956   62.5457  163.5812 H   0  0  0  0  0
    2.8645   60.1976  164.6366 H   0  0  0  0  0
    1.3011   60.6282  165.4248 H   0  0  0  0  0
    3.1288   61.0387  166.7637 H   0  0  0  0  0
    3.3519   60.2490  162.6363 H   0  0  0  0  0
    1.7644   60.1240  160.2351 H   0  0  0  0  0
    3.3232   57.8422  160.2224 H   0  0  0  0  0
    4.2519   58.9975  161.2856 H   0  0  0  0  0
    4.3274   60.6073  159.5037 H   0  0  0  0  0
    6.1112   58.9722  159.5082 H   0  0  0  0  0
    5.1460   57.8929  158.4717 H   0  0  0  0  0
    5.6925   59.4697  157.8504 H   0  0  0  0  0
    2.7411   58.4833  157.9690 H   0  0  0  0  0
    2.0885   60.0336  158.5534 H   0  0  0  0  0
    3.3351   60.0150  157.2820 H   0  0  0  0  0
    1.9290   58.0467  163.1129 H   0  0  0  0  0
    0.8200   55.7245  162.4030 H   0  0  0  0  0
   -0.6069   56.8421  162.2494 H   0  0  0  0  0
    0.0081   58.2946  164.4010 H   0  0  0  0  0
  1  2  1  0  0  0
  2  3  1  0  0  0
  3  4  2  0  0  0
  3  5  1  0  0  0
  5  6  1  0  0  0
  6  7  1  0  0  0
  6  9  1  0  0  0
  7  8  2  0  0  0
  7 13  1  0  0  0
  9 10  1  0  0  0
 10 11  1  0  0  0
 10 12  1  0  0  0
 13 14  1  0  0  0
 14 15  1  0  0  0
 14 17  1  0  0  0
 15 16  2  0  0  0
 15 22  1  0  0  0
 17 18  1  0  0  0
 18 19  1  0  0  0
 19 20  2  0  0  0
 19 21  1  0  0  0
 22 23  1  0  0  0
 23 24  1  0  0  0
 23 26  1  0  0  0
 24 25  2  0  0  0
 24 30  1  0  0  0
 26 27  1  0  0  0
 27 28  1  0  0  0
 27 29  1  0  0  0
 30 31  1  0  0  0
 31 32  1  0  0  0
 31 34  1  0  0  0
 32 33  2  0  0  0
 32 36  1  0  0  0
 34 35  1  0  0  0
 36 37  1  0  0  0
 37 38  1  0  0  0
 37 40  1  0  0  0
 38 39  2  0  0  0
 38 44  1  0  0  0
 40 41  1  0  0  0
 41 42  1  0  0  0
 41 43  1  0  0  0
 44 45  1  0  0  0
 45 46  1  0  0  0
 46 47  1  0  0  0
 46 48  2  0  0  0
  1 49  1  0  0  0
  1 50  1  0  0  0
  1 51  1  0  0  0
  2 52  1  0  0  0
  2 53  1  0  0  0
  5 54  1  0  0  0
  6 55  1  0  0  0
  9 56  1  0  0  0
  9 57  1  0  0  0
 10 58  1  0  0  0
 11 59  1  0  0  0
 11 60  1  0  0  0
 11 61  1  0  0  0
 12 62  1  0  0  0
 12 63  1  0  0  0
 12 64  1  0  0  0
 13 65  1  0  0  0
 14 66  1  0  0  0
 17 67  1  0  0  0
 17 68  1  0  0  0
 18 69  1  0  0  0
 18 70  1  0  0  0
 21 71  1  0  0  0
 22 72  1  0  0  0
 23 73  1  0  0  0
 26 74  1  0  0  0
 26 75  1  0  0  0
 27 76  1  0  0  0
 28 77  1  0  0  0
 28 78  1  0  0  0
 28 79  1  0  0  0
 29 80  1  0  0  0
 29 81  1  0  0  0
 29 82  1  0  0  0
 30 83  1  0  0  0
 31 84  1  0  0  0
 34 85  1  0  0  0
 34 86  1  0  0  0
 35 87  1  0  0  0
 36 88  1  0  0  0
 37 89  1  0  0  0
 40 90  1  0  0  0
 40 91  1  0  0  0
 41 92  1  0  0  0
 42 93  1  0  0  0
 42 94  1  0  0  0
 42 95  1  0  0  0
 43 96  1  0  0  0
 43 97  1  0  0  0
 43 98  1  0  0  0
 44 99  1  0  0  0
 45100  1  0  0  0
 45101  1  0  0  0
 47102  1  0  0  0
M  END
$$$$
