4ya8_ligand
  -I-interpret- 

 93 96  0  0  0  0  0  0  0  0999 V2000
  -65.7700  -21.5950  -16.7990 O   0  0  0  0  0
  -64.8160  -22.2440  -17.2460 C   0  0  0  0  0
  -64.3170  -23.5000  -16.4440 C   0  0  0  0  0
  -63.1140  -23.4640  -15.7430 C   0  0  0  0  0
  -65.1090  -24.6690  -16.4270 C   0  0  0  0  0
  -64.6890  -25.7950  -15.7100 C   0  0  0  0  0
  -65.5140  -26.9550  -15.7250 N   0  0  0  0  0
  -64.9610  -28.1950  -15.8830 C   0  0  0  0  0
  -65.7960  -29.3360  -15.9050 C   0  0  0  0  0
  -67.1580  -29.1940  -15.7720 C   0  0  0  0  0
  -67.7080  -27.9480  -15.6200 C   0  0  0  0  0
  -66.8740  -26.8130  -15.5990 C   0  0  0  0  0
  -63.4770  -25.7720  -15.0070 C   0  0  0  0  0
  -62.6870  -24.5980  -15.0210 C   0  0  0  0  0
  -61.3350  -24.5520  -14.2380 C   0  0  0  0  0
  -61.2790  -23.9410  -12.9040 N   0  0  0  0  0
  -60.0170  -23.8850  -12.1500 C   0  0  0  0  0
  -60.2380  -24.4570  -10.7390 C   0  0  0  0  0
  -59.3240  -23.7360   -9.7270 C   0  0  0  0  0
  -62.5050  -23.3820  -12.3120 C   0  0  0  0  0
  -62.5320  -21.8660  -12.5480 C   0  0  0  0  0
  -63.2670  -21.2170  -11.3880 C   0  0  0  0  0
  -60.3230  -25.0230  -14.7420 O   0  0  0  0  0
  -64.1800  -21.8470  -18.4940 N   0  0  0  0  0
  -64.6780  -20.6760  -19.1840 C   0  0  0  0  0
  -63.6530  -19.5790  -19.0980 C   0  0  0  0  0
  -63.3920  -19.3540  -17.5890 C   0  0  0  0  0
  -62.2350  -19.8470  -16.9910 C   0  0  0  0  0
  -62.0120  -19.6510  -15.6230 C   0  0  0  0  0
  -62.9510  -18.9660  -14.8660 C   0  0  0  0  0
  -64.1090  -18.4850  -15.4660 C   0  0  0  0  0
  -64.3360  -18.6740  -16.8210 C   0  0  0  0  0
  -65.0310  -20.9860  -20.6460 C   0  0  0  0  0
  -63.9480  -20.6970  -21.4740 O   0  0  0  0  0
  -65.3970  -22.4380  -20.7730 C   0  0  0  0  0
  -64.9820  -22.9320  -22.0710 N   0  3  0  0  0
  -66.0650  -23.7180  -22.6800 C   0  0  0  0  0
  -67.2490  -22.7990  -22.9700 C   0  0  0  0  0
  -65.5790  -24.3300  -23.9740 C   0  0  0  0  0
  -66.5350  -24.8730  -21.7060 C   0  0  0  0  0
  -65.5970  -25.6130  -20.9760 N   0  0  0  0  0
  -66.0220  -26.6200  -20.1260 C   0  0  0  0  0
  -67.3790  -26.9000  -20.0080 C   0  0  0  0  0
  -68.3070  -26.1700  -20.7340 C   0  0  0  0  0
  -67.8870  -25.1550  -21.5840 C   0  0  0  0  0
  -62.5035  -22.5610  -15.7523 H   0  0  0  0  0
  -66.0512  -24.6944  -16.9745 H   0  0  0  0  0
  -63.8819  -28.3038  -15.9915 H   0  0  0  0  0
  -65.3607  -30.3278  -16.0273 H   0  0  0  0  0
  -67.8008  -30.0742  -15.7876 H   0  0  0  0  0
  -68.7872  -27.8356  -15.5157 H   0  0  0  0  0
  -67.1701  -26.2421  -16.4790 H   0  0  0  0  0
  -67.0120  -26.3929  -14.6027 H   0  0  0  0  0
  -63.1456  -26.6509  -14.4541 H   0  0  0  0  0
  -59.6839  -22.8499  -12.0748 H   0  0  0  0  0
  -59.2585  -24.4734  -12.6663 H   0  0  0  0  0
  -59.9997  -25.5206  -10.7423 H   0  0  0  0  0
  -61.2787  -24.3081  -10.4511 H   0  0  0  0  0
  -58.2822  -23.8800  -10.0134 H   0  0  0  0  0
  -59.5572  -22.6712   -9.7231 H   0  0  0  0  0
  -59.4890  -24.1490   -8.7319 H   0  0  0  0  0
  -62.5208  -23.5863  -11.2414 H   0  0  0  0  0
  -63.3780  -23.8405  -12.7765 H   0  0  0  0  0
  -63.0407  -21.6422  -13.4857 H   0  0  0  0  0
  -61.5150  -21.4787  -12.6104 H   0  0  0  0  0
  -64.2837  -21.6070  -11.3399 H   0  0  0  0  0
  -62.7457  -21.4423  -10.4576 H   0  0  0  0  0
  -63.2972  -20.1376  -11.5369 H   0  0  0  0  0
  -63.3998  -22.3828  -18.8742 H   0  0  0  0  0
  -65.5988  -20.3504  -18.7001 H   0  0  0  0  0
  -64.0104  -18.6672  -19.5765 H   0  0  0  0  0
  -62.7364  -19.8541  -19.6198 H   0  0  0  0  0
  -61.5013  -20.3868  -17.5896 H   0  0  0  0  0
  -61.1053  -20.0346  -15.1552 H   0  0  0  0  0
  -62.7810  -18.8050  -13.8014 H   0  0  0  0  0
  -64.8467  -17.9534  -14.8649 H   0  0  0  0  0
  -65.2470  -18.2932  -17.2827 H   0  0  0  0  0
  -65.8769  -20.3689  -20.9489 H   0  0  0  0  0
  -64.1808  -20.8947  -22.3841 H   0  0  0  0  0
  -66.4764  -22.5498  -20.6710 H   0  0  0  0  0
  -64.8951  -23.0079  -19.9911 H   0  0  0  0  0
  -64.1601  -23.5252  -21.9571 H   0  0  0  0  0
  -64.7605  -22.1411  -22.6758 H   0  0  0  0  0
  -67.5982  -22.3535  -22.0385 H   0  0  0  0  0
  -66.9367  -22.0117  -23.6561 H   0  0  0  0  0
  -68.0545  -23.3779  -23.4218 H   0  0  0  0  0
  -65.2761  -23.5373  -24.6581 H   0  0  0  0  0
  -64.7283  -24.9803  -23.7699 H   0  0  0  0  0
  -66.3833  -24.9122  -24.4237 H   0  0  0  0  0
  -65.2943  -27.1921  -19.5505 H   0  0  0  0  0
  -67.7138  -27.6958  -19.3427 H   0  0  0  0  0
  -69.3695  -26.3931  -20.6376 H   0  0  0  0  0
  -68.6184  -24.5817  -22.1536 H   0  0  0  0  0
  1  2  2  0  0  0
  2  3  1  0  0  0
  2 24  1  0  0  0
  3  4  4  0  0  0
  3  5  4  0  0  0
  4 14  4  0  0  0
  5  6  4  0  0  0
  6  7  1  0  0  0
  6 13  4  0  0  0
  7  8  1  0  0  0
  7 12  1  0  0  0
  8  9  2  0  0  0
  9 10  1  0  0  0
 10 11  2  0  0  0
 11 12  1  0  0  0
 13 14  4  0  0  0
 14 15  1  0  0  0
 15 16  1  0  0  0
 15 23  2  0  0  0
 16 17  1  0  0  0
 16 20  1  0  0  0
 17 18  1  0  0  0
 18 19  1  0  0  0
 20 21  1  0  0  0
 21 22  1  0  0  0
 24 25  1  0  0  0
 25 26  1  0  0  0
 25 33  1  0  0  0
 26 27  1  0  0  0
 27 28  4  0  0  0
 27 32  4  0  0  0
 28 29  4  0  0  0
 29 30  4  0  0  0
 30 31  4  0  0  0
 31 32  4  0  0  0
 33 34  1  0  0  0
 33 35  1  0  0  0
 35 36  1  0  0  0
 36 37  1  0  0  0
 37 38  1  0  0  0
 37 39  1  0  0  0
 37 40  1  0  0  0
 40 41  4  0  0  0
 40 45  4  0  0  0
 41 42  4  0  0  0
 42 43  4  0  0  0
 43 44  4  0  0  0
 44 45  4  0  0  0
  4 46  1  0  0  0
  5 47  1  0  0  0
  8 48  1  0  0  0
  9 49  1  0  0  0
 10 50  1  0  0  0
 11 51  1  0  0  0
 12 52  1  0  0  0
 12 53  1  0  0  0
 13 54  1  0  0  0
 17 55  1  0  0  0
 17 56  1  0  0  0
 18 57  1  0  0  0
 18 58  1  0  0  0
 19 59  1  0  0  0
 19 60  1  0  0  0
 19 61  1  0  0  0
 20 62  1  0  0  0
 20 63  1  0  0  0
 21 64  1  0  0  0
 21 65  1  0  0  0
 22 66  1  0  0  0
 22 67  1  0  0  0
 22 68  1  0  0  0
 24 69  1  0  0  0
 25 70  1  0  0  0
 26 71  1  0  0  0
 26 72  1  0  0  0
 28 73  1  0  0  0
 29 74  1  0  0  0
 30 75  1  0  0  0
 31 76  1  0  0  0
 32 77  1  0  0  0
 33 78  1  0  0  0
 34 79  1  0  0  0
 35 80  1  0  0  0
 35 81  1  0  0  0
 36 82  1  0  0  0
 36 83  1  0  0  0
 38 84  1  0  0  0
 38 85  1  0  0  0
 38 86  1  0  0  0
 39 87  1  0  0  0
 39 88  1  0  0  0
 39 89  1  0  0  0
 42 90  1  0  0  0
 43 91  1  0  0  0
 44 92  1  0  0  0
 45 93  1  0  0  0
M  END
$$$$
