5wcm_ligand
  -I-interpret- 

 19 19  0  0  0  0  0  0  0  0999 V2000
   40.3450   26.7240   56.0710 S   0  0  0  0  0
   43.8850   24.8240   54.0770 C   0  0  0  0  0
   40.3440   28.2580   55.9660 N   0  0  0  0  0
   39.1880   26.2440   55.3920 O   0  0  0  0  0
   43.8720   26.1990   54.2130 C   0  0  0  0  0
   40.4610   26.3970   57.4540 O   0  0  0  0  0
   42.7850   26.7970   54.8300 C   0  0  0  0  0
   41.7390   26.0090   55.2730 C   0  0  0  0  0
   41.7760   24.6300   55.1470 C   0  0  0  0  0
   42.8670   24.0290   54.5570 C   0  0  0  0  0
   44.9520   24.1980   53.2890 N   0  0  0  0  0
   45.7610   24.9180   52.7340 O   0  0  0  0  0
   44.9880   22.9770   53.2330 O   0  0  0  0  0
   39.5908   28.7348   55.4703 H   0  0  0  0  0
   41.0966   28.7988   56.3921 H   0  0  0  0  0
   44.7010   26.8017   53.8420 H   0  0  0  0  0
   42.7549   27.8782   54.9648 H   0  0  0  0  0
   40.9471   24.0237   55.5123 H   0  0  0  0  0
   42.9236   22.9438   54.4716 H   0  0  0  0  0
  1  3  1  0  0  0
  1  4  2  0  0  0
  1  6  2  0  0  0
  8  1  1  0  0  0
  5  2  4  0  0  0
  2 10  4  0  0  0
  2 11  1  0  0  0
  7  5  4  0  0  0
  7  8  4  0  0  0
  8  9  4  0  0  0
  9 10  4  0  0  0
 11 12  2  0  0  0
 11 13  2  0  0  0
  3 14  1  0  0  0
  3 15  1  0  0  0
  5 16  1  0  0  0
  7 17  1  0  0  0
  9 18  1  0  0  0
 10 19  1  0  0  0
M  END
$$$$
