1g74_ligand
  -I-interpret- 

 54 53  0  0  0  0  0  0  0  0999 V2000
  -49.3100   66.7060  -12.0240 C   0  0  0  0  0
  -49.8630   67.5500  -12.7240 O   0  0  0  0  0
  -49.2590   65.5400  -12.3780 O   0  0  0  0  0
  -48.6860   67.0870  -10.7120 C   0  0  0  0  0
  -47.2540   67.5360  -10.9030 C   0  0  0  0  0
  -46.5990   67.9150   -9.6010 C   0  0  0  0  0
  -45.4230   66.9660   -9.3680 C   0  0  0  0  0
  -45.8350   65.7410   -8.5460 C   0  0  0  0  0
  -45.9060   66.0990   -7.0750 C   0  0  0  0  0
  -44.5580   66.2530   -6.4030 C   0  0  0  0  0
  -44.8620   66.6500   -5.0530 C   0  0  0  0  0
  -44.9200   67.9780   -4.5750 C   0  0  0  0  0
  -44.6790   69.2080   -5.3240 C   0  0  0  0  0
  -45.9140   69.6490   -6.0680 C   0  0  0  0  0
  -45.6410   70.9150   -6.8340 C   0  0  0  0  0
  -46.8790   71.3370   -7.6050 C   0  0  0  0  0
  -47.7610   72.3150   -6.8270 C   0  0  0  0  0
  -48.9990   72.6670   -7.6460 C   0  0  0  0  0
  -50.0060   71.5170   -7.7850 C   0  0  0  0  0
  -51.1880   71.9810   -8.6310 C   0  0  0  0  0
  -49.8086   68.4065  -12.2938 H   0  0  0  0  0
  -48.6952   66.2175  -10.0547 H   0  0  0  0  0
  -49.2557   67.9095  -10.2795 H   0  0  0  0  0
  -47.2568   68.4135  -11.5496 H   0  0  0  0  0
  -46.6935   66.7077  -11.3364 H   0  0  0  0  0
  -47.3146   67.8349   -8.7828 H   0  0  0  0  0
  -46.2476   68.9460   -9.6430 H   0  0  0  0  0
  -44.6519   67.5047   -8.8172 H   0  0  0  0  0
  -45.0625   66.6225  -10.3376 H   0  0  0  0  0
  -45.0964   64.9518   -8.6863 H   0  0  0  0  0
  -46.8157   65.4010   -8.8786 H   0  0  0  0  0
  -46.4229   65.2820   -6.5716 H   0  0  0  0  0
  -46.4106   67.0626   -7.0043 H   0  0  0  0  0
  -43.9335   66.9881   -6.9108 H   0  0  0  0  0
  -43.9818   65.3282   -6.4336 H   0  0  0  0  0
  -45.0656   65.8549   -4.3357 H   0  0  0  0  0
  -45.1749   68.0989   -3.5221 H   0  0  0  0  0
  -43.8858   69.0228   -6.0483 H   0  0  0  0  0
  -44.3994   69.9926   -4.6209 H   0  0  0  0  0
  -46.7136   69.8336   -5.3506 H   0  0  0  0  0
  -46.2050   68.8661   -6.7684 H   0  0  0  0  0
  -44.8257   70.7392   -7.5358 H   0  0  0  0  0
  -45.3698   71.7049   -6.1336 H   0  0  0  0  0
  -47.4689   70.4420   -7.8027 H   0  0  0  0  0
  -46.5494   71.8380   -8.5152 H   0  0  0  0  0
  -47.1952   73.2242   -6.6239 H   0  0  0  0  0
  -48.0708   71.8512   -5.8905 H   0  0  0  0  0
  -48.6598   72.9218   -8.6500 H   0  0  0  0  0
  -49.5076   73.4803   -7.1284 H   0  0  0  0  0
  -50.3587   71.2195   -6.7975 H   0  0  0  0  0
  -49.5241   70.6663   -8.2669 H   0  0  0  0  0
  -51.6685   72.8310   -8.1465 H   0  0  0  0  0
  -50.8327   72.2770   -9.6181 H   0  0  0  0  0
  -51.9042   71.1654   -8.7307 H   0  0  0  0  0
  1  2  1  0  0  0
  1  3  2  0  0  0
  1  4  1  0  0  0
  4  5  1  0  0  0
  5  6  1  0  0  0
  6  7  1  0  0  0
  7  8  1  0  0  0
  8  9  1  0  0  0
  9 10  1  0  0  0
 10 11  1  0  0  0
 11 12  2  0  0  0
 12 13  1  0  0  0
 13 14  1  0  0  0
 14 15  1  0  0  0
 15 16  1  0  0  0
 16 17  1  0  0  0
 17 18  1  0  0  0
 18 19  1  0  0  0
 19 20  1  0  0  0
  2 21  1  0  0  0
  4 22  1  0  0  0
  4 23  1  0  0  0
  5 24  1  0  0  0
  5 25  1  0  0  0
  6 26  1  0  0  0
  6 27  1  0  0  0
  7 28  1  0  0  0
  7 29  1  0  0  0
  8 30  1  0  0  0
  8 31  1  0  0  0
  9 32  1  0  0  0
  9 33  1  0  0  0
 10 34  1  0  0  0
 10 35  1  0  0  0
 11 36  1  0  0  0
 12 37  1  0  0  0
 13 38  1  0  0  0
 13 39  1  0  0  0
 14 40  1  0  0  0
 14 41  1  0  0  0
 15 42  1  0  0  0
 15 43  1  0  0  0
 16 44  1  0  0  0
 16 45  1  0  0  0
 17 46  1  0  0  0
 17 47  1  0  0  0
 18 48  1  0  0  0
 18 49  1  0  0  0
 19 50  1  0  0  0
 19 51  1  0  0  0
 20 52  1  0  0  0
 20 53  1  0  0  0
 20 54  1  0  0  0
M  END
$$$$
