4dhr_ligand
  -I-interpret- 

 35 36  0  0  0  0  0  0  0  0999 V2000
   21.7050   13.2550  -11.6490 O   0  0  0  0  0
   21.8760   13.7000  -10.2320 P   0  0  0  0  0
   21.9420   12.5040   -9.2750 O   0  0  0  0  0
   20.8670   14.7550   -9.7410 O   0  0  0  0  0
   23.5740   14.5030  -10.2870 C   0  0  0  0  0
   23.6850   15.8970  -10.0240 C   0  0  0  0  0
   25.0010   16.4570  -10.0520 C   0  0  0  0  0
   26.1440   15.7210  -10.3900 C   0  0  0  0  0
   26.0310   14.3240  -10.6320 C   0  0  0  0  0
   24.7270   13.7770  -10.5840 C   0  0  0  0  0
   24.4690   12.4470  -10.8570 O   0  0  0  0  0
   25.5110   11.4320  -10.6740 C   0  0  0  0  0
   24.8060   10.0600  -10.4340 C   0  0  0  0  0
   25.4700    9.0270  -10.6130 O   0  0  0  0  0
   23.5000   10.1030  -10.0410 N   0  0  0  0  0
   22.7510    8.9540   -9.9330 C   0  0  0  0  0
   22.2130    8.6230   -8.6820 C   0  0  0  0  0
   22.5870    9.5550   -7.2860 Cl  0  0  0  0  0
   21.3710    7.5350   -8.5190 C   0  0  0  0  0
   20.9570    6.8750   -9.6170 C   0  0  0  0  0
   21.4450    7.1650  -10.8480 C   0  0  0  0  0
   22.3120    8.2420  -11.0180 C   0  0  0  0  0
   22.0517   12.8210   -8.3755 H   0  0  0  0  0
   21.0563   14.9758   -8.8261 H   0  0  0  0  0
   22.8086   16.5092   -9.8112 H   0  0  0  0  0
   25.1205   17.5101   -9.7974 H   0  0  0  0  0
   27.1125   16.2151  -10.4669 H   0  0  0  0  0
   26.9040   13.7066  -10.8435 H   0  0  0  0  0
   26.1414   11.6870   -9.8222 H   0  0  0  0  0
   26.1475   11.3804  -11.5574 H   0  0  0  0  0
   23.0715   11.0027   -9.8235 H   0  0  0  0  0
   21.0513    7.2208   -7.5254 H   0  0  0  0  0
   20.2105    6.0875   -9.5135 H   0  0  0  0  0
   21.1589    6.5553  -11.7050 H   0  0  0  0  0
   22.6426    8.5195  -12.0189 H   0  0  0  0  0
  1  2  2  0  0  0
  2  3  1  0  0  0
  2  4  1  0  0  0
  2  5  1  0  0  0
  5  6  4  0  0  0
  5 10  4  0  0  0
  6  7  4  0  0  0
  7  8  4  0  0  0
  8  9  4  0  0  0
  9 10  4  0  0  0
 10 11  1  0  0  0
 11 12  1  0  0  0
 12 13  1  0  0  0
 13 14  2  0  0  0
 13 15  1  0  0  0
 15 16  1  0  0  0
 16 17  4  0  0  0
 16 22  4  0  0  0
 17 18  1  0  0  0
 17 19  4  0  0  0
 19 20  4  0  0  0
 20 21  4  0  0  0
 21 22  4  0  0  0
  3 23  1  0  0  0
  4 24  1  0  0  0
  6 25  1  0  0  0
  7 26  1  0  0  0
  8 27  1  0  0  0
  9 28  1  0  0  0
 12 29  1  0  0  0
 12 30  1  0  0  0
 15 31  1  0  0  0
 19 32  1  0  0  0
 20 33  1  0  0  0
 21 34  1  0  0  0
 22 35  1  0  0  0
M  END
$$$$
