### 
### Created by X-TOOL on Mon Sep 10 21:13:12 2018
### 

@<TRIPOS>MOLECULE
4dhr_ligand
   33    34     1     0     0
SMALL
GAST_HUCK


@<TRIPOS>ATOM
      1 OAC        21.7050   13.2550  -11.6490 O.co2     1 Y04        -0.5643
      2 PAV        21.8760   13.7000  -10.2320 P.3       1 Y04         0.0783
      3 OAD        21.9420   12.5040   -9.2750 O.co2     1 Y04        -0.5643
      4 OAB        20.8670   14.7550   -9.7410 O.co2     1 Y04        -0.5643
      5 CAU        23.5740   14.5030  -10.2870 C.ar      1 Y04         0.0641
      6 CAM        23.6850   15.8970  -10.0240 C.ar      1 Y04        -0.0499
      7 CAI        25.0010   16.4570  -10.0520 C.ar      1 Y04        -0.0681
      8 CAH        26.1440   15.7210  -10.3900 C.ar      1 Y04        -0.0672
      9 CAL        26.0310   14.3240  -10.6320 C.ar      1 Y04        -0.0277
     10 CAT        24.7270   13.7770  -10.5840 C.ar      1 Y04         0.1159
     11 OAP        24.4690   12.4470  -10.8570 O.3       1 Y04        -0.2925
     12 CAN        25.5110   11.4320  -10.6740 C.3       1 Y04         0.1662
     13 CAQ        24.8060   10.0600  -10.4340 C.2       1 Y04         0.2351
     14 OAA        25.4700    9.0270  -10.6130 O.2       1 Y04        -0.3817
     15 NAO        23.5000   10.1030  -10.0410 N.am      1 Y04        -0.2307
     16 CAS        22.7510    8.9540   -9.9330 C.ar      1 Y04         0.0804
     17 CAR        22.2130    8.6230   -8.6820 C.ar      1 Y04         0.0594
     18 CL1        22.5870    9.5550   -7.2860 Cl        1 Y04        -0.0830
     19 CAJ        21.3710    7.5350   -8.5190 C.ar      1 Y04        -0.0616
     20 CAF        20.9570    6.8750   -9.6170 C.ar      1 Y04        -0.0766
     21 CAG        21.4450    7.1650  -10.8480 C.ar      1 Y04        -0.0753
     22 CAK        22.3120    8.2420  -11.0180 C.ar      1 Y04        -0.0406
     23 H1         22.8135   16.5059   -9.8124 H         1 Y04         0.0634
     24 H2         25.1198   17.5043   -9.7988 H         1 Y04         0.0533
     25 H3         27.1072   16.2124  -10.4665 H         1 Y04         0.0616
     26 H4         26.8992   13.7100  -10.8424 H         1 Y04         0.0552
     27 H5         26.1348   11.6889   -9.8051 H         1 Y04         0.0867
     28 H6         26.1409   11.3763  -11.5740 H         1 Y04         0.0867
     29 H7         23.0799   10.9851   -9.8278 H         1 Y04         0.2262
     30 H8         21.0531    7.2225   -7.5309 H         1 Y04         0.0583
     31 H9         20.2146    6.0918   -9.5141 H         1 Y04         0.0488
     32 H10        21.1605    6.5587  -11.7003 H         1 Y04         0.0579
     33 H11        22.6408    8.5180  -12.0134 H         1 Y04         0.0502
@<TRIPOS>BOND
     1    1    2 ar 
     2    2    3 ar 
     3    2    4 ar 
     4    2    5 1  
     5    5    6 ar 
     6    5   10 ar 
     7    6    7 ar 
     8    7    8 ar 
     9    8    9 ar 
    10    9   10 ar 
    11   10   11 1  
    12   11   12 1  
    13   12   13 1  
    14   13   14 2  
    15   13   15 am 
    16   15   16 1  
    17   16   17 ar 
    18   16   22 ar 
    19   17   18 1  
    20   17   19 ar 
    21   19   20 ar 
    22   20   21 ar 
    23   21   22 ar 
    24    6   23 1  
    25    7   24 1  
    26    8   25 1  
    27    9   26 1  
    28   12   27 1  
    29   12   28 1  
    30   15   29 1  
    31   19   30 1  
    32   20   31 1  
    33   21   32 1  
    34   22   33 1  
@<TRIPOS>SUBSTRUCTURE
     1 Y04         1

