1h60_ligand
  -I-interpret- 

 53 56  0  0  0  0  0  0  0  0999 V2000
   20.4150   11.8220   20.9750 C   0  0  0  0  0
   20.2220   10.6980   22.2400 C   0  0  0  0  0
   20.1480    9.2870   21.6000 C   0  0  0  0  0
   19.4000    8.4530   22.3120 O   0  0  0  0  0
   20.8070    8.9330   20.3650 C   0  0  0  0  0
   21.5780    9.8770   19.8040 C   0  0  0  0  0
   22.4610    9.4270   18.6640 C   0  0  0  0  0
   22.2950   10.4040   17.5000 C   0  0  0  0  0
   22.6560   11.8440   17.7920 C   0  0  0  0  0
   21.5260   12.2770   18.8680 C   0  0  0  0  0
   21.6450   11.4490   20.1680 C   0  0  0  0  0
   21.5130   13.7670   19.1630 C   0  0  0  0  0
   21.4830   14.6370   17.7300 C   0  0  0  0  0
   22.6430   14.3040   16.8740 C   0  0  0  0  0
   22.3290   12.6130   16.6370 C   0  0  0  0  0
   23.1400   12.4240   15.3370 C   0  0  0  0  0
   22.9200   13.6880   14.5250 C   0  0  0  0  0
   22.4080   14.7380   15.4550 C   0  0  0  0  0
   24.1040   14.4890   17.2930 C   0  0  0  0  0
   22.9920   11.6700   20.9330 C   0  0  0  0  0
   23.0780   16.1940   15.0590 C   0  0  0  0  0
   24.0880   16.2660   14.6060 O   0  0  0  0  0
   22.1630   17.4860   15.8310 C   0  0  0  0  0
   20.5354   12.8236   21.3877 H   0  0  0  0  0
   19.5348   11.8076   20.3323 H   0  0  0  0  0
   19.3135   10.9098   22.8037 H   0  0  0  0  0
   21.0590   10.7584   22.9356 H   0  0  0  0  0
   20.6844    7.9493   19.9117 H   0  0  0  0  0
   22.1756    8.4234   18.3485 H   0  0  0  0  0
   23.5020    9.4092   18.9868 H   0  0  0  0  0
   21.2359   10.3985   17.2423 H   0  0  0  0  0
   22.9756   10.0687   16.7174 H   0  0  0  0  0
   23.6953   11.9732   18.0940 H   0  0  0  0  0
   20.5655   12.0540   18.4034 H   0  0  0  0  0
   22.4112   14.0291   19.7222 H   0  0  0  0  0
   20.6250   14.0086   19.7471 H   0  0  0  0  0
   21.5219   15.6998   17.9687 H   0  0  0  0  0
   20.5701   14.3851   17.1904 H   0  0  0  0  0
   21.3008   12.2699   16.5220 H   0  0  0  0  0
   22.8128   11.5395   14.7905 H   0  0  0  0  0
   24.1978   12.2676   15.5486 H   0  0  0  0  0
   22.2027   13.5060   13.7248 H   0  0  0  0  0
   23.8532   14.0109   14.0634 H   0  0  0  0  0
   21.3303   14.8692   15.3576 H   0  0  0  0  0
   24.2868   15.5405   17.5142 H   0  0  0  0  0
   24.3047   13.8894   18.1808 H   0  0  0  0  0
   24.7569   14.1683   16.4812 H   0  0  0  0  0
   23.8247   11.3864   20.2893 H   0  0  0  0  0
   23.0845   12.7209   21.2071 H   0  0  0  0  0
   23.0018   11.0561   21.8336 H   0  0  0  0  0
   22.7264   17.8706   16.6812 H   0  0  0  0  0
   21.9933   18.2884   15.1130 H   0  0  0  0  0
   21.2051   17.0957   16.1748 H   0  0  0  0  0
  1  2  1  0  0  0
  1 11  1  0  0  0
  2  3  1  0  0  0
  3  4  2  0  0  0
  3  5  1  0  0  0
  5  6  2  0  0  0
  6  7  1  0  0  0
  6 11  1  0  0  0
  7  8  1  0  0  0
  8  9  1  0  0  0
  9 10  1  0  0  0
  9 15  1  0  0  0
 10 11  1  0  0  0
 10 12  1  0  0  0
 11 20  1  0  0  0
 12 13  1  0  0  0
 13 14  1  0  0  0
 14 15  1  0  0  0
 14 18  1  0  0  0
 14 19  1  0  0  0
 15 16  1  0  0  0
 16 17  1  0  0  0
 17 18  1  0  0  0
 18 21  1  0  0  0
 21 22  2  0  0  0
 21 23  1  0  0  0
  1 24  1  0  0  0
  1 25  1  0  0  0
  2 26  1  0  0  0
  2 27  1  0  0  0
  5 28  1  0  0  0
  7 29  1  0  0  0
  7 30  1  0  0  0
  8 31  1  0  0  0
  8 32  1  0  0  0
  9 33  1  0  0  0
 10 34  1  0  0  0
 12 35  1  0  0  0
 12 36  1  0  0  0
 13 37  1  0  0  0
 13 38  1  0  0  0
 15 39  1  0  0  0
 16 40  1  0  0  0
 16 41  1  0  0  0
 17 42  1  0  0  0
 17 43  1  0  0  0
 18 44  1  0  0  0
 19 45  1  0  0  0
 19 46  1  0  0  0
 19 47  1  0  0  0
 20 48  1  0  0  0
 20 49  1  0  0  0
 20 50  1  0  0  0
 23 51  1  0  0  0
 23 52  1  0  0  0
 23 53  1  0  0  0
M  END
$$$$
