2vyt_ligand
  -I-interpret- 

 29 28  0  0  0  0  0  0  0  0999 V2000
   17.6830   40.2970   48.9730 N   0  3  0  0  0
   17.3700   41.6580   49.3880 C   0  0  0  0  0
   17.0690   41.6900   50.8880 C   0  0  0  0  0
   16.7250   43.0640   51.4300 C   0  0  0  0  0
   16.2240   42.9580   52.8560 C   0  0  0  0  0
   15.8760   44.3210   53.4210 C   0  0  0  0  0
   15.3350   44.2160   54.8090 N   0  3  0  0  0
   15.1190   45.6160   55.2690 C   0  0  0  0  0
   18.5230   42.6010   49.0710 C   0  0  0  0  0
   18.2460   43.7070   48.5550 O   0  0  0  0  0
   19.6860   42.2240   49.3410 O   0  0  0  0  0
   16.8973   39.6858   49.1954 H   0  0  0  0  0
   17.8543   40.2803   47.9676 H   0  0  0  0  0
   18.5158   39.9754   49.4664 H   0  0  0  0  0
   16.4913   41.9913   48.8358 H   0  0  0  0  0
   17.9720   41.3607   51.4021 H   0  0  0  0  0
   16.1989   41.0546   51.0528 H   0  0  0  0  0
   15.9438   43.5049   50.8108 H   0  0  0  0  0
   17.6193   43.6869   51.4129 H   0  0  0  0  0
   17.0118   42.5195   53.4686 H   0  0  0  0  0
   15.3260   42.3402   52.8630 H   0  0  0  0  0
   15.1138   44.7735   52.7866 H   0  0  0  0  0
   16.7828   44.9252   53.4486 H   0  0  0  0  0
   15.9819   43.7201   55.4223 H   0  0  0  0  0
   14.4666   43.6814   54.8287 H   0  0  0  0  0
   16.0677   46.1525   55.2539 H   0  0  0  0  0
   14.4101   46.1101   54.6046 H   0  0  0  0  0
   14.7217   45.6064   56.2840 H   0  0  0  0  0
   19.6548   41.3462   49.7284 H   0  0  0  0  0
  1  2  1  0  0  0
  2  3  1  0  0  0
  2  9  1  0  0  0
  3  4  1  0  0  0
  4  5  1  0  0  0
  5  6  1  0  0  0
  6  7  1  0  0  0
  7  8  1  0  0  0
  9 10  2  0  0  0
  9 11  1  0  0  0
  1 12  1  0  0  0
  1 13  1  0  0  0
  1 14  1  0  0  0
  2 15  1  0  0  0
  3 16  1  0  0  0
  3 17  1  0  0  0
  4 18  1  0  0  0
  4 19  1  0  0  0
  5 20  1  0  0  0
  5 21  1  0  0  0
  6 22  1  0  0  0
  6 23  1  0  0  0
  7 24  1  0  0  0
  7 25  1  0  0  0
  8 26  1  0  0  0
  8 27  1  0  0  0
  8 28  1  0  0  0
 11 29  1  0  0  0
M  END
$$$$
