5fsl_ligand
  -I-interpret- 

 22 23  0  0  0  0  0  0  0  0999 V2000
   17.4620   19.5730    6.1990 O   0  0  0  0  0
   17.0380   20.1520    5.1830 C   0  0  0  0  0
   17.8180   21.0510    4.4630 N   0  0  0  0  0
   15.7010   20.0070    4.6120 C   0  0  0  0  0
   14.6750   19.1270    4.9140 N   0  0  0  0  0
   13.7420   19.4290    4.0360 C   0  0  0  0  0
   14.1480   20.3200    3.0970 N   0  0  0  0  0
   13.3760   20.7410    1.9270 C   0  0  0  0  0
   15.3960   20.7310    3.4730 C   0  0  0  0  0
   16.1930   21.5770    2.7980 N   0  0  0  0  0
   17.3800   21.7330    3.3560 C   0  0  0  0  0
   18.2760   22.4970    2.7340 N   0  0  0  0  0
   17.9760   23.3280    1.5800 C   0  0  0  0  0
   12.7387   19.0037    4.0610 H   0  0  0  0  0
   13.1578   19.8725    1.3056 H   0  0  0  0  0
   12.4426   21.1987    2.2547 H   0  0  0  0  0
   13.9547   21.4643    1.3525 H   0  0  0  0  0
   15.9095   22.0512    1.9406 H   0  0  0  0  0
   19.2320   22.4991    3.0895 H   0  0  0  0  0
   17.6146   22.7000    0.7657 H   0  0  0  0  0
   17.2095   24.0555    1.8471 H   0  0  0  0  0
   18.8797   23.8496    1.2647 H   0  0  0  0  0
  1  2  2  0  0  0
  2  3  1  0  0  0
  2  4  1  0  0  0
  3 11  4  0  0  0
  4  5  4  0  0  0
  4  9  4  0  0  0
  5  6  4  0  0  0
  6  7  4  0  0  0
  7  8  1  0  0  0
  7  9  4  0  0  0
  9 10  1  0  0  0
 10 11  1  0  0  0
 11 12  1  0  0  0
 12 13  1  0  0  0
  6 14  1  0  0  0
  8 15  1  0  0  0
  8 16  1  0  0  0
  8 17  1  0  0  0
 10 18  1  0  0  0
 12 19  1  0  0  0
 13 20  1  0  0  0
 13 21  1  0  0  0
 13 22  1  0  0  0
M  END
$$$$
