3ow4_ligand
  -I-interpret- 

 56 60  0  0  0  0  0  0  0  0999 V2000
   14.8750   -3.9170   15.3650 N   0  0  0  0  0
   16.1030   -4.3250   15.0060 C   0  0  0  0  0
   17.2190   -3.5850   14.9670 N   0  0  0  0  0
   17.1050   -2.2990   15.3210 C   0  0  0  0  0
   15.8650   -1.7680   15.7050 C   0  0  0  0  0
   14.7310   -2.6270   15.7100 C   0  0  0  0  0
   18.2720   -1.3470   15.3170 C   0  0  0  0  0
   17.5300    0.2820   15.6260 S   0  0  0  0  0
   15.8530   -0.2920   16.0540 C   0  0  0  0  0
   14.9140    0.4890   15.1300 C   0  0  0  0  0
   13.4590   -2.2330   16.1130 N   0  0  0  0  0
   13.3480   -1.5350   17.4150 C   0  0  0  0  0
   12.0200   -0.8080   17.6360 C   0  0  0  0  0
   10.9520   -1.8130   17.4960 N   0  0  0  0  0
   10.9780   -2.5500   16.2190 C   0  0  0  0  0
   12.3480   -3.1770   15.9280 C   0  0  0  0  0
    9.7980   -1.6830   18.1930 C   0  0  0  0  0
    8.8550   -2.4760   18.0590 O   0  0  0  0  0
    9.8580   -1.0000   19.5320 C   0  0  0  0  0
    8.9970    0.2740   19.6090 C   0  0  0  0  0
    9.3350    1.4750   18.7340 C   0  0  0  0  0
   10.0790    2.5850   19.0550 C   0  0  0  0  0
   10.1780    3.5360   18.0070 N   0  0  0  0  0
    9.4530    3.0010   16.9810 C   0  0  0  0  0
    8.9230    1.7660   17.3700 C   0  0  0  0  0
    9.2100    3.5180   15.6870 C   0  0  0  0  0
    8.4090    2.7490   14.8060 C   0  0  0  0  0
    7.8700    1.4970   15.2040 C   0  0  0  0  0
    8.1250    0.9920   16.4970 C   0  0  0  0  0
    9.4970   -2.0290   20.5450 N   0  3  0  0  0
   16.2024   -5.3707   14.7150 H   0  0  0  0  0
   18.8191   -1.3749   14.3747 H   0  0  0  0  0
   19.0147   -1.6076   16.0710 H   0  0  0  0  0
   15.5479   -0.1480   17.0905 H   0  0  0  0  0
   15.0316    1.5570   15.3132 H   0  0  0  0  0
   15.1612    0.2677   14.0917 H   0  0  0  0  0
   13.8833    0.1961   15.3298 H   0  0  0  0  0
   14.1327   -0.7788   17.4388 H   0  0  0  0  0
   13.4277   -2.2955   18.1918 H   0  0  0  0  0
   11.8932   -0.0058   16.9090 H   0  0  0  0  0
   11.9909   -0.3486   18.6241 H   0  0  0  0  0
   10.7555   -1.8436   15.4192 H   0  0  0  0  0
   10.2466   -3.3558   16.2816 H   0  0  0  0  0
   12.4919   -4.0019   16.6258 H   0  0  0  0  0
   12.3532   -3.4977   14.8862 H   0  0  0  0  0
   10.8620   -0.6208   19.7223 H   0  0  0  0  0
    9.1319    0.6332   20.6292 H   0  0  0  0  0
    8.0108   -0.0422   19.2691 H   0  0  0  0  0
   10.5509    2.7224   20.0279 H   0  0  0  0  0
    9.6254    4.4770   15.3773 H   0  0  0  0  0
    8.2029    3.1258   13.8042 H   0  0  0  0  0
    7.2571    0.9239   14.5083 H   0  0  0  0  0
    7.7179    0.0317   16.8136 H   0  0  0  0  0
    9.5235   -1.6122   21.4756 H   0  0  0  0  0
    8.5577   -2.3777   20.3539 H   0  0  0  0  0
   10.1633   -2.7998   20.4973 H   0  0  0  0  0
  1  2  4  0  0  0
  1  6  4  0  0  0
  2  3  4  0  0  0
  3  4  4  0  0  0
  4  5  4  0  0  0
  4  7  1  0  0  0
  5  6  4  0  0  0
  5  9  1  0  0  0
  6 11  1  0  0  0
  7  8  1  0  0  0
  8  9  1  0  0  0
  9 10  1  0  0  0
 11 12  1  0  0  0
 11 16  1  0  0  0
 12 13  1  0  0  0
 13 14  1  0  0  0
 14 15  1  0  0  0
 14 17  1  0  0  0
 15 16  1  0  0  0
 17 18  2  0  0  0
 17 19  1  0  0  0
 19 20  1  0  0  0
 19 30  1  0  0  0
 20 21  1  0  0  0
 21 22  4  0  0  0
 21 25  4  0  0  0
 22 23  4  0  0  0
 23 24  4  0  0  0
 24 25  4  0  0  0
 24 26  4  0  0  0
 25 29  4  0  0  0
 26 27  4  0  0  0
 27 28  4  0  0  0
 28 29  4  0  0  0
  2 31  1  0  0  0
  7 32  1  0  0  0
  7 33  1  0  0  0
  9 34  1  0  0  0
 10 35  1  0  0  0
 10 36  1  0  0  0
 10 37  1  0  0  0
 12 38  1  0  0  0
 12 39  1  0  0  0
 13 40  1  0  0  0
 13 41  1  0  0  0
 15 42  1  0  0  0
 15 43  1  0  0  0
 16 44  1  0  0  0
 16 45  1  0  0  0
 19 46  1  0  0  0
 20 47  1  0  0  0
 20 48  1  0  0  0
 22 49  1  0  0  0
 26 50  1  0  0  0
 27 51  1  0  0  0
 28 52  1  0  0  0
 29 53  1  0  0  0
 30 54  1  0  0  0
 30 55  1  0  0  0
 30 56  1  0  0  0
M  END
$$$$
