5jh6_ligand
  -I-interpret- 

 61 64  0  0  0  0  0  0  0  0999 V2000
  -21.9890  -52.4140  -21.5980 C   0  0  0  0  0
  -21.0930  -51.5000  -21.5750 N   0  3  0  0  0
  -19.8940  -52.0380  -21.1820 C   0  0  0  0  0
  -18.8130  -50.9990  -20.8970 C   0  0  0  0  0
  -21.5350  -50.5020  -20.7550 C   0  0  0  0  0
  -20.4750  -49.4370  -20.4810 C   0  0  0  0  0
  -19.2750  -50.0170  -19.9330 N   0  0  0  0  0
  -18.3560  -49.2080  -19.0940 C   0  0  0  0  0
  -18.8820  -48.2060  -18.2850 C   0  0  0  0  0
  -18.0310  -47.4340  -17.4820 C   0  0  0  0  0
  -16.9870  -49.4440  -19.1100 C   0  0  0  0  0
  -16.1390  -48.6670  -18.3100 C   0  0  0  0  0
  -16.6650  -47.6660  -17.4940 C   0  0  0  0  0
  -15.8010  -46.8270  -16.6430 N   0  0  0  0  0
  -14.4750  -47.2430  -16.1790 C   0  0  0  0  0
  -13.7040  -46.3150  -15.6710 N   0  0  0  0  0
  -12.4850  -46.5920  -15.2250 C   0  0  0  0  0
  -12.0390  -47.9120  -15.3080 C   0  0  0  0  0
  -10.4120  -48.3090  -14.7180 Cl  0  0  0  0  0
  -12.8710  -48.8740  -15.8470 C   0  0  0  0  0
  -12.4450  -50.2750  -15.9470 N   0  0  0  0  0
  -12.6950  -51.1340  -17.1450 C   0  0  0  0  0
  -13.8370  -51.9470  -17.2350 C   0  0  0  0  0
  -14.0240  -52.7430  -18.3800 C   0  0  0  0  0
  -13.0910  -52.7420  -19.4310 C   0  0  0  0  0
  -11.9470  -51.9290  -19.3390 C   0  0  0  0  0
  -11.7620  -51.1440  -18.1990 C   0  0  0  0  0
  -10.6040  -50.3070  -18.0880 O   0  0  0  0  0
   -9.3500  -50.9540  -18.2100 C   0  0  0  0  0
   -8.1370  -50.0210  -18.2310 C   0  0  0  0  0
   -8.6280  -48.5910  -18.0110 C   0  0  0  0  0
   -9.2590  -52.1380  -18.2920 O   0  0  0  0  0
  -14.0860  -48.5060  -16.2690 N   0  0  0  0  0
  -22.1441  -52.7944  -20.5884 H   0  0  0  0  0
  -22.9217  -51.9971  -21.9779 H   0  0  0  0  0
  -21.6614  -53.2259  -22.2472 H   0  0  0  0  0
  -20.9338  -51.1007  -22.5000 H   0  0  0  0  0
  -19.5354  -52.6625  -22.0003 H   0  0  0  0  0
  -20.0718  -52.5831  -20.2550 H   0  0  0  0  0
  -18.5672  -50.4866  -21.8271 H   0  0  0  0  0
  -17.9399  -51.5068  -20.4872 H   0  0  0  0  0
  -21.8051  -50.9534  -19.8003 H   0  0  0  0  0
  -22.3742  -50.0139  -21.2505 H   0  0  0  0  0
  -20.8770  -48.7268  -19.7584 H   0  0  0  0  0
  -20.2242  -48.9485  -21.4225 H   0  0  0  0  0
  -19.9562  -48.0211  -18.2755 H   0  0  0  0  0
  -18.4444  -46.6502  -16.8473 H   0  0  0  0  0
  -16.5745  -50.2303  -19.7422 H   0  0  0  0  0
  -15.0638  -48.8456  -18.3255 H   0  0  0  0  0
  -16.1447  -45.9085  -16.3626 H   0  0  0  0  0
  -11.8504  -45.8111  -14.8059 H   0  0  0  0  0
  -11.9507  -50.6856  -15.1549 H   0  0  0  0  0
  -14.5693  -51.9610  -16.4277 H   0  0  0  0  0
  -14.9104  -53.3731  -18.4534 H   0  0  0  0  0
  -13.2526  -53.3660  -20.3100 H   0  0  0  0  0
  -11.2149  -51.9119  -20.1464 H   0  0  0  0  0
   -7.6235  -50.0968  -19.1895 H   0  0  0  0  0
   -7.4363  -50.3009  -17.4444 H   0  0  0  0  0
   -9.3224  -48.3202  -18.8063 H   0  0  0  0  0
   -9.1337  -48.5260  -17.0476 H   0  0  0  0  0
   -7.7769  -47.9101  -18.0227 H   0  0  0  0  0
  1  2  1  0  0  0
  2  3  1  0  0  0
  2  5  1  0  0  0
  3  4  1  0  0  0
  4  7  1  0  0  0
  5  6  1  0  0  0
  6  7  1  0  0  0
  7  8  1  0  0  0
  8  9  4  0  0  0
  8 11  4  0  0  0
  9 10  4  0  0  0
 10 13  4  0  0  0
 11 12  4  0  0  0
 12 13  4  0  0  0
 13 14  1  0  0  0
 14 15  1  0  0  0
 15 16  4  0  0  0
 15 33  4  0  0  0
 16 17  4  0  0  0
 17 18  4  0  0  0
 18 19  1  0  0  0
 18 20  4  0  0  0
 20 21  1  0  0  0
 20 33  4  0  0  0
 21 22  1  0  0  0
 22 23  4  0  0  0
 22 27  4  0  0  0
 23 24  4  0  0  0
 24 25  4  0  0  0
 25 26  4  0  0  0
 26 27  4  0  0  0
 27 28  1  0  0  0
 28 29  1  0  0  0
 29 30  1  0  0  0
 29 32  2  0  0  0
 30 31  1  0  0  0
  1 34  1  0  0  0
  1 35  1  0  0  0
  1 36  1  0  0  0
  2 37  1  0  0  0
  3 38  1  0  0  0
  3 39  1  0  0  0
  4 40  1  0  0  0
  4 41  1  0  0  0
  5 42  1  0  0  0
  5 43  1  0  0  0
  6 44  1  0  0  0
  6 45  1  0  0  0
  9 46  1  0  0  0
 10 47  1  0  0  0
 11 48  1  0  0  0
 12 49  1  0  0  0
 14 50  1  0  0  0
 17 51  1  0  0  0
 21 52  1  0  0  0
 23 53  1  0  0  0
 24 54  1  0  0  0
 25 55  1  0  0  0
 26 56  1  0  0  0
 30 57  1  0  0  0
 30 58  1  0  0  0
 31 59  1  0  0  0
 31 60  1  0  0  0
 31 61  1  0  0  0
M  END
$$$$
