5gmn_ligand
  -I-interpret- 

 41 43  0  0  0  0  0  0  0  0999 V2000
    9.0460    1.1530   10.6980 C   0  0  0  0  0
   10.4040    1.2510   10.4170 C   0  0  0  0  0
    9.4490    1.9170   12.9630 C   0  0  0  0  0
   11.2760    1.7010   11.4080 C   0  0  0  0  0
    8.4490    3.1110   16.3710 C   0  0  0  0  0
    7.1570    3.3010   15.6340 C   0  0  0  0  0
   11.6150    3.5100   16.2930 C   0  0  0  0  0
   12.9470    3.3890   16.6780 C   0  0  0  0  0
   13.5550    2.1370   16.6450 C   0  0  0  0  0
   12.8370    1.0150   16.2350 C   0  0  0  0  0
   11.5060    1.1420   15.8470 C   0  0  0  0  0
   10.8930    2.3870   15.8830 C   0  0  0  0  0
    8.5690    1.4960   11.9640 C   0  0  0  0  0
    8.8740    2.3240   14.2940 C   0  0  0  0  0
    9.4570    2.5520   15.4770 C   0  0  0  0  0
   10.8020    2.0370   12.6730 C   0  0  0  0  0
    6.0240    2.5470   16.3160 C   0  0  0  0  0
    6.8510    4.7890   15.5160 C   0  0  0  0  0
   13.6440    4.4790   17.0790 F   0  0  0  0  0
    8.6180    3.3980   17.5500 O   0  0  0  0  0
    7.4790    2.7060   14.3640 O   0  0  0  0  0
   10.9750    0.9040    8.9550 S   0  0  0  0  0
   10.5290    1.9580    8.0950 O   0  0  0  0  0
   10.4330   -0.4960    8.4050 N   0  0  0  0  0
   12.4140    0.8840    8.9920 O   0  0  0  0  0
    8.3539    0.8083    9.9297 H   0  0  0  0  0
   12.3401    1.7906   11.1897 H   0  0  0  0  0
   11.1324    4.4872   16.3116 H   0  0  0  0  0
   14.5988    2.0336   16.9416 H   0  0  0  0  0
   13.3181    0.0370   16.2181 H   0  0  0  0  0
   10.9471    0.2667   15.5160 H   0  0  0  0  0
    7.5013    1.4348   12.1745 H   0  0  0  0  0
   11.4931    2.3945   13.4364 H   0  0  0  0  0
    5.8740    2.9481   17.3183 H   0  0  0  0  0
    5.1092    2.6653   15.7352 H   0  0  0  0  0
    6.2804    1.4896   16.3810 H   0  0  0  0  0
    5.9433    4.9265   14.9284 H   0  0  0  0  0
    6.7080    5.2093   16.5115 H   0  0  0  0  0
    7.6835    5.2919   15.0240 H   0  0  0  0  0
    9.8628   -0.5256    7.5598 H   0  0  0  0  0
   10.6575   -1.3595    8.8993 H   0  0  0  0  0
  1  2  4  0  0  0
 13  1  4  0  0  0
  4  2  4  0  0  0
  2 22  1  0  0  0
  3 13  4  0  0  0
 14  3  1  0  0  0
  3 16  4  0  0  0
 16  4  4  0  0  0
  5  6  1  0  0  0
 15  5  1  0  0  0
  5 20  2  0  0  0
  6 17  1  0  0  0
  6 18  1  0  0  0
  6 21  1  0  0  0
  7  8  4  0  0  0
 12  7  4  0  0  0
  8  9  4  0  0  0
  8 19  1  0  0  0
 10  9  4  0  0  0
 11 10  4  0  0  0
 12 11  4  0  0  0
 15 12  1  0  0  0
 14 15  2  0  0  0
 14 21  1  0  0  0
 22 23  2  0  0  0
 22 24  1  0  0  0
 22 25  2  0  0  0
  1 26  1  0  0  0
  4 27  1  0  0  0
  7 28  1  0  0  0
  9 29  1  0  0  0
 10 30  1  0  0  0
 11 31  1  0  0  0
 13 32  1  0  0  0
 16 33  1  0  0  0
 17 34  1  0  0  0
 17 35  1  0  0  0
 17 36  1  0  0  0
 18 37  1  0  0  0
 18 38  1  0  0  0
 18 39  1  0  0  0
 24 40  1  0  0  0
 24 41  1  0  0  0
M  END
$$$$
