2vpn_ligand
  -I-interpret- 

 20 20  0  0  0  0  0  0  0  0999 V2000
   43.8610   31.4390   35.0790 O   0  0  0  0  0
   43.5350   31.1580   33.9000 C   0  0  0  0  0
   43.4610   29.9940   33.4780 O   0  0  0  0  0
   43.2840   32.2710   32.9390 C   0  0  0  0  0
   42.3870   33.3630   33.5100 C   0  0  0  0  0
   42.1870   34.4380   32.4490 C   0  0  0  0  0
   41.8370   33.8640   31.1570 N   0  0  0  0  0
   42.0700   32.6140   30.8420 C   0  0  0  0  0
   41.5400   32.1210   29.5190 C   0  0  0  0  0
   42.7150   31.8090   31.6740 N   0  0  0  0  0
   43.8553   32.3922   35.1928 H   0  0  0  0  0
   44.2715   32.6927   32.7516 H   0  0  0  0  0
   42.8522   33.7985   34.3943 H   0  0  0  0  0
   41.4234   32.9393   33.7931 H   0  0  0  0  0
   43.1216   34.9878   32.3378 H   0  0  0  0  0
   41.3713   35.0868   32.7680 H   0  0  0  0  0
   40.4553   32.2268   29.5014 H   0  0  0  0  0
   41.9768   32.7093   28.7121 H   0  0  0  0  0
   41.8061   31.0718   29.3906 H   0  0  0  0  0
   42.8188   30.8263   31.4213 H   0  0  0  0  0
  1  2  1  0  0  0
  2  3  2  0  0  0
  2  4  1  0  0  0
  4  5  1  0  0  0
  4 10  1  0  0  0
  5  6  1  0  0  0
  6  7  1  0  0  0
  7  8  2  0  0  0
  8  9  1  0  0  0
  8 10  1  0  0  0
  1 11  1  0  0  0
  4 12  1  0  0  0
  5 13  1  0  0  0
  5 14  1  0  0  0
  6 15  1  0  0  0
  6 16  1  0  0  0
  9 17  1  0  0  0
  9 18  1  0  0  0
  9 19  1  0  0  0
 10 20  1  0  0  0
M  END
$$$$
