3l5e_ligand
  -I-interpret- 

 88 92  0  0  0  0  0  0  0  0999 V2000
   20.3470   10.8870   22.0080 C   0  0  0  0  0
   21.0260    9.7710   22.6680 N   0  0  0  0  0
   20.2880   13.2200   22.7770 O   0  0  0  0  0
   21.6220   10.2740   23.7840 C   0  0  0  0  0
   21.4180   11.5980   23.9550 N   0  0  0  0  0
   28.4740   14.4550   24.7430 O   0  0  0  0  0
   20.6650   12.0640   22.9430 C   0  0  0  0  0
   22.3460    9.5500   24.6460 N   0  0  0  0  0
   20.9180   11.1270   20.5880 C   0  0  0  0  0
   27.5370   15.0610   22.7630 N   0  0  0  0  0
   18.8330   10.6660   21.9340 C   0  0  0  0  0
   29.3520   13.8200   22.7360 N   0  0  0  0  0
   22.3870   11.5800   20.5360 C   0  0  0  0  0
   21.9370   12.4150   25.0590 C   0  0  0  0  0
   23.0820   13.2950   24.6000 C   0  0  0  0  0
   22.9760   14.7140   24.6730 C   0  0  0  0  0
   24.0590   15.5380   24.2370 C   0  0  0  0  0
   25.2520   14.9460   23.7260 C   0  0  0  0  0
   25.3490   13.5210   23.6560 C   0  0  0  0  0
   24.2720   12.7010   24.0900 C   0  0  0  0  0
   23.3360   10.4030   20.7660 C   0  0  0  0  0
   24.7960   10.7240   20.4620 C   0  0  0  0  0
   24.9600   11.2420   19.0450 C   0  0  0  0  0
   24.1390   12.5040   18.8620 C   0  0  0  0  0
   22.6670   12.2530   19.1830 C   0  0  0  0  0
   18.1750   10.6840   23.3010 C   0  0  0  0  0
   26.4000   15.8400   23.2670 C   0  0  0  0  0
   27.7150   14.9140   21.3320 C   0  0  0  0  0
   28.9830   14.0280   21.3240 C   0  0  0  0  0
   28.4600   14.4450   23.5110 C   0  0  0  0  0
   28.6160   12.6810   20.6720 C   0  0  0  0  0
   29.1970   11.4300   21.2870 C   0  0  0  0  0
   28.5700   10.1590   20.6830 C   0  0  0  0  0
   16.7170   10.2260   23.2770 C   0  0  0  0  0
   16.1830   10.1010   24.6990 C   0  0  0  0  0
   14.7050    9.7250   24.7480 C   0  0  0  0  0
   13.8560   10.7110   23.9440 C   0  0  0  0  0
   14.3560   10.8830   22.5120 C   0  0  0  0  0
   15.8540   11.1840   22.4490 C   0  0  0  0  0
   21.0484    8.8014   22.3521 H   0  0  0  0  0
   22.7635    9.9967   25.4624 H   0  0  0  0  0
   20.3285   11.9308   20.1471 H   0  0  0  0  0
   20.8683   10.1710   20.0667 H   0  0  0  0  0
   18.6577    9.6863   21.4896 H   0  0  0  0  0
   18.4037   11.4755   21.3437 H   0  0  0  0  0
   30.1559   13.2867   23.0672 H   0  0  0  0  0
   22.5620   12.2995   21.3359 H   0  0  0  0  0
   22.3021   11.7499   25.8416 H   0  0  0  0  0
   21.1336   13.0536   25.4262 H   0  0  0  0  0
   22.0667   15.1720   25.0623 H   0  0  0  0  0
   23.9732   16.6231   24.2951 H   0  0  0  0  0
   26.2565   13.0597   23.2665 H   0  0  0  0  0
   24.3569   11.6158   24.0324 H   0  0  0  0  0
   23.0313    9.6022   20.0923 H   0  0  0  0  0
   23.2739   10.1356   21.8209 H   0  0  0  0  0
   25.3826    9.8116   20.5691 H   0  0  0  0  0
   25.1348   11.4937   21.1554 H   0  0  0  0  0
   24.6168   10.4833   18.3416 H   0  0  0  0  0
   26.0110   11.4658   18.8621 H   0  0  0  0  0
   24.2199   12.8255   17.8236 H   0  0  0  0  0
   24.5186   13.2686   19.5398 H   0  0  0  0  0
   22.1872   13.2311   19.2189 H   0  0  0  0  0
   22.2949   11.5731   18.4166 H   0  0  0  0  0
   18.1910   11.7129   23.6605 H   0  0  0  0  0
   18.7261    9.9947   23.9407 H   0  0  0  0  0
   26.0359   16.4733   22.4581 H   0  0  0  0  0
   26.7398   16.4239   24.1224 H   0  0  0  0  0
   27.8114   15.8525   20.7860 H   0  0  0  0  0
   26.8590   14.4893   20.8076 H   0  0  0  0  0
   29.8076   14.4799   20.7727 H   0  0  0  0  0
   29.0177   12.7250   19.6597 H   0  0  0  0  0
   27.5354   12.5870   20.7792 H   0  0  0  0  0
   28.9883   11.4426   22.3568 H   0  0  0  0  0
   30.2686   11.4137   21.0885 H   0  0  0  0  0
   27.4950   10.1650   20.8630 H   0  0  0  0  0
   28.7599   10.1364   19.6099 H   0  0  0  0  0
   29.0130    9.2795   21.1503 H   0  0  0  0  0
   16.6701    9.2460   22.8022 H   0  0  0  0  0
   16.2957   11.0710   25.1832 H   0  0  0  0  0
   16.7442    9.3102   25.1968 H   0  0  0  0  0
   14.3746    9.7479   25.7865 H   0  0  0  0  0
   14.5846    8.7309   24.3175 H   0  0  0  0  0
   13.9106   11.6813   24.4375 H   0  0  0  0  0
   12.8393   10.3205   23.9000 H   0  0  0  0  0
   13.8242   11.7246   22.0682 H   0  0  0  0  0
   14.1771    9.9496   21.9782 H   0  0  0  0  0
   16.1616   11.0793   21.4085 H   0  0  0  0  0
   16.0003   12.1847   22.8556 H   0  0  0  0  0
  1  2  1  0  0  0
  7  1  1  0  0  0
  1  9  1  0  0  0
  1 11  1  0  0  0
  4  2  1  0  0  0
  7  3  2  0  0  0
  5  4  4  0  0  0
  4  8  2  0  0  0
  5  7  1  0  0  0
 14  5  1  0  0  0
 30  6  2  0  0  0
  9 13  1  0  0  0
 27 10  1  0  0  0
 10 28  1  0  0  0
 10 30  1  0  0  0
 11 26  1  0  0  0
 12 29  1  0  0  0
 30 12  1  0  0  0
 13 21  1  0  0  0
 13 25  1  0  0  0
 15 14  1  0  0  0
 16 15  4  0  0  0
 15 20  4  0  0  0
 17 16  4  0  0  0
 18 17  4  0  0  0
 18 19  4  0  0  0
 18 27  1  0  0  0
 19 20  4  0  0  0
 21 22  1  0  0  0
 22 23  1  0  0  0
 23 24  1  0  0  0
 24 25  1  0  0  0
 26 34  1  0  0  0
 28 29  1  0  0  0
 29 31  1  0  0  0
 31 32  1  0  0  0
 32 33  1  0  0  0
 34 35  1  0  0  0
 34 39  1  0  0  0
 35 36  1  0  0  0
 36 37  1  0  0  0
 37 38  1  0  0  0
 38 39  1  0  0  0
  2 40  1  0  0  0
  8 41  1  0  0  0
  9 42  1  0  0  0
  9 43  1  0  0  0
 11 44  1  0  0  0
 11 45  1  0  0  0
 12 46  1  0  0  0
 13 47  1  0  0  0
 14 48  1  0  0  0
 14 49  1  0  0  0
 16 50  1  0  0  0
 17 51  1  0  0  0
 19 52  1  0  0  0
 20 53  1  0  0  0
 21 54  1  0  0  0
 21 55  1  0  0  0
 22 56  1  0  0  0
 22 57  1  0  0  0
 23 58  1  0  0  0
 23 59  1  0  0  0
 24 60  1  0  0  0
 24 61  1  0  0  0
 25 62  1  0  0  0
 25 63  1  0  0  0
 26 64  1  0  0  0
 26 65  1  0  0  0
 27 66  1  0  0  0
 27 67  1  0  0  0
 28 68  1  0  0  0
 28 69  1  0  0  0
 29 70  1  0  0  0
 31 71  1  0  0  0
 31 72  1  0  0  0
 32 73  1  0  0  0
 32 74  1  0  0  0
 33 75  1  0  0  0
 33 76  1  0  0  0
 33 77  1  0  0  0
 34 78  1  0  0  0
 35 79  1  0  0  0
 35 80  1  0  0  0
 36 81  1  0  0  0
 36 82  1  0  0  0
 37 83  1  0  0  0
 37 84  1  0  0  0
 38 85  1  0  0  0
 38 86  1  0  0  0
 39 87  1  0  0  0
 39 88  1  0  0  0
M  END
$$$$
