2y59_ligand
  -I-interpret- 

 25 25  0  0  0  0  0  0  0  0999 V2000
   -0.1160    0.5480   35.2650 O   0  0  0  0  0
   -1.2760    0.2870   35.5320 C   0  0  0  0  0
   -1.7970   -0.9140   35.3950 N   0  0  0  0  0
   -1.0880   -2.0830   34.9580 C   0  0  0  0  0
   -0.9950   -2.8250   36.3740 B   0  0  0  0  0
   -2.0690   -3.9110   36.4210 O   0  0  0  0  0
   -1.0810   -1.8690   37.5900 O   0  0  0  0  0
   -2.0880    1.3850   36.0930 C   0  0  0  0  0
   -2.7690    2.3450   35.3570 C   0  0  0  0  0
   -2.8090    2.3600   33.9950 N   0  0  0  0  0
   -3.5310    3.3490   33.3230 O   0  0  0  0  0
   -2.1380    1.3930   33.2510 O   0  0  0  0  0
   -2.0680    1.4070   37.4740 C   0  0  0  0  0
   -2.7560    2.3880   38.1640 C   0  0  0  0  0
   -3.4500    3.3580   37.4500 C   0  0  0  0  0
   -3.4620    3.3340   36.0520 C   0  0  0  0  0
   -2.7864   -1.0229   35.6178 H   0  0  0  0  0
   -0.1360   -1.8973   34.4608 H   0  0  0  0  0
   -1.5649   -2.6514   34.1595 H   0  0  0  0  0
   -1.9811   -4.4798   35.6527 H   0  0  0  0  0
   -0.3917   -1.2042   37.5224 H   0  0  0  0  0
   -1.5082    0.6487   38.0215 H   0  0  0  0  0
   -2.7542    2.4006   39.2539 H   0  0  0  0  0
   -3.9880    4.1419   37.9831 H   0  0  0  0  0
   -4.0172    4.0940   35.5022 H   0  0  0  0  0
  1  2  2  0  0  0
  2  3  1  0  0  0
  2  8  1  0  0  0
  3  4  1  0  0  0
  4  5  1  0  0  0
  5  6  1  0  0  0
  5  7  1  0  0  0
  8  9  4  0  0  0
  8 13  4  0  0  0
  9 10  1  0  0  0
  9 16  4  0  0  0
 10 11  2  0  0  0
 10 12  2  0  0  0
 13 14  4  0  0  0
 14 15  4  0  0  0
 15 16  4  0  0  0
  3 17  1  0  0  0
  4 18  1  0  0  0
  4 19  1  0  0  0
  6 20  1  0  0  0
  7 21  1  0  0  0
 13 22  1  0  0  0
 14 23  1  0  0  0
 15 24  1  0  0  0
 16 25  1  0  0  0
M  END
$$$$
