### 
### Created by X-TOOL on Mon Sep 10 21:13:06 2018
### 

@<TRIPOS>MOLECULE
2y59_ligand
   25    25     1     0     0
SMALL
GAST_HUCK


@<TRIPOS>ATOM
      1 O6         -0.1160    0.5480   35.2650 O.2       1 ZA3        -0.3851
      2 C5         -1.2760    0.2870   35.5320 C.2       1 ZA3         0.1825
      3 N4         -1.7970   -0.9140   35.3950 N.am      1 ZA3        -0.4397
      4 C3         -1.0880   -2.0830   34.9580 C.3       1 ZA3        -0.2413
      5 B          -0.9950   -2.8250   36.3740 B         1 ZA3         3.0000
      6 O2         -2.0690   -3.9110   36.4210 O.3       1 ZA3        -0.8710
      7 O1         -1.0810   -1.8690   37.5900 O.3       1 ZA3        -0.8710
      8 C7         -2.0880    1.3850   36.0930 C.ar      1 ZA3         0.0895
      9 C14        -2.7690    2.3450   35.3570 C.ar      1 ZA3         0.2185
     10 N15        -2.8090    2.3600   33.9950 N.2       1 ZA3         0.3185
     11 O16        -3.5310    3.3490   33.3230 O.2       1 ZA3         0.1796
     12 O17        -2.1380    1.3930   33.2510 O.2       1 ZA3         0.1796
     13 C8         -2.0680    1.4070   37.4740 C.ar      1 ZA3        -0.0343
     14 C11        -2.7560    2.3880   38.1640 C.ar      1 ZA3        -0.0512
     15 C12        -3.4500    3.3580   37.4500 C.ar      1 ZA3        -0.0496
     16 C13        -3.4620    3.3340   36.0520 C.ar      1 ZA3        -0.0136
     17 H          -2.7864   -1.0229   35.6178 H         1 ZA3         0.1453
     18 H          -0.1360   -1.8973   34.4608 H         1 ZA3        -0.1856
     19 H          -1.5649   -2.6514   34.1595 H         1 ZA3        -0.1856
     20 H          -1.9611   -4.4318   37.2202 H         1 ZA3        -0.1290
     21 H          -0.9642   -2.3715   38.3996 H         1 ZA3        -0.1290
     22 H          -1.5082    0.6487   38.0215 H         1 ZA3         0.0684
     23 H          -2.7542    2.4006   39.2539 H         1 ZA3         0.0670
     24 H          -3.9880    4.1419   37.9831 H         1 ZA3         0.0666
     25 H          -4.0172    4.0940   35.5022 H         1 ZA3         0.0704
@<TRIPOS>BOND
     1    1    2 2  
     2    2    3 am 
     3    2    8 1  
     4    3    4 1  
     5    4    5 1  
     6    5    6 1  
     7    5    7 1  
     8    8    9 ar 
     9    8   13 ar 
    10    9   10 1  
    11    9   16 ar 
    12   10   11 2  
    13   10   12 2  
    14   13   14 ar 
    15   14   15 ar 
    16   15   16 ar 
    17    3   17 1  
    18    4   18 1  
    19    4   19 1  
    20    6   20 1  
    21    7   21 1  
    22   13   22 1  
    23   14   23 1  
    24   15   24 1  
    25   16   25 1  
@<TRIPOS>SUBSTRUCTURE
     1 ZA3         1

