1w1t_ligand
  -I-interpret- 

 30 32  0  0  0  0  0  0  0  0999 V2000
   17.5970   42.2780  101.9110 N   0  0  0  0  0
   18.9300   42.2000  102.5310 C   0  0  0  0  0
   19.4770   43.5730  102.9430 C   0  0  0  0  0
   20.6640   43.6740  103.2510 O   0  0  0  0  0
   19.8800   41.5830  101.5000 C   0  0  0  0  0
   21.2190   42.5810   99.5840 N   0  0  0  0  0
   20.9440   43.4340   98.6040 C   0  0  0  0  0
   19.6800   43.8410   98.6170 N   0  0  0  0  0
   19.1470   43.2070   99.6590 C   0  0  0  0  0
   20.0720   42.4480  100.2490 C   0  0  0  0  0
   18.6790   44.7210  103.0080 N   0  0  0  0  0
   17.2360   44.6550  102.7270 C   0  0  0  0  0
   16.8080   43.4350  101.9060 C   0  0  0  0  0
   15.7460   43.4430  101.2830 O   0  0  0  0  0
   17.0640   45.9700  101.9650 C   0  0  0  0  0
   17.8430   46.9080  102.8920 C   0  0  0  0  0
   19.1300   46.1230  103.1650 C   0  0  0  0  0
   17.2270   41.4416  101.4593 H   0  0  0  0  0
   18.8517   41.6011  103.4383 H   0  0  0  0  0
   19.4450   40.6363  101.1796 H   0  0  0  0  0
   20.8546   41.4756  101.9762 H   0  0  0  0  0
   21.6770   43.7645   97.8681 H   0  0  0  0  0
   18.1097   43.2948   99.9820 H   0  0  0  0  0
   16.6155   44.5412  103.6159 H   0  0  0  0  0
   16.0281   46.2614  101.7913 H   0  0  0  0  0
   17.4229   45.9482  100.9360 H   0  0  0  0  0
   17.2962   47.1561  103.8017 H   0  0  0  0  0
   18.0285   47.8859  102.4478 H   0  0  0  0  0
   19.9472   46.3898  102.4949 H   0  0  0  0  0
   19.5604   46.3295  104.1449 H   0  0  0  0  0
  2  1  1  0  0  0
  1 13  1  0  0  0
  2  3  1  0  0  0
  5  2  1  0  0  0
  3  4  2  0  0  0
  3 11  1  0  0  0
 10  5  1  0  0  0
  6  7  4  0  0  0
  6 10  4  0  0  0
  7  8  4  0  0  0
  8  9  4  0  0  0
  9 10  4  0  0  0
 11 12  1  0  0  0
 11 17  1  0  0  0
 12 13  1  0  0  0
 12 15  1  0  0  0
 13 14  2  0  0  0
 15 16  1  0  0  0
 16 17  1  0  0  0
  1 18  1  0  0  0
  2 19  1  0  0  0
  5 20  1  0  0  0
  5 21  1  0  0  0
  7 22  1  0  0  0
  9 23  1  0  0  0
 12 24  1  0  0  0
 15 25  1  0  0  0
 15 26  1  0  0  0
 16 27  1  0  0  0
 16 28  1  0  0  0
 17 29  1  0  0  0
 17 30  1  0  0  0
M  END
$$$$
