1d2e_ligand
  -I-interpret- 

 43 45  0  0  0  0  0  0  0  0999 V2000
   15.0110   -9.2550   51.5850 P   0  0  0  0  0
   13.9500   -8.2270   51.4310 O   0  0  0  0  0
   16.3970   -8.8090   51.3940 O   0  0  0  0  0
   14.9260   -9.9600   52.8640 O   0  0  0  0  0
   14.7190  -10.3520   50.4300 O   0  0  0  0  0
   15.7050  -11.0870   49.3880 P   0  0  0  0  0
   16.7180  -11.7660   50.1830 O   0  0  0  0  0
   16.1670  -10.1300   48.3710 O   0  0  0  0  0
   14.6570  -12.0580   48.6940 O   0  0  0  0  0
   14.0320  -13.1030   49.4630 C   0  0  0  0  0
   13.6600  -14.2930   48.5890 C   0  0  0  0  0
   12.7790  -13.7980   47.5370 O   0  0  0  0  0
   14.8410  -14.9450   47.8800 C   0  0  0  0  0
   14.5130  -16.3390   47.8370 O   0  0  0  0  0
   14.7960  -14.2460   46.5010 C   0  0  0  0  0
   15.4360  -15.0050   45.4610 O   0  0  0  0  0
   13.3110  -14.0890   46.2500 C   0  0  0  0  0
   13.0310  -12.9640   45.3100 N   0  0  0  0  0
   13.5230  -11.6600   45.2960 C   0  0  0  0  0
   13.0810  -10.9130   44.3050 N   0  0  0  0  0
   12.2370  -11.7830   43.6180 C   0  0  0  0  0
   11.4500  -11.6020   42.4490 C   0  0  0  0  0
   11.3410  -10.5700   41.7410 O   0  0  0  0  0
   10.7290  -12.7430   42.0810 N   0  0  0  0  0
   10.7530  -13.9570   42.7630 C   0  0  0  0  0
   10.0130  -14.9500   42.2960 N   0  0  0  0  0
   11.4940  -14.1540   43.8660 N   0  0  0  0  0
   12.2010  -13.0460   44.2380 C   0  0  0  0  0
   14.0471   -7.7936   50.5799 H   0  0  0  0  0
   16.4698   -8.3436   50.5575 H   0  0  0  0  0
   15.4081   -9.7535   47.9194 H   0  0  0  0  0
   13.1211  -12.7049   49.9101 H   0  0  0  0  0
   14.7362  -13.4401   50.2236 H   0  0  0  0  0
   13.2135  -15.0381   49.2474 H   0  0  0  0  0
   15.8347  -14.8553   48.3190 H   0  0  0  0  0
   15.2194  -16.8194   47.3991 H   0  0  0  0  0
   15.3415  -13.3023   46.4983 H   0  0  0  0  0
   15.3768  -14.5237   44.6325 H   0  0  0  0  0
   12.8754  -14.9771   45.7922 H   0  0  0  0  0
   14.2196  -11.2872   46.0469 H   0  0  0  0  0
   10.1409  -12.6810   41.2499 H   0  0  0  0  0
   10.0099  -15.8517   42.7728 H   0  0  0  0  0
    9.4458  -14.8136   41.4593 H   0  0  0  0  0
  1  2  1  0  0  0
  1  3  1  0  0  0
  1  4  2  0  0  0
  1  5  1  0  0  0
  5  6  1  0  0  0
  6  7  2  0  0  0
  6  8  1  0  0  0
  6  9  1  0  0  0
  9 10  1  0  0  0
 10 11  1  0  0  0
 11 12  1  0  0  0
 11 13  1  0  0  0
 12 17  1  0  0  0
 13 14  1  0  0  0
 13 15  1  0  0  0
 15 16  1  0  0  0
 15 17  1  0  0  0
 17 18  1  0  0  0
 18 19  4  0  0  0
 18 28  4  0  0  0
 19 20  4  0  0  0
 20 21  4  0  0  0
 21 22  1  0  0  0
 21 28  4  0  0  0
 22 23  2  0  0  0
 22 24  1  0  0  0
 24 25  1  0  0  0
 25 26  1  0  0  0
 25 27  2  0  0  0
 27 28  1  0  0  0
  2 29  1  0  0  0
  3 30  1  0  0  0
  8 31  1  0  0  0
 10 32  1  0  0  0
 10 33  1  0  0  0
 11 34  1  0  0  0
 13 35  1  0  0  0
 14 36  1  0  0  0
 15 37  1  0  0  0
 16 38  1  0  0  0
 17 39  1  0  0  0
 19 40  1  0  0  0
 24 41  1  0  0  0
 26 42  1  0  0  0
 26 43  1  0  0  0
M  END
$$$$
