5hbs_ligand
  -I-interpret- 

 51 51  0  0  0  0  0  0  0  0999 V2000
   15.7890   -4.5300  -14.1320 C   0  0  0  0  0
   15.2300   -5.5020  -15.1540 C   0  0  0  0  0
   14.9420   -4.8030  -16.4560 C   0  0  0  0  0
   14.0590   -3.5560  -16.5310 C   0  0  0  0  0
   14.2540   -2.8110  -15.2010 C   0  0  0  0  0
   15.0060   -3.1900  -14.1620 C   0  0  0  0  0
   15.1860   -2.1720  -13.0110 C   0  0  0  0  0
   16.2620   -2.1320  -12.1980 C   0  0  0  0  0
   16.3810   -1.0970  -11.0900 C   0  0  0  0  0
   17.4980   -1.1850  -10.3570 C   0  0  0  0  0
   17.8050   -0.3120   -9.1570 C   0  0  0  0  0
   18.9530   -0.5250   -8.4990 C   0  0  0  0  0
   19.2750    0.1700   -7.1990 C   0  0  0  0  0
   20.2370   -0.4270   -6.5000 C   0  0  0  0  0
   20.6290   -0.1130   -5.0860 C   0  0  0  0  0
   20.2540   -1.3390   -4.4630 O   0  0  0  0  0
   17.2540   -4.3040  -14.5280 C   0  0  0  0  0
   15.6760   -5.2330  -12.7920 C   0  0  0  0  0
   13.4540   -1.5080  -15.1800 C   0  0  0  0  0
   15.3320   -0.0090  -10.8950 C   0  0  0  0  0
   18.4530    1.3360   -6.7270 C   0  0  0  0  0
   14.3012   -5.9220  -14.7679 H   0  0  0  0  0
   15.9657   -6.2864  -15.3317 H   0  0  0  0  0
   14.3844   -5.5456  -17.0267 H   0  0  0  0  0
   15.9203   -4.4429  -16.7744 H   0  0  0  0  0
   13.0132   -3.8238  -16.6814 H   0  0  0  0  0
   14.3374   -2.9280  -17.3773 H   0  0  0  0  0
   14.3940   -1.4414  -12.8466 H   0  0  0  0  0
   17.0635   -2.8573  -12.3383 H   0  0  0  0  0
   18.2359   -1.9347  -10.6425 H   0  0  0  0  0
   17.1121    0.4667   -8.8382 H   0  0  0  0  0
   19.6781   -1.2234   -8.9168 H   0  0  0  0  0
   20.7928   -1.2190   -7.0019 H   0  0  0  0  0
   20.1548    0.7749   -4.6677 H   0  0  0  0  0
   21.6747    0.1647   -4.9536 H   0  0  0  0  0
   20.4493   -1.2924   -3.5242 H   0  0  0  0  0
   17.7423   -3.6881  -13.7728 H   0  0  0  0  0
   17.7624   -5.2656  -14.5987 H   0  0  0  0  0
   17.2944   -3.7984  -15.4928 H   0  0  0  0  0
   16.1717   -6.2021  -12.8486 H   0  0  0  0  0
   16.1516   -4.6246  -12.0227 H   0  0  0  0  0
   14.6238   -5.3755  -12.5455 H   0  0  0  0  0
   12.7417   -1.5337  -14.3553 H   0  0  0  0  0
   14.1349   -0.6672  -15.0476 H   0  0  0  0  0
   12.9171   -1.3975  -16.1222 H   0  0  0  0  0
   14.9369   -0.0646   -9.8806 H   0  0  0  0  0
   15.7890    0.9675  -11.0553 H   0  0  0  0  0
   14.5223   -0.1544  -11.6101 H   0  0  0  0  0
   17.9123    1.0555   -5.8231 H   0  0  0  0  0
   19.1100    2.1788   -6.5121 H   0  0  0  0  0
   17.7426    1.6165   -7.5046 H   0  0  0  0  0
  1  2  1  0  0  0
  1  6  1  0  0  0
  1 17  1  0  0  0
  1 18  1  0  0  0
  2  3  1  0  0  0
  3  4  1  0  0  0
  4  5  1  0  0  0
  5  6  2  0  0  0
  5 19  1  0  0  0
  6  7  1  0  0  0
  7  8  2  0  0  0
  8  9  1  0  0  0
  9 10  2  0  0  0
  9 20  1  0  0  0
 10 11  1  0  0  0
 11 12  2  0  0  0
 12 13  1  0  0  0
 13 14  2  0  0  0
 13 21  1  0  0  0
 14 15  1  0  0  0
 15 16  1  0  0  0
  2 22  1  0  0  0
  2 23  1  0  0  0
  3 24  1  0  0  0
  3 25  1  0  0  0
  4 26  1  0  0  0
  4 27  1  0  0  0
  7 28  1  0  0  0
  8 29  1  0  0  0
 10 30  1  0  0  0
 11 31  1  0  0  0
 12 32  1  0  0  0
 14 33  1  0  0  0
 15 34  1  0  0  0
 15 35  1  0  0  0
 16 36  1  0  0  0
 17 37  1  0  0  0
 17 38  1  0  0  0
 17 39  1  0  0  0
 18 40  1  0  0  0
 18 41  1  0  0  0
 18 42  1  0  0  0
 19 43  1  0  0  0
 19 44  1  0  0  0
 19 45  1  0  0  0
 20 46  1  0  0  0
 20 47  1  0  0  0
 20 48  1  0  0  0
 21 49  1  0  0  0
 21 50  1  0  0  0
 21 51  1  0  0  0
M  END
$$$$
