2zp0_ligand
  -I-interpret- 

 74 75  0  0  0  0  0  0  0  0999 V2000
   37.7220    6.7230   10.9840 C   0  0  0  0  0
   35.6110    9.7150    5.1610 C   0  0  0  0  0
   36.2540    3.2850    9.7740 O   0  0  0  0  0
   38.9330    5.8060   10.8910 C   0  0  0  0  0
   39.9880    6.2720   11.8600 C   0  0  0  0  0
   32.9390    2.1720    8.8700 C   0  0  0  0  0
   33.7780    3.8520   10.5420 C   0  0  0  0  0
   31.2830    0.5070    9.4880 C   0  0  0  0  0
   35.3300    6.8100   10.1440 C   0  0  0  0  0
   31.1550    6.5340   11.4590 C   0  0  0  0  0
   30.9500    6.2600   12.8200 C   0  0  0  0  0
   34.2450    8.1130    8.3960 C   0  0  0  0  0
   34.3920    8.5050    6.9350 C   0  0  0  0  0
   35.7250    9.1630    6.5900 C   0  0  0  0  0
   29.1460    7.8880   12.8930 C   0  0  0  0  0
   29.3660    8.1770   11.5270 C   0  0  0  0  0
   29.7640    6.6310   14.9810 C   0  0  0  0  0
   32.9160    7.4030    8.6270 C   0  0  0  0  0
   30.6210    7.7730    9.3620 C   0  0  0  0  0
   34.5190    7.0780   11.0280 O   0  0  0  0  0
   35.2990    7.2150    8.8510 N   0  0  0  0  0
   32.7780    6.1940    8.4160 O   0  0  0  0  0
   31.9660    8.2470    9.0810 N   0  0  0  0  0
   29.9470    6.9280   13.5500 C   0  0  0  0  0
   30.3690    7.4900   10.8030 C   0  0  0  0  0
   30.5820    5.8060   15.6200 N   0  0  0  0  0
   35.3800    8.9570    4.2200 O   0  0  0  0  0
   35.6690   11.0720    5.0450 N   0  0  0  0  0
   36.1380    4.9730   11.4810 N   0  0  0  0  0
   36.5210    5.9300   10.4510 C   0  0  0  0  0
   37.9500    8.0800   10.2670 C   0  0  0  0  0
   35.4490    3.5280   10.9180 S   0  0  0  0  0
   35.5270    2.6520   12.0380 O   0  0  0  0  0
   32.9410    2.6750   10.1920 C   0  0  0  0  0
   32.1010    1.1020    8.5150 C   0  0  0  0  0
   31.2970    0.9940   10.8130 C   0  0  0  0  0
   32.1230    2.0830   11.1650 C   0  0  0  0  0
   28.8150    7.2110   15.7040 N   0  0  0  0  0
   37.5319    7.0134   12.0173 H   0  0  0  0  0
   39.3326    5.8319    9.8772 H   0  0  0  0  0
   38.6374    4.7861   11.1370 H   0  0  0  0  0
   40.2825    7.2917   11.6118 H   0  0  0  0  0
   39.5866    6.2447   12.8730 H   0  0  0  0  0
   40.8557    5.6156   11.7939 H   0  0  0  0  0
   33.5929    2.6182    8.1208 H   0  0  0  0  0
   33.7843    4.4927    9.6602 H   0  0  0  0  0
   33.3408    4.2772   11.4454 H   0  0  0  0  0
   30.6378   -0.3300    9.2210 H   0  0  0  0  0
   31.9301    6.0000   10.9094 H   0  0  0  0  0
   31.5755    5.5200   13.3193 H   0  0  0  0  0
   34.3038    9.0447    8.9587 H   0  0  0  0  0
   33.6103    9.2333    6.7190 H   0  0  0  0  0
   34.3270    7.5878    6.3496 H   0  0  0  0  0
   35.9467    9.9664    7.2925 H   0  0  0  0  0
   36.5362    8.4379    6.6551 H   0  0  0  0  0
   28.3580    8.4061   13.4395 H   0  0  0  0  0
   28.7596    8.9333   11.0285 H   0  0  0  0  0
   30.4874    6.8369    8.8197 H   0  0  0  0  0
   29.9303    8.5606    9.0608 H   0  0  0  0  0
   36.0122    6.8919    8.1973 H   0  0  0  0  0
   32.1947    9.2300    9.2288 H   0  0  0  0  0
   31.3540    5.3648   15.1203 H   0  0  0  0  0
   35.5163   11.5133    4.1382 H   0  0  0  0  0
   35.8651   11.6460    5.8650 H   0  0  0  0  0
   36.2750    5.1593   12.4744 H   0  0  0  0  0
   36.8142    5.4463    9.5192 H   0  0  0  0  0
   38.1252    7.9038    9.2057 H   0  0  0  0  0
   37.0679    8.7080   10.3916 H   0  0  0  0  0
   38.8166    8.5781   10.7018 H   0  0  0  0  0
   32.0861    0.7355    7.4886 H   0  0  0  0  0
   30.6661    0.5262   11.5688 H   0  0  0  0  0
   32.1250    2.4616   12.1871 H   0  0  0  0  0
   28.7416    7.0133   16.7020 H   0  0  0  0  0
   28.1587    7.8547   15.2620 H   0  0  0  0  0
  1  4  1  0  0  0
 30  1  1  0  0  0
  1 31  1  0  0  0
 14  2  1  0  0  0
  2 27  2  0  0  0
  2 28  1  0  0  0
 32  3  2  0  0  0
  4  5  1  0  0  0
 34  6  4  0  0  0
  6 35  4  0  0  0
 32  7  1  0  0  0
  7 34  1  0  0  0
 35  8  4  0  0  0
  8 36  4  0  0  0
  9 20  2  0  0  0
  9 21  1  0  0  0
 30  9  1  0  0  0
 10 11  4  0  0  0
 25 10  4  0  0  0
 11 24  4  0  0  0
 12 13  1  0  0  0
 12 18  1  0  0  0
 21 12  1  0  0  0
 13 14  1  0  0  0
 16 15  4  0  0  0
 15 24  4  0  0  0
 25 16  4  0  0  0
 24 17  1  0  0  0
 17 26  2  0  0  0
 17 38  1  0  0  0
 18 22  2  0  0  0
 18 23  1  0  0  0
 23 19  1  0  0  0
 19 25  1  0  0  0
 29 30  1  0  0  0
 29 32  1  0  0  0
 32 33  2  0  0  0
 34 37  4  0  0  0
 36 37  4  0  0  0
  1 39  1  0  0  0
  4 40  1  0  0  0
  4 41  1  0  0  0
  5 42  1  0  0  0
  5 43  1  0  0  0
  5 44  1  0  0  0
  6 45  1  0  0  0
  7 46  1  0  0  0
  7 47  1  0  0  0
  8 48  1  0  0  0
 10 49  1  0  0  0
 11 50  1  0  0  0
 12 51  1  0  0  0
 13 52  1  0  0  0
 13 53  1  0  0  0
 14 54  1  0  0  0
 14 55  1  0  0  0
 15 56  1  0  0  0
 16 57  1  0  0  0
 19 58  1  0  0  0
 19 59  1  0  0  0
 21 60  1  0  0  0
 23 61  1  0  0  0
 26 62  1  0  0  0
 28 63  1  0  0  0
 28 64  1  0  0  0
 29 65  1  0  0  0
 30 66  1  0  0  0
 31 67  1  0  0  0
 31 68  1  0  0  0
 31 69  1  0  0  0
 35 70  1  0  0  0
 36 71  1  0  0  0
 37 72  1  0  0  0
 38 73  1  0  0  0
 38 74  1  0  0  0
M  END
$$$$
