4w54_ligand
  -I-interpret- 

 18 18  0  0  0  0  0  0  0  0999 V2000
   40.0430  -20.5930   14.1830 C   0  0  0  0  0
   39.4070  -19.3730   14.8600 C   0  0  0  0  0
   40.9300  -20.1910   12.9990 C   0  0  0  0  0
   40.3610  -19.8840   11.7690 C   0  0  0  0  0
   42.3120  -20.1340   13.1510 C   0  0  0  0  0
   41.1680  -19.5210   10.6940 C   0  0  0  0  0
   43.1190  -19.7700   12.0780 C   0  0  0  0  0
   42.5490  -19.4630   10.8470 C   0  0  0  0  0
   39.2433  -21.2327   13.8096 H   0  0  0  0  0
   40.6642  -21.1064   14.9169 H   0  0  0  0  0
   40.1923  -18.7134   15.2291 H   0  0  0  0  0
   38.7912  -18.8379   14.1372 H   0  0  0  0  0
   38.7870  -19.7036   15.6933 H   0  0  0  0  0
   39.2789  -19.9275   11.6453 H   0  0  0  0  0
   42.7634  -20.3752   14.1134 H   0  0  0  0  0
   40.7167  -19.2819    9.7311 H   0  0  0  0  0
   44.2010  -19.7253   12.2023 H   0  0  0  0  0
   43.1817  -19.1783   10.0063 H   0  0  0  0  0
  1  2  1  0  0  0
  1  3  1  0  0  0
  3  4  4  0  0  0
  3  5  4  0  0  0
  4  6  4  0  0  0
  5  7  4  0  0  0
  6  8  4  0  0  0
  7  8  4  0  0  0
  1  9  1  0  0  0
  1 10  1  0  0  0
  2 11  1  0  0  0
  2 12  1  0  0  0
  2 13  1  0  0  0
  4 14  1  0  0  0
  5 15  1  0  0  0
  6 16  1  0  0  0
  7 17  1  0  0  0
  8 18  1  0  0  0
M  END
$$$$
