1o4i_ligand
  -I-interpret- 

 41 42  0  0  0  0  0  0  0  0999 V2000
   18.2360   25.7640   20.7610 C   0  0  0  0  0
   18.3140   24.4640   20.1740 C   0  0  0  0  0
   17.4920   24.1750   19.0240 C   0  0  0  0  0
   16.5600   25.1250   18.4410 C   0  0  0  0  0
   16.5010   26.4430   19.0640 C   0  0  0  0  0
   17.3650   26.7480   20.1920 C   0  0  0  0  0
   15.6100   24.6920   17.3250 C   0  0  0  0  0
   15.4030   27.3610   18.7340 O   0  0  0  0  0
   15.5880   28.4930   17.5980 P   0  0  0  0  0
   16.9780   28.0730   17.1570 O   0  0  0  0  0
   15.7930   29.7990   18.3810 O   0  0  0  0  0
   17.0910   27.6520   15.8360 C   0  0  0  0  0
   15.3800   25.1590   16.0890 O   0  0  0  0  0
   14.4700   28.6400   16.5970 O   0  0  0  0  0
   17.6610   28.8630   15.1820 C   0  0  0  0  0
   19.1270   28.4760   14.8870 C   0  0  0  0  0
   20.0270   28.3590   16.1190 C   0  0  0  0  0
   20.1670   29.7110   16.7980 C   0  0  0  0  0
   18.7760   30.2270   17.1830 C   0  0  0  0  0
   17.6840   30.1620   16.1040 C   0  0  0  0  0
   18.8366   26.0058   21.6379 H   0  0  0  0  0
   18.9805   23.7064   20.5862 H   0  0  0  0  0
   17.5748   23.1889   18.5671 H   0  0  0  0  0
   17.3497   27.7520   20.6160 H   0  0  0  0  0
   14.6614   24.9587   17.7909 H   0  0  0  0  0
   16.0680   23.7370   17.0676 H   0  0  0  0  0
   16.5077   29.6840   19.0115 H   0  0  0  0  0
   16.1460   27.3267   15.4008 H   0  0  0  0  0
   17.7074   26.7613   15.7146 H   0  0  0  0  0
   14.7011   24.6265   15.6681 H   0  0  0  0  0
   17.0525   29.1229   14.3158 H   0  0  0  0  0
   19.5433   29.2709   14.2682 H   0  0  0  0  0
   19.1041   27.4914   14.4201 H   0  0  0  0  0
   21.0127   28.0122   15.8087 H   0  0  0  0  0
   19.5820   27.6526   16.8197 H   0  0  0  0  0
   20.6431   30.4156   16.1161 H   0  0  0  0  0
   20.7805   29.6094   17.6932 H   0  0  0  0  0
   18.9043   31.2847   17.4129 H   0  0  0  0  0
   18.4332   29.5823   17.9923 H   0  0  0  0  0
   16.7343   30.1660   16.6389 H   0  0  0  0  0
   17.8748   31.0007   15.4345 H   0  0  0  0  0
  1  2  4  0  0  0
  1  6  4  0  0  0
  2  3  4  0  0  0
  3  4  4  0  0  0
  4  5  4  0  0  0
  4  7  1  0  0  0
  5  6  4  0  0  0
  5  8  1  0  0  0
  7 13  1  0  0  0
  8  9  1  0  0  0
  9 10  1  0  0  0
  9 11  1  0  0  0
  9 14  2  0  0  0
 10 12  1  0  0  0
 12 15  1  0  0  0
 15 16  1  0  0  0
 15 20  1  0  0  0
 16 17  1  0  0  0
 17 18  1  0  0  0
 18 19  1  0  0  0
 19 20  1  0  0  0
  1 21  1  0  0  0
  2 22  1  0  0  0
  3 23  1  0  0  0
  6 24  1  0  0  0
  7 25  1  0  0  0
  7 26  1  0  0  0
 11 27  1  0  0  0
 12 28  1  0  0  0
 12 29  1  0  0  0
 13 30  1  0  0  0
 15 31  1  0  0  0
 16 32  1  0  0  0
 16 33  1  0  0  0
 17 34  1  0  0  0
 17 35  1  0  0  0
 18 36  1  0  0  0
 18 37  1  0  0  0
 19 38  1  0  0  0
 19 39  1  0  0  0
 20 40  1  0  0  0
 20 41  1  0  0  0
M  END
$$$$
