### 
### Created by X-TOOL on Mon Sep 10 21:12:51 2018
### 

@<TRIPOS>MOLECULE
1o4i_ligand
   40    41     1     0     0
SMALL
GAST_HUCK


@<TRIPOS>ATOM
      1 C1         18.2360   25.7640   20.7610 C.ar      1 219        -0.0764
      2 C2         18.3140   24.4640   20.1740 C.ar      1 219        -0.0788
      3 C3         17.4920   24.1750   19.0240 C.ar      1 219        -0.0654
      4 C4         16.5600   25.1250   18.4410 C.ar      1 219         0.0171
      5 C5         16.5010   26.4430   19.0640 C.ar      1 219         0.1333
      6 C6         17.3650   26.7480   20.1920 C.ar      1 219        -0.0340
      7 C7         15.6100   24.6920   17.3250 C.3       1 219         0.0771
      8 O8         15.4030   27.3610   18.7340 O.3       1 219        -0.1975
      9 P9         15.5880   28.4930   17.5980 P.3       1 219         0.2797
     10 O10        16.9780   28.0730   17.1570 O.3       1 219        -0.2510
     11 O11        15.7930   29.7990   18.3810 O.co2     1 219        -0.6135
     12 C12        17.0910   27.6520   15.8360 C.3       1 219         0.0868
     13 O17        15.3800   25.1590   16.0890 O.3       1 219        -0.3843
     14 O19        14.4700   28.6400   16.5970 O.co2     1 219        -0.6135
     15 C21        17.6610   28.8630   15.1820 C.3       1 219        -0.0124
     16 C24        19.1270   28.4760   14.8870 C.3       1 219        -0.0478
     17 C25        20.0270   28.3590   16.1190 C.3       1 219        -0.0527
     18 C26        20.1670   29.7110   16.7980 C.3       1 219        -0.0530
     19 C27        18.7760   30.2270   17.1830 C.3       1 219        -0.0527
     20 C28        17.6840   30.1620   16.1040 C.3       1 219        -0.0478
     21 H1         18.8333   26.0045   21.6330 H         1 219         0.0533
     22 H2         18.9768   23.7105   20.5839 H         1 219         0.0512
     23 H3         17.5744   23.1943   18.5696 H         1 219         0.0529
     24 H4         17.3497   27.7465   20.6137 H         1 219         0.0533
     25 H5         14.6200   24.7389   17.8021 H         1 219         0.0700
     26 H6         15.8842   23.6409   17.1520 H         1 219         0.0700
     27 H7         16.1097   27.3918   15.4125 H         1 219         0.0623
     28 H8         17.7693   26.7907   15.7460 H         1 219         0.0623
     29 H9         14.7081   24.6321   15.6725 H         1 219         0.2123
     30 H10        17.1100   29.0842   14.2560 H         1 219         0.0327
     31 H11        19.5550   29.2420   14.2237 H         1 219         0.0269
     32 H12        19.1260   27.5040   14.3720 H         1 219         0.0269
     33 H13        21.0210   28.0031   15.8102 H         1 219         0.0265
     34 H14        19.5839   27.6419   16.8257 H         1 219         0.0265
     35 H15        20.6452   30.4217   16.1079 H         1 219         0.0265
     36 H16        20.7841   29.6065   17.7025 H         1 219         0.0265
     37 H17        18.8839   31.2799   17.4826 H         1 219         0.0265
     38 H18        18.4287   29.6349   18.0425 H         1 219         0.0265
     39 H19        16.7104   30.2269   16.6118 H         1 219         0.0269
     40 H20        17.8136   31.0344   15.4466 H         1 219         0.0269
@<TRIPOS>BOND
     1    1    2 ar 
     2    1    6 ar 
     3    2    3 ar 
     4    3    4 ar 
     5    4    5 ar 
     6    4    7 1  
     7    5    6 ar 
     8    5    8 1  
     9    7   13 1  
    10    8    9 1  
    11    9   10 1  
    12    9   11 ar 
    13    9   14 ar 
    14   10   12 1  
    15   12   15 1  
    16   15   16 1  
    17   15   20 1  
    18   16   17 1  
    19   17   18 1  
    20   18   19 1  
    21   19   20 1  
    22    1   21 1  
    23    2   22 1  
    24    3   23 1  
    25    6   24 1  
    26    7   25 1  
    27    7   26 1  
    28   12   27 1  
    29   12   28 1  
    30   13   29 1  
    31   15   30 1  
    32   16   31 1  
    33   16   32 1  
    34   17   33 1  
    35   17   34 1  
    36   18   35 1  
    37   18   36 1  
    38   19   37 1  
    39   19   38 1  
    40   20   39 1  
    41   20   40 1  
@<TRIPOS>SUBSTRUCTURE
     1 219         1

