### 
### Created by X-TOOL on Mon Aug  2 16:13:01 2021
### 

@<TRIPOS>MOLECULE
6dql_ligand
  159   161     1     0     0
SMALL
GAST_HUCK


@<TRIPOS>ATOM
      1 N           5.3010  -35.8080   11.8960 N.4       1 MET         0.2379
      2 CA          4.4730  -35.5970   13.1140 C.3       1 MET         0.0658
      3 C           5.1970  -36.2140   14.2980 C.2       1 MET         0.2268
      4 O           4.8050  -37.2670   14.8140 O.2       1 MET        -0.3907
      5 CB          3.0630  -36.1950   12.9490 C.3       1 MET         0.0168
      6 CG          2.3460  -35.8450   11.6450 C.3       1 MET         0.0007
      7 SD          2.8360  -34.2920   10.8500 S.3       1 MET        -0.1638
      8 CE          3.7920  -34.8430    9.4270 C.3       1 MET        -0.0181
      9 N           6.2770  -35.5460   14.7010 N.am      1 MET        -0.2599
     10 CA          7.0510  -35.9410   15.8770 C.3       1 MET         0.1353
     11 C           6.2670  -35.4070   17.0900 C.2       1 MET         0.2052
     12 O           5.5660  -34.4000   16.9710 O.2       1 MET        -0.3942
     13 CB          8.4960  -35.3850   15.7800 C.3       1 MET         0.0042
     14 CG          9.2840  -35.4080   17.0670 C.2       1 MET        -0.0418
     15 CD1         8.8990  -34.8890   18.2320 C.2       1 MET         0.0167
     16 CD2        10.5970  -35.9470   17.2950 C.ar      1 MET        -0.0214
     17 NE1         9.8380  -35.0850   19.1950 N.pl3     1 MET        -0.2890
     18 CE2        10.9110  -35.7170   18.6480 C.ar      1 MET         0.0603
     19 CE3        11.5310  -36.6010   16.4940 C.ar      1 MET        -0.0747
     20 CZ2        12.1190  -36.1210   19.2280 C.ar      1 MET        -0.0443
     21 CZ3        12.7400  -37.0010   17.0680 C.ar      1 MET        -0.0792
     22 CH2        13.0180  -36.7590   18.4220 C.ar      1 MET        -0.0768
     23 N           6.3860  -36.0760   18.2410 N.am      1 MET        -0.2636
     24 CA          5.7030  -35.6500   19.4900 C.3       1 MET         0.1312
     25 C           6.5600  -34.7920   20.4450 C.2       1 MET         0.2039
     26 O           6.9110  -35.2230   21.5490 O.2       1 MET        -0.3944
     27 CB          5.1440  -36.8820   20.2180 C.3       1 MET        -0.0101
     28 CG          3.8150  -37.4540   19.7010 C.3       1 MET        -0.0425
     29 CD1         2.6330  -36.8530   20.4490 C.3       1 MET        -0.0625
     30 CD2         3.6420  -37.2930   18.1920 C.3       1 MET        -0.0625
     31 N           6.8700  -33.5680   20.0080 N.am      1 MET        -0.2637
     32 CA          7.6620  -32.6070   20.7970 C.3       1 MET         0.1312
     33 C           6.9910  -31.2500   20.7360 C.2       1 MET         0.2039
     34 O           5.9150  -31.1150   20.1510 O.2       1 MET        -0.3944
     35 CB          9.1080  -32.4530   20.2880 C.3       1 MET        -0.0101
     36 CG         10.2770  -32.3710   21.3000 C.3       1 MET        -0.0425
     37 CD1         9.9070  -31.7600   22.6450 C.3       1 MET        -0.0625
     38 CD2        10.9490  -33.6910   21.6090 C.3       1 MET        -0.0625
     39 N           7.6390  -30.2470   21.3390 N.am      1 MET        -0.2637
     40 CA          7.1320  -28.8690   21.3610 C.3       1 MET         0.1312
     41 C           7.6570  -27.9940   22.5200 C.2       1 MET         0.2039
     42 O           7.6400  -28.4090   23.6790 O.2       1 MET        -0.3944
     43 CB          5.6010  -28.8680   21.3610 C.3       1 MET        -0.0101
     44 CG          4.9240  -27.5630   20.9350 C.3       1 MET        -0.0425
     45 CD1         5.3820  -26.4080   21.8130 C.3       1 MET        -0.0625
     46 CD2         5.2000  -27.2690   19.4690 C.3       1 MET        -0.0625
     47 N           8.1110  -26.7830   22.1880 N.am      1 MET        -0.2637
     48 CA          8.6220  -25.7980   23.1700 C.3       1 MET         0.1312
     49 C          10.0530  -26.0390   23.6710 C.2       1 MET         0.2040
     50 O          11.0090  -25.5430   23.0610 O.2       1 MET        -0.3944
     51 CB          7.6560  -25.6280   24.3620 C.3       1 MET        -0.0101
     52 CG          7.3000  -26.8900   25.1980 C.3       1 MET        -0.0425
     53 CD1         7.2380  -26.6610   26.6950 C.3       1 MET        -0.0625
     54 CD2         6.0430  -27.5570   24.7400 C.3       1 MET        -0.0625
     55 N          10.1710  -26.7560   24.7970 N.am      1 MET        -0.2619
     56 CA         11.4060  -27.1280   25.4530 C.3       1 MET         0.1404
     57 C          12.0400  -25.8840   26.1080 C.2       1 MET         0.2054
     58 O          11.5060  -25.3680   27.0990 O.2       1 MET        -0.3942
     59 CB         12.3240  -27.9040   24.4830 C.3       1 MET         0.0214
     60 CG         13.5860  -28.4350   25.1040 C.ar      1 MET        -0.0386
     61 CD1        13.8940  -28.2040   26.4420 C.ar      1 MET        -0.0601
     62 CD2        14.5160  -29.1100   24.3200 C.ar      1 MET        -0.0601
     63 CE1        15.0640  -28.6630   26.9710 C.ar      1 MET        -0.0686
     64 CE2        15.7020  -29.5730   24.8660 C.ar      1 MET        -0.0686
     65 CZ         15.9750  -29.3460   26.2010 C.ar      1 MET        -0.0687
     66 N          13.1670  -25.4120   25.5670 N.am      1 MET        -0.2693
     67 CA         13.8780  -24.2690   26.1150 C.3       1 MET         0.0946
     68 C          13.1330  -23.0190   25.6470 C.2       1 MET         0.0601
     69 O          11.9190  -23.0230   25.3900 O.co2     1 MET        -0.5666
     70 CB         15.3300  -24.1970   25.6020 C.3       1 MET        -0.0156
     71 CG         16.3280  -25.3290   25.8440 C.3       1 MET        -0.0431
     72 CD1        16.0930  -26.4580   24.8800 C.3       1 MET        -0.0625
     73 CD2        17.7340  -24.8680   25.6170 C.3       1 MET        -0.0625
     74 OXT        13.7340  -21.9550   25.4700 O.co2     1 MET        -0.5666
     75 H1          4.8349  -35.4040   11.0987 H         1 MET         0.2015
     76 H2          5.4302  -36.7961   11.7445 H         1 MET         0.2015
     77 H3          6.1988  -35.3667   12.0194 H         1 MET         0.2015
     78 H4          4.3686  -34.5157   13.2871 H         1 MET         0.1098
     79 H5          2.4429  -35.8352   13.7833 H         1 MET         0.0354
     80 H6          3.1512  -37.2901   13.0033 H         1 MET         0.0354
     81 H7          1.2689  -35.7857   11.8604 H         1 MET         0.0380
     82 H8          2.5328  -36.6604   10.9307 H         1 MET         0.0380
     83 H9          4.1457  -33.9680    8.8619 H         1 MET         0.0340
     84 H10         3.1586  -35.4665    8.7789 H         1 MET         0.0340
     85 H11         4.6557  -35.4310    9.7709 H         1 MET         0.0340
     86 H12         6.5693  -34.7443   14.1796 H         1 MET         0.1886
     87 H13         7.1064  -37.0380   15.9368 H         1 MET         0.0815
     88 H14         8.4363  -34.3416   15.4368 H         1 MET         0.0397
     89 H15         9.0417  -35.9848   15.0368 H         1 MET         0.0397
     90 H16         7.9531  -34.3737   18.3922 H         1 MET         0.0795
     91 H17         9.7509  -34.8005   20.1811 H         1 MET         0.2216
     92 H18        11.3238  -36.7952   15.4479 H         1 MET         0.0540
     93 H19        12.3323  -35.9350   20.2744 H         1 MET         0.0541
     94 H20        13.4773  -37.5079   16.4560 H         1 MET         0.0510
     95 H21        13.9652  -37.0850   18.8364 H         1 MET         0.0530
     96 H22         6.9577  -36.8962   18.2624 H         1 MET         0.1883
     97 H23         4.8494  -35.0254   19.1881 H         1 MET         0.0800
     98 H24         4.9987  -36.6066   21.2730 H         1 MET         0.0315
     99 H25         5.8982  -37.6796   20.1478 H         1 MET         0.0315
    100 H26         3.8249  -38.5336   19.9117 H         1 MET         0.0298
    101 H27         1.6971  -37.2796   20.0590 H         1 MET         0.0232
    102 H28         2.6257  -35.7622   20.3074 H         1 MET         0.0232
    103 H29         2.7221  -37.0830   21.5210 H         1 MET         0.0232
    104 H30         4.5068  -37.7341   17.6747 H         1 MET         0.0232
    105 H31         3.5720  -36.2239   17.9429 H         1 MET         0.0232
    106 H32         2.7228  -37.8052   17.8716 H         1 MET         0.0232
    107 H33         6.5494  -33.2905   19.1023 H         1 MET         0.1883
    108 H34         7.6924  -32.9540   21.8404 H         1 MET         0.0800
    109 H35         9.1386  -31.5296   19.6911 H         1 MET         0.0315
    110 H36         9.3102  -33.3169   19.6377 H         1 MET         0.0315
    111 H37        11.0307  -31.7182   20.8354 H         1 MET         0.0298
    112 H38        10.7935  -31.7424   23.2960 H         1 MET         0.0232
    113 H39         9.1175  -32.3632   23.1170 H         1 MET         0.0232
    114 H40         9.5429  -30.7331   22.4936 H         1 MET         0.0232
    115 H41        11.2410  -34.1826   20.6693 H         1 MET         0.0232
    116 H42        10.2504  -34.3381   22.1596 H         1 MET         0.0232
    117 H43        11.8442  -33.5120   22.2227 H         1 MET         0.0232
    118 H44         8.5069  -30.4443   21.7949 H         1 MET         0.1883
    119 H45         7.4677  -28.3939   20.4274 H         1 MET         0.0800
    120 H46         5.2656  -29.1017   22.3822 H         1 MET         0.0315
    121 H47         5.2653  -29.6593   20.6746 H         1 MET         0.0315
    122 H48         3.8379  -27.6816   21.0628 H         1 MET         0.0298
    123 H49         4.8840  -25.4819   21.4898 H         1 MET         0.0232
    124 H50         6.4718  -26.2888   21.7231 H         1 MET         0.0232
    125 H51         5.1212  -26.6181   22.8608 H         1 MET         0.0232
    126 H52         4.8611  -28.1164   18.8550 H         1 MET         0.0232
    127 H53         6.2797  -27.1185   19.3221 H         1 MET         0.0232
    128 H54         4.6588  -26.3595   19.1692 H         1 MET         0.0232
    129 H55         8.1059  -26.5261   21.2216 H         1 MET         0.1883
    130 H56         8.6452  -24.8340   22.6407 H         1 MET         0.0800
    131 H57         6.7139  -25.2224   23.9645 H         1 MET         0.0315
    132 H58         8.1089  -24.8977   25.0487 H         1 MET         0.0315
    133 H59         8.1191  -27.6038   25.0260 H         1 MET         0.0298
    134 H60         6.9812  -27.6040   27.1998 H         1 MET         0.0232
    135 H61         6.4713  -25.9047   26.9188 H         1 MET         0.0232
    136 H62         8.2165  -26.3082   27.0528 H         1 MET         0.0232
    137 H63         6.0904  -27.7221   23.6535 H         1 MET         0.0232
    138 H64         5.1808  -26.9161   24.9762 H         1 MET         0.0232
    139 H65         5.9328  -28.5237   25.2532 H         1 MET         0.0232
    140 H66         9.3220  -27.0643   25.2261 H         1 MET         0.1885
    141 H67        11.1548  -27.8218   26.2688 H         1 MET         0.0823
    142 H68        12.6041  -27.2283   23.6615 H         1 MET         0.0474
    143 H69        11.7557  -28.7552   24.0801 H         1 MET         0.0474
    144 H70        13.1990  -27.6555   27.0675 H         1 MET         0.0557
    145 H71        14.3101  -29.2758   23.2687 H         1 MET         0.0557
    146 H72        15.2797  -28.4859   28.0185 H         1 MET         0.0599
    147 H73        16.4124  -30.1108   24.2486 H         1 MET         0.0599
    148 H74        16.9003  -29.7037   26.6379 H         1 MET         0.0559
    149 H75        13.5354  -25.8626   24.7538 H         1 MET         0.1875
    150 H76        13.8811  -24.3250   27.2136 H         1 MET         0.0726
    151 H77        15.7716  -23.2951   26.0509 H         1 MET         0.0308
    152 H78        15.2660  -24.0700   24.5112 H         1 MET         0.0308
    153 H79        16.2161  -25.6892   26.8773 H         1 MET         0.0297
    154 H80        16.8205  -27.2607   25.0710 H         1 MET         0.0232
    155 H81        16.2134  -26.0916   23.8498 H         1 MET         0.0232
    156 H82        15.0732  -26.8480   25.0137 H         1 MET         0.0232
    157 H83        17.9622  -24.0369   26.3005 H         1 MET         0.0232
    158 H84        17.8451  -24.5282   24.5767 H         1 MET         0.0232
    159 H85        18.4279  -25.7001   25.8071 H         1 MET         0.0232
@<TRIPOS>BOND
     1    1    2 1  
     2    2    3 1  
     3    2    5 1  
     4    3    4 2  
     5    3    9 am 
     6    5    6 1  
     7    6    7 1  
     8    7    8 1  
     9    9   10 1  
    10   10   11 1  
    11   10   13 1  
    12   11   12 2  
    13   11   23 am 
    14   13   14 1  
    15   14   15 2  
    16   14   16 1  
    17   15   17 1  
    18   16   18 ar 
    19   16   19 ar 
    20   17   18 1  
    21   18   20 ar 
    22   19   21 ar 
    23   20   22 ar 
    24   21   22 ar 
    25   23   24 1  
    26   24   25 1  
    27   24   27 1  
    28   25   26 2  
    29   25   31 am 
    30   27   28 1  
    31   28   29 1  
    32   28   30 1  
    33   31   32 1  
    34   32   33 1  
    35   32   35 1  
    36   33   34 2  
    37   33   39 am 
    38   35   36 1  
    39   36   37 1  
    40   36   38 1  
    41   39   40 1  
    42   40   41 1  
    43   40   43 1  
    44   41   42 2  
    45   41   47 am 
    46   43   44 1  
    47   44   45 1  
    48   44   46 1  
    49   47   48 1  
    50   48   49 1  
    51   48   51 1  
    52   49   50 2  
    53   49   55 am 
    54   51   52 1  
    55   52   53 1  
    56   52   54 1  
    57   55   56 1  
    58   56   57 1  
    59   56   59 1  
    60   57   58 2  
    61   57   66 am 
    62   59   60 1  
    63   60   61 ar 
    64   60   62 ar 
    65   61   63 ar 
    66   62   64 ar 
    67   63   65 ar 
    68   64   65 ar 
    69   66   67 1  
    70   67   68 1  
    71   67   70 1  
    72   68   69 ar 
    73   68   74 ar 
    74   70   71 1  
    75   71   72 1  
    76   71   73 1  
    77    1   75 1  
    78    1   76 1  
    79    1   77 1  
    80    2   78 1  
    81    5   79 1  
    82    5   80 1  
    83    6   81 1  
    84    6   82 1  
    85    8   83 1  
    86    8   84 1  
    87    8   85 1  
    88    9   86 1  
    89   10   87 1  
    90   13   88 1  
    91   13   89 1  
    92   15   90 1  
    93   17   91 1  
    94   19   92 1  
    95   20   93 1  
    96   21   94 1  
    97   22   95 1  
    98   23   96 1  
    99   24   97 1  
   100   27   98 1  
   101   27   99 1  
   102   28  100 1  
   103   29  101 1  
   104   29  102 1  
   105   29  103 1  
   106   30  104 1  
   107   30  105 1  
   108   30  106 1  
   109   31  107 1  
   110   32  108 1  
   111   35  109 1  
   112   35  110 1  
   113   36  111 1  
   114   37  112 1  
   115   37  113 1  
   116   37  114 1  
   117   38  115 1  
   118   38  116 1  
   119   38  117 1  
   120   39  118 1  
   121   40  119 1  
   122   43  120 1  
   123   43  121 1  
   124   44  122 1  
   125   45  123 1  
   126   45  124 1  
   127   45  125 1  
   128   46  126 1  
   129   46  127 1  
   130   46  128 1  
   131   47  129 1  
   132   48  130 1  
   133   51  131 1  
   134   51  132 1  
   135   52  133 1  
   136   53  134 1  
   137   53  135 1  
   138   53  136 1  
   139   54  137 1  
   140   54  138 1  
   141   54  139 1  
   142   55  140 1  
   143   56  141 1  
   144   59  142 1  
   145   59  143 1  
   146   61  144 1  
   147   62  145 1  
   148   63  146 1  
   149   64  147 1  
   150   65  148 1  
   151   66  149 1  
   152   67  150 1  
   153   70  151 1  
   154   70  152 1  
   155   71  153 1  
   156   72  154 1  
   157   72  155 1  
   158   72  156 1  
   159   73  157 1  
   160   73  158 1  
   161   73  159 1  
@<TRIPOS>SUBSTRUCTURE
     1 MET         1

