6dql_ligand
  -I-interpret- 

159161  0  0  0  0  0  0  0  0999 V2000
    5.3010  -35.8080   11.8960 N   0  3  0  0  0
    4.4730  -35.5970   13.1140 C   0  0  0  0  0
    5.1970  -36.2140   14.2980 C   0  0  0  0  0
    4.8050  -37.2670   14.8140 O   0  0  0  0  0
    3.0630  -36.1950   12.9490 C   0  0  0  0  0
    2.3460  -35.8450   11.6450 C   0  0  0  0  0
    2.8360  -34.2920   10.8500 S   0  0  0  0  0
    3.7920  -34.8430    9.4270 C   0  0  0  0  0
    6.2770  -35.5460   14.7010 N   0  0  0  0  0
    7.0510  -35.9410   15.8770 C   0  0  0  0  0
    6.2670  -35.4070   17.0900 C   0  0  0  0  0
    5.5660  -34.4000   16.9710 O   0  0  0  0  0
    8.4960  -35.3850   15.7800 C   0  0  0  0  0
    9.2840  -35.4080   17.0670 C   0  0  0  0  0
    8.8990  -34.8890   18.2320 C   0  0  0  0  0
   10.5970  -35.9470   17.2950 C   0  0  0  0  0
    9.8380  -35.0850   19.1950 N   0  0  0  0  0
   10.9110  -35.7170   18.6480 C   0  0  0  0  0
   11.5310  -36.6010   16.4940 C   0  0  0  0  0
   12.1190  -36.1210   19.2280 C   0  0  0  0  0
   12.7400  -37.0010   17.0680 C   0  0  0  0  0
   13.0180  -36.7590   18.4220 C   0  0  0  0  0
    6.3860  -36.0760   18.2410 N   0  0  0  0  0
    5.7030  -35.6500   19.4900 C   0  0  0  0  0
    6.5600  -34.7920   20.4450 C   0  0  0  0  0
    6.9110  -35.2230   21.5490 O   0  0  0  0  0
    5.1440  -36.8820   20.2180 C   0  0  0  0  0
    3.8150  -37.4540   19.7010 C   0  0  0  0  0
    2.6330  -36.8530   20.4490 C   0  0  0  0  0
    3.6420  -37.2930   18.1920 C   0  0  0  0  0
    6.8700  -33.5680   20.0080 N   0  0  0  0  0
    7.6620  -32.6070   20.7970 C   0  0  0  0  0
    6.9910  -31.2500   20.7360 C   0  0  0  0  0
    5.9150  -31.1150   20.1510 O   0  0  0  0  0
    9.1080  -32.4530   20.2880 C   0  0  0  0  0
   10.2770  -32.3710   21.3000 C   0  0  0  0  0
    9.9070  -31.7600   22.6450 C   0  0  0  0  0
   10.9490  -33.6910   21.6090 C   0  0  0  0  0
    7.6390  -30.2470   21.3390 N   0  0  0  0  0
    7.1320  -28.8690   21.3610 C   0  0  0  0  0
    7.6570  -27.9940   22.5200 C   0  0  0  0  0
    7.6400  -28.4090   23.6790 O   0  0  0  0  0
    5.6010  -28.8680   21.3610 C   0  0  0  0  0
    4.9240  -27.5630   20.9350 C   0  0  0  0  0
    5.3820  -26.4080   21.8130 C   0  0  0  0  0
    5.2000  -27.2690   19.4690 C   0  0  0  0  0
    8.1110  -26.7830   22.1880 N   0  0  0  0  0
    8.6220  -25.7980   23.1700 C   0  0  0  0  0
   10.0530  -26.0390   23.6710 C   0  0  0  0  0
   11.0090  -25.5430   23.0610 O   0  0  0  0  0
    7.6560  -25.6280   24.3620 C   0  0  0  0  0
    7.3000  -26.8900   25.1980 C   0  0  0  0  0
    7.2380  -26.6610   26.6950 C   0  0  0  0  0
    6.0430  -27.5570   24.7400 C   0  0  0  0  0
   10.1710  -26.7560   24.7970 N   0  0  0  0  0
   11.4060  -27.1280   25.4530 C   0  0  0  0  0
   12.0400  -25.8840   26.1080 C   0  0  0  0  0
   11.5060  -25.3680   27.0990 O   0  0  0  0  0
   12.3240  -27.9040   24.4830 C   0  0  0  0  0
   13.5860  -28.4350   25.1040 C   0  0  0  0  0
   13.8940  -28.2040   26.4420 C   0  0  0  0  0
   14.5160  -29.1100   24.3200 C   0  0  0  0  0
   15.0640  -28.6630   26.9710 C   0  0  0  0  0
   15.7020  -29.5730   24.8660 C   0  0  0  0  0
   15.9750  -29.3460   26.2010 C   0  0  0  0  0
   13.1670  -25.4120   25.5670 N   0  0  0  0  0
   13.8780  -24.2690   26.1150 C   0  0  0  0  0
   13.1330  -23.0190   25.6470 C   0  0  0  0  0
   11.9190  -23.0230   25.3900 O   0  0  0  0  0
   15.3300  -24.1970   25.6020 C   0  0  0  0  0
   16.3280  -25.3290   25.8440 C   0  0  0  0  0
   16.0930  -26.4580   24.8800 C   0  0  0  0  0
   17.7340  -24.8680   25.6170 C   0  0  0  0  0
   13.7340  -21.9550   25.4700 O   0  0  0  0  0
    6.2251  -35.4008   12.0398 H   0  0  0  0  0
    5.3928  -36.8081   11.7178 H   0  0  0  0  0
    4.8508  -35.3592   11.0983 H   0  0  0  0  0
    4.3384  -34.5283   13.2809 H   0  0  0  0  0
    2.4561  -35.7844   13.7560 H   0  0  0  0  0
    3.1834  -37.2783   12.9551 H   0  0  0  0  0
    1.2915  -35.7364   11.8985 H   0  0  0  0  0
    2.5946  -36.6382   10.9399 H   0  0  0  0  0
    4.6474  -35.4255    9.7691 H   0  0  0  0  0
    3.1633  -35.4607    8.7856 H   0  0  0  0  0
    4.1419  -33.9752    8.8679 H   0  0  0  0  0
    6.5751  -34.7283   14.1692 H   0  0  0  0  0
    7.1695  -37.0210   15.9645 H   0  0  0  0  0
    8.4087  -34.3390   15.4863 H   0  0  0  0  0
    9.0295  -36.0238   15.0761 H   0  0  0  0  0
    7.9522  -34.3732   18.3924 H   0  0  0  0  0
   11.3227  -36.7963   15.4421 H   0  0  0  0  0
   12.3335  -35.9340   20.2802 H   0  0  0  0  0
   13.4814  -37.5107   16.4526 H   0  0  0  0  0
   13.9704  -37.0868   18.8387 H   0  0  0  0  0
    6.9691  -36.9126   18.2629 H   0  0  0  0  0
    4.8949  -34.9887   19.1772 H   0  0  0  0  0
    4.9517  -36.5610   21.2418 H   0  0  0  0  0
    5.8825  -37.6713   20.0775 H   0  0  0  0  0
    3.8453  -38.5257   19.8977 H   0  0  0  0  0
    2.7225  -37.0816   21.5110 H   0  0  0  0  0
    2.6269  -35.7722   20.3079 H   0  0  0  0  0
    1.7063  -37.2765   20.0617 H   0  0  0  0  0
    3.6692  -36.2340   17.9354 H   0  0  0  0  0
    4.4495  -37.8137   17.6774 H   0  0  0  0  0
    2.6842  -37.7168   17.8901 H   0  0  0  0  0
    6.5430  -33.2849   19.0842 H   0  0  0  0  0
    7.7087  -32.9934   21.8151 H   0  0  0  0  0
    9.1179  -31.4888   19.7798 H   0  0  0  0  0
    9.2981  -33.3660   19.7237 H   0  0  0  0  0
   10.9651  -31.7198   20.7610 H   0  0  0  0  0
    9.5463  -30.7426   22.4936 H   0  0  0  0  0
    9.1246  -32.3585   23.1116 H   0  0  0  0  0
   10.7862  -31.7431   23.2891 H   0  0  0  0  0
   10.2173  -34.3797   22.0313 H   0  0  0  0  0
   11.3588  -34.1123   20.6910 H   0  0  0  0  0
   11.7533  -33.5286   22.3265 H   0  0  0  0  0
    8.5243  -30.4483   21.8040 H   0  0  0  0  0
    7.5210  -28.4104   20.4519 H   0  0  0  0  0
    5.2972  -29.0449   22.3928 H   0  0  0  0  0
    5.2969  -29.6197   20.6326 H   0  0  0  0  0
    3.8476  -27.6793   21.0616 H   0  0  0  0  0
    5.1231  -26.6174   22.8509 H   0  0  0  0  0
    6.4620  -26.2910   21.7231 H   0  0  0  0  0
    4.8879  -25.4910   21.4918 H   0  0  0  0  0
    6.2750  -27.1760   19.3145 H   0  0  0  0  0
    4.8129  -28.0838   18.8572 H   0  0  0  0  0
    4.7093  -26.3371   19.1880 H   0  0  0  0  0
    8.1058  -26.5210   21.2022 H   0  0  0  0  0
    8.6723  -24.8695   22.6013 H   0  0  0  0  0
    6.7143  -25.2945   23.9260 H   0  0  0  0  0
    8.1652  -24.9568   25.0537 H   0  0  0  0  0
    8.1424  -27.5564   25.0126 H   0  0  0  0  0
    8.2081  -26.3115   27.0483 H   0  0  0  0  0
    6.4780  -25.9114   26.9154 H   0  0  0  0  0
    6.9835  -27.5960   27.1941 H   0  0  0  0  0
    5.2110  -26.8577   24.8233 H   0  0  0  0  0
    6.1557  -27.8675   23.7013 H   0  0  0  0  0
    5.8490  -28.4304   25.3626 H   0  0  0  0  0
    9.3050  -27.0705   25.2347 H   0  0  0  0  0
   11.2172  -27.8255   26.2690 H   0  0  0  0  0
   12.6238  -27.2054   23.7018 H   0  0  0  0  0
   11.7571  -28.7652   24.1294 H   0  0  0  0  0
   13.1951  -27.6525   27.0709 H   0  0  0  0  0
   14.3089  -29.2767   23.2629 H   0  0  0  0  0
   15.2809  -28.4849   28.0243 H   0  0  0  0  0
   16.4163  -30.1138   24.2452 H   0  0  0  0  0
   16.9055  -29.7057   26.6403 H   0  0  0  0  0
   13.5427  -25.8716   24.7375 H   0  0  0  0  0
   13.9151  -24.3524   27.2012 H   0  0  0  0  0
   11.5592  -23.8959   25.5636 H   0  0  0  0  0
   15.7556  -23.3569   26.1509 H   0  0  0  0  0
   15.2193  -24.1788   24.5178 H   0  0  0  0  0
   16.1871  -25.6516   26.8756 H   0  0  0  0  0
   15.0822  -26.8435   25.0134 H   0  0  0  0  0
   16.2125  -26.0937   23.8597 H   0  0  0  0  0
   16.8144  -27.2526   25.0703 H   0  0  0  0  0
   17.8404  -24.5234   24.5884 H   0  0  0  0  0
   17.9618  -24.0503   26.3008 H   0  0  0  0  0
   18.4199  -25.6957   25.7971 H   0  0  0  0  0
  1  2  1  0  0  0
  2  3  1  0  0  0
  2  5  1  0  0  0
  3  4  2  0  0  0
  3  9  1  0  0  0
  5  6  1  0  0  0
  6  7  1  0  0  0
  7  8  1  0  0  0
  9 10  1  0  0  0
 10 11  1  0  0  0
 10 13  1  0  0  0
 11 12  2  0  0  0
 11 23  1  0  0  0
 13 14  1  0  0  0
 14 15  4  0  0  0
 14 16  4  0  0  0
 15 17  4  0  0  0
 16 18  4  0  0  0
 16 19  4  0  0  0
 17 18  4  0  0  0
 18 20  4  0  0  0
 19 21  4  0  0  0
 20 22  4  0  0  0
 21 22  4  0  0  0
 23 24  1  0  0  0
 24 25  1  0  0  0
 24 27  1  0  0  0
 25 26  2  0  0  0
 25 31  1  0  0  0
 27 28  1  0  0  0
 28 29  1  0  0  0
 28 30  1  0  0  0
 31 32  1  0  0  0
 32 33  1  0  0  0
 32 35  1  0  0  0
 33 34  2  0  0  0
 33 39  1  0  0  0
 35 36  1  0  0  0
 36 37  1  0  0  0
 36 38  1  0  0  0
 39 40  1  0  0  0
 40 41  1  0  0  0
 40 43  1  0  0  0
 41 42  2  0  0  0
 41 47  1  0  0  0
 43 44  1  0  0  0
 44 45  1  0  0  0
 44 46  1  0  0  0
 47 48  1  0  0  0
 48 49  1  0  0  0
 48 51  1  0  0  0
 49 50  2  0  0  0
 49 55  1  0  0  0
 51 52  1  0  0  0
 52 53  1  0  0  0
 52 54  1  0  0  0
 55 56  1  0  0  0
 56 57  1  0  0  0
 56 59  1  0  0  0
 57 58  2  0  0  0
 57 66  1  0  0  0
 59 60  1  0  0  0
 60 61  4  0  0  0
 60 62  4  0  0  0
 61 63  4  0  0  0
 62 64  4  0  0  0
 63 65  4  0  0  0
 64 65  4  0  0  0
 66 67  1  0  0  0
 67 68  1  0  0  0
 67 70  1  0  0  0
 68 69  1  0  0  0
 68 74  2  0  0  0
 70 71  1  0  0  0
 71 72  1  0  0  0
 71 73  1  0  0  0
  1 75  1  0  0  0
  1 76  1  0  0  0
  1 77  1  0  0  0
  2 78  1  0  0  0
  5 79  1  0  0  0
  5 80  1  0  0  0
  6 81  1  0  0  0
  6 82  1  0  0  0
  8 83  1  0  0  0
  8 84  1  0  0  0
  8 85  1  0  0  0
  9 86  1  0  0  0
 10 87  1  0  0  0
 13 88  1  0  0  0
 13 89  1  0  0  0
 15 90  1  0  0  0
 19 91  1  0  0  0
 20 92  1  0  0  0
 21 93  1  0  0  0
 22 94  1  0  0  0
 23 95  1  0  0  0
 24 96  1  0  0  0
 27 97  1  0  0  0
 27 98  1  0  0  0
 28 99  1  0  0  0
 29100  1  0  0  0
 29101  1  0  0  0
 29102  1  0  0  0
 30103  1  0  0  0
 30104  1  0  0  0
 30105  1  0  0  0
 31106  1  0  0  0
 32107  1  0  0  0
 35108  1  0  0  0
 35109  1  0  0  0
 36110  1  0  0  0
 37111  1  0  0  0
 37112  1  0  0  0
 37113  1  0  0  0
 38114  1  0  0  0
 38115  1  0  0  0
 38116  1  0  0  0
 39117  1  0  0  0
 40118  1  0  0  0
 43119  1  0  0  0
 43120  1  0  0  0
 44121  1  0  0  0
 45122  1  0  0  0
 45123  1  0  0  0
 45124  1  0  0  0
 46125  1  0  0  0
 46126  1  0  0  0
 46127  1  0  0  0
 47128  1  0  0  0
 48129  1  0  0  0
 51130  1  0  0  0
 51131  1  0  0  0
 52132  1  0  0  0
 53133  1  0  0  0
 53134  1  0  0  0
 53135  1  0  0  0
 54136  1  0  0  0
 54137  1  0  0  0
 54138  1  0  0  0
 55139  1  0  0  0
 56140  1  0  0  0
 59141  1  0  0  0
 59142  1  0  0  0
 61143  1  0  0  0
 62144  1  0  0  0
 63145  1  0  0  0
 64146  1  0  0  0
 65147  1  0  0  0
 66148  1  0  0  0
 67149  1  0  0  0
 69150  1  0  0  0
 70151  1  0  0  0
 70152  1  0  0  0
 71153  1  0  0  0
 72154  1  0  0  0
 72155  1  0  0  0
 72156  1  0  0  0
 73157  1  0  0  0
 73158  1  0  0  0
 73159  1  0  0  0
M  END
$$$$
