### 
### Created by X-TOOL on Mon Sep 10 21:13:05 2018
### 

@<TRIPOS>MOLECULE
3uvk_ligand
  169   169     1     0     0
SMALL
GAST_HUCK


@<TRIPOS>ATOM
      1 N          -6.4830   26.9100  -14.8310 N.4       1 GLY         0.2357
      2 CA         -7.7150   27.0770  -15.6690 C.3       1 GLY         0.0545
      3 C          -7.7920   26.1020  -16.8170 C.2       1 GLY         0.2237
      4 O          -6.9340   26.2360  -17.8710 O.2       1 GLY        -0.3910
      5 N          -8.7830   25.1490  -16.7670 N.am      1 CYS        -0.2605
      6 CA         -8.8170   24.2580  -17.8640 C.3       1 CYS         0.1397
      7 C         -10.1360   24.1670  -18.6470 C.2       1 CYS         0.2047
      8 O         -11.2660   24.4930  -18.1990 O.2       1 CYS        -0.3944
      9 CB         -8.3960   22.8540  -17.3340 C.3       1 CYS         0.0311
     10 SG         -9.4590   22.2430  -16.2620 S.3       1 CYS        -0.1735
     11 N         -10.0200   23.5530  -19.8540 N.am      1 ALA        -0.2640
     12 CA        -11.2060   23.3990  -20.6910 C.3       1 ALA         0.1282
     13 C         -12.3260   22.6030  -19.9900 C.2       1 ALA         0.2036
     14 O         -13.5330   22.9080  -20.0820 O.2       1 ALA        -0.3944
     15 CB        -10.8230   22.7740  -22.0740 C.3       1 ALA        -0.0244
     16 N         -11.9690   21.5480  -19.2600 N.am      1 ARG        -0.2637
     17 CA        -12.9930   20.7360  -18.6390 C.3       1 ARG         0.1311
     18 C         -13.8180   21.4380  -17.6110 C.2       1 ARG         0.2040
     19 O         -14.9530   21.0780  -17.3780 O.2       1 ARG        -0.3944
     20 CB        -12.4750   19.3980  -18.0870 C.3       1 ARG        -0.0092
     21 CG        -13.7610   18.4970  -17.8370 C.3       1 ARG        -0.0156
     22 CD        -13.4980   17.1910  -17.7030 C.3       1 ARG         0.0627
     23 NE        -12.5300   16.5280  -18.5690 N.pl3     1 ARG        -0.2723
     24 CZ        -12.8570   15.5310  -19.3920 C.cat     1 ARG         0.2882
     25 NH1       -14.1410   15.1110  -19.4470 N.pl3     1 ARG        -0.2849
     26 NH2       -11.9200   14.9230  -20.1120 N.pl3     1 ARG        -0.2849
     27 N         -13.2550   22.4790  -17.0240 N.am      1 SER        -0.2616
     28 CA        -14.0020   23.1160  -15.9500 C.3       1 SER         0.1539
     29 C         -14.7630   24.3310  -16.3470 C.2       1 SER         0.2062
     30 O         -15.3510   24.9880  -15.4830 O.2       1 SER        -0.3943
     31 CB        -13.1160   23.3890  -14.7560 C.3       1 SER         0.0843
     32 OG        -12.0930   24.2310  -15.1260 O.3       1 SER        -0.3903
     33 N         -14.7540   24.6180  -17.6420 N.am      1 GLU        -0.2635
     34 CA        -15.5080   25.6650  -18.2450 C.3       1 GLU         0.1327
     35 C         -16.7350   25.0930  -18.9750 C.2       1 GLU         0.2065
     36 O         -16.6750   24.0340  -19.4960 O.2       1 GLU        -0.3942
     37 CB        -14.5800   26.3950  -19.2040 C.3       1 GLU        -0.0008
     38 CG        -13.3710   26.9640  -18.5090 C.3       1 GLU         0.0044
     39 CD        -13.6780   28.1560  -17.6010 C.2       1 GLU         0.0350
     40 OE1       -14.8770   28.5730  -17.5020 O.co2     1 GLU        -0.5690
     41 OE2       -12.7080   28.7200  -17.0210 O.co2     1 GLU        -0.5690
     42 N         -17.8570   25.7760  -18.9410 N.am      1 PRO        -0.2498
     43 CA        -19.0810   25.1550  -19.4600 C.3       1 PRO         0.1338
     44 C         -19.1540   25.2970  -20.9790 C.2       1 PRO         0.2041
     45 O         -18.5810   26.2930  -21.5620 O.2       1 PRO        -0.3944
     46 CB        -20.2000   25.9720  -18.8040 C.3       1 PRO        -0.0104
     47 CG        -19.5300   27.3350  -18.5650 C.3       1 PRO        -0.0281
     48 CD        -18.1270   26.9860  -18.1230 C.3       1 PRO         0.0369
     49 N         -19.8480   24.3300  -21.6020 N.am      1 LYS        -0.2637
     50 CA        -20.2330   24.3490  -23.0370 C.3       1 LYS         0.1310
     51 C         -21.5930   25.0800  -23.0020 C.2       1 LYS         0.2039
     52 O         -22.5690   24.5410  -22.3570 O.2       1 LYS        -0.3944
     53 CB        -20.4560   22.9010  -23.5330 C.3       1 LYS        -0.0122
     54 CG        -20.9160   22.7590  -25.0050 C.3       1 LYS        -0.0440
     55 CD        -20.2070   23.6940  -25.9120 C.3       1 LYS        -0.0124
     56 CE        -20.7600   23.3950  -27.3290 C.3       1 LYS        -0.0354
     57 NZ        -20.0290   24.2060  -28.2590 N.4       1 LYS         0.2185
     58 N         -21.6920   26.2970  -23.5630 N.am      1 ILE        -0.2635
     59 CA        -22.8790   27.1020  -23.5000 C.3       1 ILE         0.1335
     60 C         -23.8060   26.7270  -24.6150 C.2       1 ILE         0.2042
     61 O         -23.4680   26.9320  -25.8460 O.2       1 ILE        -0.3944
     62 CB        -22.5000   28.5840  -23.6240 C.3       1 ILE        -0.0037
     63 CG1       -21.5420   28.9230  -22.4040 C.3       1 ILE        -0.0491
     64 CG2       -23.7400   29.4280  -23.5630 C.3       1 ILE        -0.0582
     65 CD1       -20.7140   30.1630  -22.6670 C.3       1 ILE        -0.0648
     66 N         -24.9810   26.2730  -24.2080 N.am      1 LEU        -0.2637
     67 CA        -26.0560   25.8910  -25.1310 C.3       1 LEU         0.1312
     68 C         -27.2730   26.8330  -24.8450 C.2       1 LEU         0.2034
     69 O         -27.5870   26.9830  -23.6800 O.2       1 LEU        -0.3944
     70 CB        -26.4330   24.3860  -24.9420 C.3       1 LEU        -0.0101
     71 CG        -25.3500   23.3070  -25.1170 C.3       1 LEU        -0.0425
     72 CD1       -26.0010   21.9270  -24.9570 C.3       1 LEU        -0.0625
     73 CD2       -24.5480   23.3410  -26.4970 C.3       1 LEU        -0.0625
     74 N         -27.8050   27.4590  -25.9360 N.am      1 THR        -0.2670
     75 CA        -28.8680   28.5230  -26.1700 C.3       1 THR         0.1198
     76 C         -28.1850   29.9040  -26.3420 C.2       1 THR         0.0626
     77 O         -27.3510   30.2570  -25.4370 O.co2     1 THR        -0.5665
     78 CB        -29.8190   28.5790  -25.0550 C.3       1 THR         0.0869
     79 OG1       -31.0200   29.2700  -25.4080 O.3       1 THR        -0.3880
     80 CG2       -29.1360   29.2440  -23.8500 C.3       1 THR        -0.0352
     81 H          -6.4914   27.5956  -14.0758 H         1 GLY         0.2012
     82 H          -6.4659   25.9691  -14.4375 H         1 GLY         0.2012
     83 H          -5.6565   27.0521  -15.4116 H         1 GLY         0.2012
     84 H          -7.6928   28.0818  -16.0910 H         1 GLY         0.1061
     85 H          -8.5772   26.8983  -15.0265 H         1 GLY         0.1061
     86 H          -9.4457   25.0896  -15.9939 H         1 CYS         0.1885
     87 H          -8.1272   24.6611  -18.6055 H         1 CYS         0.0808
     88 H          -7.4356   22.9605  -16.8297 H         1 CYS         0.0422
     89 H          -8.3506   22.1745  -18.1851 H         1 CYS         0.0422
     90 H          -9.0381   21.0492  -15.8539 H         1 CYS         0.1019
     91 H          -9.1155   23.2042  -20.1710 H         1 ALA         0.1883
     92 H         -11.6130   24.3945  -20.8683 H         1 ALA         0.0797
     93 H         -10.1126   23.4263  -22.5818 H         1 ALA         0.0277
     94 H         -10.3706   21.7950  -21.9160 H         1 ALA         0.0277
     95 H         -11.7201   22.6670  -22.6838 H         1 ALA         0.0277
     96 H         -10.9834   21.3146  -19.1398 H         1 ARG         0.1883
     97 H         -13.6583   20.5185  -19.4746 H         1 ARG         0.0800
     98 H         -11.9110   19.5438  -17.1657 H         1 ARG         0.0313
     99 H         -11.7902   18.9212  -18.7882 H         1 ARG         0.0313
    100 H         -14.4058   18.6076  -18.7088 H         1 ARG         0.0301
    101 H         -14.2119   18.8319  -16.9029 H         1 ARG         0.0301
    102 H         -14.4437   16.7047  -17.9422 H         1 ARG         0.0689
    103 H         -13.0617   17.1097  -16.7074 H         1 ARG         0.0689
    104 H         -11.5595   16.8408  -18.5441 H         1 ARG         0.2642
    105 H         -14.8486   15.5560  -18.8625 H         1 ARG         0.2615
    106 H         -14.4020   14.3492  -20.0730 H         1 ARG         0.2615
    107 H         -10.9467   15.2185  -20.0362 H         1 ARG         0.2615
    108 H         -12.1741   14.1608  -20.7404 H         1 ARG         0.2615
    109 H         -12.3378   22.8209  -17.3108 H         1 SER         0.1884
    110 H         -14.7652   22.3896  -15.6707 H         1 SER         0.0823
    111 H         -12.6994   22.4502  -14.3909 H         1 SER         0.0606
    112 H         -13.7043   23.8574  -13.9670 H         1 SER         0.0606
    113 H         -11.5314   24.4033  -14.3667 H         1 SER         0.2097
    114 H         -14.1650   24.0482  -18.2493 H         1 GLU         0.1883
    115 H         -15.8853   26.3574  -17.4924 H         1 GLU         0.0801
    116 H         -15.1349   27.2217  -19.6476 H         1 GLU         0.0330
    117 H         -14.2350   25.6797  -19.9506 H         1 GLU         0.0330
    118 H         -12.6886   27.3149  -19.2832 H         1 GLU         0.0433
    119 H         -12.9596   26.1754  -17.8789 H         1 GLU         0.0433
    120 H         -19.1383   24.0883  -19.2435 H         1 PRO         0.0802
    121 H         -20.5764   25.5174  -17.8876 H         1 PRO         0.0313
    122 H         -21.0943   26.0412  -19.4234 H         1 PRO         0.0313
    123 H         -20.0600   27.9290  -17.8205 H         1 PRO         0.0287
    124 H         -19.5365   27.9589  -19.4587 H         1 PRO         0.0287
    125 H         -17.4063   27.7891  -18.2772 H         1 PRO         0.0524
    126 H         -18.0343   26.8192  -17.0498 H         1 PRO         0.0524
    127 H         -20.1320   23.5219  -21.0482 H         1 LYS         0.1883
    128 H         -19.4890   24.8112  -23.6858 H         1 LYS         0.0800
    129 H         -21.2537   22.4836  -22.9186 H         1 LYS         0.0312
    130 H         -19.4917   22.3980  -23.4610 H         1 LYS         0.0312
    131 H         -21.9806   22.9887  -25.0491 H         1 LYS         0.0269
    132 H         -20.6962   21.7421  -25.3303 H         1 LYS         0.0269
    133 H         -19.1271   23.5530  -25.8666 H         1 LYS         0.0317
    134 H         -20.3770   24.7324  -25.6277 H         1 LYS         0.0317
    135 H         -21.8243   23.6248  -27.3784 H         1 LYS         0.0813
    136 H         -20.6400   22.3386  -27.5692 H         1 LYS         0.0813
    137 H         -20.3716   24.0307  -29.2036 H         1 LYS         0.1994
    138 H         -20.1597   25.1904  -28.0259 H         1 LYS         0.1994
    139 H         -19.0377   23.9717  -28.2066 H         1 LYS         0.1994
    140 H         -20.8818   26.6681  -24.0593 H         1 ILE         0.1883
    141 H         -23.3782   26.9324  -22.5460 H         1 ILE         0.0803
    142 H         -22.0001   28.7862  -24.5713 H         1 ILE         0.0345
    143 H         -20.8634   28.0827  -22.2574 H         1 ILE         0.0267
    144 H         -22.1590   29.1034  -21.5237 H         1 ILE         0.0267
    145 H         -24.4051   29.1540  -24.3819 H         1 ILE         0.0235
    146 H         -24.2451   29.2612  -22.6116 H         1 ILE         0.0235
    147 H         -23.4669   30.4795  -23.6514 H         1 ILE         0.0235
    148 H         -20.0986   30.0062  -23.5529 H         1 ILE         0.0230
    149 H         -21.3766   31.0131  -22.8291 H         1 ILE         0.0230
    150 H         -20.0728   30.3592  -21.8077 H         1 ILE         0.0230
    151 H         -25.1470   26.1845  -23.2055 H         1 LEU         0.1883
    152 H         -25.7380   26.0030  -26.1675 H         1 LEU         0.0800
    153 H         -27.1581   24.1810  -25.7296 H         1 LEU         0.0315
    154 H         -26.7380   24.3057  -23.8986 H         1 LEU         0.0315
    155 H         -24.6061   23.5174  -24.3486 H         1 LEU         0.0298
    156 H         -26.4454   21.8492  -23.9648 H         1 LEU         0.0232
    157 H         -26.7752   21.8019  -25.7141 H         1 LEU         0.0232
    158 H         -25.2433   21.1529  -25.0789 H         1 LEU         0.0232
    159 H         -25.2453   23.2091  -27.3243 H         1 LEU         0.0232
    160 H         -24.0405   24.3004  -26.5973 H         1 LEU         0.0232
    161 H         -23.8125   22.5366  -26.5083 H         1 LEU         0.0232
    162 H         -27.3876   27.1337  -26.8080 H         1 THR         0.1876
    163 H         -29.4199   28.2642  -27.0736 H         1 THR         0.0752
    164 O1        -28.4392   30.6458  -27.3282 O.co2     1 THR        -0.5665
    165 H         -30.1123   27.5615  -24.7966 H         1 THR         0.0632
    166 H         -31.6133   29.2842  -24.6534 H         1 THR         0.2100
    167 H         -28.2627   28.6594  -23.5608 H         1 THR         0.0256
    168 H         -28.8258   30.2531  -24.1211 H         1 THR         0.0256
    169 H         -29.8367   29.2895  -23.0163 H         1 THR         0.0256
@<TRIPOS>BOND
     1    1    2 1  
     2    2    3 1  
     3    3    4 2  
     4    3    5 am 
     5    5    6 1  
     6    6    7 1  
     7    6    9 1  
     8    7    8 2  
     9    7   11 am 
    10    9   10 1  
    11   11   12 1  
    12   12   13 1  
    13   12   15 1  
    14   13   14 2  
    15   13   16 am 
    16   16   17 1  
    17   17   18 1  
    18   17   20 1  
    19   18   19 2  
    20   18   27 am 
    21   20   21 1  
    22   21   22 1  
    23   22   23 1  
    24   23   24 ar 
    25   24   25 ar 
    26   24   26 ar 
    27   27   28 1  
    28   28   29 1  
    29   28   31 1  
    30   29   30 2  
    31   29   33 am 
    32   31   32 1  
    33   33   34 1  
    34   34   35 1  
    35   34   37 1  
    36   35   36 2  
    37   35   42 am 
    38   37   38 1  
    39   38   39 1  
    40   39   40 ar 
    41   39   41 ar 
    42   42   43 1  
    43   42   48 1  
    44   43   44 1  
    45   43   46 1  
    46   44   45 2  
    47   44   49 am 
    48   46   47 1  
    49   47   48 1  
    50   49   50 1  
    51   50   51 1  
    52   50   53 1  
    53   51   52 2  
    54   51   58 am 
    55   53   54 1  
    56   54   55 1  
    57   55   56 1  
    58   56   57 1  
    59   58   59 1  
    60   59   60 1  
    61   59   62 1  
    62   60   61 2  
    63   60   66 am 
    64   62   63 1  
    65   62   64 1  
    66   63   65 1  
    67   66   67 1  
    68   67   68 1  
    69   67   70 1  
    70   68   69 2  
    71   68   74 am 
    72   70   71 1  
    73   71   72 1  
    74   71   73 1  
    75   74   75 1  
    76   75   76 1  
    77   75   78 1  
    78   76   77 ar 
    79   78   79 1  
    80   78   80 1  
    81    1   81 1  
    82    1   82 1  
    83    1   83 1  
    84    2   84 1  
    85    2   85 1  
    86    5   86 1  
    87    6   87 1  
    88    9   88 1  
    89    9   89 1  
    90   10   90 1  
    91   11   91 1  
    92   12   92 1  
    93   15   93 1  
    94   15   94 1  
    95   15   95 1  
    96   16   96 1  
    97   17   97 1  
    98   20   98 1  
    99   20   99 1  
   100   21  100 1  
   101   21  101 1  
   102   22  102 1  
   103   22  103 1  
   104   23  104 1  
   105   25  105 1  
   106   25  106 1  
   107   26  107 1  
   108   26  108 1  
   109   27  109 1  
   110   28  110 1  
   111   31  111 1  
   112   31  112 1  
   113   32  113 1  
   114   33  114 1  
   115   34  115 1  
   116   37  116 1  
   117   37  117 1  
   118   38  118 1  
   119   38  119 1  
   120   43  120 1  
   121   46  121 1  
   122   46  122 1  
   123   47  123 1  
   124   47  124 1  
   125   48  125 1  
   126   48  126 1  
   127   49  127 1  
   128   50  128 1  
   129   53  129 1  
   130   53  130 1  
   131   54  131 1  
   132   54  132 1  
   133   55  133 1  
   134   55  134 1  
   135   56  135 1  
   136   56  136 1  
   137   57  137 1  
   138   57  138 1  
   139   57  139 1  
   140   58  140 1  
   141   59  141 1  
   142   62  142 1  
   143   63  143 1  
   144   63  144 1  
   145   64  145 1  
   146   64  146 1  
   147   64  147 1  
   148   65  148 1  
   149   65  149 1  
   150   65  150 1  
   151   66  151 1  
   152   67  152 1  
   153   70  153 1  
   154   70  154 1  
   155   71  155 1  
   156   72  156 1  
   157   72  157 1  
   158   72  158 1  
   159   73  159 1  
   160   73  160 1  
   161   73  161 1  
   162   74  162 1  
   163   75  163 1  
   164   76  164 ar 
   165   78  165 1  
   166   79  166 1  
   167   80  167 1  
   168   80  168 1  
   169   80  169 1  
@<TRIPOS>SUBSTRUCTURE
     1 GLY         1

