3uvk_ligand
  -I-interpret- 

170170  0  0  0  0  0  0  0  0999 V2000
   -6.4830   26.9100  -14.8310 N   0  3  0  0  0
   -7.7150   27.0770  -15.6690 C   0  0  0  0  0
   -7.7920   26.1020  -16.8170 C   0  0  0  0  0
   -6.9340   26.2360  -17.8710 O   0  0  0  0  0
   -8.7830   25.1490  -16.7670 N   0  0  0  0  0
   -8.8170   24.2580  -17.8640 C   0  0  0  0  0
  -10.1360   24.1670  -18.6470 C   0  0  0  0  0
  -11.2660   24.4930  -18.1990 O   0  0  0  0  0
   -8.3960   22.8540  -17.3340 C   0  0  0  0  0
   -9.4590   22.2430  -16.2620 S   0  0  0  0  0
  -10.0200   23.5530  -19.8540 N   0  0  0  0  0
  -11.2060   23.3990  -20.6910 C   0  0  0  0  0
  -12.3260   22.6030  -19.9900 C   0  0  0  0  0
  -13.5330   22.9080  -20.0820 O   0  0  0  0  0
  -10.8230   22.7740  -22.0740 C   0  0  0  0  0
  -11.9690   21.5480  -19.2600 N   0  0  0  0  0
  -12.9930   20.7360  -18.6390 C   0  0  0  0  0
  -13.8180   21.4380  -17.6110 C   0  0  0  0  0
  -14.9530   21.0780  -17.3780 O   0  0  0  0  0
  -12.4750   19.3980  -18.0870 C   0  0  0  0  0
  -13.7610   18.4970  -17.8370 C   0  0  0  0  0
  -13.4980   17.1910  -17.7030 C   0  0  0  0  0
  -12.5300   16.5280  -18.5690 N   0  0  0  0  0
  -12.8570   15.5310  -19.3920 C   0  0  0  0  0
  -14.1410   15.1110  -19.4470 N   0  0  0  0  0
  -11.9200   14.9230  -20.1120 N   0  0  0  0  0
  -13.2550   22.4790  -17.0240 N   0  0  0  0  0
  -14.0020   23.1160  -15.9500 C   0  0  0  0  0
  -14.7630   24.3310  -16.3470 C   0  0  0  0  0
  -15.3510   24.9880  -15.4830 O   0  0  0  0  0
  -13.1160   23.3890  -14.7560 C   0  0  0  0  0
  -12.0930   24.2310  -15.1260 O   0  0  0  0  0
  -14.7540   24.6180  -17.6420 N   0  0  0  0  0
  -15.5080   25.6650  -18.2450 C   0  0  0  0  0
  -16.7350   25.0930  -18.9750 C   0  0  0  0  0
  -16.6750   24.0340  -19.4960 O   0  0  0  0  0
  -14.5800   26.3950  -19.2040 C   0  0  0  0  0
  -13.3710   26.9640  -18.5090 C   0  0  0  0  0
  -13.6780   28.1560  -17.6010 C   0  0  0  0  0
  -14.8770   28.5730  -17.5020 O   0  0  0  0  0
  -12.7080   28.7200  -17.0210 O   0  0  0  0  0
  -17.8570   25.7760  -18.9410 N   0  0  0  0  0
  -19.0810   25.1550  -19.4600 C   0  0  0  0  0
  -19.1540   25.2970  -20.9790 C   0  0  0  0  0
  -18.5810   26.2930  -21.5620 O   0  0  0  0  0
  -20.2000   25.9720  -18.8040 C   0  0  0  0  0
  -19.5300   27.3350  -18.5650 C   0  0  0  0  0
  -18.1270   26.9860  -18.1230 C   0  0  0  0  0
  -19.8480   24.3300  -21.6020 N   0  0  0  0  0
  -20.2330   24.3490  -23.0370 C   0  0  0  0  0
  -21.5930   25.0800  -23.0020 C   0  0  0  0  0
  -22.5690   24.5410  -22.3570 O   0  0  0  0  0
  -20.4560   22.9010  -23.5330 C   0  0  0  0  0
  -20.9160   22.7590  -25.0050 C   0  0  0  0  0
  -20.2070   23.6940  -25.9120 C   0  0  0  0  0
  -20.7600   23.3950  -27.3290 C   0  0  0  0  0
  -20.0290   24.2060  -28.2590 N   0  3  0  0  0
  -21.6920   26.2970  -23.5630 N   0  0  0  0  0
  -22.8790   27.1020  -23.5000 C   0  0  0  0  0
  -23.8060   26.7270  -24.6150 C   0  0  0  0  0
  -23.4680   26.9320  -25.8460 O   0  0  0  0  0
  -22.5000   28.5840  -23.6240 C   0  0  0  0  0
  -21.5420   28.9230  -22.4040 C   0  0  0  0  0
  -23.7400   29.4280  -23.5630 C   0  0  0  0  0
  -20.7140   30.1630  -22.6670 C   0  0  0  0  0
  -24.9810   26.2730  -24.2080 N   0  0  0  0  0
  -26.0560   25.8910  -25.1310 C   0  0  0  0  0
  -27.2730   26.8330  -24.8450 C   0  0  0  0  0
  -27.5870   26.9830  -23.6800 O   0  0  0  0  0
  -26.4330   24.3860  -24.9420 C   0  0  0  0  0
  -25.3500   23.3070  -25.1170 C   0  0  0  0  0
  -26.0010   21.9270  -24.9570 C   0  0  0  0  0
  -24.5480   23.3410  -26.4970 C   0  0  0  0  0
  -27.8050   27.4590  -25.9360 N   0  0  0  0  0
  -28.8680   28.5230  -26.1700 C   0  0  0  0  0
  -28.1850   29.9040  -26.3420 C   0  0  0  0  0
  -27.3510   30.2570  -25.4370 O   0  0  0  0  0
  -29.8190   28.5790  -25.0550 C   0  0  0  0  0
  -31.0200   29.2700  -25.4080 O   0  0  0  0  0
  -29.1360   29.2440  -23.8500 C   0  0  0  0  0
  -28.4392   30.6458  -27.3282 O   0  0  0  0  0
   -6.4914   27.5956  -14.0758 H   0  0  0  0  0
   -6.4659   25.9691  -14.4375 H   0  0  0  0  0
   -5.6565   27.0521  -15.4116 H   0  0  0  0  0
   -7.6928   28.0818  -16.0910 H   0  0  0  0  0
   -8.5772   26.8983  -15.0265 H   0  0  0  0  0
   -9.4457   25.0896  -15.9939 H   0  0  0  0  0
   -8.1272   24.6611  -18.6055 H   0  0  0  0  0
   -7.4356   22.9605  -16.8297 H   0  0  0  0  0
   -8.3506   22.1745  -18.1851 H   0  0  0  0  0
   -9.0381   21.0492  -15.8539 H   0  0  0  0  0
   -9.1155   23.2042  -20.1710 H   0  0  0  0  0
  -11.6130   24.3945  -20.8683 H   0  0  0  0  0
  -10.1126   23.4263  -22.5818 H   0  0  0  0  0
  -10.3706   21.7950  -21.9160 H   0  0  0  0  0
  -11.7201   22.6670  -22.6838 H   0  0  0  0  0
  -10.9834   21.3146  -19.1398 H   0  0  0  0  0
  -13.6583   20.5185  -19.4746 H   0  0  0  0  0
  -11.9110   19.5438  -17.1657 H   0  0  0  0  0
  -11.7902   18.9212  -18.7882 H   0  0  0  0  0
  -14.4058   18.6076  -18.7088 H   0  0  0  0  0
  -14.2119   18.8319  -16.9029 H   0  0  0  0  0
  -14.4437   16.7047  -17.9422 H   0  0  0  0  0
  -13.0617   17.1097  -16.7074 H   0  0  0  0  0
  -11.5595   16.8408  -18.5441 H   0  0  0  0  0
  -14.3949   14.3235  -20.0434 H   0  0  0  0  0
  -14.8558   15.5817  -18.8920 H   0  0  0  0  0
  -10.9467   15.2185  -20.0362 H   0  0  0  0  0
  -12.3378   22.8209  -17.3108 H   0  0  0  0  0
  -14.7652   22.3896  -15.6707 H   0  0  0  0  0
  -12.6994   22.4502  -14.3909 H   0  0  0  0  0
  -13.7043   23.8574  -13.9670 H   0  0  0  0  0
  -11.5314   24.4033  -14.3667 H   0  0  0  0  0
  -14.1650   24.0482  -18.2493 H   0  0  0  0  0
  -15.8853   26.3574  -17.4924 H   0  0  0  0  0
  -15.1349   27.2217  -19.6476 H   0  0  0  0  0
  -14.2350   25.6797  -19.9506 H   0  0  0  0  0
  -12.6886   27.3149  -19.2832 H   0  0  0  0  0
  -12.9596   26.1754  -17.8789 H   0  0  0  0  0
  -15.4554   28.0057  -18.0170 H   0  0  0  0  0
  -19.1383   24.0883  -19.2435 H   0  0  0  0  0
  -20.5764   25.5174  -17.8876 H   0  0  0  0  0
  -21.0943   26.0412  -19.4234 H   0  0  0  0  0
  -20.0600   27.9290  -17.8205 H   0  0  0  0  0
  -19.5365   27.9589  -19.4587 H   0  0  0  0  0
  -17.4063   27.7891  -18.2772 H   0  0  0  0  0
  -18.0343   26.8192  -17.0498 H   0  0  0  0  0
  -20.1320   23.5219  -21.0482 H   0  0  0  0  0
  -19.4890   24.8112  -23.6858 H   0  0  0  0  0
  -21.2537   22.4836  -22.9186 H   0  0  0  0  0
  -19.4917   22.3980  -23.4610 H   0  0  0  0  0
  -21.9806   22.9887  -25.0491 H   0  0  0  0  0
  -20.6962   21.7421  -25.3303 H   0  0  0  0  0
  -19.1271   23.5530  -25.8666 H   0  0  0  0  0
  -20.3770   24.7324  -25.6277 H   0  0  0  0  0
  -21.8243   23.6248  -27.3784 H   0  0  0  0  0
  -20.6400   22.3386  -27.5692 H   0  0  0  0  0
  -20.3716   24.0307  -29.2036 H   0  0  0  0  0
  -20.1597   25.1904  -28.0259 H   0  0  0  0  0
  -19.0377   23.9717  -28.2066 H   0  0  0  0  0
  -20.8818   26.6681  -24.0593 H   0  0  0  0  0
  -23.3782   26.9324  -22.5460 H   0  0  0  0  0
  -22.0001   28.7862  -24.5713 H   0  0  0  0  0
  -20.8634   28.0827  -22.2574 H   0  0  0  0  0
  -22.1590   29.1034  -21.5237 H   0  0  0  0  0
  -24.4051   29.1540  -24.3819 H   0  0  0  0  0
  -24.2451   29.2612  -22.6116 H   0  0  0  0  0
  -23.4669   30.4795  -23.6514 H   0  0  0  0  0
  -20.0986   30.0062  -23.5529 H   0  0  0  0  0
  -21.3766   31.0131  -22.8291 H   0  0  0  0  0
  -20.0728   30.3592  -21.8077 H   0  0  0  0  0
  -25.1470   26.1845  -23.2055 H   0  0  0  0  0
  -25.7380   26.0030  -26.1675 H   0  0  0  0  0
  -27.1581   24.1810  -25.7296 H   0  0  0  0  0
  -26.7380   24.3057  -23.8986 H   0  0  0  0  0
  -24.6061   23.5174  -24.3486 H   0  0  0  0  0
  -26.4454   21.8492  -23.9648 H   0  0  0  0  0
  -26.7752   21.8019  -25.7141 H   0  0  0  0  0
  -25.2433   21.1529  -25.0789 H   0  0  0  0  0
  -25.2453   23.2091  -27.3243 H   0  0  0  0  0
  -24.0405   24.3004  -26.5973 H   0  0  0  0  0
  -23.8125   22.5366  -26.5083 H   0  0  0  0  0
  -27.3876   27.1337  -26.8080 H   0  0  0  0  0
  -29.4199   28.2642  -27.0736 H   0  0  0  0  0
  -27.2904   29.5668  -24.7725 H   0  0  0  0  0
  -30.1123   27.5615  -24.7966 H   0  0  0  0  0
  -31.6133   29.2842  -24.6534 H   0  0  0  0  0
  -28.2627   28.6594  -23.5608 H   0  0  0  0  0
  -28.8258   30.2531  -24.1211 H   0  0  0  0  0
  -29.8367   29.2895  -23.0163 H   0  0  0  0  0
  1  2  1  0  0  0
  2  3  1  0  0  0
  3  4  2  0  0  0
  3  5  1  0  0  0
  5  6  1  0  0  0
  6  7  1  0  0  0
  6  9  1  0  0  0
  7  8  2  0  0  0
  7 11  1  0  0  0
  9 10  1  0  0  0
 11 12  1  0  0  0
 12 13  1  0  0  0
 12 15  1  0  0  0
 13 14  2  0  0  0
 13 16  1  0  0  0
 16 17  1  0  0  0
 17 18  1  0  0  0
 17 20  1  0  0  0
 18 19  2  0  0  0
 18 27  1  0  0  0
 20 21  1  0  0  0
 21 22  1  0  0  0
 22 23  1  0  0  0
 23 24  1  0  0  0
 24 25  1  0  0  0
 24 26  2  0  0  0
 27 28  1  0  0  0
 28 29  1  0  0  0
 28 31  1  0  0  0
 29 30  2  0  0  0
 29 33  1  0  0  0
 31 32  1  0  0  0
 33 34  1  0  0  0
 34 35  1  0  0  0
 34 37  1  0  0  0
 35 36  2  0  0  0
 35 42  1  0  0  0
 37 38  1  0  0  0
 38 39  1  0  0  0
 39 40  1  0  0  0
 39 41  2  0  0  0
 42 43  1  0  0  0
 42 48  1  0  0  0
 43 44  1  0  0  0
 43 46  1  0  0  0
 44 45  2  0  0  0
 44 49  1  0  0  0
 46 47  1  0  0  0
 47 48  1  0  0  0
 49 50  1  0  0  0
 50 51  1  0  0  0
 50 53  1  0  0  0
 51 52  2  0  0  0
 51 58  1  0  0  0
 53 54  1  0  0  0
 54 55  1  0  0  0
 55 56  1  0  0  0
 56 57  1  0  0  0
 58 59  1  0  0  0
 59 60  1  0  0  0
 59 62  1  0  0  0
 60 61  2  0  0  0
 60 66  1  0  0  0
 62 63  1  0  0  0
 62 64  1  0  0  0
 63 65  1  0  0  0
 66 67  1  0  0  0
 67 68  1  0  0  0
 67 70  1  0  0  0
 68 69  2  0  0  0
 68 74  1  0  0  0
 70 71  1  0  0  0
 71 72  1  0  0  0
 71 73  1  0  0  0
 74 75  1  0  0  0
 75 76  1  0  0  0
 75 78  1  0  0  0
 76 77  1  0  0  0
 78 79  1  0  0  0
 78 80  1  0  0  0
 76 81  2  0  0  0
  1 82  1  0  0  0
  1 83  1  0  0  0
  1 84  1  0  0  0
  2 85  1  0  0  0
  2 86  1  0  0  0
  5 87  1  0  0  0
  6 88  1  0  0  0
  9 89  1  0  0  0
  9 90  1  0  0  0
 10 91  1  0  0  0
 11 92  1  0  0  0
 12 93  1  0  0  0
 15 94  1  0  0  0
 15 95  1  0  0  0
 15 96  1  0  0  0
 16 97  1  0  0  0
 17 98  1  0  0  0
 20 99  1  0  0  0
 20100  1  0  0  0
 21101  1  0  0  0
 21102  1  0  0  0
 22103  1  0  0  0
 22104  1  0  0  0
 23105  1  0  0  0
 25106  1  0  0  0
 25107  1  0  0  0
 26108  1  0  0  0
 27109  1  0  0  0
 28110  1  0  0  0
 31111  1  0  0  0
 31112  1  0  0  0
 32113  1  0  0  0
 33114  1  0  0  0
 34115  1  0  0  0
 37116  1  0  0  0
 37117  1  0  0  0
 38118  1  0  0  0
 38119  1  0  0  0
 40120  1  0  0  0
 43121  1  0  0  0
 46122  1  0  0  0
 46123  1  0  0  0
 47124  1  0  0  0
 47125  1  0  0  0
 48126  1  0  0  0
 48127  1  0  0  0
 49128  1  0  0  0
 50129  1  0  0  0
 53130  1  0  0  0
 53131  1  0  0  0
 54132  1  0  0  0
 54133  1  0  0  0
 55134  1  0  0  0
 55135  1  0  0  0
 56136  1  0  0  0
 56137  1  0  0  0
 57138  1  0  0  0
 57139  1  0  0  0
 57140  1  0  0  0
 58141  1  0  0  0
 59142  1  0  0  0
 62143  1  0  0  0
 63144  1  0  0  0
 63145  1  0  0  0
 64146  1  0  0  0
 64147  1  0  0  0
 64148  1  0  0  0
 65149  1  0  0  0
 65150  1  0  0  0
 65151  1  0  0  0
 66152  1  0  0  0
 67153  1  0  0  0
 70154  1  0  0  0
 70155  1  0  0  0
 71156  1  0  0  0
 72157  1  0  0  0
 72158  1  0  0  0
 72159  1  0  0  0
 73160  1  0  0  0
 73161  1  0  0  0
 73162  1  0  0  0
 74163  1  0  0  0
 75164  1  0  0  0
 77165  1  0  0  0
 78166  1  0  0  0
 79167  1  0  0  0
 80168  1  0  0  0
 80169  1  0  0  0
 80170  1  0  0  0
M  END
$$$$
