4k63_ligand
  -I-interpret- 

 88 90  0  0  0  0  0  0  0  0999 V2000
  -88.2860   62.4680   33.5160 C   0  0  0  0  0
  -87.2370   62.5560   34.6250 C   0  0  0  0  0
  -88.3050   62.5470   35.5780 C   0  0  0  0  0
  -89.0990   61.3740   35.7580 C   0  0  0  0  0
  -88.3450   60.2000   36.1920 C   0  0  0  0  0
  -87.2000   60.0520   35.2090 C   0  0  0  0  0
  -86.2530   59.1040   35.5020 C   0  0  0  0  0
  -85.0500   59.3790   34.6090 C   0  0  0  0  0
  -83.7700   58.9660   35.2960 C   0  0  0  0  0
  -88.9740   58.0400   37.3280 C   0  0  0  0  0
  -89.8190   56.8040   37.4590 C   0  0  0  0  0
  -89.2110   59.0050   36.2670 N   0  0  0  0  0
  -89.1230   63.4070   33.3670 O   0  0  0  0  0
  -88.2850   61.5050   32.7270 O   0  0  0  0  0
  -90.1740   61.6600   36.7130 O   0  0  0  0  0
  -86.5780   61.4350   35.2900 O   0  0  0  0  0
  -85.8690   59.2170   36.8580 O   0  0  0  0  0
  -85.2180   58.7140   33.4190 O   0  0  0  0  0
  -82.6280   58.6920   34.5410 O   0  0  0  0  0
  -88.0680   58.2350   38.1250 O   0  0  0  0  0
  -85.8540   66.0020   37.9200 C   0  0  0  0  0
  -86.7510   65.3350   36.8820 C   0  0  0  0  0
  -86.2750   63.9650   36.3950 C   0  0  0  0  0
  -84.7490   63.8010   36.4040 C   0  0  0  0  0
  -84.1000   64.5650   37.5630 C   0  0  0  0  0
  -82.5760   64.4670   37.5350 C   0  0  0  0  0
  -88.0400   65.1710   37.4300 O   0  0  0  0  0
  -86.7820   63.8540   35.0760 O   0  0  0  0  0
  -84.1890   64.2100   35.1700 O   0  0  0  0  0
  -84.5080   65.9160   37.5220 O   0  0  0  0  0
  -82.0030   65.3780   38.4500 O   0  0  0  0  0
  -87.0400   69.9520   41.1440 C   0  0  0  0  0
  -85.5950   69.9410   40.6650 C   0  0  0  0  0
  -85.4410   69.1150   39.3910 C   0  0  0  0  0
  -86.2050   67.7910   39.4240 C   0  0  0  0  0
  -87.5850   67.9230   40.0720 C   0  0  0  0  0
  -88.2240   66.5670   40.3630 C   0  0  0  0  0
  -84.6360   72.0450   41.3890 C   0  0  0  0  0
  -84.6720   73.5330   41.2030 C   0  0  0  0  0
  -85.1700   71.3070   40.4210 N   0  0  0  0  0
  -87.1270   70.6140   42.3860 O   0  0  0  0  0
  -84.0720   68.8600   39.1640 O   0  0  0  0  0
  -86.3330   67.3520   38.0880 O   0  0  0  0  0
  -87.4990   68.6280   41.2910 O   0  0  0  0  0
  -87.2960   65.7290   41.0200 O   0  0  0  0  0
  -84.1360   71.5540   42.3990 O   0  0  0  0  0
  -89.0063   63.2935   35.2052 H   0  0  0  0  0
  -87.8109   62.6891   36.5391 H   0  0  0  0  0
  -89.5028   61.1200   34.7780 H   0  0  0  0  0
  -87.9531   60.3162   37.2025 H   0  0  0  0  0
  -87.5656   59.7158   34.2388 H   0  0  0  0  0
  -86.6441   58.1005   35.3341 H   0  0  0  0  0
  -84.9764   60.4481   34.4099 H   0  0  0  0  0
  -84.0126   58.0180   35.7761 H   0  0  0  0  0
  -83.4952   59.8299   35.9012 H   0  0  0  0  0
  -89.1858   55.9213   37.3692 H   0  0  0  0  0
  -90.3104   56.8028   38.4320 H   0  0  0  0  0
  -90.5715   56.7946   36.6705 H   0  0  0  0  0
  -89.9590   58.8604   35.5888 H   0  0  0  0  0
  -88.9896   64.0649   34.0533 H   0  0  0  0  0
  -90.6636   62.4321   36.4202 H   0  0  0  0  0
  -86.6278   59.0435   37.4198 H   0  0  0  0  0
  -84.4632   58.8825   32.8502 H   0  0  0  0  0
  -81.9091   58.4462   35.1279 H   0  0  0  0  0
  -85.8963   65.5021   38.8877 H   0  0  0  0  0
  -86.7338   65.9973   36.0165 H   0  0  0  0  0
  -86.6337   63.1822   37.0633 H   0  0  0  0  0
  -84.5414   62.7407   36.5478 H   0  0  0  0  0
  -84.4310   64.1077   38.4954 H   0  0  0  0  0
  -82.2248   64.7062   36.5312 H   0  0  0  0  0
  -82.2817   63.4549   37.8128 H   0  0  0  0  0
  -88.6109   64.7515   36.7822 H   0  0  0  0  0
  -83.2360   64.0984   35.1997 H   0  0  0  0  0
  -81.0465   65.3024   38.4186 H   0  0  0  0  0
  -87.6544   70.4742   40.4106 H   0  0  0  0  0
  -84.9732   69.4851   41.4355 H   0  0  0  0  0
  -85.8716   69.7037   38.5810 H   0  0  0  0  0
  -85.6540   67.0739   40.0325 H   0  0  0  0  0
  -88.2036   68.4623   39.3547 H   0  0  0  0  0
  -88.5254   66.1028   39.4240 H   0  0  0  0  0
  -89.0949   66.7100   41.0027 H   0  0  0  0  0
  -85.2365   73.9862   42.0179 H   0  0  0  0  0
  -83.6540   73.9227   41.2037 H   0  0  0  0  0
  -85.1516   73.7676   40.2527 H   0  0  0  0  0
  -85.2831   71.7080   39.4900 H   0  0  0  0  0
  -88.0401   70.6174   42.6822 H   0  0  0  0  0
  -83.9730   68.3404   38.3629 H   0  0  0  0  0
  -87.7050   64.8792   41.1993 H   0  0  0  0  0
  2  1  1  0  0  0
  1 13  1  0  0  0
  1 14  2  0  0  0
  2  3  1  0  0  0
  2 16  1  0  0  0
 28  2  1  0  0  0
  3  4  1  0  0  0
  4  5  1  0  0  0
  4 15  1  0  0  0
  6  5  1  0  0  0
  5 12  1  0  0  0
  6  7  1  0  0  0
 16  6  1  0  0  0
  7  8  1  0  0  0
  7 17  1  0  0  0
  8  9  1  0  0  0
  8 18  1  0  0  0
  9 19  1  0  0  0
 10 11  1  0  0  0
 12 10  1  0  0  0
 10 20  2  0  0  0
 21 22  1  0  0  0
 21 30  1  0  0  0
 43 21  1  0  0  0
 22 23  1  0  0  0
 22 27  1  0  0  0
 23 24  1  0  0  0
 23 28  1  0  0  0
 25 24  1  0  0  0
 24 29  1  0  0  0
 25 26  1  0  0  0
 30 25  1  0  0  0
 26 31  1  0  0  0
 33 32  1  0  0  0
 32 41  1  0  0  0
 32 44  1  0  0  0
 33 34  1  0  0  0
 40 33  1  0  0  0
 34 35  1  0  0  0
 34 42  1  0  0  0
 35 36  1  0  0  0
 35 43  1  0  0  0
 36 37  1  0  0  0
 44 36  1  0  0  0
 37 45  1  0  0  0
 38 39  1  0  0  0
 38 40  1  0  0  0
 38 46  2  0  0  0
  3 47  1  0  0  0
  3 48  1  0  0  0
  4 49  1  0  0  0
  5 50  1  0  0  0
  6 51  1  0  0  0
  7 52  1  0  0  0
  8 53  1  0  0  0
  9 54  1  0  0  0
  9 55  1  0  0  0
 11 56  1  0  0  0
 11 57  1  0  0  0
 11 58  1  0  0  0
 12 59  1  0  0  0
 13 60  1  0  0  0
 15 61  1  0  0  0
 17 62  1  0  0  0
 18 63  1  0  0  0
 19 64  1  0  0  0
 21 65  1  0  0  0
 22 66  1  0  0  0
 23 67  1  0  0  0
 24 68  1  0  0  0
 25 69  1  0  0  0
 26 70  1  0  0  0
 26 71  1  0  0  0
 27 72  1  0  0  0
 29 73  1  0  0  0
 31 74  1  0  0  0
 32 75  1  0  0  0
 33 76  1  0  0  0
 34 77  1  0  0  0
 35 78  1  0  0  0
 36 79  1  0  0  0
 37 80  1  0  0  0
 37 81  1  0  0  0
 39 82  1  0  0  0
 39 83  1  0  0  0
 39 84  1  0  0  0
 40 85  1  0  0  0
 41 86  1  0  0  0
 42 87  1  0  0  0
 45 88  1  0  0  0
M  END
$$$$
