3p9t_ligand
  -I-interpret- 

 24 25  0  0  0  0  0  0  0  0999 V2000
  -22.2890   -3.4620   27.3350 C   0  0  0  0  0
  -22.6800   -2.3600   28.0440 C   0  0  0  0  0
  -21.2270   -4.2110   27.7930 C   0  0  0  0  0
  -20.5570   -3.7980   29.0600 C   0  0  0  0  0
  -20.9960   -2.6810   29.7340 C   0  0  0  0  0
  -22.0610   -1.9750   29.2190 C   0  0  0  0  0
  -15.5710   -3.9230   28.6410 C   0  0  0  0  0
  -15.9070   -4.9940   29.4910 C   0  0  0  0  0
  -17.2420   -5.1490   29.8060 C   0  0  0  0  0
  -18.2410   -4.2160   29.2640 C   0  0  0  0  0
  -16.5180   -3.0290   28.1240 C   0  0  0  0  0
  -17.8670   -3.1680   28.4300 C   0  0  0  0  0
  -19.5170   -4.4780   29.6260 O   0  0  0  0  0
  -24.0480   -1.3970   27.4300 Cl  0  0  0  0  0
  -13.8530   -3.7250   28.2060 Cl  0  0  0  0  0
  -17.8770   -6.4320   30.8640 Cl  0  0  0  0  0
  -20.8990   -5.3190   27.0480 O   0  0  0  0  0
  -22.8102   -3.7440   26.4202 H   0  0  0  0  0
  -20.5109   -2.3616   30.6564 H   0  0  0  0  0
  -22.4234   -1.0942   29.7490 H   0  0  0  0  0
  -15.1472   -5.6703   29.8827 H   0  0  0  0  0
  -16.1935   -2.2157   27.4749 H   0  0  0  0  0
  -18.6084   -2.4771   28.0287 H   0  0  0  0  0
  -20.1514   -5.7652   27.4524 H   0  0  0  0  0
  1  2  4  0  0  0
  3  1  4  0  0  0
  6  2  4  0  0  0
  2 14  1  0  0  0
  4  3  4  0  0  0
  3 17  1  0  0  0
  4  5  4  0  0  0
 13  4  1  0  0  0
  5  6  4  0  0  0
  8  7  4  0  0  0
  7 11  4  0  0  0
  7 15  1  0  0  0
  9  8  4  0  0  0
 10  9  4  0  0  0
  9 16  1  0  0  0
 10 12  4  0  0  0
 10 13  1  0  0  0
 11 12  4  0  0  0
  1 18  1  0  0  0
  5 19  1  0  0  0
  6 20  1  0  0  0
  8 21  1  0  0  0
 11 22  1  0  0  0
 12 23  1  0  0  0
 17 24  1  0  0  0
M  END
$$$$
