4tpk_ligand
  -I-interpret- 

 68 72  0  0  0  0  0  0  0  0999 V2000
    3.5390    8.2650   13.9450 N   0  0  0  0  0
    4.9610   14.4790    8.5290 C   0  0  0  0  0
    1.7280   13.0550   17.6800 C   0  0  0  0  0
    1.1350   10.4000   18.3660 C   0  0  0  0  0
    2.3420   12.3330   15.4740 C   0  0  0  0  0
    2.4940   11.3070   14.5450 C   0  0  0  0  0
    4.6970   13.2930    9.1980 C   0  0  0  0  0
    1.5930   10.7080   17.0920 C   0  0  0  0  0
    6.5500   13.6240   10.5810 C   0  0  0  0  0
    2.3840    8.9700   13.9090 C   0  0  0  0  0
    7.8260   10.4530   15.0880 C   0  0  0  0  0
    6.6750    9.5960   15.5720 C   0  0  0  0  0
    7.2930   11.6120   14.2530 C   0  0  0  0  0
    5.8410    9.1270   14.3940 C   0  0  0  0  0
    4.5890    8.4610   14.9640 C   0  0  0  0  0
    3.2930    5.8740   13.5030 C   0  0  0  0  0
    1.2710   12.7430   18.9560 C   0  0  0  0  0
    0.9760   11.4240   19.2940 C   0  0  0  0  0
    6.0530   15.2330    8.9230 C   0  0  0  0  0
    6.8420   14.7710    9.9670 C   0  0  0  0  0
    1.7550    9.6890   16.1600 C   0  0  0  0  0
    1.8880   12.0330   16.7490 C   0  0  0  0  0
    2.2170    9.9780   14.8750 C   0  0  0  0  0
    5.4820   12.8870   10.1990 C   0  0  0  0  0
    7.2020   12.9730   11.6340 C   0  0  0  0  0
    5.4120   11.7370   10.9980 C   0  0  0  0  0
    5.4330   10.3150   13.5490 C   0  0  0  0  0
    6.0790   12.2120   12.2570 C   0  0  0  0  0
    3.8070    7.2080   12.9620 C   0  0  0  0  0
    6.5730   11.0990   13.0830 N   0  3  0  0  0
    1.5250    8.7740   13.0490 O   0  0  0  0  0
    1.8690    5.9110   13.5120 O   0  0  0  0  0
    1.4040    4.7660   14.2300 C   0  0  0  0  0
    4.3221   14.8103    7.7104 H   0  0  0  0  0
    1.9578   14.0864   17.4127 H   0  0  0  0  0
    0.9031    9.3696   18.6354 H   0  0  0  0  0
    2.5776   13.3617   15.2015 H   0  0  0  0  0
    2.8366   11.5460   13.5382 H   0  0  0  0  0
    3.8404   12.6865    8.9038 H   0  0  0  0  0
    8.4942    9.8464   14.4768 H   0  0  0  0  0
    8.3672   10.8478   15.9478 H   0  0  0  0  0
    6.0481   10.1848   16.2417 H   0  0  0  0  0
    7.0725    8.7272   16.0968 H   0  0  0  0  0
    8.1288   12.2265   13.9183 H   0  0  0  0  0
    6.6114   12.2074   14.8604 H   0  0  0  0  0
    6.4083    8.4346   13.7721 H   0  0  0  0  0
    4.8739    7.4807   15.3460 H   0  0  0  0  0
    4.1864    9.1110   15.7409 H   0  0  0  0  0
    3.6682    5.7119   14.5135 H   0  0  0  0  0
    3.6408    5.0565   12.8714 H   0  0  0  0  0
    1.1431   13.5340   19.6949 H   0  0  0  0  0
    0.6167   11.1919   20.2966 H   0  0  0  0  0
    6.2888   16.1722    8.4225 H   0  0  0  0  0
    7.7076   15.3506   10.2877 H   0  0  0  0  0
    1.5203    8.6604   16.4339 H   0  0  0  0  0
    7.7026   13.6530   12.3233 H   0  0  0  0  0
    8.0293   12.3415   11.3102 H   0  0  0  0  0
    5.8888   10.8641   10.5521 H   0  0  0  0  0
    4.3967   11.3712   11.1513 H   0  0  0  0  0
    4.8120   10.9647   14.1658 H   0  0  0  0  0
    4.9091    9.9354   12.6718 H   0  0  0  0  0
    5.4419   12.7690   12.9440 H   0  0  0  0  0
    4.8799    7.1401   12.7822 H   0  0  0  0  0
    3.2996    7.4424   12.0262 H   0  0  0  0  0
    7.2035   10.5253   12.5229 H   0  0  0  0  0
    1.7553    3.8608   13.7347 H   0  0  0  0  0
    1.7891    4.7968   15.2492 H   0  0  0  0  0
    0.3142    4.7703   14.2517 H   0  0  0  0  0
  1 10  1  0  0  0
 15  1  1  0  0  0
  1 29  1  0  0  0
  7  2  4  0  0  0
  2 19  4  0  0  0
  3 17  4  0  0  0
 22  3  4  0  0  0
  8  4  4  0  0  0
  4 18  4  0  0  0
  6  5  4  0  0  0
  5 22  4  0  0  0
 23  6  4  0  0  0
 24  7  4  0  0  0
 21  8  4  0  0  0
  8 22  4  0  0  0
  9 20  4  0  0  0
 24  9  4  0  0  0
 25  9  1  0  0  0
 10 23  1  0  0  0
 10 31  2  0  0  0
 11 12  1  0  0  0
 13 11  1  0  0  0
 14 12  1  0  0  0
 30 13  1  0  0  0
 14 15  1  0  0  0
 27 14  1  0  0  0
 29 16  1  0  0  0
 16 32  1  0  0  0
 18 17  4  0  0  0
 20 19  4  0  0  0
 23 21  4  0  0  0
 26 24  1  0  0  0
 28 25  1  0  0  0
 28 26  1  0  0  0
 30 27  1  0  0  0
 28 30  1  0  0  0
 32 33  1  0  0  0
  2 34  1  0  0  0
  3 35  1  0  0  0
  4 36  1  0  0  0
  5 37  1  0  0  0
  6 38  1  0  0  0
  7 39  1  0  0  0
 11 40  1  0  0  0
 11 41  1  0  0  0
 12 42  1  0  0  0
 12 43  1  0  0  0
 13 44  1  0  0  0
 13 45  1  0  0  0
 14 46  1  0  0  0
 15 47  1  0  0  0
 15 48  1  0  0  0
 16 49  1  0  0  0
 16 50  1  0  0  0
 17 51  1  0  0  0
 18 52  1  0  0  0
 19 53  1  0  0  0
 20 54  1  0  0  0
 21 55  1  0  0  0
 25 56  1  0  0  0
 25 57  1  0  0  0
 26 58  1  0  0  0
 26 59  1  0  0  0
 27 60  1  0  0  0
 27 61  1  0  0  0
 28 62  1  0  0  0
 29 63  1  0  0  0
 29 64  1  0  0  0
 30 65  1  0  0  0
 33 66  1  0  0  0
 33 67  1  0  0  0
 33 68  1  0  0  0
M  END
$$$$
