3agm_ligand
  -I-interpret- 

188190  0  0  0  0  0  0  0  0999 V2000
  -17.1780   14.5890   11.4160 N   0  0  0  0  0
  -15.8610   14.5550   11.1780 C   0  0  0  0  0
  -15.3780   14.6120    9.9500 N   0  0  0  0  0
  -16.2100   14.7090    8.9020 C   0  0  0  0  0
  -17.5890   14.7570    9.1030 C   0  0  0  0  0
  -18.0720   14.7020   10.4140 C   0  0  0  0  0
  -19.4500   14.7160   10.7570 N   0  0  0  0  0
  -18.1480   14.8680    7.8920 N   0  0  0  0  0
  -17.1810   14.8780    6.9730 C   0  0  0  0  0
  -15.9950   14.7830    7.5960 N   0  0  0  0  0
  -21.1750   15.1510   12.5630 C   0  0  0  0  0
  -21.8680   15.0620   10.1160 C   0  0  0  0  0
  -19.7780   14.6030   12.2170 C   0  0  0  0  0
  -20.4860   14.5850    9.6820 C   0  0  0  0  0
  -22.1060   14.6470   11.5160 N   0  0  0  0  0
  -30.1610   10.9480    9.2280 O   0  0  0  0  0
  -23.2540   13.4840   13.0160 O   0  0  0  0  0
  -26.5160   11.8030    9.5140 C   0  0  0  0  0
  -25.5030   11.1680   10.4630 C   0  0  0  0  0
  -27.3140   10.7440    8.7380 C   0  0  0  0  0
  -24.9720   12.2060   11.4600 C   0  0  0  0  0
  -28.2980   11.4590    7.8100 C   0  0  0  0  0
  -24.0590   13.2500   10.7820 C   0  0  0  0  0
  -29.6000   11.7980    8.5410 C   0  0  0  0  0
  -23.0970   13.8020   11.8370 C   0  0  0  0  0
  -30.0470   13.0510    8.4100 N   0  0  0  0  0
  -31.3120   13.4820    9.0580 C   0  0  0  0  0
  -31.8050   14.8180    8.4490 C   0  0  0  0  0
  -32.2260   15.8380    9.5220 C   0  0  0  0  0
  -32.7220   17.1460    8.9120 C   0  0  0  0  0
  -31.6560   17.5380    8.0020 N   0  0  0  0  0
  -30.9840   18.6810    8.0600 C   0  0  0  0  0
  -31.2440   19.6860    8.8950 N   0  0  0  0  0
  -30.0320   18.7860    7.1650 N   0  0  0  0  0
  -31.1410   13.5470   10.5820 C   0  0  0  0  0
  -30.0360   13.7490   11.0850 O   0  0  0  0  0
  -32.2500   13.3050   11.2730 N   0  0  0  0  0
  -32.3370   13.3480   12.7420 C   0  0  0  0  0
  -33.7830   13.0130   13.1260 C   0  0  0  0  0
  -34.2220   13.5570   14.4900 C   0  0  0  0  0
  -35.7170   13.2890   14.7160 C   0  0  0  0  0
  -36.5160   13.9870   13.6860 N   0  0  0  0  0
  -37.7090   14.5330   13.9520 C   0  0  0  0  0
  -38.2460   14.4790   15.1770 N   0  0  0  0  0
  -38.3700   15.1340   12.9650 N   0  0  0  0  0
  -31.9450   14.7700   13.1940 C   0  0  0  0  0
  -32.4240   15.7650   12.6530 O   0  0  0  0  0
  -31.0440   14.8180   14.1630 N   0  0  0  0  0
  -30.5090   16.0880   14.6520 C   0  0  0  0  0
  -29.1050   15.8430   15.2460 C   0  0  0  0  0
  -28.3770   17.1510   15.6190 C   0  0  0  0  0
  -28.0200   17.9750   14.3780 C   0  0  0  0  0
  -26.5580   18.0470   14.1950 N   0  0  0  0  0
  -25.9260   17.3540   13.2390 C   0  0  0  0  0
  -26.5710   16.5220   12.4070 N   0  0  0  0  0
  -24.6130   17.4910   13.1190 N   0  0  0  0  0
  -31.4320   16.7910   15.6710 C   0  0  0  0  0
  -31.7120   16.2820   16.7570 O   0  0  0  0  0
  -31.8550   17.9930   15.2810 N   0  0  0  0  0
  -32.6160   18.8900   16.1650 C   0  0  0  0  0
  -33.3020   19.9810   15.3310 C   0  0  0  0  0
  -33.8500   21.1510   16.1700 C   0  0  0  0  0
  -34.4670   22.2310   15.2700 C   0  0  0  0  0
  -34.7890   23.4400   16.0610 N   0  0  0  0  0
  -35.9800   23.5640   16.6580 C   0  0  0  0  0
  -36.9030   22.6010   16.5600 N   0  0  0  0  0
  -36.2590   24.6610   17.3600 N   0  0  0  0  0
  -31.5220   19.4540   17.0950 C   0  0  0  0  0
  -30.5540   20.0610   16.6390 O   0  0  0  0  0
  -31.6180   19.0990   18.3700 N   0  0  0  0  0
  -30.6150   19.4960   19.3760 C   0  0  0  0  0
  -30.4980   18.4380   20.4760 C   0  0  0  0  0
  -30.2560   17.0760   19.8340 C   0  0  0  0  0
  -28.8030   16.6310   19.9790 C   0  0  0  0  0
  -28.7350   15.1970   19.6550 N   0  0  0  0  0
  -29.3310   14.2470   20.3980 C   0  0  0  0  0
  -30.0040   14.5340   21.5170 N   0  0  0  0  0
  -29.2320   12.9790   20.0080 N   0  0  0  0  0
  -31.0010   20.8340   19.9750 C   0  0  0  0  0
  -31.9830   20.9580   20.7140 O   0  0  0  0  0
  -30.1900   21.8170   19.5990 N   0  0  0  0  0
  -30.3860   23.1860   20.0610 C   0  0  0  0  0
  -30.0620   24.1830   18.9340 C   0  0  0  0  0
  -30.8210   23.8240   17.6350 C   0  0  0  0  0
  -30.7900   24.9590   16.6020 C   0  0  0  0  0
  -29.4170   25.1680   16.1150 N   0  0  0  0  0
  -28.8020   26.3420   16.2430 C   0  0  0  0  0
  -27.5540   26.4630   15.7890 N   0  0  0  0  0
  -29.3890   27.3860   16.8560 N   0  0  0  0  0
  -29.4770   23.3650   21.2780 C   0  0  0  0  0
  -29.4030   24.4440   21.8410 O   0  0  0  0  0
  -28.8020   22.2770   21.6560 N   0  0  0  0  0
  -15.1706   14.4784   12.0180 H   0  0  0  0  0
  -17.3289   14.9511    5.8956 H   0  0  0  0  0
  -21.1694   16.2408   12.5847 H   0  0  0  0  0
  -21.4878   14.8181   13.5527 H   0  0  0  0  0
  -22.6274   14.6225    9.4692 H   0  0  0  0  0
  -21.9210   16.1482   10.0415 H   0  0  0  0  0
  -19.0444   15.1906   12.7690 H   0  0  0  0  0
  -19.7611   13.5455   12.4806 H   0  0  0  0  0
  -20.5665   13.5279    9.4287 H   0  0  0  0  0
  -20.1712   15.2059    8.8433 H   0  0  0  0  0
  -25.9735   12.4173    8.7954 H   0  0  0  0  0
  -27.2157   12.3934   10.1055 H   0  0  0  0  0
  -24.6682   10.7795    9.8797 H   0  0  0  0  0
  -25.9917   10.3656   11.0156 H   0  0  0  0  0
  -27.8572   10.1045    9.4338 H   0  0  0  0  0
  -26.6359   10.1228    8.1529 H   0  0  0  0  0
  -24.3864   11.6825   12.2157 H   0  0  0  0  0
  -25.8250   12.7299   11.8914 H   0  0  0  0  0
  -28.5297   10.7998    6.9734 H   0  0  0  0  0
  -27.8405   12.3863    7.4651 H   0  0  0  0  0
  -24.6598   14.0577   10.3639 H   0  0  0  0  0
  -23.4986   12.7864    9.9702 H   0  0  0  0  0
  -29.5117   13.7206    7.8572 H   0  0  0  0  0
  -32.0880   12.7422    8.8614 H   0  0  0  0  0
  -32.6762   14.6032    7.8302 H   0  0  0  0  0
  -30.9826   15.2506    7.8793 H   0  0  0  0  0
  -31.3550   16.0604   10.1384 H   0  0  0  0  0
  -33.0409   15.4037   10.1012 H   0  0  0  0  0
  -32.9190   17.9056    9.6685 H   0  0  0  0  0
  -33.6776   17.0270    8.4014 H   0  0  0  0  0
  -31.4057   16.8828    7.2614 H   0  0  0  0  0
  -30.7001   20.5472    8.8415 H   0  0  0  0  0
  -31.9869   19.5942    9.5878 H   0  0  0  0  0
  -29.8655   18.0256    6.5059 H   0  0  0  0  0
  -33.0959   13.0745   10.7517 H   0  0  0  0  0
  -31.6693   12.6336   13.2236 H   0  0  0  0  0
  -33.8553   11.9266   13.1780 H   0  0  0  0  0
  -34.4266   13.4743   12.3769 H   0  0  0  0  0
  -34.0456   14.6323   14.5173 H   0  0  0  0  0
  -33.6494   13.0588   15.2723 H   0  0  0  0  0
  -36.0026   13.6561   15.7018 H   0  0  0  0  0
  -35.9036   12.2171   14.6499 H   0  0  0  0  0
  -36.1447   14.0549   12.7384 H   0  0  0  0  0
  -39.1594   14.8977   15.3523 H   0  0  0  0  0
  -37.7418   14.0192   15.9351 H   0  0  0  0  0
  -37.9658   15.1715   12.0293 H   0  0  0  0  0
  -30.7147   13.9469   14.5790 H   0  0  0  0  0
  -30.4442   16.7705   13.8046 H   0  0  0  0  0
  -28.5076   15.3322   14.4908 H   0  0  0  0  0
  -29.2256   15.2567   16.1569 H   0  0  0  0  0
  -27.4534   16.8939   16.1377 H   0  0  0  0  0
  -29.0402   17.7459   16.2469 H   0  0  0  0  0
  -28.4070   18.9859   14.5059 H   0  0  0  0  0
  -28.4593   17.4972   13.5023 H   0  0  0  0  0
  -26.0112   18.6434   14.8161 H   0  0  0  0  0
  -26.0511   16.0071   11.6964 H   0  0  0  0  0
  -27.5812   16.4045   12.4852 H   0  0  0  0  0
  -24.1057   18.1140   13.7474 H   0  0  0  0  0
  -31.6430   18.3033   14.3328 H   0  0  0  0  0
  -33.4194   18.4089   16.7229 H   0  0  0  0  0
  -34.1493   19.5189   14.8244 H   0  0  0  0  0
  -32.5540   20.3899   14.6517 H   0  0  0  0  0
  -33.0281   21.5927   16.7334 H   0  0  0  0  0
  -34.6216   20.7704   16.8392 H   0  0  0  0  0
  -35.3838   21.8423   14.8266 H   0  0  0  0  0
  -33.7512   22.4961   14.4919 H   0  0  0  0  0
  -34.0976   24.1844   16.1517 H   0  0  0  0  0
  -37.8068   22.7121   17.0196 H   0  0  0  0  0
  -36.7031   21.7555   16.0257 H   0  0  0  0  0
  -35.5654   25.4044   17.4416 H   0  0  0  0  0
  -32.4130   18.5319   18.6646 H   0  0  0  0  0
  -29.6444   19.5839   18.8877 H   0  0  0  0  0
  -31.4191   18.4107   21.0582 H   0  0  0  0  0
  -29.6665   18.6854   21.1360 H   0  0  0  0  0
  -30.4865   17.1523   18.7714 H   0  0  0  0  0
  -30.8900   16.3440   20.3342 H   0  0  0  0  0
  -28.4546   16.8051   20.9970 H   0  0  0  0  0
  -28.1643   17.2012   19.3045 H   0  0  0  0  0
  -28.2113   14.9099   18.8281 H   0  0  0  0  0
  -30.4337   13.7851   22.0600 H   0  0  0  0  0
  -30.0878   15.5019   21.8277 H   0  0  0  0  0
  -28.7126   12.7447   19.1620 H   0  0  0  0  0
  -29.4123   21.6091   18.9726 H   0  0  0  0  0
  -31.4219   23.3781   20.3405 H   0  0  0  0  0
  -28.9913   24.1455   18.7332 H   0  0  0  0  0
  -30.3684   25.1795   19.2521 H   0  0  0  0  0
  -31.8624   23.6354   17.8957 H   0  0  0  0  0
  -30.3365   22.9537   17.1924 H   0  0  0  0  0
  -31.1453   25.8768   17.0705 H   0  0  0  0  0
  -31.4296   24.6924   15.7606 H   0  0  0  0  0
  -28.9244   24.3945   15.6684 H   0  0  0  0  0
  -27.0899   25.6655   15.3543 H   0  0  0  0  0
  -28.8797   28.2623   16.9707 H   0  0  0  0  0
  -30.3433   27.3012   17.2060 H   0  0  0  0  0
  -28.1777   22.3184   22.4616 H   0  0  0  0  0
  -28.9105   21.4043   21.1392 H   0  0  0  0  0
  1  2  4  0  0  0
  6  1  4  0  0  0
  2  3  4  0  0  0
  4  3  4  0  0  0
  5  4  4  0  0  0
  4 10  4  0  0  0
  6  5  4  0  0  0
  5  8  4  0  0  0
  7  6  1  0  0  0
 13  7  1  0  0  0
 14  7  1  0  0  0
  8  9  4  0  0  0
  9 10  4  0  0  0
 11 13  1  0  0  0
 15 11  1  0  0  0
 12 14  1  0  0  0
 15 12  1  0  0  0
 25 15  1  0  0  0
 24 16  2  0  0  0
 25 17  2  0  0  0
 19 18  1  0  0  0
 18 20  1  0  0  0
 21 19  1  0  0  0
 20 22  1  0  0  0
 23 21  1  0  0  0
 22 24  1  0  0  0
 23 25  1  0  0  0
 24 26  1  0  0  0
 26 27  1  0  0  0
 27 28  1  0  0  0
 27 35  1  0  0  0
 28 29  1  0  0  0
 29 30  1  0  0  0
 30 31  1  0  0  0
 31 32  1  0  0  0
 32 33  1  0  0  0
 32 34  2  0  0  0
 35 36  2  0  0  0
 35 37  1  0  0  0
 37 38  1  0  0  0
 38 39  1  0  0  0
 38 46  1  0  0  0
 39 40  1  0  0  0
 40 41  1  0  0  0
 41 42  1  0  0  0
 42 43  1  0  0  0
 43 44  1  0  0  0
 43 45  2  0  0  0
 46 47  2  0  0  0
 46 48  1  0  0  0
 48 49  1  0  0  0
 49 50  1  0  0  0
 49 57  1  0  0  0
 50 51  1  0  0  0
 51 52  1  0  0  0
 52 53  1  0  0  0
 53 54  1  0  0  0
 54 55  1  0  0  0
 54 56  2  0  0  0
 57 58  2  0  0  0
 57 59  1  0  0  0
 59 60  1  0  0  0
 60 61  1  0  0  0
 60 68  1  0  0  0
 61 62  1  0  0  0
 62 63  1  0  0  0
 63 64  1  0  0  0
 64 65  1  0  0  0
 65 66  1  0  0  0
 65 67  2  0  0  0
 68 69  2  0  0  0
 68 70  1  0  0  0
 70 71  1  0  0  0
 71 72  1  0  0  0
 71 79  1  0  0  0
 72 73  1  0  0  0
 73 74  1  0  0  0
 74 75  1  0  0  0
 75 76  1  0  0  0
 76 77  1  0  0  0
 76 78  2  0  0  0
 79 80  2  0  0  0
 79 81  1  0  0  0
 81 82  1  0  0  0
 82 83  1  0  0  0
 82 90  1  0  0  0
 83 84  1  0  0  0
 84 85  1  0  0  0
 85 86  1  0  0  0
 86 87  1  0  0  0
 87 88  2  0  0  0
 87 89  1  0  0  0
 90 91  2  0  0  0
 90 92  1  0  0  0
  2 93  1  0  0  0
  9 94  1  0  0  0
 11 95  1  0  0  0
 11 96  1  0  0  0
 12 97  1  0  0  0
 12 98  1  0  0  0
 13 99  1  0  0  0
 13100  1  0  0  0
 14101  1  0  0  0
 14102  1  0  0  0
 18103  1  0  0  0
 18104  1  0  0  0
 19105  1  0  0  0
 19106  1  0  0  0
 20107  1  0  0  0
 20108  1  0  0  0
 21109  1  0  0  0
 21110  1  0  0  0
 22111  1  0  0  0
 22112  1  0  0  0
 23113  1  0  0  0
 23114  1  0  0  0
 26115  1  0  0  0
 27116  1  0  0  0
 28117  1  0  0  0
 28118  1  0  0  0
 29119  1  0  0  0
 29120  1  0  0  0
 30121  1  0  0  0
 30122  1  0  0  0
 31123  1  0  0  0
 33124  1  0  0  0
 33125  1  0  0  0
 34126  1  0  0  0
 37127  1  0  0  0
 38128  1  0  0  0
 39129  1  0  0  0
 39130  1  0  0  0
 40131  1  0  0  0
 40132  1  0  0  0
 41133  1  0  0  0
 41134  1  0  0  0
 42135  1  0  0  0
 44136  1  0  0  0
 44137  1  0  0  0
 45138  1  0  0  0
 48139  1  0  0  0
 49140  1  0  0  0
 50141  1  0  0  0
 50142  1  0  0  0
 51143  1  0  0  0
 51144  1  0  0  0
 52145  1  0  0  0
 52146  1  0  0  0
 53147  1  0  0  0
 55148  1  0  0  0
 55149  1  0  0  0
 56150  1  0  0  0
 59151  1  0  0  0
 60152  1  0  0  0
 61153  1  0  0  0
 61154  1  0  0  0
 62155  1  0  0  0
 62156  1  0  0  0
 63157  1  0  0  0
 63158  1  0  0  0
 64159  1  0  0  0
 66160  1  0  0  0
 66161  1  0  0  0
 67162  1  0  0  0
 70163  1  0  0  0
 71164  1  0  0  0
 72165  1  0  0  0
 72166  1  0  0  0
 73167  1  0  0  0
 73168  1  0  0  0
 74169  1  0  0  0
 74170  1  0  0  0
 75171  1  0  0  0
 77172  1  0  0  0
 77173  1  0  0  0
 78174  1  0  0  0
 81175  1  0  0  0
 82176  1  0  0  0
 83177  1  0  0  0
 83178  1  0  0  0
 84179  1  0  0  0
 84180  1  0  0  0
 85181  1  0  0  0
 85182  1  0  0  0
 86183  1  0  0  0
 88184  1  0  0  0
 89185  1  0  0  0
 89186  1  0  0  0
 92187  1  0  0  0
 92188  1  0  0  0
M  END
$$$$
