### 
### Created by X-TOOL on Mon Sep 10 21:13:04 2018
### 

@<TRIPOS>MOLECULE
3agm_ligand
  195   197     1     0     0
SMALL
GAST_HUCK


@<TRIPOS>ATOM
      1 N1        -17.1780   14.5890   11.4160 N.ar      1 69P        -0.2695
      2 C2        -15.8610   14.5550   11.1780 C.ar      1 69P         0.0533
      3 N3        -15.3780   14.6120    9.9500 N.ar      1 69P        -0.2715
      4 C4        -16.2100   14.7090    8.9020 C.ar      1 69P         0.1567
      5 C5        -17.5890   14.7570    9.1030 C.ar      1 69P         0.1046
      6 C6        -18.0720   14.7020   10.4140 C.ar      1 69P         0.1350
      7 N6        -19.4500   14.7160   10.7570 N.pl3     1 69P        -0.2834
      8 N7        -18.1480   14.8680    7.8920 N.2       1 69P        -0.2960
      9 C8        -17.1810   14.8780    6.9730 C.2       1 69P         0.1072
     10 N9        -15.9950   14.7830    7.5960 N.pl3     1 69P        -0.2361
     11 CBV       -21.1750   15.1510   12.5630 C.3       1 69P         0.0546
     12 CBW       -21.8680   15.0620   10.1160 C.3       1 69P         0.0546
     13 CBX       -19.7780   14.6030   12.2170 C.3       1 69P         0.0531
     14 CBY       -20.4860   14.5850    9.6820 C.3       1 69P         0.0531
     15 NDM       -22.1060   14.6470   11.5160 N.am      1 69P        -0.2692
     16 OAO       -30.1610   10.9480    9.2280 O.2       1 OCE        -0.3969
     17 OAP       -23.2540   13.4840   13.0160 O.2       1 OCE        -0.3969
     18 CAX       -26.5160   11.8030    9.5140 C.3       1 OCE        -0.0508
     19 CAY       -25.5030   11.1680   10.4630 C.3       1 OCE        -0.0508
     20 CAZ       -27.3140   10.7440    8.7380 C.3       1 OCE        -0.0361
     21 CBA       -24.9720   12.2060   11.4600 C.3       1 OCE        -0.0361
     22 CBN       -28.2980   11.4590    7.8100 C.3       1 OCE         0.0374
     23 CBO       -24.0590   13.2500   10.7820 C.3       1 OCE         0.0374
     24 CCW       -29.6000   11.7980    8.5410 C.2       1 OCE         0.1782
     25 CCX       -23.0970   13.8020   11.8370 C.2       1 OCE         0.1786
     26 NCI       -30.0470   13.0510    8.4100 N.am      1 DAR        -0.2656
     27 CDH       -31.3120   13.4820    9.0580 C.3       1 DAR         0.1310
     28 CBQ       -31.8050   14.8180    8.4490 C.3       1 DAR        -0.0092
     29 CBC       -32.2260   15.8380    9.5220 C.3       1 DAR        -0.0156
     30 CBI       -32.7220   17.1460    8.9120 C.3       1 DAR         0.0627
     31 NCD       -31.6560   17.5380    8.0020 N.pl3     1 DAR        -0.2723
     32 CCQ       -30.9840   18.6810    8.0600 C.cat     1 DAR         0.2882
     33 NAB       -31.2440   19.6860    8.8950 N.pl3     1 DAR        -0.2849
     34 NAH       -30.0320   18.7860    7.1650 N.pl3     1 DAR        -0.2849
     35 CCY       -31.1410   13.5470   10.5820 C.2       1 DAR         0.2039
     36 OAQ       -30.0360   13.7490   11.0850 O.2       1 DAR        -0.3944
     37 NCK       -32.2500   13.3050   11.2730 N.am      1 DAR        -0.2637
     38 CDJ       -32.3370   13.3480   12.7420 C.3       1 DAR         0.1311
     39 CBS       -33.7830   13.0130   13.1260 C.3       1 DAR        -0.0092
     40 CBE       -34.2220   13.5570   14.4900 C.3       1 DAR        -0.0156
     41 CBK       -35.7170   13.2890   14.7160 C.3       1 DAR         0.0627
     42 NCF       -36.5160   13.9870   13.6860 N.pl3     1 DAR        -0.2723
     43 CCS       -37.7090   14.5330   13.9520 C.cat     1 DAR         0.2882
     44 NAD       -38.2460   14.4790   15.1770 N.pl3     1 DAR        -0.2849
     45 NAJ       -38.3700   15.1340   12.9650 N.pl3     1 DAR        -0.2849
     46 CDB       -31.9450   14.7700   13.1940 C.2       1 DAR         0.2039
     47 OAT       -32.4240   15.7650   12.6530 O.2       1 DAR        -0.3944
     48 NCM       -31.0440   14.8180   14.1630 N.am      1 DAR        -0.2637
     49 CDL       -30.5090   16.0880   14.6520 C.3       1 DAR         0.1311
     50 CBU       -29.1050   15.8430   15.2460 C.3       1 DAR        -0.0092
     51 CBG       -28.3770   17.1510   15.6190 C.3       1 DAR        -0.0156
     52 CBM       -28.0200   17.9750   14.3780 C.3       1 DAR         0.0627
     53 NCH       -26.5580   18.0470   14.1950 N.pl3     1 DAR        -0.2723
     54 CCU       -25.9260   17.3540   13.2390 C.cat     1 DAR         0.2882
     55 NAF       -26.5710   16.5220   12.4070 N.pl3     1 DAR        -0.2849
     56 NAL       -24.6130   17.4910   13.1190 N.pl3     1 DAR        -0.2849
     57 CDC       -31.4320   16.7910   15.6710 C.2       1 DAR         0.2039
     58 OAU       -31.7120   16.2820   16.7570 O.2       1 DAR        -0.3944
     59 NCN       -31.8550   17.9930   15.2810 N.am      1 DAR        -0.2637
     60 CDK       -32.6160   18.8900   16.1650 C.3       1 DAR         0.1311
     61 CBT       -33.3020   19.9810   15.3310 C.3       1 DAR        -0.0092
     62 CBF       -33.8500   21.1510   16.1700 C.3       1 DAR        -0.0156
     63 CBL       -34.4670   22.2310   15.2700 C.3       1 DAR         0.0627
     64 NCG       -34.7890   23.4400   16.0610 N.pl3     1 DAR        -0.2723
     65 CCT       -35.9800   23.5640   16.6580 C.cat     1 DAR         0.2882
     66 NAE       -36.9030   22.6010   16.5600 N.pl3     1 DAR        -0.2849
     67 NAK       -36.2590   24.6610   17.3600 N.pl3     1 DAR        -0.2849
     68 CDA       -31.5220   19.4540   17.0950 C.2       1 DAR         0.2039
     69 OAS       -30.5540   20.0610   16.6390 O.2       1 DAR        -0.3944
     70 NCL       -31.6180   19.0990   18.3700 N.am      1 DAR        -0.2637
     71 CDI       -30.6150   19.4960   19.3760 C.3       1 DAR         0.1311
     72 CBR       -30.4980   18.4380   20.4760 C.3       1 DAR        -0.0092
     73 CBD       -30.2560   17.0760   19.8340 C.3       1 DAR        -0.0156
     74 CBJ       -28.8030   16.6310   19.9790 C.3       1 DAR         0.0627
     75 NCE       -28.7350   15.1970   19.6550 N.pl3     1 DAR        -0.2723
     76 CCR       -29.3310   14.2470   20.3980 C.cat     1 DAR         0.2882
     77 NAC       -30.0040   14.5340   21.5170 N.pl3     1 DAR        -0.2849
     78 NAI       -29.2320   12.9790   20.0080 N.pl3     1 DAR        -0.2849
     79 CCZ       -31.0010   20.8340   19.9750 C.2       1 DAR         0.2039
     80 OAR       -31.9830   20.9580   20.7140 O.2       1 DAR        -0.3944
     81 N         -30.1900   21.8170   19.5990 N.am      1 DAR        -0.2637
     82 CA        -30.3860   23.1860   20.0610 C.3       1 DAR         0.1307
     83 CB        -30.0620   24.1830   18.9340 C.3       1 DAR        -0.0092
     84 CG        -30.8210   23.8240   17.6350 C.3       1 DAR        -0.0156
     85 CD        -30.7900   24.9590   16.6020 C.3       1 DAR         0.0627
     86 NE        -29.4170   25.1680   16.1150 N.pl3     1 DAR        -0.2723
     87 CZ        -28.8020   26.3420   16.2430 C.cat     1 DAR         0.2882
     88 NH1       -27.5540   26.4630   15.7890 N.pl3     1 DAR        -0.2849
     89 NH2       -29.3890   27.3860   16.8560 N.pl3     1 DAR        -0.2849
     90 C         -29.4770   23.3650   21.2780 C.2       1 DAR         0.1992
     91 O         -29.4030   24.4440   21.8410 O.2       1 DAR        -0.3947
     92 NAM       -28.8020   22.2770   21.6560 N.am      1 NH2        -0.2990
     93 H         -15.1706   14.4784   12.0180 H         1 69P         0.0996
     94 H         -17.3289   14.9511    5.8956 H         1 69P         0.1346
     95 H         -15.0823   14.7700    7.1408 H         1 69P         0.2393
     96 H         -21.1694   16.2408   12.5847 H         1 69P         0.0543
     97 H         -21.4878   14.8181   13.5527 H         1 69P         0.0543
     98 H         -22.6274   14.6225    9.4692 H         1 69P         0.0543
     99 H         -21.9210   16.1482   10.0415 H         1 69P         0.0543
    100 H         -19.0444   15.1906   12.7690 H         1 69P         0.0547
    101 H         -19.7611   13.5455   12.4806 H         1 69P         0.0547
    102 H         -20.5665   13.5279    9.4287 H         1 69P         0.0547
    103 H         -20.1712   15.2059    8.8433 H         1 69P         0.0547
    104 H         -25.9735   12.4173    8.7954 H         1 OCE         0.0267
    105 H         -27.2157   12.3934   10.1055 H         1 OCE         0.0267
    106 H         -24.6682   10.7795    9.8797 H         1 OCE         0.0267
    107 H         -25.9917   10.3656   11.0156 H         1 OCE         0.0267
    108 H         -27.8572   10.1045    9.4338 H         1 OCE         0.0290
    109 H         -26.6359   10.1228    8.1529 H         1 OCE         0.0290
    110 H         -24.3864   11.6825   12.2157 H         1 OCE         0.0290
    111 H         -25.8250   12.7299   11.8914 H         1 OCE         0.0290
    112 H         -28.5297   10.7998    6.9734 H         1 OCE         0.0502
    113 H         -27.8405   12.3863    7.4651 H         1 OCE         0.0502
    114 H         -24.6598   14.0577   10.3639 H         1 OCE         0.0502
    115 H         -23.4986   12.7864    9.9702 H         1 OCE         0.0502
    116 H         -29.5117   13.7206    7.8572 H         1 DAR         0.1883
    117 H         -32.0880   12.7422    8.8614 H         1 DAR         0.0800
    118 H         -32.6762   14.6032    7.8302 H         1 DAR         0.0313
    119 H         -30.9826   15.2506    7.8793 H         1 DAR         0.0313
    120 H         -31.3550   16.0604   10.1384 H         1 DAR         0.0301
    121 H         -33.0409   15.4037   10.1012 H         1 DAR         0.0301
    122 H         -32.9190   17.9056    9.6685 H         1 DAR         0.0689
    123 H         -33.6776   17.0270    8.4014 H         1 DAR         0.0689
    124 H         -31.4057   16.8828    7.2614 H         1 DAR         0.2642
    125 H         -32.0139   19.6106    9.5597 H         1 DAR         0.2615
    126 H         -30.6731   20.5309    8.8696 H         1 DAR         0.2615
    127 H         -29.8655   18.0256    6.5059 H         1 DAR         0.2615
    128 H         -29.4577   19.6281    7.1277 H         1 DAR         0.2615
    129 H         -33.0959   13.0745   10.7517 H         1 DAR         0.1883
    130 H         -31.6693   12.6336   13.2236 H         1 DAR         0.0800
    131 H         -33.8553   11.9266   13.1780 H         1 DAR         0.0313
    132 H         -34.4266   13.4743   12.3769 H         1 DAR         0.0313
    133 H         -34.0456   14.6323   14.5173 H         1 DAR         0.0301
    134 H         -33.6494   13.0588   15.2723 H         1 DAR         0.0301
    135 H         -36.0026   13.6561   15.7018 H         1 DAR         0.0689
    136 H         -35.9036   12.2171   14.6499 H         1 DAR         0.0689
    137 H         -36.1447   14.0549   12.7384 H         1 DAR         0.2642
    138 H         -37.7445   14.0139   15.9337 H         1 DAR         0.2615
    139 H         -39.1567   14.9029   15.3538 H         1 DAR         0.2615
    140 H         -37.9658   15.1715   12.0293 H         1 DAR         0.2615
    141 H         -39.2806   15.5570   13.1445 H         1 DAR         0.2615
    142 H         -30.7147   13.9469   14.5790 H         1 DAR         0.1883
    143 H         -30.4442   16.7705   13.8046 H         1 DAR         0.0800
    144 H         -28.5076   15.3322   14.4908 H         1 DAR         0.0313
    145 H         -29.2256   15.2567   16.1569 H         1 DAR         0.0313
    146 H         -27.4534   16.8939   16.1377 H         1 DAR         0.0301
    147 H         -29.0402   17.7459   16.2469 H         1 DAR         0.0301
    148 H         -28.4070   18.9859   14.5059 H         1 DAR         0.0689
    149 H         -28.4593   17.4972   13.5023 H         1 DAR         0.0689
    150 H         -26.0112   18.6434   14.8161 H         1 DAR         0.2642
    151 H         -27.5802   16.3991   12.4897 H         1 DAR         0.2615
    152 H         -26.0521   16.0124   11.6918 H         1 DAR         0.2615
    153 H         -24.1057   18.1140   13.7474 H         1 DAR         0.2615
    154 H         -24.1100   16.9734   12.3983 H         1 DAR         0.2615
    155 H         -31.6430   18.3033   14.3328 H         1 DAR         0.1883
    156 H         -33.4194   18.4089   16.7229 H         1 DAR         0.0800
    157 H         -34.1493   19.5189   14.8244 H         1 DAR         0.0313
    158 H         -32.5540   20.3899   14.6517 H         1 DAR         0.0313
    159 H         -33.0281   21.5927   16.7334 H         1 DAR         0.0301
    160 H         -34.6216   20.7704   16.8392 H         1 DAR         0.0301
    161 H         -35.3838   21.8423   14.8266 H         1 DAR         0.0689
    162 H         -33.7512   22.4961   14.4919 H         1 DAR         0.0689
    163 H         -34.0976   24.1844   16.1517 H         1 DAR         0.2642
    164 H         -36.7039   21.7563   16.0240 H         1 DAR         0.2615
    165 H         -37.8060   22.7113   17.0213 H         1 DAR         0.2615
    166 H         -35.5654   25.4044   17.4416 H         1 DAR         0.2615
    167 H         -37.1663   24.7577   17.8160 H         1 DAR         0.2615
    168 H         -32.4130   18.5319   18.6646 H         1 DAR         0.1883
    169 H         -29.6444   19.5839   18.8877 H         1 DAR         0.0800
    170 H         -31.4191   18.4107   21.0582 H         1 DAR         0.0313
    171 H         -29.6665   18.6854   21.1360 H         1 DAR         0.0313
    172 H         -30.4865   17.1523   18.7714 H         1 DAR         0.0301
    173 H         -30.8900   16.3440   20.3342 H         1 DAR         0.0301
    174 H         -28.4546   16.8051   20.9970 H         1 DAR         0.0689
    175 H         -28.1643   17.2012   19.3045 H         1 DAR         0.0689
    176 H         -28.2113   14.9099   18.8281 H         1 DAR         0.2642
    177 H         -30.0786   15.5008   21.8335 H         1 DAR         0.2615
    178 H         -30.4429   13.7862   22.0542 H         1 DAR         0.2615
    179 H         -28.7126   12.7447   19.1620 H         1 DAR         0.2615
    180 H         -29.6754   12.2411   20.5550 H         1 DAR         0.2615
    181 H         -29.4123   21.6091   18.9726 H         1 DAR         0.1883
    182 H         -31.4219   23.3781   20.3405 H         1 DAR         0.0800
    183 H         -28.9913   24.1455   18.7332 H         1 DAR         0.0313
    184 H         -30.3684   25.1795   19.2521 H         1 DAR         0.0313
    185 H         -31.8624   23.6354   17.8957 H         1 DAR         0.0301
    186 H         -30.3365   22.9537   17.1924 H         1 DAR         0.0301
    187 H         -31.1453   25.8768   17.0705 H         1 DAR         0.0689
    188 H         -31.4296   24.6924   15.7606 H         1 DAR         0.0689
    189 H         -28.9244   24.3945   15.6684 H         1 DAR         0.2642
    190 H         -27.0899   25.6655   15.3543 H         1 DAR         0.2615
    191 H         -27.0635   27.3530   15.8765 H         1 DAR         0.2615
    192 H         -30.3300   27.2901   17.2377 H         1 DAR         0.2615
    193 H         -28.8930   28.2734   16.9390 H         1 DAR         0.2615
    194 H         -28.1777   22.3184   22.4616 H         1 NH2         0.1815
    195 H         -28.9105   21.4043   21.1392 H         1 NH2         0.1815
@<TRIPOS>BOND
     1    1    2 ar 
     2    6    1 ar 
     3    2    3 ar 
     4    4    3 ar 
     5    5    4 ar 
     6    4   10 1  
     7    6    5 ar 
     8    5    8 1  
     9    7    6 1  
    10   13    7 1  
    11   14    7 1  
    12    8    9 2  
    13    9   10 1  
    14   11   13 1  
    15   15   11 1  
    16   12   14 1  
    17   15   12 1  
    18   25   15 am 
    19   24   16 2  
    20   25   17 2  
    21   19   18 1  
    22   18   20 1  
    23   21   19 1  
    24   20   22 1  
    25   23   21 1  
    26   22   24 1  
    27   23   25 1  
    28   24   26 am 
    29   26   27 1  
    30   27   28 1  
    31   27   35 1  
    32   28   29 1  
    33   29   30 1  
    34   30   31 1  
    35   31   32 ar 
    36   32   33 ar 
    37   32   34 ar 
    38   35   36 2  
    39   35   37 am 
    40   37   38 1  
    41   38   39 1  
    42   38   46 1  
    43   39   40 1  
    44   40   41 1  
    45   41   42 1  
    46   42   43 ar 
    47   43   44 ar 
    48   43   45 ar 
    49   46   47 2  
    50   46   48 am 
    51   48   49 1  
    52   49   50 1  
    53   49   57 1  
    54   50   51 1  
    55   51   52 1  
    56   52   53 1  
    57   53   54 ar 
    58   54   55 ar 
    59   54   56 ar 
    60   57   58 2  
    61   57   59 am 
    62   59   60 1  
    63   60   61 1  
    64   60   68 1  
    65   61   62 1  
    66   62   63 1  
    67   63   64 1  
    68   64   65 ar 
    69   65   66 ar 
    70   65   67 ar 
    71   68   69 2  
    72   68   70 am 
    73   70   71 1  
    74   71   72 1  
    75   71   79 1  
    76   72   73 1  
    77   73   74 1  
    78   74   75 1  
    79   75   76 ar 
    80   76   77 ar 
    81   76   78 ar 
    82   79   80 2  
    83   79   81 am 
    84   81   82 1  
    85   82   83 1  
    86   82   90 1  
    87   83   84 1  
    88   84   85 1  
    89   85   86 1  
    90   86   87 ar 
    91   87   88 ar 
    92   87   89 ar 
    93   90   91 2  
    94   90   92 am 
    95    2   93 1  
    96    9   94 1  
    97   10   95 1  
    98   11   96 1  
    99   11   97 1  
   100   12   98 1  
   101   12   99 1  
   102   13  100 1  
   103   13  101 1  
   104   14  102 1  
   105   14  103 1  
   106   18  104 1  
   107   18  105 1  
   108   19  106 1  
   109   19  107 1  
   110   20  108 1  
   111   20  109 1  
   112   21  110 1  
   113   21  111 1  
   114   22  112 1  
   115   22  113 1  
   116   23  114 1  
   117   23  115 1  
   118   26  116 1  
   119   27  117 1  
   120   28  118 1  
   121   28  119 1  
   122   29  120 1  
   123   29  121 1  
   124   30  122 1  
   125   30  123 1  
   126   31  124 1  
   127   33  125 1  
   128   33  126 1  
   129   34  127 1  
   130   34  128 1  
   131   37  129 1  
   132   38  130 1  
   133   39  131 1  
   134   39  132 1  
   135   40  133 1  
   136   40  134 1  
   137   41  135 1  
   138   41  136 1  
   139   42  137 1  
   140   44  138 1  
   141   44  139 1  
   142   45  140 1  
   143   45  141 1  
   144   48  142 1  
   145   49  143 1  
   146   50  144 1  
   147   50  145 1  
   148   51  146 1  
   149   51  147 1  
   150   52  148 1  
   151   52  149 1  
   152   53  150 1  
   153   55  151 1  
   154   55  152 1  
   155   56  153 1  
   156   56  154 1  
   157   59  155 1  
   158   60  156 1  
   159   61  157 1  
   160   61  158 1  
   161   62  159 1  
   162   62  160 1  
   163   63  161 1  
   164   63  162 1  
   165   64  163 1  
   166   66  164 1  
   167   66  165 1  
   168   67  166 1  
   169   67  167 1  
   170   70  168 1  
   171   71  169 1  
   172   72  170 1  
   173   72  171 1  
   174   73  172 1  
   175   73  173 1  
   176   74  174 1  
   177   74  175 1  
   178   75  176 1  
   179   77  177 1  
   180   77  178 1  
   181   78  179 1  
   182   78  180 1  
   183   81  181 1  
   184   82  182 1  
   185   83  183 1  
   186   83  184 1  
   187   84  185 1  
   188   84  186 1  
   189   85  187 1  
   190   85  188 1  
   191   86  189 1  
   192   88  190 1  
   193   88  191 1  
   194   89  192 1  
   195   89  193 1  
   196   92  194 1  
   197   92  195 1  
@<TRIPOS>SUBSTRUCTURE
     1 69P         1

