### 
### Created by X-TOOL on Mon Sep 10 21:13:31 2018
### 

@<TRIPOS>MOLECULE
5n8j_ligand
  107   106     1     0     0
SMALL
GAST_HUCK


@<TRIPOS>ATOM
      1 N          -9.0660   14.8230    3.4630 N.4       1 GLY         0.2357
      2 CA         -7.8080   15.2630    4.1320 C.3       1 GLY         0.0545
      3 C          -6.6210   14.3720    3.8160 C.2       1 GLY         0.2236
      4 O          -6.7790   13.3100    3.2160 O.2       1 GLY        -0.3910
      5 N          -5.4350   14.8110    4.2400 N.am      1 DLE        -0.2613
      6 CA         -4.1680   14.1020    3.9820 C.3       1 DLE         0.1313
      7 CB         -3.4440   13.8320    5.2990 C.3       1 DLE        -0.0101
      8 CG         -4.2290   12.9470    6.2740 C.3       1 DLE        -0.0425
      9 CD1        -4.0040   11.4660    5.9950 C.3       1 DLE        -0.0625
     10 CD2        -3.8610   13.2680    7.7160 C.3       1 DLE        -0.0625
     11 C          -3.2420   14.9190    3.1120 C.2       1 DLE         0.2039
     12 O          -3.0640   16.1240    3.3170 O.2       1 DLE        -0.3944
     13 N          -2.5980   14.2570    2.1600 N.am      1 DAL        -0.2640
     14 CA         -1.7050   14.9170    1.2100 C.3       1 DAL         0.1282
     15 CB         -2.5050   15.3750   -0.0100 C.3       1 DAL        -0.0244
     16 C          -0.7180   13.8630    0.7720 C.2       1 DAL         0.2037
     17 O          -1.0970   12.7280    0.4770 O.2       1 DAL        -0.3944
     18 N           0.5430   14.2320    0.6560 N.am      1 DSG        -0.2616
     19 CA          1.6390   13.2500    0.4400 C.3       1 DSG         0.1476
     20 C           1.4630   12.4850   -0.8570 C.2       1 DSG         0.2063
     21 O           1.7830   11.3070   -0.9110 O.2       1 DSG        -0.3942
     22 CB          3.0510   13.8500    0.5420 C.3       1 DSG         0.0773
     23 CG          3.2400   14.5970    1.8290 C.2       1 DSG         0.1780
     24 OD1         3.8970   14.3010    2.7170 O.2       1 DSG        -0.3970
     25 ND2         2.6020   15.6040    2.1260 N.am      1 DSG        -0.3007
     26 N           0.9160   13.1230   -1.8950 N.am      1 DVA        -0.2633
     27 CA          0.6400   12.4330   -3.1560 C.3       1 DVA         0.1333
     28 CB          0.0840   13.3990   -4.2120 C.3       1 DVA        -0.0063
     29 CG1        -1.2490   14.0510   -3.8160 C.3       1 DVA        -0.0584
     30 CG2         1.1550   14.4090   -4.6110 C.3       1 DVA        -0.0584
     31 C          -0.2730   11.2290   -2.9860 C.2       1 DVA         0.2042
     32 O          -0.2800   10.3440   -3.8540 O.2       1 DVA        -0.3944
     33 N          -1.0450   11.1650   -1.8960 N.am      1 DAS        -0.2622
     34 CA         -1.8590    9.9760   -1.5990 C.3       1 DAS         0.1423
     35 C          -1.0460    8.7020   -1.5420 C.2       1 DAS         0.2056
     36 O          -1.5700    7.6240   -1.8410 O.2       1 DAS        -0.3943
     37 CB         -2.6380   10.1120   -0.2850 C.3       1 DAS         0.0406
     38 CG         -3.6600   11.2330   -0.3300 C.2       1 DAS         0.0393
     39 OD1        -4.0640   11.6860   -1.4330 O.co2     1 DAS        -0.5688
     40 OD2        -4.0670   11.6700    0.7690 O.co2     1 DAS        -0.5688
     41 N           0.2300    8.8110   -1.1680 N.am      1 DGL        -0.2635
     42 CA          1.1520    7.6580   -1.1040 C.3       1 DGL         0.1324
     43 C           1.3720    6.9320   -2.4190 C.2       1 DGL         0.2035
     44 O           1.8080    5.7700   -2.4020 O.2       1 DGL        -0.3944
     45 CB          2.5160    8.1250   -0.5720 C.3       1 DGL        -0.0008
     46 CG          3.3710    8.7770   -1.6680 C.3       1 DGL         0.0044
     47 CD          4.4730    9.6610   -1.1320 C.2       1 DGL         0.0350
     48 OE1         4.9920   10.4810   -1.9350 O.co2     1 DGL        -0.5690
     49 OE2         4.8270    9.5290    0.0640 O.co2     1 DGL        -0.5690
     50 N           1.1270    7.6060   -3.5460 N.am      1 DSN        -0.2672
     51 CA          1.3530    7.0440   -4.8690 C.3       1 DSN         0.1173
     52 C           0.1950    7.3260   -5.7840 C.2       1 DSN         0.0623
     53 O           0.3130    7.1590   -7.0020 O.co2     1 DSN        -0.5665
     54 CB          2.6670    7.6520   -5.3760 C.3       1 DSN         0.0789
     55 OG          2.5270    9.0450   -5.7130 O.3       1 DSN        -0.3910
     56 OXT        -0.8780    7.7260   -5.3200 O.co2     1 DSN        -0.5665
     57 H1         -9.8151   15.4507    3.7099 H         1 GLY         0.2012
     58 H2         -9.2975   13.8891    3.7635 H         1 GLY         0.2012
     59 H3         -8.9359   14.8319    2.4635 H         1 GLY         0.2012
     60 H4         -7.9699   15.2572    5.2200 H         1 GLY         0.1061
     61 H5         -7.5753   16.2860    3.8014 H         1 GLY         0.1061
     62 H6         -5.4034   15.6648    4.7596 H         1 DLE         0.1884
     63 H7         -4.3906   13.1485    3.4807 H         1 DLE         0.0800
     64 H8         -3.2477   14.7968    5.7895 H         1 DLE         0.0315
     65 H9         -2.4893   13.3346    5.0729 H         1 DLE         0.0315
     66 H10        -5.2993   13.1607    6.1371 H         1 DLE         0.0298
     67 H11        -4.5821   10.8657    6.7130 H         1 DLE         0.0232
     68 H12        -2.9343   11.2317    6.0987 H         1 DLE         0.0232
     69 H13        -4.3333   11.2314    4.9720 H         1 DLE         0.0232
     70 H14        -4.0268   14.3385    7.9071 H         1 DLE         0.0232
     71 H15        -2.8020   13.0248    7.8870 H         1 DLE         0.0232
     72 H16        -4.4884   12.6727    8.3958 H         1 DLE         0.0232
     73 H17        -2.7286   13.2681    2.0896 H         1 DAL         0.1883
     74 H18        -1.1935   15.7714    1.6773 H         1 DAL         0.0797
     75 H19        -1.8320   15.8716   -0.7244 H         1 DAL         0.0277
     76 H20        -3.2871   16.0802    0.3079 H         1 DAL         0.0277
     77 H21        -2.9714   14.5027   -0.4912 H         1 DAL         0.0277
     78 H22         0.7697   15.2042    0.7152 H         1 DSG         0.1885
     79 H23         1.5565   12.5156    1.2547 H         1 DSG         0.0826
     80 H24         3.2069   14.5419   -0.2988 H         1 DSG         0.0551
     81 H25         3.7896   13.0365    0.4893 H         1 DSG         0.0551
     82 H26         2.7693   16.0626    2.9987 H         1 DSG         0.1814
     83 H27         1.9154   15.9651    1.4950 H         1 DSG         0.1814
     84 H28         0.6901   14.0933   -1.8088 H         1 DVA         0.1883
     85 H29         1.6026   12.0559   -3.5318 H         1 DVA         0.0802
     86 H30        -0.1294   12.7959   -5.1068 H         1 DVA         0.0343
     87 H31        -1.5802   14.7255   -4.6194 H         1 DVA         0.0234
     88 H32        -1.1148   14.6251   -2.8873 H         1 DVA         0.0234
     89 H33        -2.0067   13.2695   -3.6578 H         1 DVA         0.0234
     90 H34         2.0788   13.8764   -4.8812 H         1 DVA         0.0234
     91 H35         1.3550   15.0845   -3.7662 H         1 DVA         0.0234
     92 H36         0.8038   14.9945   -5.4734 H         1 DVA         0.0234
     93 H37        -1.0696   11.9431   -1.2684 H         1 DAS         0.1884
     94 H38        -2.5886    9.8732   -2.4158 H         1 DAS         0.0819
     95 H39        -1.9258   10.3161    0.5281 H         1 DAS         0.0478
     96 H40        -3.1612    9.1653   -0.0852 H         1 DAS         0.0478
     97 H41         0.5786    9.7147   -0.9195 H         1 DGL         0.1883
     98 H42         0.7248    6.9350   -0.3936 H         1 DGL         0.0801
     99 H43         3.0569    7.2553   -0.1707 H         1 DGL         0.0330
    100 H44         2.3513    8.8574    0.2320 H         1 DGL         0.0330
    101 H45         2.7137    9.3882   -2.3040 H         1 DGL         0.0433
    102 H46         3.8282    7.9797   -2.2724 H         1 DGL         0.0433
    103 H47         0.7724    8.5385   -3.4774 H         1 DSN         0.1876
    104 H48         1.4684    5.9531   -4.7880 H         1 DSN         0.0749
    105 H49         2.9897    7.1015   -6.2719 H         1 DSN         0.0599
    106 H50         3.4300    7.5526   -4.5899 H         1 DSN         0.0599
    107 H51         3.3607    9.3804   -6.0212 H         1 DSN         0.2096
@<TRIPOS>BOND
     1    1    2 1  
     2    2    3 1  
     3    3    4 2  
     4    3    5 am 
     5    5    6 1  
     6    6    7 1  
     7    6   11 1  
     8    7    8 1  
     9    8    9 1  
    10    8   10 1  
    11   11   12 2  
    12   11   13 am 
    13   13   14 1  
    14   14   15 1  
    15   14   16 1  
    16   16   17 2  
    17   16   18 am 
    18   18   19 1  
    19   19   20 1  
    20   19   22 1  
    21   20   21 2  
    22   20   26 am 
    23   22   23 1  
    24   23   24 2  
    25   23   25 am 
    26   26   27 1  
    27   27   28 1  
    28   27   31 1  
    29   28   29 1  
    30   28   30 1  
    31   31   32 2  
    32   31   33 am 
    33   33   34 1  
    34   34   35 1  
    35   34   37 1  
    36   35   36 2  
    37   35   41 am 
    38   37   38 1  
    39   38   39 ar 
    40   38   40 ar 
    41   41   42 1  
    42   42   43 1  
    43   42   45 1  
    44   43   44 2  
    45   43   50 am 
    46   45   46 1  
    47   46   47 1  
    48   47   48 ar 
    49   47   49 ar 
    50   50   51 1  
    51   51   52 1  
    52   51   54 1  
    53   52   53 ar 
    54   52   56 ar 
    55   54   55 1  
    56    1   57 1  
    57    1   58 1  
    58    1   59 1  
    59    2   60 1  
    60    2   61 1  
    61    5   62 1  
    62    6   63 1  
    63    7   64 1  
    64    7   65 1  
    65    8   66 1  
    66    9   67 1  
    67    9   68 1  
    68    9   69 1  
    69   10   70 1  
    70   10   71 1  
    71   10   72 1  
    72   13   73 1  
    73   14   74 1  
    74   15   75 1  
    75   15   76 1  
    76   15   77 1  
    77   18   78 1  
    78   19   79 1  
    79   22   80 1  
    80   22   81 1  
    81   25   82 1  
    82   25   83 1  
    83   26   84 1  
    84   27   85 1  
    85   28   86 1  
    86   29   87 1  
    87   29   88 1  
    88   29   89 1  
    89   30   90 1  
    90   30   91 1  
    91   30   92 1  
    92   33   93 1  
    93   34   94 1  
    94   37   95 1  
    95   37   96 1  
    96   41   97 1  
    97   42   98 1  
    98   45   99 1  
    99   45  100 1  
   100   46  101 1  
   101   46  102 1  
   102   50  103 1  
   103   51  104 1  
   104   54  105 1  
   105   54  106 1  
   106   55  107 1  
@<TRIPOS>SUBSTRUCTURE
     1 GLY         1

