5n8j_ligand
  -I-interpret- 

110109  0  0  0  0  0  0  0  0999 V2000
   -9.0660   14.8230    3.4630 N   0  3  0  0  0
   -7.8080   15.2630    4.1320 C   0  0  0  0  0
   -6.6210   14.3720    3.8160 C   0  0  0  0  0
   -6.7790   13.3100    3.2160 O   0  0  0  0  0
   -5.4350   14.8110    4.2400 N   0  0  0  0  0
   -4.1680   14.1020    3.9820 C   0  0  0  0  0
   -3.4440   13.8320    5.2990 C   0  0  0  0  0
   -4.2290   12.9470    6.2740 C   0  0  0  0  0
   -4.0040   11.4660    5.9950 C   0  0  0  0  0
   -3.8610   13.2680    7.7160 C   0  0  0  0  0
   -3.2420   14.9190    3.1120 C   0  0  0  0  0
   -3.0640   16.1240    3.3170 O   0  0  0  0  0
   -2.5980   14.2570    2.1600 N   0  0  0  0  0
   -1.7050   14.9170    1.2100 C   0  0  0  0  0
   -2.5050   15.3750   -0.0100 C   0  0  0  0  0
   -0.7180   13.8630    0.7720 C   0  0  0  0  0
   -1.0970   12.7280    0.4770 O   0  0  0  0  0
    0.5430   14.2320    0.6560 N   0  0  0  0  0
    1.6390   13.2500    0.4400 C   0  0  0  0  0
    1.4630   12.4850   -0.8570 C   0  0  0  0  0
    1.7830   11.3070   -0.9110 O   0  0  0  0  0
    3.0510   13.8500    0.5420 C   0  0  0  0  0
    3.2400   14.5970    1.8290 C   0  0  0  0  0
    3.8970   14.3010    2.7170 O   0  0  0  0  0
    2.6020   15.6040    2.1260 N   0  0  0  0  0
    0.9160   13.1230   -1.8950 N   0  0  0  0  0
    0.6400   12.4330   -3.1560 C   0  0  0  0  0
    0.0840   13.3990   -4.2120 C   0  0  0  0  0
   -1.2490   14.0510   -3.8160 C   0  0  0  0  0
    1.1550   14.4090   -4.6110 C   0  0  0  0  0
   -0.2730   11.2290   -2.9860 C   0  0  0  0  0
   -0.2800   10.3440   -3.8540 O   0  0  0  0  0
   -1.0450   11.1650   -1.8960 N   0  0  0  0  0
   -1.8590    9.9760   -1.5990 C   0  0  0  0  0
   -1.0460    8.7020   -1.5420 C   0  0  0  0  0
   -1.5700    7.6240   -1.8410 O   0  0  0  0  0
   -2.6380   10.1120   -0.2850 C   0  0  0  0  0
   -3.6600   11.2330   -0.3300 C   0  0  0  0  0
   -4.0640   11.6860   -1.4330 O   0  0  0  0  0
   -4.0670   11.6700    0.7690 O   0  0  0  0  0
    0.2300    8.8110   -1.1680 N   0  0  0  0  0
    1.1520    7.6580   -1.1040 C   0  0  0  0  0
    1.3720    6.9320   -2.4190 C   0  0  0  0  0
    1.8080    5.7700   -2.4020 O   0  0  0  0  0
    2.5160    8.1250   -0.5720 C   0  0  0  0  0
    3.3710    8.7770   -1.6680 C   0  0  0  0  0
    4.4730    9.6610   -1.1320 C   0  0  0  0  0
    4.9920   10.4810   -1.9350 O   0  0  0  0  0
    4.8270    9.5290    0.0640 O   0  0  0  0  0
    1.1270    7.6060   -3.5460 N   0  0  0  0  0
    1.3530    7.0440   -4.8690 C   0  0  0  0  0
    0.1950    7.3260   -5.7840 C   0  0  0  0  0
    0.3130    7.1590   -7.0020 O   0  0  0  0  0
    2.6670    7.6520   -5.3760 C   0  0  0  0  0
    2.5270    9.0450   -5.7130 O   0  0  0  0  0
   -0.8780    7.7260   -5.3200 O   0  0  0  0  0
   -9.8232   15.4588    3.7135 H   0  0  0  0  0
   -8.9331   14.8323    2.4517 H   0  0  0  0  0
   -9.2991   13.8779    3.7678 H   0  0  0  0  0
   -7.9744   15.2228    5.2085 H   0  0  0  0  0
   -7.5747   16.2649    3.7715 H   0  0  0  0  0
   -5.4028   15.6819    4.7700 H   0  0  0  0  0
   -4.4192   13.1712    3.4735 H   0  0  0  0  0
   -3.2926   14.7947    5.7873 H   0  0  0  0  0
   -2.5204   13.3058    5.0576 H   0  0  0  0  0
   -5.2868   13.1627    6.1237 H   0  0  0  0  0
   -4.3306   11.2349    4.9811 H   0  0  0  0  0
   -2.9437   11.2352    6.0980 H   0  0  0  0  0
   -4.5773   10.8723    6.7070 H   0  0  0  0  0
   -2.7952   13.0946    7.8649 H   0  0  0  0  0
   -4.0932   14.3123    7.9251 H   0  0  0  0  0
   -4.4320   12.6261    8.3869 H   0  0  0  0  0
   -2.7312   13.2483    2.0882 H   0  0  0  0  0
   -1.2161   15.7831    1.6560 H   0  0  0  0  0
   -2.9666   14.5098   -0.4859 H   0  0  0  0  0
   -3.2796   16.0736    0.3064 H   0  0  0  0  0
   -1.8371   15.8669   -0.7171 H   0  0  0  0  0
    0.7742   15.2236    0.7164 H   0  0  0  0  0
    1.5549   12.5473    1.2690 H   0  0  0  0  0
    3.1905   14.5464   -0.2848 H   0  0  0  0  0
    3.7751   13.0361    0.5059 H   0  0  0  0  0
    2.7169   16.0274    3.0468 H   0  0  0  0  0
    1.9574   16.0167    1.4518 H   0  0  0  0  0
    0.6855   14.1127   -1.8071 H   0  0  0  0  0
    1.5978   12.0510   -3.5093 H   0  0  0  0  0
   -0.1690   12.8095   -5.0932 H   0  0  0  0  0
   -1.9989   13.2756   -3.6595 H   0  0  0  0  0
   -1.1147   14.6194   -2.8957 H   0  0  0  0  0
   -1.5761   14.7190   -4.6128 H   0  0  0  0  0
    1.4632   14.9759   -3.7326 H   0  0  0  0  0
    2.0144   13.8811   -5.0243 H   0  0  0  0  0
    0.7500   15.0892   -5.3603 H   0  0  0  0  0
   -1.0701   11.9587   -1.2558 H   0  0  0  0  0
   -2.5596    9.9105   -2.4315 H   0  0  0  0  0
   -1.9247   10.3383    0.5075 H   0  0  0  0  0
   -3.1710    9.1772   -0.1112 H   0  0  0  0  0
   -3.6301   11.2161   -2.1489 H   0  0  0  0  0
    0.5856    9.7328   -0.9145 H   0  0  0  0  0
    0.6694    6.9422   -0.4385 H   0  0  0  0  0
    3.0514    7.2528   -0.1970 H   0  0  0  0  0
    2.3411    8.8656    0.2084 H   0  0  0  0  0
    2.7109    9.4050   -2.2664 H   0  0  0  0  0
    3.8431    7.9742   -2.2343 H   0  0  0  0  0
    4.5626   10.4051   -2.7903 H   0  0  0  0  0
    0.7653    8.5572   -3.4760 H   0  0  0  0  0
    1.4308    5.9573   -4.8351 H   0  0  0  0  0
    2.9651    7.1136   -6.2756 H   0  0  0  0  0
    3.4085    7.5680   -4.5815 H   0  0  0  0  0
    3.3695    9.3840   -6.0244 H   0  0  0  0  0
   -0.8041    7.8024   -4.3659 H   0  0  0  0  0
  1  2  1  0  0  0
  2  3  1  0  0  0
  3  4  2  0  0  0
  3  5  1  0  0  0
  5  6  1  0  0  0
  6  7  1  0  0  0
  6 11  1  0  0  0
  7  8  1  0  0  0
  8  9  1  0  0  0
  8 10  1  0  0  0
 11 12  2  0  0  0
 11 13  1  0  0  0
 13 14  1  0  0  0
 14 15  1  0  0  0
 14 16  1  0  0  0
 16 17  2  0  0  0
 16 18  1  0  0  0
 18 19  1  0  0  0
 19 20  1  0  0  0
 19 22  1  0  0  0
 20 21  2  0  0  0
 20 26  1  0  0  0
 22 23  1  0  0  0
 23 24  2  0  0  0
 23 25  1  0  0  0
 26 27  1  0  0  0
 27 28  1  0  0  0
 27 31  1  0  0  0
 28 29  1  0  0  0
 28 30  1  0  0  0
 31 32  2  0  0  0
 31 33  1  0  0  0
 33 34  1  0  0  0
 34 35  1  0  0  0
 34 37  1  0  0  0
 35 36  2  0  0  0
 35 41  1  0  0  0
 37 38  1  0  0  0
 38 39  1  0  0  0
 38 40  2  0  0  0
 41 42  1  0  0  0
 42 43  1  0  0  0
 42 45  1  0  0  0
 43 44  2  0  0  0
 43 50  1  0  0  0
 45 46  1  0  0  0
 46 47  1  0  0  0
 47 48  1  0  0  0
 47 49  2  0  0  0
 50 51  1  0  0  0
 51 52  1  0  0  0
 51 54  1  0  0  0
 52 53  2  0  0  0
 52 56  1  0  0  0
 54 55  1  0  0  0
  1 57  1  0  0  0
  1 58  1  0  0  0
  1 59  1  0  0  0
  2 60  1  0  0  0
  2 61  1  0  0  0
  5 62  1  0  0  0
  6 63  1  0  0  0
  7 64  1  0  0  0
  7 65  1  0  0  0
  8 66  1  0  0  0
  9 67  1  0  0  0
  9 68  1  0  0  0
  9 69  1  0  0  0
 10 70  1  0  0  0
 10 71  1  0  0  0
 10 72  1  0  0  0
 13 73  1  0  0  0
 14 74  1  0  0  0
 15 75  1  0  0  0
 15 76  1  0  0  0
 15 77  1  0  0  0
 18 78  1  0  0  0
 19 79  1  0  0  0
 22 80  1  0  0  0
 22 81  1  0  0  0
 25 82  1  0  0  0
 25 83  1  0  0  0
 26 84  1  0  0  0
 27 85  1  0  0  0
 28 86  1  0  0  0
 29 87  1  0  0  0
 29 88  1  0  0  0
 29 89  1  0  0  0
 30 90  1  0  0  0
 30 91  1  0  0  0
 30 92  1  0  0  0
 33 93  1  0  0  0
 34 94  1  0  0  0
 37 95  1  0  0  0
 37 96  1  0  0  0
 39 97  1  0  0  0
 41 98  1  0  0  0
 42 99  1  0  0  0
 45100  1  0  0  0
 45101  1  0  0  0
 46102  1  0  0  0
 46103  1  0  0  0
 48104  1  0  0  0
 50105  1  0  0  0
 51106  1  0  0  0
 54107  1  0  0  0
 54108  1  0  0  0
 55109  1  0  0  0
 56110  1  0  0  0
M  END
$$$$
