1z1h_ligand
  -I-interpret- 

 83 85  0  0  0  0  0  0  0  0999 V2000
    5.6690   -0.2380   14.3420 C   0  0  0  0  0
    7.0830    0.3740   14.2550 C   0  0  0  0  0
    7.3480    1.0860   12.9450 C   0  0  0  0  0
    7.7410    1.0220   10.5540 C   0  0  0  0  0
    7.6060    0.3700   11.7680 C   0  0  0  0  0
    6.3250    3.0840    8.7760 C   0  0  0  0  0
    5.4980    4.2530    9.3600 C   0  0  0  0  0
    4.0010    3.9610    9.4690 C   0  0  0  0  0
    3.5620    3.4240   10.8200 C   0  0  0  0  0
    2.9730    1.4640   12.1810 C   0  0  0  0  0
    0.5440    2.0780   11.8760 C   0  0  0  0  0
    3.9260    0.3660   12.6940 C   0  0  0  0  0
    6.3700   -2.8180   15.8170 N   0  0  0  0  0
    5.7070   -3.5950   16.8920 C   0  0  0  0  0
    2.9350   -2.8440   16.3270 C   0  0  0  0  0
    2.5690   -5.0460   15.2300 C   0  0  0  0  0
    8.5290   -4.5040   15.7960 C   0  0  0  0  0
    7.2450    2.4740   12.8640 C   0  0  0  0  0
    7.3790    3.1270   11.6580 C   0  0  0  0  0
    7.6180    2.3990   10.5040 C   0  0  0  0  0
    7.6630    3.0550    9.2910 O   0  0  0  0  0
    3.4350    4.1870   11.7850 O   0  0  0  0  0
    3.3970    2.1030   10.9100 N   0  0  0  0  0
    1.5280    0.9200   12.0730 C   0  0  0  0  0
    1.1470    0.1320   13.3060 C   0  0  0  0  0
    3.9570   -0.7550   12.1550 O   0  0  0  0  0
    4.6820    0.6980   13.7470 N   0  0  0  0  0
    5.3120   -0.5480   15.8090 C   0  0  0  0  0
    5.2570    0.6650   16.5620 O   0  0  0  0  0
    6.3430   -1.4910   16.4480 C   0  0  0  0  0
    4.7980   -4.5350   16.1180 C   0  0  0  0  0
    3.3010   -4.3200   16.3450 C   0  0  0  0  0
    7.5240   -3.5430   14.8840 S   0  0  0  0  0
    8.3440   -2.5090   14.2480 O   0  0  0  0  0
    6.8690   -4.3280   13.8480 O   0  0  0  0  0
    9.6660   -3.9610   16.4060 C   0  0  0  0  0
   10.5150   -4.7580   17.1720 C   0  0  0  0  0
   10.2400   -6.1120   17.3280 C   0  0  0  0  0
    9.1120   -6.6680   16.7230 C   0  0  0  0  0
    8.2660   -5.8630   15.9600 C   0  0  0  0  0
    5.6465   -1.1729   13.7820 H   0  0  0  0  0
    7.8008   -0.4421   14.3374 H   0  0  0  0  0
    7.1732    1.1099   15.0540 H   0  0  0  0  0
    7.9425    0.4550    9.6452 H   0  0  0  0  0
    7.7017   -0.7150   11.8089 H   0  0  0  0  0
    6.3808    3.2154    7.6954 H   0  0  0  0  0
    5.8350    2.1507    9.0535 H   0  0  0  0  0
    5.6141    5.1007    8.6847 H   0  0  0  0  0
    5.8661    4.4374   10.3692 H   0  0  0  0  0
    3.7706    3.1935    8.7301 H   0  0  0  0  0
    3.4793    4.9057    9.3160 H   0  0  0  0  0
    3.0105    2.2589   12.9258 H   0  0  0  0  0
    0.6091    2.7570   12.7262 H   0  0  0  0  0
    0.7947    2.6144   10.9609 H   0  0  0  0  0
   -0.4693    1.6833   11.8013 H   0  0  0  0  0
    5.1641   -2.9653   17.5969 H   0  0  0  0  0
    6.4146   -4.1215   17.5325 H   0  0  0  0  0
    3.2197   -2.4121   15.3676 H   0  0  0  0  0
    1.8600   -2.7358   16.4710 H   0  0  0  0  0
    3.4639   -2.3300   17.1296 H   0  0  0  0  0
    1.4937   -4.9392   15.3733 H   0  0  0  0  0
    2.8534   -4.6155   14.2699 H   0  0  0  0  0
    2.8363   -6.1025   15.2494 H   0  0  0  0  0
    7.0555    3.0516   13.7687 H   0  0  0  0  0
    7.2972    4.2130   11.6122 H   0  0  0  0  0
    3.5655    1.5209   10.0895 H   0  0  0  0  0
    1.4831    0.2531   11.2120 H   0  0  0  0  0
    1.8287   -0.7105   13.4222 H   0  0  0  0  0
    1.2119    0.7770   14.1823 H   0  0  0  0  0
    0.1268   -0.2365   13.1992 H   0  0  0  0  0
    4.5765    1.6268   14.1552 H   0  0  0  0  0
    4.3390   -1.0393   15.8190 H   0  0  0  0  0
    4.6137    1.2573   16.1659 H   0  0  0  0  0
    7.3283   -1.0420   16.3228 H   0  0  0  0  0
    6.0691   -1.6248   17.4945 H   0  0  0  0  0
    5.0260   -5.5448   16.4593 H   0  0  0  0  0
    4.9850   -4.3527   15.0597 H   0  0  0  0  0
    3.0203   -4.7056   17.3251 H   0  0  0  0  0
    9.8902   -2.9017   16.2804 H   0  0  0  0  0
   11.3928   -4.3207   17.6478 H   0  0  0  0  0
   10.9049   -6.7387   17.9224 H   0  0  0  0  0
    8.8926   -7.7285   16.8463 H   0  0  0  0  0
    7.3882   -6.3022   15.4861 H   0  0  0  0  0
  1  2  1  0  0  0
  1 27  1  0  0  0
 28  1  1  0  0  0
  2  3  1  0  0  0
  3  5  4  0  0  0
  3 18  4  0  0  0
  5  4  4  0  0  0
  4 20  4  0  0  0
  7  6  1  0  0  0
 21  6  1  0  0  0
  8  7  1  0  0  0
  9  8  1  0  0  0
  9 22  2  0  0  0
 23  9  1  0  0  0
 12 10  1  0  0  0
 10 23  1  0  0  0
 10 24  1  0  0  0
 24 11  1  0  0  0
 12 26  2  0  0  0
 27 12  1  0  0  0
 14 13  1  0  0  0
 13 30  1  0  0  0
 13 33  1  0  0  0
 31 14  1  0  0  0
 32 15  1  0  0  0
 32 16  1  0  0  0
 33 17  1  0  0  0
 17 36  4  0  0  0
 17 40  4  0  0  0
 18 19  4  0  0  0
 19 20  4  0  0  0
 20 21  1  0  0  0
 24 25  1  0  0  0
 28 29  1  0  0  0
 30 28  1  0  0  0
 31 32  1  0  0  0
 33 34  2  0  0  0
 33 35  2  0  0  0
 36 37  4  0  0  0
 37 38  4  0  0  0
 38 39  4  0  0  0
 39 40  4  0  0  0
  1 41  1  0  0  0
  2 42  1  0  0  0
  2 43  1  0  0  0
  4 44  1  0  0  0
  5 45  1  0  0  0
  6 46  1  0  0  0
  6 47  1  0  0  0
  7 48  1  0  0  0
  7 49  1  0  0  0
  8 50  1  0  0  0
  8 51  1  0  0  0
 10 52  1  0  0  0
 11 53  1  0  0  0
 11 54  1  0  0  0
 11 55  1  0  0  0
 14 56  1  0  0  0
 14 57  1  0  0  0
 15 58  1  0  0  0
 15 59  1  0  0  0
 15 60  1  0  0  0
 16 61  1  0  0  0
 16 62  1  0  0  0
 16 63  1  0  0  0
 18 64  1  0  0  0
 19 65  1  0  0  0
 23 66  1  0  0  0
 24 67  1  0  0  0
 25 68  1  0  0  0
 25 69  1  0  0  0
 25 70  1  0  0  0
 27 71  1  0  0  0
 28 72  1  0  0  0
 29 73  1  0  0  0
 30 74  1  0  0  0
 30 75  1  0  0  0
 31 76  1  0  0  0
 31 77  1  0  0  0
 32 78  1  0  0  0
 36 79  1  0  0  0
 37 80  1  0  0  0
 38 81  1  0  0  0
 39 82  1  0  0  0
 40 83  1  0  0  0
M  END
$$$$
