4j1c_ligand
  -I-interpret- 

 42 44  0  0  0  0  0  0  0  0999 V2000
  -22.2170  -42.9960   -3.4060 C   0  0  0  0  0
  -20.5830  -44.0330   -0.2690 C   0  0  0  0  0
  -22.0030  -43.6840   -2.2270 C   0  0  0  0  0
  -22.4970  -41.3190   -5.7270 O   0  0  0  0  0
  -21.4300  -41.3810   -5.0970 C   0  0  0  0  0
  -20.2600  -40.8590   -5.5540 N   0  0  0  0  0
  -21.0950  -39.7170   -7.5310 C   0  0  0  0  0
  -20.8020  -39.1100   -8.7470 C   0  0  0  0  0
  -19.4790  -38.9830   -9.1580 C   0  0  0  0  0
  -15.3870  -40.4380   -7.3950 C   0  0  0  0  0
  -16.9540  -39.2770   -8.8030 C   0  0  0  0  0
  -18.4010  -39.4620   -8.3450 C   0  0  0  0  0
  -16.5960  -40.4400   -9.7840 C   0  0  0  0  0
  -16.4590  -41.7710   -9.0750 C   0  0  0  0  0
  -16.8330  -37.8580   -9.3290 C   0  0  0  0  0
  -16.0250  -39.3270   -7.6950 N   0  0  0  0  0
  -15.4100  -41.5630   -8.1170 O   0  0  0  0  0
  -14.5860  -40.4690   -6.3070 N   0  0  0  0  0
  -15.4500  -37.6410   -9.5670 F   0  0  0  0  0
  -17.5010  -40.6190  -10.7730 F   0  0  0  0  0
  -15.4510  -40.2430  -10.4920 F   0  0  0  0  0
  -18.7080  -40.0390   -7.1600 C   0  0  0  0  0
  -20.0530  -40.1940   -6.7550 C   0  0  0  0  0
  -19.1930  -38.3960  -10.3510 F   0  0  0  0  0
  -21.2870  -42.0620   -3.8150 C   0  0  0  0  0
  -20.1570  -41.8240   -3.1200 N   0  0  0  0  0
  -19.8530  -42.4650   -1.9910 C   0  0  0  0  0
  -20.7990  -43.3760   -1.4970 C   0  0  0  0  0
  -20.4210  -44.5580    0.7010 N   0  0  0  0  0
  -23.1075  -43.1882   -4.0044 H   0  0  0  0  0
  -22.7135  -44.4271   -1.8649 H   0  0  0  0  0
  -19.4464  -40.9680   -4.9486 H   0  0  0  0  0
  -22.1271  -39.8155   -7.1947 H   0  0  0  0  0
  -21.6078  -38.7341   -9.3775 H   0  0  0  0  0
  -16.2251  -42.5799   -9.7671 H   0  0  0  0  0
  -17.3907  -42.0781   -8.5998 H   0  0  0  0  0
  -17.2263  -37.1378   -8.6115 H   0  0  0  0  0
  -17.4145  -37.7260  -10.2414 H   0  0  0  0  0
  -15.8621  -38.4882   -7.1379 H   0  0  0  0  0
  -14.4806  -39.6363   -5.7274 H   0  0  0  0  0
  -17.9069  -40.3890   -6.5090 H   0  0  0  0  0
  -18.9098  -42.2888   -1.4739 H   0  0  0  0  0
  1  3  4  0  0  0
 25  1  4  0  0  0
 28  2  1  0  0  0
  2 29  3  0  0  0
  3 28  4  0  0  0
  5  4  2  0  0  0
  6  5  1  0  0  0
  5 25  1  0  0  0
 23  6  1  0  0  0
  8  7  4  0  0  0
  7 23  4  0  0  0
  9  8  4  0  0  0
 12  9  4  0  0  0
  9 24  1  0  0  0
 16 10  1  0  0  0
 10 17  1  0  0  0
 10 18  2  0  0  0
 11 12  1  0  0  0
 11 13  1  0  0  0
 11 15  1  0  0  0
 11 16  1  0  0  0
 12 22  4  0  0  0
 13 14  1  0  0  0
 13 20  1  0  0  0
 13 21  1  0  0  0
 14 17  1  0  0  0
 15 19  1  0  0  0
 22 23  4  0  0  0
 25 26  4  0  0  0
 26 27  4  0  0  0
 27 28  4  0  0  0
  1 30  1  0  0  0
  3 31  1  0  0  0
  6 32  1  0  0  0
  7 33  1  0  0  0
  8 34  1  0  0  0
 14 35  1  0  0  0
 14 36  1  0  0  0
 15 37  1  0  0  0
 15 38  1  0  0  0
 16 39  1  0  0  0
 18 40  1  0  0  0
 22 41  1  0  0  0
 27 42  1  0  0  0
M  END
$$$$
