4cq0_ligand
  -I-interpret- 

 19 20  0  0  0  0  0  0  0  0999 V2000
   17.0860    0.3810   14.0750 O   0  0  0  0  0
   16.4770    0.9320   14.9510 C   0  0  0  0  0
   15.6840    0.3210   15.9070 N   0  0  0  0  0
   16.3740    2.4240   14.8420 C   0  0  0  0  0
   16.9260    3.2980   13.9490 C   0  0  0  0  0
   16.5510    4.6130   14.1110 C   0  0  0  0  0
   15.5900    4.9280   15.0640 C   0  0  0  0  0
   15.2730    6.2500   15.1350 N   0  0  0  0  0
   15.0680    4.0660   15.9710 C   0  0  0  0  0
   15.5360    2.8380   15.7790 C   0  0  0  0  0
   15.0330    1.5260   16.7590 S   0  0  0  0  0
   13.5590    1.5330   16.7510 O   0  0  0  0  0
   15.6620    1.6150   18.0640 O   0  0  0  0  0
   15.5415   -0.6797   16.0438 H   0  0  0  0  0
   17.6130    2.9779   13.1656 H   0  0  0  0  0
   17.0015    5.3956   13.5005 H   0  0  0  0  0
   15.7320    6.9185   14.5162 H   0  0  0  0  0
   14.5765    6.5721   15.8070 H   0  0  0  0  0
   14.3601    4.3433   16.7520 H   0  0  0  0  0
  1  2  2  0  0  0
  2  3  1  0  0  0
  2  4  1  0  0  0
  3 11  1  0  0  0
  4  5  4  0  0  0
  4 10  4  0  0  0
  5  6  4  0  0  0
  6  7  4  0  0  0
  7  8  1  0  0  0
  7  9  4  0  0  0
  9 10  4  0  0  0
 10 11  1  0  0  0
 11 12  2  0  0  0
 11 13  2  0  0  0
  3 14  1  0  0  0
  5 15  1  0  0  0
  6 16  1  0  0  0
  8 17  1  0  0  0
  8 18  1  0  0  0
  9 19  1  0  0  0
M  END
$$$$
