5b0x_ligand
  -I-interpret- 

 39 41  0  0  0  0  0  0  0  0999 V2000
  -12.0580    5.0720   14.2320 C   0  0  0  0  0
  -12.6500    5.4010   12.9970 C   0  0  0  0  0
  -13.1660    4.4110   12.1320 C   0  0  0  0  0
  -13.0550    3.0610   12.4840 C   0  0  0  0  0
  -12.4190    2.7300   13.7010 C   0  0  0  0  0
  -11.9430    3.7270   14.5800 C   0  0  0  0  0
  -12.7540    6.7270   12.6020 C   0  0  0  0  0
  -12.3620    7.8320   13.3870 C   0  0  0  0  0
  -12.5690    9.0100   12.7100 N   0  0  0  0  0
  -13.0940    8.8250   11.4540 C   0  0  0  0  0
  -13.3530    7.1660   11.0890 S   0  0  0  0  0
  -12.2590    1.3240   14.0850 C   0  0  0  0  0
  -11.4420    1.0600   14.9670 O   0  0  0  0  0
  -12.8990    0.4490   13.4970 O   0  0  0  0  0
  -13.3860    9.9220   10.5160 N   0  0  0  0  0
  -13.7260    9.6530    9.2330 C   0  0  0  0  0
  -13.6530   10.7870    8.2920 C   0  0  0  0  0
  -14.0460    8.5220    8.8880 O   0  0  0  0  0
  -13.6730   10.5090    6.9050 C   0  0  0  0  0
  -13.5940   11.5650    5.9810 C   0  0  0  0  0
  -13.4870   12.8970    6.4480 C   0  0  0  0  0
  -13.4950   13.1750    7.8330 C   0  0  0  0  0
  -13.5750   12.1190    8.7580 C   0  0  0  0  0
  -13.3940   13.9990    5.5940 O   0  0  0  0  0
  -13.4150   13.7560    4.1870 C   0  0  0  0  0
  -11.6973    5.8528   14.9016 H   0  0  0  0  0
  -13.6474    4.6964   11.1966 H   0  0  0  0  0
  -13.4509    2.2816   11.8329 H   0  0  0  0  0
  -11.4864    3.4456   15.5289 H   0  0  0  0  0
  -11.9507    7.7610   14.3939 H   0  0  0  0  0
  -13.4786    0.8581   12.8502 H   0  0  0  0  0
  -13.3319   10.8896   10.8343 H   0  0  0  0  0
  -13.7494    9.4798    6.5544 H   0  0  0  0  0
  -13.6150   11.3595    4.9108 H   0  0  0  0  0
  -13.4393   14.2055    8.1837 H   0  0  0  0  0
  -13.5768   12.3265    9.8281 H   0  0  0  0  0
  -12.5758   13.1146    3.9178 H   0  0  0  0  0
  -14.3502   13.2648    3.9183 H   0  0  0  0  0
  -13.3350   14.7038    3.6547 H   0  0  0  0  0
  1  2  4  0  0  0
  1  6  4  0  0  0
  2  3  4  0  0  0
  2  7  1  0  0  0
  3  4  4  0  0  0
  4  5  4  0  0  0
  5  6  4  0  0  0
  5 12  1  0  0  0
  7  8  4  0  0  0
  7 11  4  0  0  0
  8  9  4  0  0  0
  9 10  4  0  0  0
 10 11  4  0  0  0
 10 15  1  0  0  0
 12 13  2  0  0  0
 12 14  1  0  0  0
 15 16  1  0  0  0
 16 17  1  0  0  0
 16 18  2  0  0  0
 17 19  4  0  0  0
 17 23  4  0  0  0
 19 20  4  0  0  0
 20 21  4  0  0  0
 21 22  4  0  0  0
 21 24  1  0  0  0
 22 23  4  0  0  0
 24 25  1  0  0  0
  1 26  1  0  0  0
  3 27  1  0  0  0
  4 28  1  0  0  0
  6 29  1  0  0  0
  8 30  1  0  0  0
 14 31  1  0  0  0
 15 32  1  0  0  0
 19 33  1  0  0  0
 20 34  1  0  0  0
 22 35  1  0  0  0
 23 36  1  0  0  0
 25 37  1  0  0  0
 25 38  1  0  0  0
 25 39  1  0  0  0
M  END
$$$$
