3h2o_ligand
  -I-interpret- 

 37 39  0  0  0  0  0  0  0  0999 V2000
  -82.9760   95.4260   94.3410 O   0  0  0  0  0
  -82.7060   94.8080   95.4130 C   0  0  0  0  0
  -83.4110   94.8740   96.4430 O   0  0  0  0  0
  -81.5120   93.9070   95.4640 C   0  0  0  0  0
  -81.1900   93.2080   96.6260 C   0  0  0  0  0
  -80.0860   92.3640   96.6170 C   0  0  0  0  0
  -80.7200   93.7750   94.3310 C   0  0  0  0  0
  -79.6190   92.9410   94.3180 C   0  0  0  0  0
  -79.3110   92.2390   95.4580 C   0  0  0  0  0
  -78.2250   91.4520   95.4110 N   0  0  0  0  0
  -78.2000   90.1920   96.1360 C   0  0  0  0  0
  -79.4190   89.3320   95.8930 C   0  0  0  0  0
  -79.0020   88.2220   95.0070 C   0  0  0  0  0
  -77.7640   87.4290   95.3280 C   0  0  0  0  0
  -77.5000   86.3650   94.3420 N   0  0  0  0  0
  -78.2950   86.1330   93.2830 C   0  0  0  0  0
  -78.0180   85.1600   92.3790 N   0  0  0  0  0
  -78.8700   84.9680   91.3110 C   0  0  0  0  0
  -78.5920   83.9840   90.4280 N   0  0  0  0  0
  -79.9970   85.7060   91.0700 N   0  0  0  0  0
  -80.3680   86.7180   91.8650 C   0  0  0  0  0
  -81.4010   87.3690   91.6120 O   0  0  0  0  0
  -79.5110   86.9970   93.0550 C   0  0  0  0  0
  -79.7920   87.9910   93.9320 N   0  0  0  0  0
  -82.3041   95.2322   93.6833 H   0  0  0  0  0
  -81.7938   93.3214   97.5264 H   0  0  0  0  0
  -79.8237   91.7997   97.5119 H   0  0  0  0  0
  -80.9722   94.3408   93.4341 H   0  0  0  0  0
  -79.0070   92.8419   93.4215 H   0  0  0  0  0
  -77.4133   91.7391   94.8641 H   0  0  0  0  0
  -78.1717   90.4269   97.2000 H   0  0  0  0  0
  -77.3305   89.6327   95.7908 H   0  0  0  0  0
  -80.2141   89.9155   95.4290 H   0  0  0  0  0
  -79.8100   88.9457   96.8342 H   0  0  0  0  0
  -77.1315   87.6203   96.1948 H   0  0  0  0  0
  -77.1885   84.5765   92.4878 H   0  0  0  0  0
  -79.2095   83.8235   89.6322 H   0  0  0  0  0
  1  2  1  0  0  0
  2  3  2  0  0  0
  2  4  1  0  0  0
  4  5  4  0  0  0
  4  7  4  0  0  0
  5  6  4  0  0  0
  6  9  4  0  0  0
  7  8  4  0  0  0
  8  9  4  0  0  0
  9 10  1  0  0  0
 10 11  1  0  0  0
 11 12  1  0  0  0
 12 13  1  0  0  0
 13 14  4  0  0  0
 13 24  4  0  0  0
 14 15  4  0  0  0
 15 16  4  0  0  0
 16 17  1  0  0  0
 16 23  4  0  0  0
 17 18  1  0  0  0
 18 19  2  0  0  0
 18 20  4  0  0  0
 20 21  1  0  0  0
 21 22  2  0  0  0
 21 23  1  0  0  0
 23 24  4  0  0  0
  1 25  1  0  0  0
  5 26  1  0  0  0
  6 27  1  0  0  0
  7 28  1  0  0  0
  8 29  1  0  0  0
 10 30  1  0  0  0
 11 31  1  0  0  0
 11 32  1  0  0  0
 12 33  1  0  0  0
 12 34  1  0  0  0
 14 35  1  0  0  0
 17 36  1  0  0  0
 19 37  1  0  0  0
M  END
$$$$
