6o9d_ligand
  -I-interpret- 

 54 58  0  0  0  0  0  0  0  0999 V2000
   19.7640    9.7360   42.3200 C   0  0  0  0  0
   20.5630    3.2440   41.2790 C   0  0  0  0  0
   20.2740    8.5330   41.8990 C   0  0  0  0  0
   19.8650    7.3490   42.5480 C   0  0  0  0  0
   19.0120    7.4010   43.6270 C   0  0  0  0  0
   18.5010    8.6380   44.0790 C   0  0  0  0  0
   17.2270    9.8250   45.6010 C   0  0  0  0  0
   19.2620    5.4260   41.1740 C   0  0  0  0  0
   19.8570    4.2620   40.3820 C   0  0  0  0  0
   18.8670    9.8250   43.4100 C   0  0  0  0  0
   17.5260   11.0430   44.9880 C   0  0  0  0  0
   18.3460   11.0430   43.8970 C   0  0  0  0  0
   17.6770    8.6490   45.1840 N   0  0  0  0  0
   20.2790    6.0890   42.0000 N   0  0  0  0  0
   21.5520    3.9650   42.1980 C   0  0  0  0  0
   20.9320    5.1580   42.9300 C   0  0  0  0  0
   21.2710    2.1910   40.4430 C   0  0  0  0  0
   20.2700    1.3110   39.8010 N   0  3  0  0  0
   21.2360    8.4670   40.8600 N   0  0  0  0  0
   21.7040    9.4720   40.0290 C   0  0  0  0  0
   21.4850   10.6700   40.2010 O   0  0  0  0  0
   22.5470    9.0270   38.8780 C   0  0  0  0  0
   23.0150    9.7890   37.8010 C   0  0  0  0  0
   23.6170    9.0260   36.8140 N   0  0  0  0  0
   23.5760    7.7490   37.3370 N   0  0  0  0  0
   22.9670    7.7190   38.5870 C   0  0  0  0  0
   22.8540    6.5940   39.3070 N   0  0  0  0  0
   23.3280    5.4650   38.7440 C   0  0  0  0  0
   23.9220    5.4120   37.4920 C   0  0  0  0  0
   24.0460    6.5970   36.7980 C   0  0  0  0  0
   20.0584   10.6476   41.8000 H   0  0  0  0  0
   19.8187    2.7364   41.8925 H   0  0  0  0  0
   18.7285    6.4802   44.1368 H   0  0  0  0  0
   16.5818    9.8414   46.4794 H   0  0  0  0  0
   18.4842    5.0357   41.8304 H   0  0  0  0  0
   18.8605    6.1542   40.4693 H   0  0  0  0  0
   19.0412    3.7511   39.8706 H   0  0  0  0  0
   20.5940    4.6683   39.6893 H   0  0  0  0  0
   17.1129   11.9753   45.3730 H   0  0  0  0  0
   18.5979   11.9814   43.4029 H   0  0  0  0  0
   22.3649    4.3430   41.5780 H   0  0  0  0  0
   21.8849    3.2510   42.9513 H   0  0  0  0  0
   20.1795    4.7815   43.6228 H   0  0  0  0  0
   21.7276    5.6931   43.4484 H   0  0  0  0  0
   21.9188    1.5943   41.0852 H   0  0  0  0  0
   21.8686    2.6808   39.6742 H   0  0  0  0  0
   20.7486    0.6056   39.2408 H   0  0  0  0  0
   19.7103    0.8533   40.5204 H   0  0  0  0  0
   19.6633    1.8695   39.2006 H   0  0  0  0  0
   21.6430    7.5453   40.7010 H   0  0  0  0  0
   22.9157   10.8730   37.7448 H   0  0  0  0  0
   23.2390    4.5362   39.3075 H   0  0  0  0  0
   24.2770    4.4705   37.0730 H   0  0  0  0  0
   24.5213    6.6077   35.8172 H   0  0  0  0  0
  3  1  4  0  0  0
  1 10  4  0  0  0
  9  2  1  0  0  0
  2 15  1  0  0  0
  2 17  1  0  0  0
  4  3  4  0  0  0
  3 19  1  0  0  0
  4  5  4  0  0  0
 14  4  1  0  0  0
  5  6  4  0  0  0
  6 10  4  0  0  0
  6 13  4  0  0  0
  7 11  4  0  0  0
 13  7  4  0  0  0
  8  9  1  0  0  0
  8 14  1  0  0  0
 10 12  4  0  0  0
 11 12  4  0  0  0
 14 16  1  0  0  0
 15 16  1  0  0  0
 17 18  1  0  0  0
 19 20  1  0  0  0
 20 21  2  0  0  0
 20 22  1  0  0  0
 22 23  4  0  0  0
 22 26  4  0  0  0
 23 24  4  0  0  0
 24 25  4  0  0  0
 25 26  4  0  0  0
 25 30  4  0  0  0
 26 27  4  0  0  0
 27 28  4  0  0  0
 28 29  4  0  0  0
 29 30  4  0  0  0
  1 31  1  0  0  0
  2 32  1  0  0  0
  5 33  1  0  0  0
  7 34  1  0  0  0
  8 35  1  0  0  0
  8 36  1  0  0  0
  9 37  1  0  0  0
  9 38  1  0  0  0
 11 39  1  0  0  0
 12 40  1  0  0  0
 15 41  1  0  0  0
 15 42  1  0  0  0
 16 43  1  0  0  0
 16 44  1  0  0  0
 17 45  1  0  0  0
 17 46  1  0  0  0
 18 47  1  0  0  0
 18 48  1  0  0  0
 18 49  1  0  0  0
 19 50  1  0  0  0
 23 51  1  0  0  0
 28 52  1  0  0  0
 29 53  1  0  0  0
 30 54  1  0  0  0
M  END
$$$$
