3ip8_ligand
  -I-interpret- 

 20 20  0  0  0  0  0  0  0  0999 V2000
    1.4810   15.7610   19.4690 C   0  0  0  0  0
    2.0600   17.0600   19.4200 C   0  0  0  0  0
    2.3970   17.6150   18.2070 C   0  0  0  0  0
    2.1920   16.8670   16.9480 C   0  0  0  0  0
    1.6410   15.5990   16.9900 C   0  0  0  0  0
    1.2860   15.0370   18.2580 C   0  0  0  0  0
    0.7670   13.6200   18.4430 C   0  0  0  0  0
    0.3850   12.6180   16.9520 P   0  0  0  0  0
    1.6670   12.3680   16.0440 O   0  0  0  0  0
   -0.3050   11.2250   17.3730 O   0  0  0  0  0
   -0.6310   13.3770   16.1710 O   0  0  0  0  0
    1.1895   15.3242   20.4242 H   0  0  0  0  0
    2.2362   17.6143   20.3418 H   0  0  0  0  0
    2.8205   18.6188   18.1736 H   0  0  0  0  0
    2.4732   17.3118   15.9934 H   0  0  0  0  0
    1.4794   15.0357   16.0709 H   0  0  0  0  0
   -0.1860   13.7329   18.9599 H   0  0  0  0  0
    1.5746   13.0859   18.9436 H   0  0  0  0  0
    2.3229   11.8788   16.5461 H   0  0  0  0  0
    0.3185   10.7011   17.8813 H   0  0  0  0  0
  1  2  4  0  0  0
  1  6  4  0  0  0
  2  3  4  0  0  0
  3  4  4  0  0  0
  4  5  4  0  0  0
  5  6  4  0  0  0
  6  7  1  0  0  0
  7  8  1  0  0  0
  8  9  1  0  0  0
  8 10  1  0  0  0
  8 11  2  0  0  0
  1 12  1  0  0  0
  2 13  1  0  0  0
  3 14  1  0  0  0
  4 15  1  0  0  0
  5 16  1  0  0  0
  7 17  1  0  0  0
  7 18  1  0  0  0
  9 19  1  0  0  0
 10 20  1  0  0  0
M  END
$$$$
