1nhz_ligand
  -I-interpret- 

 67 71  0  0  0  0  0  0  0  0999 V2000
   -4.5830   18.2170    3.5200 O   0  0  0  0  0
   -3.9930   17.1990    3.7130 C   0  0  0  0  0
   -4.7010   15.8380    4.0870 C   0  0  0  0  0
   -2.5020   17.0820    3.5340 C   0  0  0  0  0
   -1.9970   15.8560    3.2290 C   0  0  0  0  0
   -0.4390   15.7460    3.1050 C   0  0  0  0  0
   -2.9360   14.7010    3.1750 C   0  0  0  0  0
   -4.4750   15.0660    2.8400 C   0  0  0  0  0
   -2.4120   13.4380    3.4880 C   0  0  0  0  0
   -3.2390   12.0070    3.5310 C   0  0  0  0  0
   -3.1910   11.4060    2.0710 C   0  0  0  0  0
   -2.3340   12.0250    1.0580 C   0  0  0  0  0
   -2.1730   11.5110   -0.2110 C   0  0  0  0  0
   -2.8350   10.2880   -0.5950 C   0  0  0  0  0
   -2.7790    9.7150   -1.9260 N   0  0  0  0  0
   -3.5420    8.4900   -2.1770 C   0  0  0  0  0
   -2.3710   10.5100   -3.1140 C   0  0  0  0  0
   -3.7120    9.6570    0.4180 C   0  0  0  0  0
   -3.8620   10.1890    1.7210 C   0  0  0  0  0
   -2.6460   11.0540    4.5960 C   0  0  0  0  0
   -1.1360   11.0380    5.0070 C   0  0  0  0  0
   -0.4170   10.1100    3.8580 C   0  0  0  0  0
   -0.8530   10.3480    6.3800 C   0  0  0  0  0
   -1.5870   10.8820    7.5980 C   0  0  0  0  0
   -2.4850   11.0420    8.3910 C   0  0  0  0  0
   -3.1640   11.4480    9.6560 C   0  0  0  0  0
   -0.9200    8.8980    6.3080 O   0  0  0  0  0
    0.6230   10.8610    6.4670 C   0  0  0  0  0
    0.6840   12.2590    5.7760 C   0  0  0  0  0
   -0.7620   12.5550    5.1970 C   0  0  0  0  0
   -0.8190   13.3590    3.8950 C   0  0  0  0  0
   -0.0450   14.7230    4.1340 C   0  0  0  0  0
   -5.7502   15.9420    4.3636 H   0  0  0  0  0
   -4.3065   15.3616    4.9845 H   0  0  0  0  0
   -1.8506   17.9489    3.6449 H   0  0  0  0  0
    0.0511   16.7044    3.2763 H   0  0  0  0  0
   -0.1308   15.4527    2.1015 H   0  0  0  0  0
   -4.6706   15.5767    1.8971 H   0  0  0  0  0
   -5.1509   14.2343    2.6411 H   0  0  0  0  0
   -4.2770   12.1557    3.8286 H   0  0  0  0  0
   -1.7971   12.9367    1.3200 H   0  0  0  0  0
   -1.5408   12.0325   -0.9296 H   0  0  0  0  0
   -3.1898    7.7014   -1.5120 H   0  0  0  0  0
   -4.5996    8.6778   -1.9917 H   0  0  0  0  0
   -3.4024    8.1825   -3.2134 H   0  0  0  0  0
   -3.0549   11.3493   -3.2403 H   0  0  0  0  0
   -1.3576   10.8842   -2.9686 H   0  0  0  0  0
   -2.4024    9.8774   -4.0011 H   0  0  0  0  0
   -4.2599    8.7532    0.1513 H   0  0  0  0  0
   -4.4844    9.6759    2.4541 H   0  0  0  0  0
   -2.7838   10.0715    4.1445 H   0  0  0  0  0
   -3.1421   11.3763    5.5115 H   0  0  0  0  0
   -0.8561    9.1124    3.8713 H   0  0  0  0  0
   -0.5705   10.5629    2.8785 H   0  0  0  0  0
    0.6510   10.0410    4.0644 H   0  0  0  0  0
   -2.7195   10.9110   10.4940 H   0  0  0  0  0
   -3.0416   12.5209    9.8044 H   0  0  0  0  0
   -4.2252   11.2077    9.5906 H   0  0  0  0  0
   -0.7391    8.5270    7.1747 H   0  0  0  0  0
    1.2960   10.1631    5.9689 H   0  0  0  0  0
    0.9354   10.9398    7.5083 H   0  0  0  0  0
    1.4265   12.2621    4.9780 H   0  0  0  0  0
    0.9782   13.0288    6.4894 H   0  0  0  0  0
   -1.4057   13.1869    5.8090 H   0  0  0  0  0
   -0.3133   12.9218    3.0341 H   0  0  0  0  0
   -0.2989   15.1031    5.1235 H   0  0  0  0  0
    1.0263   14.5384    4.0547 H   0  0  0  0  0
  1  2  2  0  0  0
  2  3  1  0  0  0
  2  4  1  0  0  0
  3  8  1  0  0  0
  4  5  2  0  0  0
  5  6  1  0  0  0
  5  7  1  0  0  0
  6 32  1  0  0  0
  7  8  1  0  0  0
  7  9  2  0  0  0
  9 10  1  0  0  0
  9 31  1  0  0  0
 10 11  1  0  0  0
 10 20  1  0  0  0
 11 12  4  0  0  0
 11 19  4  0  0  0
 12 13  4  0  0  0
 13 14  4  0  0  0
 14 15  1  0  0  0
 14 18  4  0  0  0
 15 16  1  0  0  0
 15 17  1  0  0  0
 18 19  4  0  0  0
 20 21  1  0  0  0
 21 22  1  0  0  0
 21 23  1  0  0  0
 21 30  1  0  0  0
 23 24  1  0  0  0
 23 27  1  0  0  0
 23 28  1  0  0  0
 24 25  3  0  0  0
 25 26  1  0  0  0
 28 29  1  0  0  0
 29 30  1  0  0  0
 30 31  1  0  0  0
 31 32  1  0  0  0
  3 33  1  0  0  0
  3 34  1  0  0  0
  4 35  1  0  0  0
  6 36  1  0  0  0
  6 37  1  0  0  0
  8 38  1  0  0  0
  8 39  1  0  0  0
 10 40  1  0  0  0
 12 41  1  0  0  0
 13 42  1  0  0  0
 16 43  1  0  0  0
 16 44  1  0  0  0
 16 45  1  0  0  0
 17 46  1  0  0  0
 17 47  1  0  0  0
 17 48  1  0  0  0
 18 49  1  0  0  0
 19 50  1  0  0  0
 20 51  1  0  0  0
 20 52  1  0  0  0
 22 53  1  0  0  0
 22 54  1  0  0  0
 22 55  1  0  0  0
 26 56  1  0  0  0
 26 57  1  0  0  0
 26 58  1  0  0  0
 27 59  1  0  0  0
 28 60  1  0  0  0
 28 61  1  0  0  0
 29 62  1  0  0  0
 29 63  1  0  0  0
 30 64  1  0  0  0
 31 65  1  0  0  0
 32 66  1  0  0  0
 32 67  1  0  0  0
M  END
$$$$
