### 
### Created by X-TOOL on Wed Jan  1 15:39:36 2020
### 

@<TRIPOS>MOLECULE
6gfx_ligand
  259   262     1     0     0
SMALL
GAST_HUCK


@<TRIPOS>ATOM
      1 N          58.9970   38.3260   28.4330 N.4       1 GLU         0.2380
      2 CA         58.4380   39.6850   28.1680 C.3       1 GLU         0.0665
      3 C          57.9120   40.3040   29.4730 C.2       1 GLU         0.2268
      4 O          58.3540   41.3770   29.8490 O.2       1 GLU        -0.3907
      5 CB         57.3420   39.6270   27.0860 C.3       1 GLU         0.0194
      6 CG         56.5410   40.9120   26.8360 C.3       1 GLU         0.0075
      7 CD         57.2920   41.9750   26.0420 C.2       1 GLU         0.0351
      8 OE1        58.5070   42.1680   26.2620 O.co2     1 GLU        -0.5690
      9 OE2        56.6490   42.6380   25.1960 O.co2     1 GLU        -0.5690
     10 N          56.9840   39.6230   30.1480 N.am      1 ALA        -0.2613
     11 CA         56.4100   40.1320   31.4030 C.3       1 ALA         0.1283
     12 C          57.4030   39.9070   32.5360 C.2       1 ALA         0.2036
     13 O          57.8430   38.7790   32.7450 O.2       1 ALA        -0.3944
     14 CB         55.0870   39.4480   31.7080 C.3       1 ALA        -0.0244
     15 N          57.7650   40.9730   33.2590 N.am      1 LEU        -0.2637
     16 CA         58.7710   40.8870   34.3080 C.3       1 LEU         0.1312
     17 C          58.1330   41.2390   35.6590 C.2       1 LEU         0.2039
     18 O          57.7520   42.3800   35.8640 O.2       1 LEU        -0.3944
     19 CB         59.9390   41.8300   34.0020 C.3       1 LEU        -0.0101
     20 CG         60.9160   41.4740   32.8630 C.3       1 LEU        -0.0425
     21 CD1        62.0800   42.4570   32.8530 C.3       1 LEU        -0.0625
     22 CD2        61.4420   40.0530   32.9650 C.3       1 LEU        -0.0625
     23 N          58.0370   40.2660   36.5730 N.am      1 ALA        -0.2640
     24 CA         57.4020   40.4870   37.8800 C.3       1 ALA         0.1284
     25 C          58.4420   40.8570   38.9320 C.2       1 ALA         0.2063
     26 O          59.6380   40.5590   38.7850 O.2       1 ALA        -0.3942
     27 CB         56.6370   39.2500   38.3110 C.3       1 ALA        -0.0244
     28 O          58.9660   39.4700   41.6450 O.2       1 EX8        -0.3943
     29 C          59.5260   40.5670   41.7070 C.2       1 EX8         0.2072
     30 CA         58.8640   41.8090   41.1310 C.3       1 EX8         0.1670
     31 CB         57.9970   42.4700   42.2110 C.3       1 EX8         0.1684
     32 FAG        58.7140   43.3480   42.9010 F         1 EX8        -0.2377
     33 N          57.9750   41.4630   40.0180 N.am      1 EX8        -0.2443
     34 CD1        56.6420   42.1250   40.3210 C.3       1 EX8         0.0657
     35 CG         56.9230   43.1640   41.4010 C.3       1 EX8         0.1109
     36 OD2        57.4060   44.3710   40.8030 O.3       1 EX8        -0.3867
     37 N          60.7270   40.7360   42.2620 N.am      1 TYR        -0.2620
     38 CA         61.3820   39.6470   42.9730 C.3       1 TYR         0.1390
     39 C          62.2820   40.1840   44.0660 C.2       1 TYR         0.2057
     40 O          62.6430   41.3610   44.0770 O.2       1 TYR        -0.3942
     41 CB         62.1540   38.7390   42.0080 C.3       1 TYR         0.0163
     42 CG         63.3040   39.4380   41.3160 C.ar      1 TYR        -0.0493
     43 CD1        63.0830   40.2200   40.1890 C.ar      1 TYR        -0.0685
     44 CD2        64.6070   39.3370   41.8110 C.ar      1 TYR        -0.0685
     45 CE1        64.1240   40.8810   39.5660 C.ar      1 TYR        -0.0398
     46 CE2        65.6590   39.9960   41.1920 C.ar      1 TYR        -0.0398
     47 CZ         65.4090   40.7560   40.0680 C.ar      1 TYR         0.0805
     48 OH         66.4290   41.4230   39.4580 O.3       1 TYR        -0.3376
     49 N          62.6300   39.3060   44.9900 N.am      1 ILE        -0.2633
     50 CA         63.3550   39.6920   46.1900 C.3       1 ILE         0.1337
     51 C          64.7350   39.0690   46.1390 C.2       1 ILE         0.2067
     52 O          64.8420   37.8490   46.1330 O.2       1 ILE        -0.3942
     53 CB         62.6030   39.2100   47.4460 C.3       1 ILE        -0.0037
     54 CG1        61.1730   39.7810   47.4430 C.3       1 ILE        -0.0491
     55 CG2        63.3770   39.5970   48.7010 C.3       1 ILE        -0.0582
     56 CD1        60.2640   39.2130   48.5090 C.3       1 ILE        -0.0648
     57 N          65.7990   39.8980   46.1190 N.am      1 PRO        -0.2498
     58 CA         67.1500   39.3380   46.1000 C.3       1 PRO         0.1338
     59 C          67.4880   38.6280   47.4120 C.2       1 PRO         0.2041
     60 O          66.9720   39.0100   48.4620 O.2       1 PRO        -0.3944
     61 CB         68.0270   40.5790   45.9300 C.3       1 PRO        -0.0104
     62 CG         67.2740   41.6430   46.6620 C.3       1 PRO        -0.0281
     63 CD         65.8260   41.3580   46.3500 C.3       1 PRO         0.0369
     64 N          68.3190   37.5910   47.3440 N.am      1 MET        -0.2637
     65 CA         68.7990   36.9170   48.5460 C.3       1 MET         0.1317
     66 C          69.7040   37.8730   49.3230 C.2       1 MET         0.2040
     67 O          70.8870   38.0290   49.0200 O.2       1 MET        -0.3944
     68 CB         69.5550   35.6260   48.2000 C.3       1 MET        -0.0034
     69 CG         68.6760   34.5320   47.6200 C.3       1 MET        -0.0024
     70 SD         67.4260   33.9340   48.7790 S.3       1 MET        -0.1639
     71 CE         66.6270   32.6760   47.7720 C.3       1 MET        -0.0181
     72 N          69.1010   38.5330   50.2970 N.am      1 ASP        -0.2622
     73 CA         69.7860   39.4380   51.2060 C.3       1 ASP         0.1423
     74 C          69.1400   39.2560   52.5700 C.2       1 ASP         0.2057
     75 O          68.0430   38.7090   52.6740 O.2       1 ASP        -0.3943
     76 CB         69.6120   40.8820   50.7200 C.3       1 ASP         0.0406
     77 CG         70.8420   41.7370   50.9490 C.2       1 ASP         0.0393
     78 OD1        71.6520   41.4320   51.8570 O.co2     1 ASP        -0.5688
     79 OD2        70.9970   42.7250   50.2000 O.co2     1 ASP        -0.5688
     80 N          69.8200   39.6930   53.6180 N.am      1 ASP        -0.2621
     81 CA         69.2190   39.7150   54.9450 C.3       1 ASP         0.1423
     82 C          68.2250   40.8750   55.0490 C.2       1 ASP         0.2057
     83 O          68.4320   41.9350   54.4490 O.2       1 ASP        -0.3943
     84 CB         70.2980   39.8270   56.0380 C.3       1 ASP         0.0406
     85 CG         71.0280   38.5000   56.2790 C.2       1 ASP         0.0393
     86 OD1        70.3370   37.4640   56.3710 O.co2     1 ASP        -0.5688
     87 OD2        72.2780   38.4930   56.4030 O.co2     1 ASP        -0.5688
     88 N          67.1420   40.6480   55.7900 N.am      1 ASP        -0.2621
     89 CA         66.2650   41.7310   56.2390 C.3       1 ASP         0.1423
     90 C          67.0520   42.5270   57.2550 C.2       1 ASP         0.2057
     91 O          68.0570   42.0570   57.7690 O.2       1 ASP        -0.3943
     92 CB         65.0220   41.1970   56.9560 C.3       1 ASP         0.0406
     93 CG         64.0400   40.5080   56.0200 C.2       1 ASP         0.0393
     94 OD1        64.1690   40.6350   54.7870 O.co2     1 ASP        -0.5688
     95 OD2        63.1130   39.8450   56.5340 O.co2     1 ASP        -0.5688
     96 N          66.5860   43.7200   57.5760 N.am      1 PHE        -0.2618
     97 CA         67.2250   44.4700   58.6510 C.3       1 PHE         0.1404
     98 C          66.1970   45.0290   59.5910 C.2       1 PHE         0.2060
     99 O          65.0220   45.1220   59.2480 O.2       1 PHE        -0.3942
    100 CB         68.1240   45.5590   58.1020 C.3       1 PHE         0.0214
    101 CG         67.4770   46.3950   57.0560 C.ar      1 PHE        -0.0386
    102 CD1        67.5880   46.0540   55.7100 C.ar      1 PHE        -0.0601
    103 CD2        66.7400   47.5050   57.4130 C.ar      1 PHE        -0.0601
    104 CE1        66.9820   46.8230   54.7390 C.ar      1 PHE        -0.0686
    105 CE2        66.1310   48.2840   56.4480 C.ar      1 PHE        -0.0686
    106 CZ         66.2550   47.9420   55.1170 C.ar      1 PHE        -0.0687
    107 N          66.6640   45.3720   60.7890 N.am      1 GLN        -0.2634
    108 CA         65.8210   45.8520   61.8630 C.3       1 GLN         0.1330
    109 C          65.6350   47.3540   61.7080 C.2       1 GLN         0.2040
    110 O          66.5830   48.0630   61.3700 O.2       1 GLN        -0.3944
    111 CB         66.4600   45.5730   63.2270 C.3       1 GLN         0.0045
    112 CG         66.5700   44.1040   63.6070 C.3       1 GLN         0.0412
    113 CD         65.2360   43.4830   63.9870 C.2       1 GLN         0.1737
    114 OE1        64.4340   44.0850   64.7060 O.2       1 GLN        -0.3973
    115 NE2        64.9960   42.2650   63.5130 N.am      1 GLN        -0.3009
    116 N          64.4200   47.8170   61.9690 N.am      1 LEU        -0.2637
    117 CA         64.1040   49.2520   62.0300 C.3       1 LEU         0.1312
    118 C          64.1540   49.7570   63.4700 C.2       1 LEU         0.2033
    119 O          64.0420   48.9550   64.4040 O.2       1 LEU        -0.3944
    120 CB         62.7110   49.5170   61.4640 C.3       1 LEU        -0.0101
    121 CG         62.5590   49.6570   59.9450 C.3       1 LEU        -0.0425
    122 CD1        63.5990   48.9280   59.1150 C.3       1 LEU        -0.0625
    123 CD2        61.1480   49.2690   59.5240 C.3       1 LEU        -0.0625
    124 N          64.2730   51.0870   63.6050 N.am      1 ARG        -0.2695
    125 CA         64.4100   51.8370   64.8800 C.3       1 ARG         0.0945
    126 C          65.6870   51.4670   65.6200 C.2       1 ARG         0.0601
    127 O          65.7680   51.6120   66.8390 O.co2     1 ARG        -0.5666
    128 CB         63.1810   51.6800   65.7980 C.3       1 ARG        -0.0148
    129 CG         61.9330   52.4150   65.3340 C.3       1 ARG        -0.0162
    130 CD         60.9310   51.5090   64.6330 C.3       1 ARG         0.0627
    131 NE         60.4940   50.3890   65.4760 N.pl3     1 ARG        -0.2723
    132 CZ         59.4650   49.5820   65.2110 C.cat     1 ARG         0.2882
    133 NH1        58.6950   49.7570   64.1310 N.pl3     1 ARG        -0.2849
    134 NH2        59.1860   48.5960   66.0580 N.pl3     1 ARG        -0.2849
    135 OXT        66.6560   51.0180   65.0090 O.co2     1 ARG        -0.5666
    136 H1         59.3388   37.9295   27.5716 H         1 GLU         0.2015
    137 H2         58.2749   37.7337   28.8123 H         1 GLU         0.2015
    138 H3         59.7547   38.3973   29.0939 H         1 GLU         0.2015
    139 H4         59.2510   40.3232   27.7916 H         1 GLU         0.1099
    140 H5         56.6283   38.8427   27.3783 H         1 GLU         0.0363
    141 H6         57.8257   39.3479   26.1383 H         1 GLU         0.0363
    142 H7         56.2649   41.3410   27.8105 H         1 GLU         0.0434
    143 H8         55.6293   40.6471   26.2804 H         1 GLU         0.0434
    144 H9         56.6704   38.7431   29.7911 H         1 ALA         0.1884
    145 H10        56.2292   41.2119   31.2980 H         1 ALA         0.0797
    146 H11        54.6778   39.8442   32.6491 H         1 ALA         0.0277
    147 H12        55.2485   38.3643   31.8059 H         1 ALA         0.0277
    148 H13        54.3774   39.6406   30.8898 H         1 ALA         0.0277
    149 H14        57.3318   41.8550   33.0734 H         1 LEU         0.1883
    150 H15        59.1524   39.8562   34.3527 H         1 LEU         0.0800
    151 H16        60.5353   41.9121   34.9227 H         1 LEU         0.0315
    152 H17        59.5046   42.8106   33.7578 H         1 LEU         0.0315
    153 H18        60.3734   41.5664   31.9106 H         1 LEU         0.0298
    154 H19        62.7723   42.1972   32.0386 H         1 LEU         0.0232
    155 H20        62.6106   42.4069   33.8153 H         1 LEU         0.0232
    156 H21        61.6976   43.4766   32.6978 H         1 LEU         0.0232
    157 H22        60.5969   39.3488   32.9717 H         1 LEU         0.0232
    158 H23        62.0195   39.9416   33.8946 H         1 LEU         0.0232
    159 H24        62.0905   39.8392   32.1026 H         1 LEU         0.0232
    160 H25        58.4082   39.3621   36.3604 H         1 ALA         0.1883
    161 H26        56.6917   41.3215   37.7845 H         1 ALA         0.0797
    162 H27        56.1683   39.4312   39.2895 H         1 ALA         0.0277
    163 H28        57.3296   38.3989   38.3882 H         1 ALA         0.0277
    164 H29        55.8584   39.0229   37.5679 H         1 ALA         0.0277
    165 H30        59.6391   42.5090   40.7857 H         1 EX8         0.0832
    166 H31        57.5639   41.7233   42.8927 H         1 EX8         0.0728
    167 H32        55.9198   41.3800   40.6864 H         1 EX8         0.0551
    168 H33        56.2428   42.6107   39.4184 H         1 EX8         0.0551
    169 H34        56.0316   43.3776   42.0091 H         1 EX8         0.0645
    170 H35        56.7513   44.7104   40.2041 H         1 EX8         0.2100
    171 H36        61.1838   41.6226   42.1889 H         1 TYR         0.1885
    172 H37        60.5999   39.0386   43.4507 H         1 TYR         0.0821
    173 H38        61.4564   38.3722   41.2407 H         1 TYR         0.0453
    174 H39        62.5551   37.8869   42.5764 H         1 TYR         0.0453
    175 H40        62.0784   40.3129   39.7925 H         1 TYR         0.0530
    176 H41        64.7984   38.7347   42.6917 H         1 TYR         0.0530
    177 H42        63.9366   41.4928   38.6910 H         1 TYR         0.0525
    178 H43        66.6654   39.9148   41.5866 H         1 TYR         0.0525
    179 H44        66.0921   41.8946   38.7053 H         1 TYR         0.2458
    180 H45        62.3869   38.3448   44.8599 H         1 ILE         0.1883
    181 H46        63.4485   40.7875   46.2245 H         1 ILE         0.0803
    182 H47        62.5337   38.1127   47.4134 H         1 ILE         0.0345
    183 H48        60.7225   39.5718   46.4615 H         1 ILE         0.0267
    184 H49        61.2381   40.8689   47.5923 H         1 ILE         0.0267
    185 H50        64.3883   39.1667   48.6553 H         1 ILE         0.0235
    186 H51        62.8539   39.2107   49.5882 H         1 ILE         0.0235
    187 H52        63.4474   40.6929   48.7651 H         1 ILE         0.0235
    188 H53        59.2702   39.6777   48.4291 H         1 ILE         0.0230
    189 H54        60.6879   39.4226   49.5022 H         1 ILE         0.0230
    190 H55        60.1724   38.1255   48.3714 H         1 ILE         0.0230
    191 H56        67.2764   38.6396   45.2596 H         1 PRO         0.0802
    192 H57        68.1396   40.8380   44.8669 H         1 PRO         0.0313
    193 H58        69.0201   40.4226   46.3765 H         1 PRO         0.0313
    194 H59        67.5609   42.6417   46.3010 H         1 PRO         0.0287
    195 H60        67.4595   41.5770   47.7442 H         1 PRO         0.0287
    196 H61        65.1806   41.6333   47.1971 H         1 PRO         0.0524
    197 H62        65.5036   41.9036   45.4509 H         1 PRO         0.0524
    198 H63        68.6217   37.2659   46.4481 H         1 MET         0.1883
    199 H64        67.9341   36.6558   49.1734 H         1 MET         0.0800
    200 H65        70.0234   35.2427   49.1185 H         1 MET         0.0320
    201 H66        70.3356   35.8689   47.4641 H         1 MET         0.0320
    202 H67        69.3164   33.6862   47.3295 H         1 MET         0.0378
    203 H68        68.1660   34.9285   46.7297 H         1 MET         0.0378
    204 H69        65.8188   32.2031   48.3492 H         1 MET         0.0340
    205 H70        67.3657   31.9138   47.4831 H         1 MET         0.0340
    206 H71        66.2078   33.1417   46.8679 H         1 MET         0.0340
    207 H72        68.1167   38.4023   50.4155 H         1 ASP         0.1884
    208 H73        70.8569   39.1919   51.2569 H         1 ASP         0.0819
    209 H74        68.7661   41.3336   51.2590 H         1 ASP         0.0478
    210 H75        69.3929   40.8650   49.6422 H         1 ASP         0.0478
    211 H76        70.7598   40.0127   53.4973 H         1 ASP         0.1884
    212 H77        68.6724   38.7723   55.0948 H         1 ASP         0.0819
    213 H78        69.8184   40.1415   56.9766 H         1 ASP         0.0478
    214 H79        71.0344   40.5842   55.7308 H         1 ASP         0.0478
    215 H80        66.9206   39.7076   56.0481 H         1 ASP         0.1884
    216 H81        65.9687   42.3583   55.3854 H         1 ASP         0.0819
    217 H82        64.5091   42.0403   57.4416 H         1 ASP         0.0478
    218 H83        65.3428   40.4737   57.7201 H         1 ASP         0.0478
    219 H84        65.8032   44.1051   57.0871 H         1 PHE         0.1885
    220 H85        67.8560   43.7714   59.2200 H         1 PHE         0.0823
    221 H86        69.0165   45.0862   57.6662 H         1 PHE         0.0474
    222 H87        68.4247   46.2136   58.9333 H         1 PHE         0.0474
    223 H88        68.1558   45.1763   55.4233 H         1 PHE         0.0557
    224 H89        66.6378   47.7684   58.4595 H         1 PHE         0.0557
    225 H90        67.0728   46.5560   53.6923 H         1 PHE         0.0599
    226 H91        65.5590   49.1590   56.7349 H         1 PHE         0.0599
    227 H92        65.7794   48.5541   54.3592 H         1 PHE         0.0559
    228 H93        67.6470   45.2942   60.9555 H         1 GLN         0.1883
    229 H94        64.8439   45.3496   61.8099 H         1 GLN         0.0801
    230 H95        65.8554   46.0779   63.9948 H         1 GLN         0.0337
    231 H96        67.4742   45.9988   63.2203 H         1 GLN         0.0337
    232 H97        67.2540   44.0147   64.4638 H         1 GLN         0.0504
    233 H98        66.9817   43.5509   62.7499 H         1 GLN         0.0504
    234 H99        64.1348   41.8050   63.7293 H         1 GLN         0.1814
    235 H100       65.6766   41.8084   62.9400 H         1 GLN         0.1814
    236 H101       63.6843   47.1596   62.1320 H         1 LEU         0.1883
    237 H102       64.8455   49.8017   61.4316 H         1 LEU         0.0800
    238 H103       62.3485   50.4524   61.9152 H         1 LEU         0.0315
    239 H104       62.0668   48.6834   61.7804 H         1 LEU         0.0315
    240 H105       62.6830   50.7264   59.7190 H         1 LEU         0.0298
    241 H106       63.3976   49.0942   58.0464 H         1 LEU         0.0232
    242 H107       63.5533   47.8509   59.3335 H         1 LEU         0.0232
    243 H108       64.6001   49.3104   59.3632 H         1 LEU         0.0232
    244 H109       60.4184   49.8125   60.1423 H         1 LEU         0.0232
    245 H110       61.0094   48.1863   59.6600 H         1 LEU         0.0232
    246 H111       60.9968   49.5280   58.4657 H         1 LEU         0.0232
    247 H112       64.2691   51.6270   62.7633 H         1 ARG         0.1875
    248 H113       64.4826   52.9026   64.6171 H         1 ARG         0.0726
    249 H114       63.4493   52.0594   66.7950 H         1 ARG         0.0307
    250 H115       62.9405   50.6088   65.8657 H         1 ARG         0.0307
    251 H116       62.2343   53.2097   64.6357 H         1 ARG         0.0301
    252 H117       61.4446   52.8637   66.2116 H         1 ARG         0.0301
    253 H118       61.3990   51.1035   63.7238 H         1 ARG         0.0689
    254 H119       60.0496   52.1063   64.3566 H         1 ARG         0.0689
    255 H120       61.0242   50.2122   66.3412 H         1 ARG         0.2642
    256 H121       57.9070   49.1185   63.9514 H         1 ARG         0.2615
    257 H122       58.8902   50.5303   63.4792 H         1 ARG         0.2615
    258 H123       59.7724   48.4526   66.8925 H         1 ARG         0.2615
    259 H124       58.3834   47.9755   65.8797 H         1 ARG         0.2615
@<TRIPOS>BOND
     1    2    1 1  
     2    3    2 1  
     3    2    5 1  
     4    3    4 2  
     5   10    3 am 
     6    5    6 1  
     7    6    7 1  
     8    7    8 ar 
     9    7    9 ar 
    10   11   10 1  
    11   12   11 1  
    12   11   14 1  
    13   12   13 2  
    14   15   12 am 
    15   16   15 1  
    16   17   16 1  
    17   16   19 1  
    18   17   18 2  
    19   23   17 am 
    20   19   20 1  
    21   20   21 1  
    22   20   22 1  
    23   24   23 1  
    24   25   24 1  
    25   24   27 1  
    26   25   26 2  
    27   33   25 am 
    28   29   28 2  
    29   30   29 1  
    30   29   37 am 
    31   30   31 1  
    32   30   33 1  
    33   31   32 1  
    34   31   35 1  
    35   33   34 1  
    36   34   35 1  
    37   35   36 1  
    38   37   38 1  
    39   38   39 1  
    40   38   41 1  
    41   39   40 2  
    42   39   49 am 
    43   41   42 1  
    44   42   43 ar 
    45   42   44 ar 
    46   43   45 ar 
    47   44   46 ar 
    48   45   47 ar 
    49   46   47 ar 
    50   47   48 1  
    51   49   50 1  
    52   50   51 1  
    53   50   53 1  
    54   51   52 2  
    55   51   57 am 
    56   53   54 1  
    57   53   55 1  
    58   54   56 1  
    59   57   58 1  
    60   57   63 1  
    61   58   59 1  
    62   58   61 1  
    63   59   60 2  
    64   59   64 am 
    65   61   62 1  
    66   62   63 1  
    67   64   65 1  
    68   65   66 1  
    69   65   68 1  
    70   66   67 2  
    71   66   72 am 
    72   68   69 1  
    73   69   70 1  
    74   70   71 1  
    75   72   73 1  
    76   73   74 1  
    77   73   76 1  
    78   74   75 2  
    79   74   80 am 
    80   76   77 1  
    81   77   78 ar 
    82   77   79 ar 
    83   80   81 1  
    84   81   82 1  
    85   81   84 1  
    86   82   83 2  
    87   82   88 am 
    88   84   85 1  
    89   85   86 ar 
    90   85   87 ar 
    91   88   89 1  
    92   89   90 1  
    93   89   92 1  
    94   90   91 2  
    95   90   96 am 
    96   92   93 1  
    97   93   94 ar 
    98   93   95 ar 
    99   96   97 1  
   100   97   98 1  
   101   97  100 1  
   102   98   99 2  
   103   98  107 am 
   104  100  101 1  
   105  101  102 ar 
   106  101  103 ar 
   107  102  104 ar 
   108  103  105 ar 
   109  104  106 ar 
   110  105  106 ar 
   111  107  108 1  
   112  108  109 1  
   113  108  111 1  
   114  109  110 2  
   115  109  116 am 
   116  111  112 1  
   117  112  113 1  
   118  113  114 2  
   119  113  115 am 
   120  116  117 1  
   121  117  118 1  
   122  117  120 1  
   123  118  119 2  
   124  118  124 am 
   125  120  121 1  
   126  121  122 1  
   127  121  123 1  
   128  124  125 1  
   129  125  126 1  
   130  125  128 1  
   131  126  127 ar 
   132  126  135 ar 
   133  128  129 1  
   134  129  130 1  
   135  130  131 1  
   136  131  132 ar 
   137  132  133 ar 
   138  132  134 ar 
   139    1  136 1  
   140    1  137 1  
   141    1  138 1  
   142    2  139 1  
   143    5  140 1  
   144    5  141 1  
   145    6  142 1  
   146    6  143 1  
   147   10  144 1  
   148   11  145 1  
   149   14  146 1  
   150   14  147 1  
   151   14  148 1  
   152   15  149 1  
   153   16  150 1  
   154   19  151 1  
   155   19  152 1  
   156   20  153 1  
   157   21  154 1  
   158   21  155 1  
   159   21  156 1  
   160   22  157 1  
   161   22  158 1  
   162   22  159 1  
   163   23  160 1  
   164   24  161 1  
   165   27  162 1  
   166   27  163 1  
   167   27  164 1  
   168   30  165 1  
   169   31  166 1  
   170   34  167 1  
   171   34  168 1  
   172   35  169 1  
   173   36  170 1  
   174   37  171 1  
   175   38  172 1  
   176   41  173 1  
   177   41  174 1  
   178   43  175 1  
   179   44  176 1  
   180   45  177 1  
   181   46  178 1  
   182   48  179 1  
   183   49  180 1  
   184   50  181 1  
   185   53  182 1  
   186   54  183 1  
   187   54  184 1  
   188   55  185 1  
   189   55  186 1  
   190   55  187 1  
   191   56  188 1  
   192   56  189 1  
   193   56  190 1  
   194   58  191 1  
   195   61  192 1  
   196   61  193 1  
   197   62  194 1  
   198   62  195 1  
   199   63  196 1  
   200   63  197 1  
   201   64  198 1  
   202   65  199 1  
   203   68  200 1  
   204   68  201 1  
   205   69  202 1  
   206   69  203 1  
   207   71  204 1  
   208   71  205 1  
   209   71  206 1  
   210   72  207 1  
   211   73  208 1  
   212   76  209 1  
   213   76  210 1  
   214   80  211 1  
   215   81  212 1  
   216   84  213 1  
   217   84  214 1  
   218   88  215 1  
   219   89  216 1  
   220   92  217 1  
   221   92  218 1  
   222   96  219 1  
   223   97  220 1  
   224  100  221 1  
   225  100  222 1  
   226  102  223 1  
   227  103  224 1  
   228  104  225 1  
   229  105  226 1  
   230  106  227 1  
   231  107  228 1  
   232  108  229 1  
   233  111  230 1  
   234  111  231 1  
   235  112  232 1  
   236  112  233 1  
   237  115  234 1  
   238  115  235 1  
   239  116  236 1  
   240  117  237 1  
   241  120  238 1  
   242  120  239 1  
   243  121  240 1  
   244  122  241 1  
   245  122  242 1  
   246  122  243 1  
   247  123  244 1  
   248  123  245 1  
   249  123  246 1  
   250  124  247 1  
   251  125  248 1  
   252  128  249 1  
   253  128  250 1  
   254  129  251 1  
   255  129  252 1  
   256  130  253 1  
   257  130  254 1  
   258  131  255 1  
   259  133  256 1  
   260  133  257 1  
   261  134  258 1  
   262  134  259 1  
@<TRIPOS>SUBSTRUCTURE
     1 GLU         1

