6gfx_ligand
  -I-interpret- 

263266  0  0  0  0  0  0  0  0999 V2000
   58.9970   38.3260   28.4330 N   0  3  0  0  0
   58.4380   39.6850   28.1680 C   0  0  0  0  0
   57.9120   40.3040   29.4730 C   0  0  0  0  0
   58.3540   41.3770   29.8490 O   0  0  0  0  0
   57.3420   39.6270   27.0860 C   0  0  0  0  0
   56.5410   40.9120   26.8360 C   0  0  0  0  0
   57.2920   41.9750   26.0420 C   0  0  0  0  0
   58.5070   42.1680   26.2620 O   0  0  0  0  0
   56.6490   42.6380   25.1960 O   0  0  0  0  0
   56.9840   39.6230   30.1480 N   0  0  0  0  0
   56.4100   40.1320   31.4030 C   0  0  0  0  0
   57.4030   39.9070   32.5360 C   0  0  0  0  0
   57.8430   38.7790   32.7450 O   0  0  0  0  0
   55.0870   39.4480   31.7080 C   0  0  0  0  0
   57.7650   40.9730   33.2590 N   0  0  0  0  0
   58.7710   40.8870   34.3080 C   0  0  0  0  0
   58.1330   41.2390   35.6590 C   0  0  0  0  0
   57.7520   42.3800   35.8640 O   0  0  0  0  0
   59.9390   41.8300   34.0020 C   0  0  0  0  0
   60.9160   41.4740   32.8630 C   0  0  0  0  0
   62.0800   42.4570   32.8530 C   0  0  0  0  0
   61.4420   40.0530   32.9650 C   0  0  0  0  0
   58.0370   40.2660   36.5730 N   0  0  0  0  0
   57.4020   40.4870   37.8800 C   0  0  0  0  0
   58.4420   40.8570   38.9320 C   0  0  0  0  0
   59.6380   40.5590   38.7850 O   0  0  0  0  0
   56.6370   39.2500   38.3110 C   0  0  0  0  0
   58.9660   39.4700   41.6450 O   0  0  0  0  0
   59.5260   40.5670   41.7070 C   0  0  0  0  0
   58.8640   41.8090   41.1310 C   0  0  0  0  0
   57.9970   42.4700   42.2110 C   0  0  0  0  0
   58.7140   43.3480   42.9010 F   0  0  0  0  0
   57.9750   41.4630   40.0180 N   0  0  0  0  0
   56.6420   42.1250   40.3210 C   0  0  0  0  0
   56.9230   43.1640   41.4010 C   0  0  0  0  0
   57.4060   44.3710   40.8030 O   0  0  0  0  0
   60.7270   40.7360   42.2620 N   0  0  0  0  0
   61.3820   39.6470   42.9730 C   0  0  0  0  0
   62.2820   40.1840   44.0660 C   0  0  0  0  0
   62.6430   41.3610   44.0770 O   0  0  0  0  0
   62.1540   38.7390   42.0080 C   0  0  0  0  0
   63.3040   39.4380   41.3160 C   0  0  0  0  0
   63.0830   40.2200   40.1890 C   0  0  0  0  0
   64.6070   39.3370   41.8110 C   0  0  0  0  0
   64.1240   40.8810   39.5660 C   0  0  0  0  0
   65.6590   39.9960   41.1920 C   0  0  0  0  0
   65.4090   40.7560   40.0680 C   0  0  0  0  0
   66.4290   41.4230   39.4580 O   0  0  0  0  0
   62.6300   39.3060   44.9900 N   0  0  0  0  0
   63.3550   39.6920   46.1900 C   0  0  0  0  0
   64.7350   39.0690   46.1390 C   0  0  0  0  0
   64.8420   37.8490   46.1330 O   0  0  0  0  0
   62.6030   39.2100   47.4460 C   0  0  0  0  0
   61.1730   39.7810   47.4430 C   0  0  0  0  0
   63.3770   39.5970   48.7010 C   0  0  0  0  0
   60.2640   39.2130   48.5090 C   0  0  0  0  0
   65.7990   39.8980   46.1190 N   0  0  0  0  0
   67.1500   39.3380   46.1000 C   0  0  0  0  0
   67.4880   38.6280   47.4120 C   0  0  0  0  0
   66.9720   39.0100   48.4620 O   0  0  0  0  0
   68.0270   40.5790   45.9300 C   0  0  0  0  0
   67.2740   41.6430   46.6620 C   0  0  0  0  0
   65.8260   41.3580   46.3500 C   0  0  0  0  0
   68.3190   37.5910   47.3440 N   0  0  0  0  0
   68.7990   36.9170   48.5460 C   0  0  0  0  0
   69.7040   37.8730   49.3230 C   0  0  0  0  0
   70.8870   38.0290   49.0200 O   0  0  0  0  0
   69.5550   35.6260   48.2000 C   0  0  0  0  0
   68.6760   34.5320   47.6200 C   0  0  0  0  0
   67.4260   33.9340   48.7790 S   0  0  0  0  0
   66.6270   32.6760   47.7720 C   0  0  0  0  0
   69.1010   38.5330   50.2970 N   0  0  0  0  0
   69.7860   39.4380   51.2060 C   0  0  0  0  0
   69.1400   39.2560   52.5700 C   0  0  0  0  0
   68.0430   38.7090   52.6740 O   0  0  0  0  0
   69.6120   40.8820   50.7200 C   0  0  0  0  0
   70.8420   41.7370   50.9490 C   0  0  0  0  0
   71.6520   41.4320   51.8570 O   0  0  0  0  0
   70.9970   42.7250   50.2000 O   0  0  0  0  0
   69.8200   39.6930   53.6180 N   0  0  0  0  0
   69.2190   39.7150   54.9450 C   0  0  0  0  0
   68.2250   40.8750   55.0490 C   0  0  0  0  0
   68.4320   41.9350   54.4490 O   0  0  0  0  0
   70.2980   39.8270   56.0380 C   0  0  0  0  0
   71.0280   38.5000   56.2790 C   0  0  0  0  0
   70.3370   37.4640   56.3710 O   0  0  0  0  0
   72.2780   38.4930   56.4030 O   0  0  0  0  0
   67.1420   40.6480   55.7900 N   0  0  0  0  0
   66.2650   41.7310   56.2390 C   0  0  0  0  0
   67.0520   42.5270   57.2550 C   0  0  0  0  0
   68.0570   42.0570   57.7690 O   0  0  0  0  0
   65.0220   41.1970   56.9560 C   0  0  0  0  0
   64.0400   40.5080   56.0200 C   0  0  0  0  0
   64.1690   40.6350   54.7870 O   0  0  0  0  0
   63.1130   39.8450   56.5340 O   0  0  0  0  0
   66.5860   43.7200   57.5760 N   0  0  0  0  0
   67.2250   44.4700   58.6510 C   0  0  0  0  0
   66.1970   45.0290   59.5910 C   0  0  0  0  0
   65.0220   45.1220   59.2480 O   0  0  0  0  0
   68.1240   45.5590   58.1020 C   0  0  0  0  0
   67.4770   46.3950   57.0560 C   0  0  0  0  0
   67.5880   46.0540   55.7100 C   0  0  0  0  0
   66.7400   47.5050   57.4130 C   0  0  0  0  0
   66.9820   46.8230   54.7390 C   0  0  0  0  0
   66.1310   48.2840   56.4480 C   0  0  0  0  0
   66.2550   47.9420   55.1170 C   0  0  0  0  0
   66.6640   45.3720   60.7890 N   0  0  0  0  0
   65.8210   45.8520   61.8630 C   0  0  0  0  0
   65.6350   47.3540   61.7080 C   0  0  0  0  0
   66.5830   48.0630   61.3700 O   0  0  0  0  0
   66.4600   45.5730   63.2270 C   0  0  0  0  0
   66.5700   44.1040   63.6070 C   0  0  0  0  0
   65.2360   43.4830   63.9870 C   0  0  0  0  0
   64.4340   44.0850   64.7060 O   0  0  0  0  0
   64.9960   42.2650   63.5130 N   0  0  0  0  0
   64.4200   47.8170   61.9690 N   0  0  0  0  0
   64.1040   49.2520   62.0300 C   0  0  0  0  0
   64.1540   49.7570   63.4700 C   0  0  0  0  0
   64.0420   48.9550   64.4040 O   0  0  0  0  0
   62.7110   49.5170   61.4640 C   0  0  0  0  0
   62.5590   49.6570   59.9450 C   0  0  0  0  0
   63.5990   48.9280   59.1150 C   0  0  0  0  0
   61.1480   49.2690   59.5240 C   0  0  0  0  0
   64.2730   51.0870   63.6050 N   0  0  0  0  0
   64.4100   51.8370   64.8800 C   0  0  0  0  0
   65.6870   51.4670   65.6200 C   0  0  0  0  0
   65.7680   51.6120   66.8390 O   0  0  0  0  0
   63.1810   51.6800   65.7980 C   0  0  0  0  0
   61.9330   52.4150   65.3340 C   0  0  0  0  0
   60.9310   51.5090   64.6330 C   0  0  0  0  0
   60.4940   50.3890   65.4760 N   0  0  0  0  0
   59.4650   49.5820   65.2110 C   0  0  0  0  0
   58.6950   49.7570   64.1310 N   0  0  0  0  0
   59.1860   48.5960   66.0580 N   0  0  0  0  0
   66.6560   51.0180   65.0090 O   0  0  0  0  0
   59.7187   38.3906   29.1509 H   0  0  0  0  0
   58.2506   37.7093   28.7540 H   0  0  0  0  0
   59.4022   37.9530   27.5745 H   0  0  0  0  0
   59.2345   40.3244   27.7875 H   0  0  0  0  0
   56.6193   38.8888   27.4337 H   0  0  0  0  0
   57.8584   39.4115   26.1506 H   0  0  0  0  0
   56.3121   41.3421   27.8111 H   0  0  0  0  0
   55.6641   40.6346   26.2510 H   0  0  0  0  0
   55.7377   42.3366   25.1804 H   0  0  0  0  0
   56.6641   38.7255   29.7840 H   0  0  0  0  0
   56.2156   41.1995   31.2998 H   0  0  0  0  0
   54.3848   39.6396   30.8966 H   0  0  0  0  0
   55.2483   38.3743   31.8047 H   0  0  0  0  0
   54.6826   39.8414   32.6406 H   0  0  0  0  0
   57.3231   41.8726   33.0697 H   0  0  0  0  0
   59.1586   39.8692   34.3531 H   0  0  0  0  0
   60.5488   41.8209   34.9054 H   0  0  0  0  0
   59.4697   42.7616   33.6858 H   0  0  0  0  0
   60.3586   41.5438   31.9289 H   0  0  0  0  0
   61.6997   43.4669   32.6992 H   0  0  0  0  0
   62.6048   42.4064   33.8070 H   0  0  0  0  0
   62.7653   42.1985   32.0457 H   0  0  0  0  0
   61.9708   39.9296   33.9101 H   0  0  0  0  0
   60.6070   39.3538   32.9204 H   0  0  0  0  0
   62.1244   39.8593   32.1374 H   0  0  0  0  0
   58.4156   39.3440   36.3562 H   0  0  0  0  0
   56.7022   41.3170   37.7827 H   0  0  0  0  0
   55.8659   39.0261   37.5739 H   0  0  0  0  0
   57.3243   38.4074   38.3871 H   0  0  0  0  0
   56.1730   39.4308   39.2806 H   0  0  0  0  0
   59.6533   42.4760   40.7844 H   0  0  0  0  0
   57.5945   41.7689   42.9422 H   0  0  0  0  0
   55.9067   41.3945   40.6584 H   0  0  0  0  0
   56.2198   42.5878   39.4290 H   0  0  0  0  0
   56.0579   43.4612   41.9937 H   0  0  0  0  0
   56.6998   44.7820   40.2991 H   0  0  0  0  0
   61.1930   41.6403   42.1874 H   0  0  0  0  0
   60.6100   39.0389   43.4445 H   0  0  0  0  0
   61.4570   38.4107   41.2369 H   0  0  0  0  0
   62.5714   37.9184   42.5916 H   0  0  0  0  0
   62.0729   40.3134   39.7903 H   0  0  0  0  0
   64.7995   38.7314   42.6966 H   0  0  0  0  0
   63.9356   41.4962   38.6861 H   0  0  0  0  0
   66.6709   39.9144   41.5888 H   0  0  0  0  0
   67.2511   41.2377   39.9177 H   0  0  0  0  0
   62.3820   38.3255   44.8573 H   0  0  0  0  0
   63.4379   40.7778   46.2382 H   0  0  0  0  0
   62.5253   38.1228   47.4386 H   0  0  0  0  0
   60.7312   39.5252   46.4799 H   0  0  0  0  0
   61.2580   40.8505   47.6353 H   0  0  0  0  0
   64.3638   39.1347   48.6748 H   0  0  0  0  0
   63.4832   40.6811   48.7410 H   0  0  0  0  0
   62.8355   39.2510   49.5814 H   0  0  0  0  0
   60.1741   38.1354   48.3716 H   0  0  0  0  0
   60.6852   39.4213   49.4925 H   0  0  0  0  0
   59.2796   39.6742   48.4288 H   0  0  0  0  0
   67.2826   38.5881   45.3201 H   0  0  0  0  0
   68.1944   40.8315   44.8829 H   0  0  0  0  0
   69.0338   40.4354   46.3222 H   0  0  0  0  0
   67.5713   42.6441   46.3499 H   0  0  0  0  0
   67.4741   41.6236   47.7333 H   0  0  0  0  0
   65.1586   41.6643   47.1556 H   0  0  0  0  0
   65.4669   41.9222   45.4893 H   0  0  0  0  0
   68.6278   37.2594   46.4302 H   0  0  0  0  0
   67.9423   36.6374   49.1592 H   0  0  0  0  0
   69.9799   35.2417   49.1273 H   0  0  0  0  0
   70.2977   35.8791   47.4434 H   0  0  0  0  0
   69.3205   33.6904   47.3660 H   0  0  0  0  0
   68.1548   34.9491   46.7583 H   0  0  0  0  0
   66.2121   33.1387   46.8765 H   0  0  0  0  0
   67.3599   31.9215   47.4864 H   0  0  0  0  0
   65.8264   32.2082   48.3450 H   0  0  0  0  0
   68.0970   38.3997   50.4179 H   0  0  0  0  0
   70.8543   39.2268   51.2534 H   0  0  0  0  0
   68.7906   41.3249   51.2832 H   0  0  0  0  0
   69.4250   40.8505   49.6466 H   0  0  0  0  0
   71.3427   40.6433   52.3085 H   0  0  0  0  0
   70.7786   40.0191   53.4949 H   0  0  0  0  0
   68.6852   38.7771   55.0982 H   0  0  0  0  0
   69.8070   40.1149   56.9676 H   0  0  0  0  0
   71.0338   40.5615   55.7107 H   0  0  0  0  0
   72.6139   39.3862   56.2981 H   0  0  0  0  0
   66.9162   39.6888   56.0532 H   0  0  0  0  0
   65.9459   42.3135   55.3747 H   0  0  0  0  0
   64.5090   42.0473   57.4054 H   0  0  0  0  0
   65.3536   40.4601   57.6876 H   0  0  0  0  0
   63.1934   39.8726   57.4902 H   0  0  0  0  0
   65.7876   44.1128   57.0774 H   0  0  0  0  0
   67.8560   43.7829   59.2147 H   0  0  0  0  0
   68.9850   45.0719   57.6444 H   0  0  0  0  0
   68.3839   46.2169   58.9313 H   0  0  0  0  0
   68.1590   45.1714   55.4217 H   0  0  0  0  0
   66.6372   47.7698   58.4653 H   0  0  0  0  0
   67.0733   46.5545   53.6865 H   0  0  0  0  0
   65.5558   49.1638   56.7365 H   0  0  0  0  0
   65.7768   48.5574   54.3550 H   0  0  0  0  0
   67.6666   45.2926   60.9589 H   0  0  0  0  0
   64.8628   45.3349   61.8123 H   0  0  0  0  0
   65.8178   46.0406   63.9733 H   0  0  0  0  0
   67.4781   45.9594   63.1789 H   0  0  0  0  0
   67.2257   44.0353   64.4750 H   0  0  0  0  0
   66.9499   43.5656   62.7387 H   0  0  0  0  0
   64.1212   41.7924   63.7406 H   0  0  0  0  0
   65.6865   41.8027   62.9215 H   0  0  0  0  0
   63.6696   47.1465   62.1352 H   0  0  0  0  0
   64.8490   49.7803   61.4350 H   0  0  0  0  0
   62.4145   50.4832   61.8722 H   0  0  0  0  0
   62.1210   48.6404   61.7317 H   0  0  0  0  0
   62.7400   50.7105   59.7317 H   0  0  0  0  0
   64.5904   49.3077   59.3619 H   0  0  0  0  0
   63.5527   47.8609   59.3324 H   0  0  0  0  0
   63.3984   49.0935   58.0565 H   0  0  0  0  0
   60.9563   48.2348   59.8101 H   0  0  0  0  0
   60.4299   49.9232   60.0184 H   0  0  0  0  0
   61.0514   49.3722   58.4432 H   0  0  0  0  0
   64.2690   51.6378   62.7465 H   0  0  0  0  0
   64.4719   52.8895   64.6033 H   0  0  0  0  0
   63.4543   52.1036   66.7644 H   0  0  0  0  0
   62.9334   50.6186   65.8131 H   0  0  0  0  0
   62.2445   53.1780   64.6207 H   0  0  0  0  0
   61.4447   52.8276   66.2168 H   0  0  0  0  0
   61.4159   51.0938   63.7495 H   0  0  0  0  0
   60.0529   52.1067   64.3887 H   0  0  0  0  0
   61.0191   50.2139   66.3328 H   0  0  0  0  0
   57.9026   49.1369   63.9637 H   0  0  0  0  0
   58.9004   50.5105   63.4749 H   0  0  0  0  0
   59.7549   48.4660   66.8946 H   0  0  0  0  0
   66.4455   50.9621   64.0740 H   0  0  0  0  0
  2  1  1  0  0  0
  3  2  1  0  0  0
  2  5  1  0  0  0
  3  4  2  0  0  0
 10  3  1  0  0  0
  5  6  1  0  0  0
  6  7  1  0  0  0
  7  8  2  0  0  0
  7  9  1  0  0  0
 11 10  1  0  0  0
 12 11  1  0  0  0
 11 14  1  0  0  0
 12 13  2  0  0  0
 15 12  1  0  0  0
 16 15  1  0  0  0
 17 16  1  0  0  0
 16 19  1  0  0  0
 17 18  2  0  0  0
 23 17  1  0  0  0
 19 20  1  0  0  0
 20 21  1  0  0  0
 20 22  1  0  0  0
 24 23  1  0  0  0
 25 24  1  0  0  0
 24 27  1  0  0  0
 25 26  2  0  0  0
 33 25  1  0  0  0
 29 28  2  0  0  0
 30 29  1  0  0  0
 29 37  1  0  0  0
 30 31  1  0  0  0
 30 33  1  0  0  0
 31 32  1  0  0  0
 31 35  1  0  0  0
 33 34  1  0  0  0
 34 35  1  0  0  0
 35 36  1  0  0  0
 37 38  1  0  0  0
 38 39  1  0  0  0
 38 41  1  0  0  0
 39 40  2  0  0  0
 39 49  1  0  0  0
 41 42  1  0  0  0
 42 43  4  0  0  0
 42 44  4  0  0  0
 43 45  4  0  0  0
 44 46  4  0  0  0
 45 47  4  0  0  0
 46 47  4  0  0  0
 47 48  1  0  0  0
 49 50  1  0  0  0
 50 51  1  0  0  0
 50 53  1  0  0  0
 51 52  2  0  0  0
 51 57  1  0  0  0
 53 54  1  0  0  0
 53 55  1  0  0  0
 54 56  1  0  0  0
 57 58  1  0  0  0
 57 63  1  0  0  0
 58 59  1  0  0  0
 58 61  1  0  0  0
 59 60  2  0  0  0
 59 64  1  0  0  0
 61 62  1  0  0  0
 62 63  1  0  0  0
 64 65  1  0  0  0
 65 66  1  0  0  0
 65 68  1  0  0  0
 66 67  2  0  0  0
 66 72  1  0  0  0
 68 69  1  0  0  0
 69 70  1  0  0  0
 70 71  1  0  0  0
 72 73  1  0  0  0
 73 74  1  0  0  0
 73 76  1  0  0  0
 74 75  2  0  0  0
 74 80  1  0  0  0
 76 77  1  0  0  0
 77 78  1  0  0  0
 77 79  2  0  0  0
 80 81  1  0  0  0
 81 82  1  0  0  0
 81 84  1  0  0  0
 82 83  2  0  0  0
 82 88  1  0  0  0
 84 85  1  0  0  0
 85 86  2  0  0  0
 85 87  1  0  0  0
 88 89  1  0  0  0
 89 90  1  0  0  0
 89 92  1  0  0  0
 90 91  2  0  0  0
 90 96  1  0  0  0
 92 93  1  0  0  0
 93 94  2  0  0  0
 93 95  1  0  0  0
 96 97  1  0  0  0
 97 98  1  0  0  0
 97100  1  0  0  0
 98 99  2  0  0  0
 98107  1  0  0  0
100101  1  0  0  0
101102  4  0  0  0
101103  4  0  0  0
102104  4  0  0  0
103105  4  0  0  0
104106  4  0  0  0
105106  4  0  0  0
107108  1  0  0  0
108109  1  0  0  0
108111  1  0  0  0
109110  2  0  0  0
109116  1  0  0  0
111112  1  0  0  0
112113  1  0  0  0
113114  2  0  0  0
113115  1  0  0  0
116117  1  0  0  0
117118  1  0  0  0
117120  1  0  0  0
118119  2  0  0  0
118124  1  0  0  0
120121  1  0  0  0
121122  1  0  0  0
121123  1  0  0  0
124125  1  0  0  0
125126  1  0  0  0
125128  1  0  0  0
126127  2  0  0  0
126135  1  0  0  0
128129  1  0  0  0
129130  1  0  0  0
130131  1  0  0  0
131132  1  0  0  0
132133  1  0  0  0
132134  2  0  0  0
  1136  1  0  0  0
  1137  1  0  0  0
  1138  1  0  0  0
  2139  1  0  0  0
  5140  1  0  0  0
  5141  1  0  0  0
  6142  1  0  0  0
  6143  1  0  0  0
  9144  1  0  0  0
 10145  1  0  0  0
 11146  1  0  0  0
 14147  1  0  0  0
 14148  1  0  0  0
 14149  1  0  0  0
 15150  1  0  0  0
 16151  1  0  0  0
 19152  1  0  0  0
 19153  1  0  0  0
 20154  1  0  0  0
 21155  1  0  0  0
 21156  1  0  0  0
 21157  1  0  0  0
 22158  1  0  0  0
 22159  1  0  0  0
 22160  1  0  0  0
 23161  1  0  0  0
 24162  1  0  0  0
 27163  1  0  0  0
 27164  1  0  0  0
 27165  1  0  0  0
 30166  1  0  0  0
 31167  1  0  0  0
 34168  1  0  0  0
 34169  1  0  0  0
 35170  1  0  0  0
 36171  1  0  0  0
 37172  1  0  0  0
 38173  1  0  0  0
 41174  1  0  0  0
 41175  1  0  0  0
 43176  1  0  0  0
 44177  1  0  0  0
 45178  1  0  0  0
 46179  1  0  0  0
 48180  1  0  0  0
 49181  1  0  0  0
 50182  1  0  0  0
 53183  1  0  0  0
 54184  1  0  0  0
 54185  1  0  0  0
 55186  1  0  0  0
 55187  1  0  0  0
 55188  1  0  0  0
 56189  1  0  0  0
 56190  1  0  0  0
 56191  1  0  0  0
 58192  1  0  0  0
 61193  1  0  0  0
 61194  1  0  0  0
 62195  1  0  0  0
 62196  1  0  0  0
 63197  1  0  0  0
 63198  1  0  0  0
 64199  1  0  0  0
 65200  1  0  0  0
 68201  1  0  0  0
 68202  1  0  0  0
 69203  1  0  0  0
 69204  1  0  0  0
 71205  1  0  0  0
 71206  1  0  0  0
 71207  1  0  0  0
 72208  1  0  0  0
 73209  1  0  0  0
 76210  1  0  0  0
 76211  1  0  0  0
 78212  1  0  0  0
 80213  1  0  0  0
 81214  1  0  0  0
 84215  1  0  0  0
 84216  1  0  0  0
 87217  1  0  0  0
 88218  1  0  0  0
 89219  1  0  0  0
 92220  1  0  0  0
 92221  1  0  0  0
 95222  1  0  0  0
 96223  1  0  0  0
 97224  1  0  0  0
100225  1  0  0  0
100226  1  0  0  0
102227  1  0  0  0
103228  1  0  0  0
104229  1  0  0  0
105230  1  0  0  0
106231  1  0  0  0
107232  1  0  0  0
108233  1  0  0  0
111234  1  0  0  0
111235  1  0  0  0
112236  1  0  0  0
112237  1  0  0  0
115238  1  0  0  0
115239  1  0  0  0
116240  1  0  0  0
117241  1  0  0  0
120242  1  0  0  0
120243  1  0  0  0
121244  1  0  0  0
122245  1  0  0  0
122246  1  0  0  0
122247  1  0  0  0
123248  1  0  0  0
123249  1  0  0  0
123250  1  0  0  0
124251  1  0  0  0
125252  1  0  0  0
128253  1  0  0  0
128254  1  0  0  0
129255  1  0  0  0
129256  1  0  0  0
130257  1  0  0  0
130258  1  0  0  0
131259  1  0  0  0
133260  1  0  0  0
133261  1  0  0  0
134262  1  0  0  0
135263  1  0  0  0
M  END
$$$$
