5lrj_ligand
  -I-interpret- 

121124  0  0  0  0  0  0  0  0999 V2000
   27.3680   -2.2660    0.1520 C   0  0  0  0  0
   24.9120   -2.4250    3.1680 C   0  0  0  0  0
   23.3990   -2.2570    3.3270 C   0  0  0  0  0
   22.6580   -3.2570    2.4330 C   0  0  0  0  0
   23.0350   -2.3350    4.7500 N   0  0  0  0  0
   21.7760   -2.2740    5.1970 C   0  0  0  0  0
   20.8240   -2.2510    4.4290 O   0  0  0  0  0
   22.0470   -2.8570    1.4430 O   0  0  0  0  0
   22.6670   -4.4620    2.6790 O   0  0  0  0  0
   25.3800   -2.2260    1.7230 C   0  0  0  0  0
   26.8900   -2.4390    1.5960 C   0  0  0  0  0
   26.7330   -3.2730   -0.7100 N   0  3  0  0  0
   21.6060   -2.3490    6.5180 N   0  0  0  0  0
   20.3000   -2.1980    7.1820 C   0  0  0  0  0
   19.4660   -3.4730    7.3010 C   0  0  0  0  0
   18.2510   -3.3900    7.4820 O   0  0  0  0  0
   20.4530   -1.5720    8.5730 C   0  0  0  0  0
   21.4190   -2.3460    9.4730 C   0  0  0  0  0
   21.3090   -1.8300   10.9100 C   0  0  0  0  0
   22.2960   -2.5050   11.8640 C   0  0  0  0  0
   22.1000   -3.9620   11.8750 N   0  3  0  0  0
   20.1080   -4.6350    7.2380 N   0  0  0  0  0
   19.3750   -5.9040    7.3690 C   0  0  0  0  0
   19.1740   -6.1860    8.8600 C   0  0  0  0  0
   20.0830   -5.9770    9.6630 O   0  0  0  0  0
   20.1710   -7.0290    6.7000 C   0  0  0  0  0
   19.7310   -8.4310    7.1360 C   0  0  0  0  0
   20.0960   -6.9020    5.1770 C   0  0  0  0  0
   17.9730   -6.6530    9.1940 N   0  0  0  0  0
   17.6200   -7.0010   10.5790 C   0  0  0  0  0
   18.2490   -8.3540   10.9220 C   0  0  0  0  0
   16.1030   -7.1200   10.7260 C   0  0  0  0  0
   15.3860   -5.7890   10.4840 C   0  0  0  0  0
   13.8700   -5.9690   10.5830 C   0  0  0  0  0
   13.1300   -5.2040   11.4790 C   0  0  0  0  0
   11.7510   -5.3770   11.5710 C   0  0  0  0  0
   11.1130   -6.3180   10.7670 C   0  0  0  0  0
   11.8520   -7.0850    9.8710 C   0  0  0  0  0
   13.2290   -6.9090    9.7790 C   0  0  0  0  0
    9.7680   -6.4970   10.8600 O   0  0  0  0  0
   18.0610   -9.3150   10.1770 O   0  0  0  0  0
   19.0190   -8.3960   12.0090 N   0  0  0  0  0
   19.5930   -9.7170   12.3080 C   0  0  0  0  0
   19.2440   -7.2020   12.8410 C   0  0  0  0  0
   18.5600   -7.3700   14.2010 C   0  0  0  0  0
   20.7460   -6.9750   13.0200 C   0  0  0  0  0
   21.2980   -7.1880   14.0990 O   0  0  0  0  0
   21.3740   -6.5300   11.9350 N   0  0  0  0  0
   22.8240   -6.2840   11.9130 C   0  0  0  0  0
   23.1430   -4.7870   11.9070 C   0  0  0  0  0
   24.3100   -4.3980   11.9210 O   0  0  0  0  0
   23.4340   -6.9340   10.6690 C   0  0  0  0  0
   23.1390   -8.4340   10.5870 C   0  0  0  0  0
   23.7300   -9.3220   11.4820 C   0  0  0  0  0
   22.2830   -8.9130    9.5990 C   0  0  0  0  0
   23.4670  -10.6850   11.3880 C   0  0  0  0  0
   22.0210  -10.2770    9.5030 C   0  0  0  0  0
   22.6130  -11.1630   10.3980 C   0  0  0  0  0
   22.2360   -3.9560   11.8880 O   0  0  0  0  0
   28.4501   -2.3917    0.1143 H   0  0  0  0  0
   27.0972   -1.2703   -0.1992 H   0  0  0  0  0
   25.1691   -3.4414    3.4662 H   0  0  0  0  0
   25.3993   -1.6699    3.7847 H   0  0  0  0  0
   23.0871   -1.2693    2.9876 H   0  0  0  0  0
   23.7843   -2.4415    5.4338 H   0  0  0  0  0
   22.1292   -1.9025    1.3817 H   0  0  0  0  0
   25.1458   -1.2058    1.4188 H   0  0  0  0  0
   24.8716   -2.9528    1.0895 H   0  0  0  0  0
   27.3943   -1.6973    2.2154 H   0  0  0  0  0
   27.1209   -3.4556    1.9143 H   0  0  0  0  0
   27.0569   -3.1505   -1.6694 H   0  0  0  0  0
   26.9830   -4.2059   -0.3820 H   0  0  0  0  0
   25.7200   -3.1590   -0.6747 H   0  0  0  0  0
   22.4257   -2.5204    7.1004 H   0  0  0  0  0
   19.7486   -1.5368    6.5135 H   0  0  0  0  0
   19.4735   -1.5811    9.0512 H   0  0  0  0  0
   20.8532   -0.5665    8.4428 H   0  0  0  0  0
   22.4388   -2.2048    9.1150 H   0  0  0  0  0
   21.1655   -3.4058    9.4488 H   0  0  0  0  0
   20.3018   -2.0479   11.2651 H   0  0  0  0  0
   21.5346   -0.7637   10.8983 H   0  0  0  0  0
   22.1299   -2.1209   12.8705 H   0  0  0  0  0
   23.3107   -2.2899   11.5292 H   0  0  0  0  0
   21.1048   -4.1779   11.8169 H   0  0  0  0  0
   21.1182   -4.6472    7.0975 H   0  0  0  0  0
   18.4039   -5.8425    6.8779 H   0  0  0  0  0
   21.2030   -6.9116    7.0307 H   0  0  0  0  0
   19.8623   -8.5330    8.2132 H   0  0  0  0  0
   18.6812   -8.5766    6.8812 H   0  0  0  0  0
   20.3377   -9.1769    6.6225 H   0  0  0  0  0
   19.0552   -6.9650    4.8593 H   0  0  0  0  0
   20.5127   -5.9418    4.8728 H   0  0  0  0  0
   20.6669   -7.7091    4.7178 H   0  0  0  0  0
   17.2720   -6.7739    8.4630 H   0  0  0  0  0
   17.9871   -6.2217   11.2468 H   0  0  0  0  0
   15.8873   -7.4383   11.7459 H   0  0  0  0  0
   15.7475   -7.8341    9.9832 H   0  0  0  0  0
   15.6348   -5.4300    9.4853 H   0  0  0  0  0
   15.7069   -5.0722   11.2398 H   0  0  0  0  0
   13.6298   -4.4687   12.1095 H   0  0  0  0  0
   11.1716   -4.7761   12.2720 H   0  0  0  0  0
   11.3527   -7.8224    9.2424 H   0  0  0  0  0
   13.8078   -7.5081    9.0761 H   0  0  0  0  0
    9.4933   -7.1775   10.2411 H   0  0  0  0  0
   18.7877  -10.4346   12.4648 H   0  0  0  0  0
   20.2119  -10.0407   11.4712 H   0  0  0  0  0
   20.2032   -9.6511   13.2088 H   0  0  0  0  0
   18.8130   -6.3322   12.3453 H   0  0  0  0  0
   17.4887   -7.5064   14.0531 H   0  0  0  0  0
   18.9720   -8.2424   14.7082 H   0  0  0  0  0
   18.7341   -6.4803   14.8062 H   0  0  0  0  0
   20.8315   -6.3534   11.0895 H   0  0  0  0  0
   23.2509   -6.7191   12.8166 H   0  0  0  0  0
   24.8986   -5.1561   11.9439 H   0  0  0  0  0
   24.5153   -6.8061   10.7186 H   0  0  0  0  0
   22.9972   -6.4569    9.7917 H   0  0  0  0  0
   24.3994   -8.9489   12.2571 H   0  0  0  0  0
   21.8172   -8.2189    8.8994 H   0  0  0  0  0
   23.9298  -11.3788   12.0898 H   0  0  0  0  0
   21.3526  -10.6507    8.7273 H   0  0  0  0  0
   22.4081  -12.2310   10.3239 H   0  0  0  0  0
 11  1  1  0  0  0
  1 12  1  0  0  0
  2  3  1  0  0  0
 10  2  1  0  0  0
  3  4  1  0  0  0
  3  5  1  0  0  0
  4  8  1  0  0  0
  4  9  2  0  0  0
  5  6  1  0  0  0
  6  7  2  0  0  0
  6 13  1  0  0  0
 10 11  1  0  0  0
 13 14  1  0  0  0
 14 15  1  0  0  0
 14 17  1  0  0  0
 15 16  2  0  0  0
 15 22  1  0  0  0
 17 18  1  0  0  0
 18 19  1  0  0  0
 19 20  1  0  0  0
 20 21  1  0  0  0
 21 50  1  0  0  0
 21 59  1  0  0  0
 22 23  1  0  0  0
 23 24  1  0  0  0
 23 26  1  0  0  0
 24 25  2  0  0  0
 24 29  1  0  0  0
 26 27  1  0  0  0
 26 28  1  0  0  0
 29 30  1  0  0  0
 30 31  1  0  0  0
 30 32  1  0  0  0
 31 41  2  0  0  0
 31 42  1  0  0  0
 32 33  1  0  0  0
 33 34  1  0  0  0
 34 35  4  0  0  0
 34 39  4  0  0  0
 35 36  4  0  0  0
 36 37  4  0  0  0
 37 38  4  0  0  0
 37 40  1  0  0  0
 38 39  4  0  0  0
 42 43  1  0  0  0
 42 44  1  0  0  0
 44 45  1  0  0  0
 44 46  1  0  0  0
 46 47  2  0  0  0
 46 48  1  0  0  0
 48 49  1  0  0  0
 49 50  1  0  0  0
 49 52  1  0  0  0
 50 51  1  0  0  0
 50 59  1  0  0  0
 52 53  1  0  0  0
 53 54  4  0  0  0
 53 55  4  0  0  0
 54 56  4  0  0  0
 55 57  4  0  0  0
 56 58  4  0  0  0
 57 58  4  0  0  0
  1 60  1  0  0  0
  1 61  1  0  0  0
  2 62  1  0  0  0
  2 63  1  0  0  0
  3 64  1  0  0  0
  5 65  1  0  0  0
  8 66  1  0  0  0
 10 67  1  0  0  0
 10 68  1  0  0  0
 11 69  1  0  0  0
 11 70  1  0  0  0
 12 71  1  0  0  0
 12 72  1  0  0  0
 12 73  1  0  0  0
 13 74  1  0  0  0
 14 75  1  0  0  0
 17 76  1  0  0  0
 17 77  1  0  0  0
 18 78  1  0  0  0
 18 79  1  0  0  0
 19 80  1  0  0  0
 19 81  1  0  0  0
 20 82  1  0  0  0
 20 83  1  0  0  0
 21 84  1  0  0  0
 22 85  1  0  0  0
 23 86  1  0  0  0
 26 87  1  0  0  0
 27 88  1  0  0  0
 27 89  1  0  0  0
 27 90  1  0  0  0
 28 91  1  0  0  0
 28 92  1  0  0  0
 28 93  1  0  0  0
 29 94  1  0  0  0
 30 95  1  0  0  0
 32 96  1  0  0  0
 32 97  1  0  0  0
 33 98  1  0  0  0
 33 99  1  0  0  0
 35100  1  0  0  0
 36101  1  0  0  0
 38102  1  0  0  0
 39103  1  0  0  0
 40104  1  0  0  0
 43105  1  0  0  0
 43106  1  0  0  0
 43107  1  0  0  0
 44108  1  0  0  0
 45109  1  0  0  0
 45110  1  0  0  0
 45111  1  0  0  0
 48112  1  0  0  0
 49113  1  0  0  0
 51114  1  0  0  0
 52115  1  0  0  0
 52116  1  0  0  0
 54117  1  0  0  0
 55118  1  0  0  0
 56119  1  0  0  0
 57120  1  0  0  0
 58121  1  0  0  0
M  END
$$$$
