4eg4_ligand
  -I-interpret- 

 52 54  0  0  0  0  0  0  0  0999 V2000
   45.3670   14.5840   -7.2000 C   0  0  0  0  0
   43.9460   15.1390   -7.2500 C   0  0  0  0  0
   42.9880   14.0710   -7.0770 O   0  0  0  0  0
   41.6410   14.3090   -7.0130 C   0  0  0  0  0
   41.0090   15.5750   -7.0380 C   0  0  0  0  0
   41.8360   17.3030   -7.1670 Br  0  0  0  0  0
   39.6280   15.6410   -6.9670 C   0  0  0  0  0
   38.8620   14.5070   -6.8690 C   0  0  0  0  0
   36.9870   14.7010   -6.7600 Br  0  0  0  0  0
   39.4790   13.2720   -6.8450 C   0  0  0  0  0
   40.8620   13.1590   -6.9260 C   0  0  0  0  0
   41.3880   11.7110   -6.8650 C   0  0  0  0  0
   42.3730   11.2670   -7.8630 N   0  3  0  0  0
   42.1860   11.9010   -9.1980 C   0  0  0  0  0
   43.0940   11.1550  -10.2080 C   0  0  0  0  0
   44.0640   12.0520  -11.0140 C   0  0  0  0  0
   43.3070   12.7290  -12.0830 N   0  0  0  0  0
   43.8230   13.6370  -12.9140 C   0  0  0  0  0
   45.1760   13.6770  -13.2680 C   0  0  0  0  0
   45.6530   14.6550  -14.1540 C   0  0  0  0  0
   46.8570   14.6900  -14.4520 O   0  0  0  0  0
   44.7520   15.5930  -14.6890 C   0  0  0  0  0
   45.1780   16.5880  -15.5690 C   0  0  0  0  0
   44.2660   17.5070  -16.0820 C   0  0  0  0  0
   42.9250   17.4480  -15.7310 C   0  0  0  0  0
   42.4950   16.4620  -14.8610 C   0  0  0  0  0
   43.4040   15.5470  -14.3380 C   0  0  0  0  0
   42.9500   14.5720  -13.4520 N   0  0  0  0  0
   45.5350   14.1054   -6.2352 H   0  0  0  0  0
   45.4984   13.8528   -7.9976 H   0  0  0  0  0
   46.0788   15.3989   -7.3316 H   0  0  0  0  0
   43.7815   15.6132   -8.2176 H   0  0  0  0  0
   43.8183   15.8667   -6.4486 H   0  0  0  0  0
   39.1388   16.6148   -6.9894 H   0  0  0  0  0
   38.8715   12.3709   -6.7612 H   0  0  0  0  0
   40.5116   11.0866   -7.0386 H   0  0  0  0  0
   41.9063   11.6408   -5.9087 H   0  0  0  0  0
   42.2597   10.2602   -7.9813 H   0  0  0  0  0
   43.2974   11.5318   -7.5228 H   0  0  0  0  0
   42.4539   12.9567   -9.1564 H   0  0  0  0  0
   41.1426   11.8339   -9.5060 H   0  0  0  0  0
   42.4314   10.6820  -10.9328 H   0  0  0  0  0
   43.7121   10.4714   -9.6260 H   0  0  0  0  0
   44.8549   11.4421  -11.4506 H   0  0  0  0  0
   44.5159   12.7932  -10.3548 H   0  0  0  0  0
   45.3438   12.7361  -13.7920 H   0  0  0  0  0
   45.6918   13.8894  -12.3315 H   0  0  0  0  0
   46.2279   16.6464  -15.8560 H   0  0  0  0  0
   44.6098   18.2818  -16.7673 H   0  0  0  0  0
   42.2174   18.1712  -16.1366 H   0  0  0  0  0
   41.4423   16.4016  -14.5846 H   0  0  0  0  0
   41.9631   14.5452  -13.1955 H   0  0  0  0  0
  1  2  1  0  0  0
  2  3  1  0  0  0
  3  4  1  0  0  0
  4  5  4  0  0  0
  4 11  4  0  0  0
  5  6  1  0  0  0
  5  7  4  0  0  0
  7  8  4  0  0  0
  8  9  1  0  0  0
  8 10  4  0  0  0
 10 11  4  0  0  0
 11 12  1  0  0  0
 12 13  1  0  0  0
 13 14  1  0  0  0
 14 15  1  0  0  0
 15 16  1  0  0  0
 16 17  1  0  0  0
 17 18  2  0  0  0
 18 19  1  0  0  0
 18 28  1  0  0  0
 19 20  1  0  0  0
 20 21  2  0  0  0
 20 22  1  0  0  0
 22 23  4  0  0  0
 22 27  4  0  0  0
 23 24  4  0  0  0
 24 25  4  0  0  0
 25 26  4  0  0  0
 26 27  4  0  0  0
 27 28  1  0  0  0
  1 29  1  0  0  0
  1 30  1  0  0  0
  1 31  1  0  0  0
  2 32  1  0  0  0
  2 33  1  0  0  0
  7 34  1  0  0  0
 10 35  1  0  0  0
 12 36  1  0  0  0
 12 37  1  0  0  0
 13 38  1  0  0  0
 13 39  1  0  0  0
 14 40  1  0  0  0
 14 41  1  0  0  0
 15 42  1  0  0  0
 15 43  1  0  0  0
 16 44  1  0  0  0
 16 45  1  0  0  0
 19 46  1  0  0  0
 19 47  1  0  0  0
 23 48  1  0  0  0
 24 49  1  0  0  0
 25 50  1  0  0  0
 26 51  1  0  0  0
 28 52  1  0  0  0
M  END
$$$$
