### 
### Created by X-TOOL on Mon Sep 10 21:13:29 2018
### 

@<TRIPOS>MOLECULE
5j8x_ligand
   42    44     1     0     0
SMALL
GAST_HUCK


@<TRIPOS>ATOM
      1 N01        16.9340   -0.6800  311.8760 N.4       1 OK3         0.2315
      2 C02        16.5470   -1.2240  310.6080 C.3       1 OK3         0.0005
      3 C03        16.0080   -0.0900  309.7130 C.ar      1 OK3         0.0060
      4 C04        16.8820    0.6910  309.0130 C.ar      1 OK3        -0.0494
      5 C05        16.3940    1.7200  308.2040 C.ar      1 OK3        -0.0483
      6 C06        15.0300    1.9490  308.1050 C.ar      1 OK3         0.0427
      7 C07        14.1480    1.1570  308.8200 C.ar      1 OK3        -0.0483
      8 C08        14.6290    0.1390  309.6220 C.ar      1 OK3        -0.0494
      9 C09        14.4920    3.1150  307.1860 C.2       1 OK3         0.2000
     10 O10        13.3740    3.2890  307.0790 O.2       1 OK3        -0.3878
     11 N11        15.4430    3.9880  306.4600 N.am      1 OK3        -0.2854
     12 C12        14.9370    5.0990  305.5960 C.3       1 OK3         0.0383
     13 C13        14.4650    6.1670  306.5440 C.3       1 OK3        -0.0001
     14 C14        15.7120    6.7560  307.2650 C.ar      1 OK3        -0.0080
     15 C15        16.8750    6.8940  306.5280 C.ar      1 OK3         0.1047
     16 O16        16.9260    6.5330  305.1110 O.3       1 OK3        -0.3332
     17 B17        16.0980    5.5450  304.6580 B         1 OK3         3.0000
     18 O18        16.8590    4.4330  304.3960 O.3       1 OK3        -0.4105
     19 C20        18.0440    7.4260  307.1350 C.ar      1 OK3         0.0322
     20 C21        18.0190    7.7830  308.4880 C.ar      1 OK3        -0.0632
     21 C22        16.8360    7.6280  309.2410 C.ar      1 OK3        -0.0761
     22 C23        15.6850    7.1100  308.6400 C.ar      1 OK3        -0.0660
     23 C24        19.3350    7.5930  306.3070 C.2       1 OK3         0.0564
     24 O25        19.7210    8.7370  305.9470 O.co2     1 OK3        -0.5645
     25 O26        20.0110    6.5740  305.9860 O.co2     1 OK3        -0.5645
     26 H1         17.2871   -1.4182  312.4646 H         1 OK3         0.2009
     27 H2         16.1344   -0.2526  312.3164 H         1 OK3         0.2009
     28 H3         17.6527    0.0133  311.7389 H         1 OK3         0.2009
     29 H4         15.7621   -1.9803  310.7562 H         1 OK3         0.0990
     30 H5         17.4190   -1.6901  310.1260 H         1 OK3         0.0990
     31 H6         17.9490    0.5136  309.0846 H         1 OK3         0.0572
     32 H7         17.0862    2.3436  307.6499 H         1 OK3         0.0652
     33 H8         13.0809    1.3350  308.7510 H         1 OK3         0.0652
     34 H9         13.9387   -0.4825  310.1808 H         1 OK3         0.0572
     35 H10        16.4272    3.8340  306.5478 H         1 OK3         0.1844
     36 H11        14.1048    4.7483  304.9679 H         1 OK3         0.0539
     37 H13        13.7771    5.7319  307.2839 H         1 OK3         0.0423
     38 H14        13.9479    6.9606  305.9847 H         1 OK3         0.0423
     39 H16        17.2950    4.1542  305.1927 H         1 OK3         0.2052
     40 H18        18.9112    8.1798  308.9588 H         1 OK3         0.0564
     41 H19        16.8195    7.9110  310.2873 H         1 OK3         0.0513
     42 H20        14.7782    6.9795  309.2195 H         1 OK3         0.0547
@<TRIPOS>BOND
     1    1    2 1  
     2    2    3 1  
     3    3    4 ar 
     4    3    8 ar 
     5    4    5 ar 
     6    5    6 ar 
     7    6    7 ar 
     8    6    9 1  
     9    7    8 ar 
    10    9   10 2  
    11    9   11 am 
    12   11   12 1  
    13   12   13 1  
    14   12   17 1  
    15   13   14 1  
    16   14   15 ar 
    17   14   22 ar 
    18   15   16 1  
    19   15   19 ar 
    20   16   17 1  
    21   17   18 1  
    22   19   20 ar 
    23   19   23 1  
    24   20   21 ar 
    25   21   22 ar 
    26   23   24 ar 
    27   23   25 ar 
    28    1   26 1  
    29    1   27 1  
    30    1   28 1  
    31    2   29 1  
    32    2   30 1  
    33    4   31 1  
    34    5   32 1  
    35    7   33 1  
    36    8   34 1  
    37   11   35 1  
    38   12   36 1  
    39   13   37 1  
    40   13   38 1  
    41   18   39 1  
    42   20   40 1  
    43   21   41 1  
    44   22   42 1  
@<TRIPOS>SUBSTRUCTURE
     1 OK3         1

