5j8x_ligand
  -I-interpret- 

 43 45  0  0  0  0  0  0  0  0999 V2000
   16.9340   -0.6800  311.8760 N   0  3  0  0  0
   16.5470   -1.2240  310.6080 C   0  0  0  0  0
   16.0080   -0.0900  309.7130 C   0  0  0  0  0
   16.8820    0.6910  309.0130 C   0  0  0  0  0
   16.3940    1.7200  308.2040 C   0  0  0  0  0
   15.0300    1.9490  308.1050 C   0  0  0  0  0
   14.1480    1.1570  308.8200 C   0  0  0  0  0
   14.6290    0.1390  309.6220 C   0  0  0  0  0
   14.4920    3.1150  307.1860 C   0  0  0  0  0
   13.3740    3.2890  307.0790 O   0  0  0  0  0
   15.4430    3.9880  306.4600 N   0  0  0  0  0
   14.9370    5.0990  305.5960 C   0  0  0  0  0
   14.4650    6.1670  306.5440 C   0  0  0  0  0
   15.7120    6.7560  307.2650 C   0  0  0  0  0
   16.8750    6.8940  306.5280 C   0  0  0  0  0
   16.9260    6.5330  305.1110 O   0  0  0  0  0
   16.0980    5.5450  304.6580 B   0  0  0  0  0
   16.8590    4.4330  304.3960 O   0  0  0  0  0
   18.0440    7.4260  307.1350 C   0  0  0  0  0
   18.0190    7.7830  308.4880 C   0  0  0  0  0
   16.8360    7.6280  309.2410 C   0  0  0  0  0
   15.6850    7.1100  308.6400 C   0  0  0  0  0
   19.3350    7.5930  306.3070 C   0  0  0  0  0
   19.7210    8.7370  305.9470 O   0  0  0  0  0
   20.0110    6.5740  305.9860 O   0  0  0  0  0
   17.2911   -1.4278  312.4707 H   0  0  0  0  0
   17.6612    0.0214  311.7360 H   0  0  0  0  0
   16.1241   -0.2478  312.3206 H   0  0  0  0  0
   15.7708   -1.9752  310.7538 H   0  0  0  0  0
   17.4099   -1.6882  310.1304 H   0  0  0  0  0
   17.9549    0.5126  309.0850 H   0  0  0  0  0
   17.0901    2.3471  307.6469 H   0  0  0  0  0
   13.0750    1.3360  308.7506 H   0  0  0  0  0
   13.9348   -0.4859  310.1839 H   0  0  0  0  0
   16.4468    3.8309  306.5496 H   0  0  0  0  0
   14.1078    4.8259  304.9434 H   0  0  0  0  0
   13.7734    5.7445  307.2729 H   0  0  0  0  0
   13.9411    6.9510  305.9972 H   0  0  0  0  0
   17.5867    4.6736  303.8179 H   0  0  0  0  0
   18.9161    8.1820  308.9614 H   0  0  0  0  0
   16.8194    7.9126  310.2931 H   0  0  0  0  0
   14.7732    6.9787  309.2227 H   0  0  0  0  0
   19.5859    5.7867  306.3341 H   0  0  0  0  0
  1  2  1  0  0  0
  2  3  1  0  0  0
  3  4  4  0  0  0
  3  8  4  0  0  0
  4  5  4  0  0  0
  5  6  4  0  0  0
  6  7  4  0  0  0
  6  9  1  0  0  0
  7  8  4  0  0  0
  9 10  2  0  0  0
  9 11  1  0  0  0
 11 12  1  0  0  0
 12 13  1  0  0  0
 12 17  1  0  0  0
 13 14  1  0  0  0
 14 15  4  0  0  0
 14 22  4  0  0  0
 15 16  1  0  0  0
 15 19  4  0  0  0
 16 17  1  0  0  0
 17 18  1  0  0  0
 19 20  4  0  0  0
 19 23  1  0  0  0
 20 21  4  0  0  0
 21 22  4  0  0  0
 23 24  2  0  0  0
 23 25  1  0  0  0
  1 26  1  0  0  0
  1 27  1  0  0  0
  1 28  1  0  0  0
  2 29  1  0  0  0
  2 30  1  0  0  0
  4 31  1  0  0  0
  5 32  1  0  0  0
  7 33  1  0  0  0
  8 34  1  0  0  0
 11 35  1  0  0  0
 12 36  1  0  0  0
 13 37  1  0  0  0
 13 38  1  0  0  0
 18 39  1  0  0  0
 20 40  1  0  0  0
 21 41  1  0  0  0
 22 42  1  0  0  0
 25 43  1  0  0  0
M  END
$$$$
