3eu7_ligand
  -I-interpret- 

212215  0  0  0  0  0  0  0  0999 V2000
   -6.2680  -23.9430   -3.7810 N   0  3  0  0  0
   -6.5920  -22.7070   -4.4960 C   0  0  0  0  0
   -6.9700  -21.5460   -3.5600 C   0  0  0  0  0
   -7.5670  -20.5630   -3.9980 O   0  0  0  0  0
   -7.7220  -22.9640   -5.4950 C   0  0  0  0  0
   -6.6070  -21.6740   -2.2810 N   0  0  0  0  0
   -6.9590  -20.7270   -1.2220 C   0  0  0  0  0
   -7.5740  -19.3910   -1.6210 C   0  0  0  0  0
   -6.8630  -18.4330   -1.9130 O   0  0  0  0  0
   -8.9120  -19.3030   -1.5950 N   0  0  0  0  0
   -9.6050  -18.0660   -1.9840 C   0  0  0  0  0
   -9.2230  -16.8930   -1.0720 C   0  0  0  0  0
   -9.0670  -17.0900    0.1420 O   0  0  0  0  0
  -11.0910  -18.4040   -1.7720 C   0  0  0  0  0
  -11.1470  -19.8750   -1.4640 C   0  0  0  0  0
   -9.8140  -20.2660   -0.9430 C   0  0  0  0  0
   -9.0610  -15.7030   -1.6500 N   0  0  0  0  0
   -8.8730  -14.4950   -0.8750 C   0  0  0  0  0
  -10.1470  -13.6660   -0.9010 C   0  0  0  0  0
  -10.7440  -13.4580   -1.9560 O   0  0  0  0  0
   -7.7230  -13.6050   -1.4180 C   0  0  0  0  0
   -6.3520  -14.2550   -1.2010 C   0  0  0  0  0
   -7.7330  -12.2740   -0.7170 C   0  0  0  0  0
   -5.2180  -13.5250   -1.9370 C   0  0  0  0  0
  -10.5610  -13.1740    0.2580 N   0  0  0  0  0
  -11.7350  -12.3300    0.3090 C   0  0  0  0  0
  -11.3630  -10.9780    0.8810 C   0  0  0  0  0
  -10.9680  -10.8920    2.0500 O   0  0  0  0  0
  -12.8540  -12.9790    1.1330 C   0  0  0  0  0
  -14.0370  -12.2100    1.0060 O   0  0  0  0  0
  -11.5040   -9.9320    0.0570 N   0  0  0  0  0
  -11.1160   -8.5710    0.4430 C   0  0  0  0  0
  -12.1090   -7.9850    1.4600 C   0  0  0  0  0
  -11.9150   -6.8810    2.0020 O   0  0  0  0  0
  -11.0180   -7.6630   -0.7980 C   0  0  0  0  0
  -10.3950   -8.2310   -2.0820 C   0  0  0  0  0
  -10.7680   -7.3640   -3.2770 C   0  0  0  0  0
   -8.8890   -8.3550   -1.9510 C   0  0  0  0  0
  -13.1790   -8.7300    1.7100 N   0  0  0  0  0
  -14.2260   -8.2780    2.6160 C   0  0  0  0  0
  -14.4350   -9.2280    3.8080 C   0  0  0  0  0
  -15.5010   -9.2400    4.4260 O   0  0  0  0  0
  -15.5380   -8.1060    1.8300 C   0  0  0  0  0
  -16.4130   -7.0420    2.4210 C   0  0  0  0  0
  -15.9030   -6.0240    2.9000 O   0  0  0  0  0
  -17.7330   -7.2730    2.4320 N   0  0  0  0  0
  -13.4140  -10.0360    4.0960 N   0  0  0  0  0
  -13.4830  -11.0730    5.1240 C   0  0  0  0  0
  -13.9470  -10.5200    6.4660 C   0  0  0  0  0
  -14.5750  -11.2270    7.2580 O   0  0  0  0  0
  -12.1250  -11.7660    5.2950 C   0  0  0  0  0
  -11.0170  -10.8180    5.7070 C   0  0  0  0  0
  -10.1580  -10.1280    4.8790 C   0  0  0  0  0
  -10.6640  -10.4530    7.0440 C   0  0  0  0  0
   -9.2940   -9.3740    5.6260 N   0  0  0  0  0
   -9.5770   -9.5510    6.9570 C   0  0  0  0  0
  -11.1600  -10.8020    8.3110 C   0  0  0  0  0
   -8.9840   -8.9750    8.0960 C   0  0  0  0  0
  -10.5680  -10.2380    9.4480 C   0  0  0  0  0
   -9.4920   -9.3280    9.3290 C   0  0  0  0  0
  -13.6300   -9.2580    6.7200 N   0  0  0  0  0
  -13.8810   -8.7050    8.0310 C   0  0  0  0  0
  -15.3670   -8.4220    8.2800 C   0  0  0  0  0
  -15.9310   -8.9120    9.2580 O   0  0  0  0  0
  -13.0240   -7.4690    8.2830 C   0  0  0  0  0
  -13.2120   -6.8780    9.6510 C   0  0  0  0  0
  -12.4590   -7.3310   10.7280 C   0  0  0  0  0
  -14.1540   -5.8930    9.8700 C   0  0  0  0  0
  -12.6180   -6.7860   11.9960 C   0  0  0  0  0
  -14.3290   -5.3510   11.1400 C   0  0  0  0  0
  -13.5520   -5.7990   12.2040 C   0  0  0  0  0
  -15.9870   -7.6390    7.3950 N   0  0  0  0  0
  -17.4210   -7.3990    7.4660 C   0  0  0  0  0
  -18.1620   -8.7200    7.2620 C   0  0  0  0  0
  -19.1970   -8.9660    7.8900 O   0  0  0  0  0
  -17.8710   -6.3590    6.4380 C   0  0  0  0  0
  -19.3250   -5.9340    6.6360 C   0  0  0  0  0
  -20.0870   -5.7400    5.3120 C   0  0  0  0  0
  -19.4640   -5.2580    4.3270 O   0  0  0  0  0
  -21.3080   -6.0660    5.2620 O   0  0  0  0  0
  -17.5990   -9.5910    6.4270 N   0  0  0  0  0
  -18.1790  -10.9230    6.2190 C   0  0  0  0  0
  -18.3790  -11.6660    7.5410 C   0  0  0  0  0
  -19.5020  -12.0630    7.8720 O   0  0  0  0  0
  -17.3450  -11.7510    5.2270 C   0  0  0  0  0
  -17.6950  -11.5000    3.7480 C   0  0  0  0  0
  -16.6100  -11.9610    2.7580 C   0  0  0  0  0
  -15.9420  -13.0040    2.9940 O   0  0  0  0  0
  -16.4390  -11.2690    1.7290 O   0  0  0  0  0
  -17.3060  -11.8480    8.3040 N   0  0  0  0  0
  -17.4000  -12.5260    9.5870 C   0  0  0  0  0
  -18.2150  -11.6680   10.5720 C   0  0  0  0  0
  -18.9040  -12.1690   11.4510 O   0  0  0  0  0
  -16.0080  -12.8080   10.1280 C   0  0  0  0  0
  -15.1700  -13.6380    9.1590 C   0  0  0  0  0
  -13.6900  -13.4260    9.3860 C   0  0  0  0  0
  -15.5310  -15.1120    9.2870 C   0  0  0  0  0
  -18.1390  -10.3590   10.4090 N   0  0  0  0  0
  -18.9360   -9.4590   11.2270 C   0  0  0  0  0
  -20.4410   -9.4910   10.8670 C   0  0  0  0  0
  -21.2120   -8.6360   11.3120 O   0  0  0  0  0
  -18.3860   -8.0330   11.1010 C   0  0  0  0  0
  -17.0650   -7.9730   11.5880 O   0  0  0  0  0
  -20.8660  -10.4640   10.0670 N   0  0  0  0  0
  -22.2220  -10.4090    9.5110 C   0  0  0  0  0
  -23.0270  -11.6780    9.7860 C   0  0  0  0  0
  -24.2110  -11.6070   10.1090 O   0  0  0  0  0
  -22.1820  -10.1050    8.0050 C   0  0  0  0  0
   -5.5144  -23.7630   -3.1176 H   0  0  0  0  0
   -7.0934  -24.2704   -3.2791 H   0  0  0  0  0
   -5.9712  -24.6535   -4.4499 H   0  0  0  0  0
   -5.6875  -22.4018   -5.0221 H   0  0  0  0  0
   -8.6324  -23.2213   -4.9536 H   0  0  0  0  0
   -7.8921  -22.0655   -6.0882 H   0  0  0  0  0
   -7.4437  -23.7877   -6.1524 H   0  0  0  0  0
   -6.0465  -22.4868   -2.0249 H   0  0  0  0  0
   -6.0153  -20.4746   -0.7384 H   0  0  0  0  0
   -7.7250  -21.2297   -0.6315 H   0  0  0  0  0
   -9.3546  -17.7636   -3.0008 H   0  0  0  0  0
  -11.6786  -18.1655   -2.6586 H   0  0  0  0  0
  -11.5156  -17.8158   -0.9585 H   0  0  0  0  0
  -11.3910  -20.4455   -2.3602 H   0  0  0  0  0
  -11.9229  -20.0834   -0.7274 H   0  0  0  0  0
   -9.7572  -20.2302    0.1449 H   0  0  0  0  0
   -9.5596  -21.3023   -1.1653 H   0  0  0  0  0
   -9.0698  -15.6418   -2.6681 H   0  0  0  0  0
   -8.6186  -14.8133    0.1360 H   0  0  0  0  0
   -7.8873  -13.4790   -2.4882 H   0  0  0  0  0
   -6.4010  -15.2714   -1.5916 H   0  0  0  0  0
   -6.1326  -14.2187   -0.1339 H   0  0  0  0  0
   -8.6874  -11.7783   -0.8948 H   0  0  0  0  0
   -7.5957  -12.4275    0.3534 H   0  0  0  0  0
   -6.9232  -11.6552   -1.1035 H   0  0  0  0  0
   -5.4207  -13.5280   -3.0080 H   0  0  0  0  0
   -5.1578  -12.4968   -1.5802 H   0  0  0  0  0
   -4.2739  -14.0341   -1.7431 H   0  0  0  0  0
  -10.0515  -13.3906    1.1147 H   0  0  0  0  0
  -12.1125  -12.1989   -0.7051 H   0  0  0  0  0
  -12.5574  -13.0209    2.1810 H   0  0  0  0  0
  -13.0357  -13.9900    0.7683 H   0  0  0  0  0
  -14.7379  -12.6157    1.5215 H   0  0  0  0  0
  -11.8951  -10.0871   -0.8722 H   0  0  0  0  0
  -10.1346   -8.6204    0.9148 H   0  0  0  0  0
  -10.3586   -6.8477   -0.5005 H   0  0  0  0  0
  -12.0501   -7.4330   -1.0623 H   0  0  0  0  0
  -10.7948   -9.2322   -2.2426 H   0  0  0  0  0
  -11.8524   -7.3437   -3.3851 H   0  0  0  0  0
  -10.3983   -6.3509   -3.1187 H   0  0  0  0  0
  -10.3193   -7.7790   -4.1795 H   0  0  0  0  0
   -8.4599   -7.3713   -1.7607 H   0  0  0  0  0
   -8.6514   -9.0228   -1.1230 H   0  0  0  0  0
   -8.4773   -8.7597   -2.8755 H   0  0  0  0  0
  -13.2699   -9.6395    1.2574 H   0  0  0  0  0
  -13.9105   -7.3225    3.0351 H   0  0  0  0  0
  -16.0810   -9.0505    1.8634 H   0  0  0  0  0
  -15.2879   -7.8134    0.8102 H   0  0  0  0  0
  -18.3666   -6.5914    2.8496 H   0  0  0  0  0
  -18.1041   -8.1304    2.0227 H   0  0  0  0  0
  -12.5443   -9.9253    3.5747 H   0  0  0  0  0
  -14.2198  -11.8012    4.7850 H   0  0  0  0  0
  -11.8503  -12.1954    4.3316 H   0  0  0  0  0
  -12.2319  -12.5109    6.0836 H   0  0  0  0  0
  -10.1656  -10.1758    3.7901 H   0  0  0  0  0
  -11.9916  -11.5000    8.4076 H   0  0  0  0  0
   -8.1531   -8.2751    8.0071 H   0  0  0  0  0
  -10.9412  -10.5037   10.4370 H   0  0  0  0  0
   -9.0552   -8.8968   10.2298 H   0  0  0  0  0
  -13.2103   -8.6794    5.9923 H   0  0  0  0  0
  -13.5900   -9.4678    8.7532 H   0  0  0  0  0
  -13.3188   -6.7123    7.5560 H   0  0  0  0  0
  -11.9802   -7.7712    8.1974 H   0  0  0  0  0
  -11.7311   -8.1277   10.5750 H   0  0  0  0  0
  -14.7659   -5.5367    9.0414 H   0  0  0  0  0
  -12.0037   -7.1401   12.8239 H   0  0  0  0  0
  -15.0762   -4.5740   11.3015 H   0  0  0  0  0
  -13.6833   -5.3695   13.1972 H   0  0  0  0  0
  -15.4440   -7.1988    6.6522 H   0  0  0  0  0
  -17.6586   -6.9962    8.4506 H   0  0  0  0  0
  -17.7822   -6.8045    5.4471 H   0  0  0  0  0
  -17.2430   -5.4759    6.5552 H   0  0  0  0  0
  -19.3209   -4.9769    7.1576 H   0  0  0  0  0
  -19.8271   -6.7252    7.1928 H   0  0  0  0  0
  -21.5816   -6.4093    6.1158 H   0  0  0  0  0
  -16.7514   -9.3284    5.9240 H   0  0  0  0  0
  -19.1654  -10.7805    5.7776 H   0  0  0  0  0
  -17.5489  -12.8018    5.4328 H   0  0  0  0  0
  -16.3023  -11.4646    5.3647 H   0  0  0  0  0
  -17.8098  -10.4234    3.6221 H   0  0  0  0  0
  -18.5961  -12.0726    3.5283 H   0  0  0  0  0
  -16.2267  -13.3829    3.8288 H   0  0  0  0  0
  -16.4000  -11.5058    7.9837 H   0  0  0  0  0
  -17.9131  -13.4790    9.4580 H   0  0  0  0  0
  -16.1122  -13.3718   11.0550 H   0  0  0  0  0
  -15.5038  -11.8538   10.2809 H   0  0  0  0  0
  -15.3948  -13.3067    8.1452 H   0  0  0  0  0
  -13.4482  -12.3734    9.2386 H   0  0  0  0  0
  -13.4341  -13.7198   10.4040 H   0  0  0  0  0
  -13.1247  -14.0325    8.6785 H   0  0  0  0  0
  -15.3361  -15.4453   10.3063 H   0  0  0  0  0
  -16.5873  -15.2475    9.0548 H   0  0  0  0  0
  -14.9271  -15.6944    8.5912 H   0  0  0  0  0
  -17.5135   -9.9751    9.7006 H   0  0  0  0  0
  -18.8588   -9.8005   12.2592 H   0  0  0  0  0
  -19.0114   -7.3577   11.6849 H   0  0  0  0  0
  -18.3915   -7.7412   10.0508 H   0  0  0  0  0
  -16.7342   -7.0758   11.5029 H   0  0  0  0  0
  -20.2513  -11.2459    9.8407 H   0  0  0  0  0
  -22.7364   -9.5951   10.0219 H   0  0  0  0  0
  -22.5483  -12.6530    9.6952 H   0  0  0  0  0
  -21.6955   -9.1432    7.8426 H   0  0  0  0  0
  -21.6227  -10.8876    7.4924 H   0  0  0  0  0
  -23.1995  -10.0693    7.6157 H   0  0  0  0  0
  1  2  1  0  0  0
  2  3  1  0  0  0
  2  5  1  0  0  0
  3  4  2  0  0  0
  3  6  1  0  0  0
  6  7  1  0  0  0
  7  8  1  0  0  0
  8  9  2  0  0  0
  8 10  1  0  0  0
 10 11  1  0  0  0
 10 16  1  0  0  0
 11 12  1  0  0  0
 11 14  1  0  0  0
 12 13  2  0  0  0
 12 17  1  0  0  0
 14 15  1  0  0  0
 15 16  1  0  0  0
 17 18  1  0  0  0
 18 19  1  0  0  0
 18 21  1  0  0  0
 19 20  2  0  0  0
 19 25  1  0  0  0
 21 22  1  0  0  0
 21 23  1  0  0  0
 22 24  1  0  0  0
 25 26  1  0  0  0
 26 27  1  0  0  0
 26 29  1  0  0  0
 27 28  2  0  0  0
 27 31  1  0  0  0
 29 30  1  0  0  0
 31 32  1  0  0  0
 32 33  1  0  0  0
 32 35  1  0  0  0
 33 34  2  0  0  0
 33 39  1  0  0  0
 35 36  1  0  0  0
 36 37  1  0  0  0
 36 38  1  0  0  0
 39 40  1  0  0  0
 40 41  1  0  0  0
 40 43  1  0  0  0
 41 42  2  0  0  0
 41 47  1  0  0  0
 43 44  1  0  0  0
 44 45  2  0  0  0
 44 46  1  0  0  0
 47 48  1  0  0  0
 48 49  1  0  0  0
 48 51  1  0  0  0
 49 50  2  0  0  0
 49 61  1  0  0  0
 51 52  1  0  0  0
 52 53  4  0  0  0
 52 54  4  0  0  0
 53 55  4  0  0  0
 54 56  4  0  0  0
 54 57  4  0  0  0
 55 56  4  0  0  0
 56 58  4  0  0  0
 57 59  4  0  0  0
 58 60  4  0  0  0
 59 60  4  0  0  0
 61 62  1  0  0  0
 62 63  1  0  0  0
 62 65  1  0  0  0
 63 64  2  0  0  0
 63 72  1  0  0  0
 65 66  1  0  0  0
 66 67  4  0  0  0
 66 68  4  0  0  0
 67 69  4  0  0  0
 68 70  4  0  0  0
 69 71  4  0  0  0
 70 71  4  0  0  0
 72 73  1  0  0  0
 73 74  1  0  0  0
 73 76  1  0  0  0
 74 75  2  0  0  0
 74 81  1  0  0  0
 76 77  1  0  0  0
 77 78  1  0  0  0
 78 79  2  0  0  0
 78 80  1  0  0  0
 81 82  1  0  0  0
 82 83  1  0  0  0
 82 85  1  0  0  0
 83 84  2  0  0  0
 83 90  1  0  0  0
 85 86  1  0  0  0
 86 87  1  0  0  0
 87 88  1  0  0  0
 87 89  2  0  0  0
 90 91  1  0  0  0
 91 92  1  0  0  0
 91 94  1  0  0  0
 92 93  2  0  0  0
 92 98  1  0  0  0
 94 95  1  0  0  0
 95 96  1  0  0  0
 95 97  1  0  0  0
 98 99  1  0  0  0
 99100  1  0  0  0
 99102  1  0  0  0
100101  2  0  0  0
100104  1  0  0  0
102103  1  0  0  0
104105  1  0  0  0
105106  1  0  0  0
105108  1  0  0  0
106107  2  0  0  0
  1109  1  0  0  0
  1110  1  0  0  0
  1111  1  0  0  0
  2112  1  0  0  0
  5113  1  0  0  0
  5114  1  0  0  0
  5115  1  0  0  0
  6116  1  0  0  0
  7117  1  0  0  0
  7118  1  0  0  0
 11119  1  0  0  0
 14120  1  0  0  0
 14121  1  0  0  0
 15122  1  0  0  0
 15123  1  0  0  0
 16124  1  0  0  0
 16125  1  0  0  0
 17126  1  0  0  0
 18127  1  0  0  0
 21128  1  0  0  0
 22129  1  0  0  0
 22130  1  0  0  0
 23131  1  0  0  0
 23132  1  0  0  0
 23133  1  0  0  0
 24134  1  0  0  0
 24135  1  0  0  0
 24136  1  0  0  0
 25137  1  0  0  0
 26138  1  0  0  0
 29139  1  0  0  0
 29140  1  0  0  0
 30141  1  0  0  0
 31142  1  0  0  0
 32143  1  0  0  0
 35144  1  0  0  0
 35145  1  0  0  0
 36146  1  0  0  0
 37147  1  0  0  0
 37148  1  0  0  0
 37149  1  0  0  0
 38150  1  0  0  0
 38151  1  0  0  0
 38152  1  0  0  0
 39153  1  0  0  0
 40154  1  0  0  0
 43155  1  0  0  0
 43156  1  0  0  0
 46157  1  0  0  0
 46158  1  0  0  0
 47159  1  0  0  0
 48160  1  0  0  0
 51161  1  0  0  0
 51162  1  0  0  0
 53163  1  0  0  0
 57164  1  0  0  0
 58165  1  0  0  0
 59166  1  0  0  0
 60167  1  0  0  0
 61168  1  0  0  0
 62169  1  0  0  0
 65170  1  0  0  0
 65171  1  0  0  0
 67172  1  0  0  0
 68173  1  0  0  0
 69174  1  0  0  0
 70175  1  0  0  0
 71176  1  0  0  0
 72177  1  0  0  0
 73178  1  0  0  0
 76179  1  0  0  0
 76180  1  0  0  0
 77181  1  0  0  0
 77182  1  0  0  0
 80183  1  0  0  0
 81184  1  0  0  0
 82185  1  0  0  0
 85186  1  0  0  0
 85187  1  0  0  0
 86188  1  0  0  0
 86189  1  0  0  0
 88190  1  0  0  0
 90191  1  0  0  0
 91192  1  0  0  0
 94193  1  0  0  0
 94194  1  0  0  0
 95195  1  0  0  0
 96196  1  0  0  0
 96197  1  0  0  0
 96198  1  0  0  0
 97199  1  0  0  0
 97200  1  0  0  0
 97201  1  0  0  0
 98202  1  0  0  0
 99203  1  0  0  0
102204  1  0  0  0
102205  1  0  0  0
103206  1  0  0  0
104207  1  0  0  0
105208  1  0  0  0
106209  1  0  0  0
108210  1  0  0  0
108211  1  0  0  0
108212  1  0  0  0
M  END
$$$$
