### 
### Created by X-TOOL on Mon Sep 10 21:13:00 2018
### 

@<TRIPOS>MOLECULE
3eu7_ligand
  211   214     1     0     0
SMALL
GAST_HUCK


@<TRIPOS>ATOM
      1 N          -6.2680  -23.9430   -3.7810 N.4       1 LEU         0.2377
      2 CA         -6.5920  -22.7070   -4.4960 C.3       1 LEU         0.0621
      3 C          -6.9700  -21.5460   -3.5600 C.2       1 LEU         0.2262
      4 O          -7.5670  -20.5630   -3.9980 O.2       1 LEU        -0.3907
      5 CB         -7.7220  -22.9640   -5.4950 C.3       1 LEU        -0.0040
      6 N          -6.6070  -21.6740   -2.2810 N.am      1 GLY        -0.2637
      7 CA         -6.9590  -20.7270   -1.2220 C.3       1 GLY         0.1204
      8 C          -7.5740  -19.3910   -1.6210 C.2       1 GLY         0.2032
      9 O          -6.8630  -18.4330   -1.9130 O.2       1 GLY        -0.3945
     10 N          -8.9120  -19.3030   -1.5950 N.am      1 PRO        -0.2501
     11 CA         -9.6050  -18.0660   -1.9840 C.3       1 PRO         0.1338
     12 C          -9.2230  -16.8930   -1.0720 C.2       1 PRO         0.2041
     13 O          -9.0670  -17.0900    0.1420 O.2       1 PRO        -0.3944
     14 CB        -11.0910  -18.4040   -1.7720 C.3       1 PRO        -0.0104
     15 CG        -11.1470  -19.8750   -1.4640 C.3       1 PRO        -0.0281
     16 CD         -9.8140  -20.2660   -0.9430 C.3       1 PRO         0.0369
     17 N          -9.0610  -15.7030   -1.6500 N.am      1 ILE        -0.2635
     18 CA         -8.8730  -14.4950   -0.8750 C.3       1 ILE         0.1335
     19 C         -10.1470  -13.6660   -0.9010 C.2       1 ILE         0.2042
     20 O         -10.7440  -13.4580   -1.9560 O.2       1 ILE        -0.3944
     21 CB         -7.7230  -13.6050   -1.4180 C.3       1 ILE        -0.0037
     22 CG1        -6.3520  -14.2550   -1.2010 C.3       1 ILE        -0.0491
     23 CG2        -7.7330  -12.2740   -0.7170 C.3       1 ILE        -0.0582
     24 CD1        -5.2180  -13.5250   -1.9370 C.3       1 ILE        -0.0648
     25 N         -10.5610  -13.1740    0.2580 N.am      1 SER        -0.2616
     26 CA        -11.7350  -12.3300    0.3090 C.3       1 SER         0.1539
     27 C         -11.3630  -10.9780    0.8810 C.2       1 SER         0.2062
     28 O         -10.9680  -10.8920    2.0500 O.2       1 SER        -0.3943
     29 CB        -12.8540  -12.9790    1.1330 C.3       1 SER         0.0843
     30 OG        -14.0370  -12.2100    1.0060 O.3       1 SER        -0.3903
     31 N         -11.5040   -9.9320    0.0570 N.am      1 LEU        -0.2636
     32 CA        -11.1160   -8.5710    0.4430 C.3       1 LEU         0.1312
     33 C         -12.1090   -7.9850    1.4600 C.2       1 LEU         0.2040
     34 O         -11.9150   -6.8810    2.0020 O.2       1 LEU        -0.3944
     35 CB        -11.0180   -7.6630   -0.7980 C.3       1 LEU        -0.0101
     36 CG        -10.3950   -8.2310   -2.0820 C.3       1 LEU        -0.0425
     37 CD1       -10.7680   -7.3640   -3.2770 C.3       1 LEU        -0.0625
     38 CD2        -8.8890   -8.3550   -1.9510 C.3       1 LEU        -0.0625
     39 N         -13.1790   -8.7300    1.7100 N.am      1 ASN        -0.2616
     40 CA        -14.2260   -8.2780    2.6160 C.3       1 ASN         0.1476
     41 C         -14.4350   -9.2280    3.8080 C.2       1 ASN         0.2063
     42 O         -15.5010   -9.2400    4.4260 O.2       1 ASN        -0.3942
     43 CB        -15.5380   -8.1060    1.8300 C.3       1 ASN         0.0773
     44 CG        -16.4130   -7.0420    2.4210 C.2       1 ASN         0.1780
     45 OD1       -15.9030   -6.0240    2.9000 O.2       1 ASN        -0.3970
     46 ND2       -17.7330   -7.2730    2.4320 N.am      1 ASN        -0.3007
     47 N         -13.4140  -10.0360    4.0960 N.am      1 TRP        -0.2625
     48 CA        -13.4830  -11.0730    5.1240 C.3       1 TRP         0.1352
     49 C         -13.9470  -10.5200    6.4660 C.2       1 TRP         0.2053
     50 O         -14.5750  -11.2270    7.2580 O.2       1 TRP        -0.3942
     51 CB        -12.1250  -11.7660    5.2950 C.3       1 TRP         0.0042
     52 CG        -11.0170  -10.8180    5.7070 C.2       1 TRP        -0.0418
     53 CD1       -10.1580  -10.1280    4.8790 C.2       1 TRP         0.0167
     54 CD2       -10.6640  -10.4530    7.0440 C.ar      1 TRP        -0.0214
     55 NE1        -9.2940   -9.3740    5.6260 N.pl3     1 TRP        -0.2890
     56 CE2        -9.5770   -9.5510    6.9570 C.ar      1 TRP         0.0603
     57 CE3       -11.1600  -10.8020    8.3110 C.ar      1 TRP        -0.0747
     58 CZ2        -8.9840   -8.9750    8.0960 C.ar      1 TRP        -0.0443
     59 CZ3       -10.5680  -10.2380    9.4480 C.ar      1 TRP        -0.0792
     60 CH2        -9.4920   -9.3280    9.3290 C.ar      1 TRP        -0.0768
     61 N         -13.6300   -9.2580    6.7200 N.am      1 PHE        -0.2618
     62 CA        -13.8810   -8.7050    8.0310 C.3       1 PHE         0.1404
     63 C         -15.3670   -8.4220    8.2800 C.2       1 PHE         0.2060
     64 O         -15.9310   -8.9120    9.2580 O.2       1 PHE        -0.3942
     65 CB        -13.0240   -7.4690    8.2830 C.3       1 PHE         0.0214
     66 CG        -13.2120   -6.8780    9.6510 C.ar      1 PHE        -0.0386
     67 CD1       -12.4590   -7.3310   10.7280 C.ar      1 PHE        -0.0601
     68 CD2       -14.1540   -5.8930    9.8700 C.ar      1 PHE        -0.0601
     69 CE1       -12.6180   -6.7860   11.9960 C.ar      1 PHE        -0.0686
     70 CE2       -14.3290   -5.3510   11.1400 C.ar      1 PHE        -0.0686
     71 CZ        -13.5520   -5.7990   12.2040 C.ar      1 PHE        -0.0687
     72 N         -15.9870   -7.6390    7.3950 N.am      1 GLU        -0.2635
     73 CA        -17.4210   -7.3990    7.4660 C.3       1 GLU         0.1325
     74 C         -18.1620   -8.7200    7.2620 C.2       1 GLU         0.2040
     75 O         -19.1970   -8.9660    7.8900 O.2       1 GLU        -0.3944
     76 CB        -17.8710   -6.3590    6.4380 C.3       1 GLU        -0.0008
     77 CG        -19.3250   -5.9340    6.6360 C.3       1 GLU         0.0044
     78 CD        -20.0870   -5.7400    5.3120 C.2       1 GLU         0.0350
     79 OE1       -19.4640   -5.2580    4.3270 O.co2     1 GLU        -0.5690
     80 OE2       -21.3080   -6.0660    5.2620 O.co2     1 GLU        -0.5690
     81 N         -17.5990   -9.5910    6.4270 N.am      1 GLU        -0.2636
     82 CA        -18.1790  -10.9230    6.2190 C.3       1 GLU         0.1325
     83 C         -18.3790  -11.6660    7.5410 C.2       1 GLU         0.2040
     84 O         -19.5020  -12.0630    7.8720 O.2       1 GLU        -0.3944
     85 CB        -17.3450  -11.7510    5.2270 C.3       1 GLU        -0.0008
     86 CG        -17.6950  -11.5000    3.7480 C.3       1 GLU         0.0044
     87 CD        -16.6100  -11.9610    2.7580 C.2       1 GLU         0.0350
     88 OE1       -15.9420  -13.0040    2.9940 O.co2     1 GLU        -0.5690
     89 OE2       -16.4390  -11.2690    1.7290 O.co2     1 GLU        -0.5690
     90 N         -17.3060  -11.8480    8.3040 N.am      1 LEU        -0.2637
     91 CA        -17.4000  -12.5260    9.5870 C.3       1 LEU         0.1312
     92 C         -18.2150  -11.6680   10.5720 C.2       1 LEU         0.2040
     93 O         -18.9040  -12.1690   11.4510 O.2       1 LEU        -0.3944
     94 CB        -16.0080  -12.8080   10.1280 C.3       1 LEU        -0.0101
     95 CG        -15.1700  -13.6380    9.1590 C.3       1 LEU        -0.0425
     96 CD1       -13.6900  -13.4260    9.3860 C.3       1 LEU        -0.0625
     97 CD2       -15.5310  -15.1120    9.2870 C.3       1 LEU        -0.0625
     98 N         -18.1390  -10.3590   10.4090 N.am      1 SER        -0.2616
     99 CA        -18.9360   -9.4590   11.2270 C.3       1 SER         0.1539
    100 C         -20.4410   -9.4910   10.8670 C.2       1 SER         0.2062
    101 O         -21.2120   -8.6360   11.3120 O.2       1 SER        -0.3943
    102 CB        -18.3860   -8.0330   11.1010 C.3       1 SER         0.0843
    103 OG        -17.0650   -7.9730   11.5880 O.3       1 SER        -0.3903
    104 N         -20.8660  -10.4640   10.0670 N.am      1 SER        -0.2652
    105 CA        -22.2220  -10.4090    9.5110 C.3       1 SER         0.1100
    106 C         -23.0270  -11.6780    9.7860 C.2       1 SER         0.1242
    107 O         -24.2110  -11.6070   10.1090 O.2       1 SER        -0.3725
    108 CB        -22.1820  -10.1050    8.0050 C.3       1 SER        -0.0257
    109 H1         -6.0298  -24.6628   -4.4452 H         1 LEU         0.2015
    110 H2         -7.0655  -24.2366   -3.2390 H         1 LEU         0.2015
    111 H3         -5.4856  -23.7806   -3.1666 H         1 LEU         0.2015
    112 H4         -5.6970  -22.4030   -5.0586 H         1 LEU         0.1095
    113 H5         -7.9595  -22.0314   -6.0278 H         1 LEU         0.0310
    114 H6         -8.6143  -23.3161   -4.9567 H         1 LEU         0.0310
    115 H7         -7.4046  -23.7291   -6.2188 H         1 LEU         0.0310
    116 H8         -6.0575  -22.4709   -2.0300 H         1 GLY         0.1882
    117 H9         -6.0377  -20.5070   -0.6627 H         1 GLY         0.0763
    118 H10        -7.6782  -21.2315   -0.5601 H         1 GLY         0.0763
    119 H11        -9.3948  -17.8093   -3.0327 H         1 PRO         0.0802
    120 H12       -11.6661  -18.1831   -2.6833 H         1 PRO         0.0313
    121 H13       -11.4981  -17.8227   -0.9316 H         1 PRO         0.0313
    122 H14       -11.3756  -20.4428   -2.3779 H         1 PRO         0.0287
    123 H15       -11.9201  -20.0722   -0.7067 H         1 PRO         0.0287
    124 H16        -9.7727  -20.1685    0.1519 H         1 PRO         0.0524
    125 H17        -9.5645  -21.2985   -1.2289 H         1 PRO         0.0524
    126 H18        -9.0696  -15.6430   -2.6482 H         1 ILE         0.1883
    127 H19        -8.6421  -14.7797    0.1621 H         1 ILE         0.0803
    128 H20        -7.8776  -13.4495   -2.4959 H         1 ILE         0.0345
    129 H21        -6.3946  -15.2925   -1.5641 H         1 ILE         0.0267
    130 H22        -6.1294  -14.2523   -0.1238 H         1 ILE         0.0267
    131 H23        -8.7106  -11.7909   -0.8614 H         1 ILE         0.0235
    132 H24        -6.9423  -11.6335   -1.1349 H         1 ILE         0.0235
    133 H25        -7.5535  -12.4243    0.3578 H         1 ILE         0.0235
    134 H26        -4.2646  -14.0379   -1.7421 H         1 ILE         0.0230
    135 H27        -5.1561  -12.4872   -1.5778 H         1 ILE         0.0230
    136 H28        -5.4213  -13.5273   -3.0180 H         1 ILE         0.0230
    137 H29       -10.0615  -13.3863    1.0979 H         1 SER         0.1884
    138 H30       -12.1040  -12.1859   -0.7172 H         1 SER         0.0823
    139 H31       -12.5546  -13.0202    2.1907 H         1 SER         0.0606
    140 H32       -13.0376  -13.9988    0.7639 H         1 SER         0.0606
    141 H33       -14.7306  -12.6114    1.5161 H         1 SER         0.2097
    142 H34       -11.8875  -10.0840   -0.8540 H         1 LEU         0.1883
    143 H35       -10.1244   -8.6172    0.9168 H         1 LEU         0.0800
    144 H36       -10.4214   -6.7849   -0.5101 H         1 LEU         0.0315
    145 H37       -12.0410   -7.3453   -1.0480 H         1 LEU         0.0315
    146 H38       -10.8063   -9.2379   -2.2463 H         1 LEU         0.0298
    147 H39       -10.3157   -7.7818   -4.1885 H         1 LEU         0.0232
    148 H40       -10.3954   -6.3412   -3.1185 H         1 LEU         0.0232
    149 H41       -11.8622   -7.3427   -3.3873 H         1 LEU         0.0232
    150 H42        -8.6472   -8.9848   -1.0822 H         1 LEU         0.0232
    151 H43        -8.4494   -7.3561   -1.8135 H         1 LEU         0.0232
    152 H44        -8.4782   -8.8141   -2.8623 H         1 LEU         0.0232
    153 H45       -13.2682   -9.6217    1.2662 H         1 ASN         0.1885
    154 H46       -13.9287   -7.2976    3.0165 H         1 ASN         0.0826
    155 H47       -16.0848   -9.0604    1.8389 H         1 ASN         0.0551
    156 H48       -15.2968   -7.8312    0.7926 H         1 ASN         0.0551
    157 H49       -18.3566   -6.5921    2.8161 H         1 ASN         0.1814
    158 H50       -18.0944   -8.1263    2.0561 H         1 ASN         0.1814
    159 H51       -12.5614   -9.9275    3.5849 H         1 TRP         0.1884
    160 H52       -14.2148  -11.8250    4.7940 H         1 TRP         0.0815
    161 H53       -11.8478  -12.2323    4.3381 H         1 TRP         0.0397
    162 H54       -12.2243  -12.5436    6.0667 H         1 TRP         0.0397
    163 H55       -10.1656  -10.1757    3.7911 H         1 TRP         0.0795
    164 H56        -8.5498   -8.7698    5.2491 H         1 TRP         0.2216
    165 H57       -11.9870  -11.4962    8.4071 H         1 TRP         0.0540
    166 H58        -8.1577   -8.2789    8.0076 H         1 TRP         0.0541
    167 H59       -10.9392  -10.5023   10.4316 H         1 TRP         0.0510
    168 H60        -9.0576   -8.8992   10.2248 H         1 TRP         0.0530
    169 H61       -13.2185   -8.6907    6.0066 H         1 PHE         0.1885
    170 H62       -13.5746   -9.4664    8.7634 H         1 PHE         0.0823
    171 H63       -13.2853   -6.7058    7.5352 H         1 PHE         0.0474
    172 H64       -11.9666   -7.7490    8.1671 H         1 PHE         0.0474
    173 H65       -11.7351   -8.1234   10.5759 H         1 PHE         0.0557
    174 H66       -14.7626   -5.5386    9.0459 H         1 PHE         0.0557
    175 H67       -12.0071   -7.1382   12.8193 H         1 PHE         0.0599
    176 H68       -15.0721   -4.5783   11.3006 H         1 PHE         0.0599
    177 H69       -13.6826   -5.3719   13.1917 H         1 PHE         0.0559
    178 H70       -15.4546   -7.2075    6.6668 H         1 GLU         0.1883
    179 H71       -17.6598   -7.0141    8.4684 H         1 GLU         0.0801
    180 H72       -17.7627   -6.7881    5.4310 H         1 GLU         0.0330
    181 H73       -17.2281   -5.4711    6.5294 H         1 GLU         0.0330
    182 H74       -19.3390   -4.9836    7.1896 H         1 GLU         0.0433
    183 H75       -19.8385   -6.7087    7.2243 H         1 GLU         0.0433
    184 H76       -16.7680   -9.3335    5.9339 H         1 GLU         0.1883
    185 H77       -19.1735  -10.7801    5.7711 H         1 GLU         0.0801
    186 H78       -17.5078  -12.8169    5.4443 H         1 GLU         0.0330
    187 H79       -16.2837  -11.5040    5.3775 H         1 GLU         0.0330
    188 H80       -17.8531  -10.4204    3.6089 H         1 GLU         0.0433
    189 H81       -18.6252  -12.0397    3.5168 H         1 GLU         0.0433
    190 H82       -16.4178  -11.5125    7.9900 H         1 LEU         0.1883
    191 H83       -17.9203  -13.4846    9.4441 H         1 LEU         0.0800
    192 H84       -16.1011  -13.3576   11.0763 H         1 LEU         0.0315
    193 H85       -15.4971  -11.8506   10.3077 H         1 LEU         0.0315
    194 H86       -15.4070  -13.3124    8.1354 H         1 LEU         0.0298
    195 H87       -13.1183  -14.0376    8.6725 H         1 LEU         0.0232
    196 H88       -13.4304  -13.7222   10.4131 H         1 LEU         0.0232
    197 H89       -13.4446  -12.3641    9.2375 H         1 LEU         0.0232
    198 H90       -16.6103  -15.2411    9.1182 H         1 LEU         0.0232
    199 H91       -15.2727  -15.4665   10.2957 H         1 LEU         0.0232
    200 H92       -14.9709  -15.6930    8.5395 H         1 LEU         0.0232
    201 H93       -17.5258   -9.9826    9.7145 H         1 SER         0.1884
    202 H94       -18.8363   -9.7777   12.2751 H         1 SER         0.0823
    203 H95       -19.0188   -7.3473   11.6835 H         1 SER         0.0606
    204 H96       -18.3966   -7.7322   10.0430 H         1 SER         0.0606
    205 H97       -16.5161   -8.5631   11.0850 H         1 SER         0.2097
    206 H98       -20.2633  -11.2305    9.8452 H         1 SER         0.1884
    207 H99       -22.7444   -9.5771   10.0059 H         1 SER         0.0787
    208 H100      -22.5487  -12.6521    9.6953 H         1 SER         0.1373
    209 H101      -23.2083  -10.0687    7.6109 H         1 SER         0.0278
    210 H102      -21.6178  -10.8942    7.4865 H         1 SER         0.0278
    211 H103      -21.6913   -9.1345    7.8397 H         1 SER         0.0278
@<TRIPOS>BOND
     1    1    2 1  
     2    2    3 1  
     3    2    5 1  
     4    3    4 2  
     5    3    6 am 
     6    6    7 1  
     7    7    8 1  
     8    8    9 2  
     9    8   10 am 
    10   10   11 1  
    11   10   16 1  
    12   11   12 1  
    13   11   14 1  
    14   12   13 2  
    15   12   17 am 
    16   14   15 1  
    17   15   16 1  
    18   17   18 1  
    19   18   19 1  
    20   18   21 1  
    21   19   20 2  
    22   19   25 am 
    23   21   22 1  
    24   21   23 1  
    25   22   24 1  
    26   25   26 1  
    27   26   27 1  
    28   26   29 1  
    29   27   28 2  
    30   27   31 am 
    31   29   30 1  
    32   31   32 1  
    33   32   33 1  
    34   32   35 1  
    35   33   34 2  
    36   33   39 am 
    37   35   36 1  
    38   36   37 1  
    39   36   38 1  
    40   39   40 1  
    41   40   41 1  
    42   40   43 1  
    43   41   42 2  
    44   41   47 am 
    45   43   44 1  
    46   44   45 2  
    47   44   46 am 
    48   47   48 1  
    49   48   49 1  
    50   48   51 1  
    51   49   50 2  
    52   49   61 am 
    53   51   52 1  
    54   52   53 2  
    55   52   54 1  
    56   53   55 1  
    57   54   56 ar 
    58   54   57 ar 
    59   55   56 1  
    60   56   58 ar 
    61   57   59 ar 
    62   58   60 ar 
    63   59   60 ar 
    64   61   62 1  
    65   62   63 1  
    66   62   65 1  
    67   63   64 2  
    68   63   72 am 
    69   65   66 1  
    70   66   67 ar 
    71   66   68 ar 
    72   67   69 ar 
    73   68   70 ar 
    74   69   71 ar 
    75   70   71 ar 
    76   72   73 1  
    77   73   74 1  
    78   73   76 1  
    79   74   75 2  
    80   74   81 am 
    81   76   77 1  
    82   77   78 1  
    83   78   79 ar 
    84   78   80 ar 
    85   81   82 1  
    86   82   83 1  
    87   82   85 1  
    88   83   84 2  
    89   83   90 am 
    90   85   86 1  
    91   86   87 1  
    92   87   88 ar 
    93   87   89 ar 
    94   90   91 1  
    95   91   92 1  
    96   91   94 1  
    97   92   93 2  
    98   92   98 am 
    99   94   95 1  
   100   95   96 1  
   101   95   97 1  
   102   98   99 1  
   103   99  100 1  
   104   99  102 1  
   105  100  101 2  
   106  100  104 am 
   107  102  103 1  
   108  104  105 1  
   109  105  106 1  
   110  105  108 1  
   111  106  107 2  
   112    1  109 1  
   113    1  110 1  
   114    1  111 1  
   115    2  112 1  
   116    5  113 1  
   117    5  114 1  
   118    5  115 1  
   119    6  116 1  
   120    7  117 1  
   121    7  118 1  
   122   11  119 1  
   123   14  120 1  
   124   14  121 1  
   125   15  122 1  
   126   15  123 1  
   127   16  124 1  
   128   16  125 1  
   129   17  126 1  
   130   18  127 1  
   131   21  128 1  
   132   22  129 1  
   133   22  130 1  
   134   23  131 1  
   135   23  132 1  
   136   23  133 1  
   137   24  134 1  
   138   24  135 1  
   139   24  136 1  
   140   25  137 1  
   141   26  138 1  
   142   29  139 1  
   143   29  140 1  
   144   30  141 1  
   145   31  142 1  
   146   32  143 1  
   147   35  144 1  
   148   35  145 1  
   149   36  146 1  
   150   37  147 1  
   151   37  148 1  
   152   37  149 1  
   153   38  150 1  
   154   38  151 1  
   155   38  152 1  
   156   39  153 1  
   157   40  154 1  
   158   43  155 1  
   159   43  156 1  
   160   46  157 1  
   161   46  158 1  
   162   47  159 1  
   163   48  160 1  
   164   51  161 1  
   165   51  162 1  
   166   53  163 1  
   167   55  164 1  
   168   57  165 1  
   169   58  166 1  
   170   59  167 1  
   171   60  168 1  
   172   61  169 1  
   173   62  170 1  
   174   65  171 1  
   175   65  172 1  
   176   67  173 1  
   177   68  174 1  
   178   69  175 1  
   179   70  176 1  
   180   71  177 1  
   181   72  178 1  
   182   73  179 1  
   183   76  180 1  
   184   76  181 1  
   185   77  182 1  
   186   77  183 1  
   187   81  184 1  
   188   82  185 1  
   189   85  186 1  
   190   85  187 1  
   191   86  188 1  
   192   86  189 1  
   193   90  190 1  
   194   91  191 1  
   195   94  192 1  
   196   94  193 1  
   197   95  194 1  
   198   96  195 1  
   199   96  196 1  
   200   96  197 1  
   201   97  198 1  
   202   97  199 1  
   203   97  200 1  
   204   98  201 1  
   205   99  202 1  
   206  102  203 1  
   207  102  204 1  
   208  103  205 1  
   209  104  206 1  
   210  105  207 1  
   211  106  208 1  
   212  108  209 1  
   213  108  210 1  
   214  108  211 1  
@<TRIPOS>SUBSTRUCTURE
     1 LEU         1

