3s22_ligand
  -I-interpret- 

 46 46  0  0  0  0  0  0  0  0999 V2000
   10.4060   15.6940   19.1450 C   0  0  0  0  0
    9.5280   15.6510   17.9170 C   0  0  0  0  0
   10.4900   17.0890   19.7110 C   0  0  0  0  0
    9.0540   14.2360   17.6500 C   0  0  0  0  0
    5.7300   10.4940   18.5290 C   0  0  0  0  0
    5.2640   11.6650   19.3410 C   0  0  0  0  0
   10.8330   17.0330   21.1260 N   0  3  0  0  0
   11.6430   18.1970   21.4420 C   0  0  0  0  0
    3.6760   12.6750   17.9000 C   0  0  0  0  0
    4.8790   13.6060   17.9840 C   0  0  0  0  0
    3.7830   11.8000   19.1350 C   0  0  0  0  0
    7.2210   12.9580   18.6160 C   0  0  0  0  0
    7.6510   14.0960   17.9690 N   0  0  0  0  0
    3.2600   10.4360   18.9210 N   0  0  0  0  0
    5.8500   12.8280   18.7230 N   0  0  0  0  0
    1.6370   10.4370   16.8230 O   0  0  0  0  0
    5.6950   10.4130   17.3120 O   0  0  0  0  0
    7.9910   12.1180   19.0790 O   0  0  0  0  0
    0.8610   11.2740   19.1140 O   0  0  0  0  0
    1.2720    8.8690   18.6540 O   0  0  0  0  0
    1.6550   10.2570   18.4340 S   0  0  0  0  0
   11.4092   15.3724   18.8653 H   0  0  0  0  0
    9.9758   15.0382   19.9019 H   0  0  0  0  0
   10.1032   15.9988   17.0590 H   0  0  0  0  0
    8.6599   16.2895   18.0807 H   0  0  0  0  0
    9.5246   17.5816   19.5953 H   0  0  0  0  0
   11.2596   17.6467   19.1773 H   0  0  0  0  0
    9.6266   13.5498   18.2740 H   0  0  0  0  0
    9.1985   14.0103   16.5935 H   0  0  0  0  0
    5.0280    9.7159   18.8288 H   0  0  0  0  0
    6.8020   10.4931   18.7260 H   0  0  0  0  0
    5.5200   11.5549   20.3948 H   0  0  0  0  0
   11.3524   16.1786   21.3278 H   0  0  0  0  0
    9.9851   17.0310   21.6929 H   0  0  0  0  0
   12.5484   18.1836   20.8352 H   0  0  0  0  0
   11.0746   19.1023   21.2288 H   0  0  0  0  0
   11.9116   18.1753   22.4982 H   0  0  0  0  0
    3.6788   12.0870   16.9822 H   0  0  0  0  0
    2.7357   13.2255   17.8705 H   0  0  0  0  0
    4.6436   14.5536   18.4685 H   0  0  0  0  0
    5.2437   13.9105   17.0030 H   0  0  0  0  0
    3.2198   12.2383   19.9589 H   0  0  0  0  0
    6.9883   14.8298   17.7185 H   0  0  0  0  0
    3.8556    9.6205   19.0644 H   0  0  0  0  0
    2.1705    9.7485   16.4192 H   0  0  0  0  0
    6.0509    9.5644   17.0385 H   0  0  0  0  0
  2  1  1  0  0  0
  1  3  1  0  0  0
  4  2  1  0  0  0
  3  7  1  0  0  0
 13  4  1  0  0  0
  6  5  1  0  0  0
  5 17  1  0  0  0
  6 11  1  0  0  0
 15  6  1  0  0  0
  7  8  1  0  0  0
 10  9  1  0  0  0
  9 11  1  0  0  0
 15 10  1  0  0  0
 11 14  1  0  0  0
 12 13  1  0  0  0
 12 15  1  0  0  0
 12 18  2  0  0  0
 14 21  1  0  0  0
 21 16  1  0  0  0
 21 19  2  0  0  0
 21 20  2  0  0  0
  1 22  1  0  0  0
  1 23  1  0  0  0
  2 24  1  0  0  0
  2 25  1  0  0  0
  3 26  1  0  0  0
  3 27  1  0  0  0
  4 28  1  0  0  0
  4 29  1  0  0  0
  5 30  1  0  0  0
  5 31  1  0  0  0
  6 32  1  0  0  0
  7 33  1  0  0  0
  7 34  1  0  0  0
  8 35  1  0  0  0
  8 36  1  0  0  0
  8 37  1  0  0  0
  9 38  1  0  0  0
  9 39  1  0  0  0
 10 40  1  0  0  0
 10 41  1  0  0  0
 11 42  1  0  0  0
 13 43  1  0  0  0
 14 44  1  0  0  0
 16 45  1  0  0  0
 17 46  1  0  0  0
M  END
$$$$
