5uir_ligand
  -I-interpret- 

 43 45  0  0  0  0  0  0  0  0999 V2000
   -8.3240   17.4510   11.1460 C   0  0  0  0  0
   -9.7260   17.2110   11.0200 C   0  0  0  0  0
   -6.1620   17.8200   10.0440 C   0  0  0  0  0
   -8.3550   17.6210   13.7060 C   0  0  0  0  0
   -8.2270   17.6010    8.7100 C   0  0  0  0  0
   -7.5640   17.6350    9.9520 C   0  0  0  0  0
   -8.1250   16.7090   14.7300 C   0  0  0  0  0
   -9.3250   18.0810   16.2930 C   0  0  0  0  0
   -9.7910   18.3230   17.6360 C   0  0  0  0  0
  -13.9240   17.4060   10.0980 C   0  0  0  0  0
  -12.6310   16.9280   10.7060 C   0  0  0  0  0
  -12.6900   15.5030   11.1400 C   0  0  0  0  0
  -11.6800   17.0370    9.6150 O   0  0  0  0  0
  -10.3260   17.1920    9.7970 C   0  0  0  0  0
   -5.5380   17.8020   11.2540 C   0  0  0  0  0
   -6.2690   17.6310   12.4210 C   0  0  0  0  0
   -7.6390   17.4980   12.4060 C   0  0  0  0  0
   -9.1360   18.7440   13.9950 C   0  0  0  0  0
   -9.6160   18.9760   15.2700 C   0  0  0  0  0
   -8.5940   16.9360   16.0080 C   0  0  0  0  0
  -10.1500   18.4790   18.7090 N   0  0  0  0  0
   -9.5770   17.3710    8.6200 C   0  0  0  0  0
  -10.1170   17.3230    7.2180 C   0  0  0  0  0
   -9.3260   17.3260    6.2570 O   0  0  0  0  0
  -11.4330   17.1990    7.0430 N   0  0  0  0  0
  -10.3245   17.0406   11.9149 H   0  0  0  0  0
   -5.5777   17.9782    9.1375 H   0  0  0  0  0
   -7.6534   17.7614    7.7971 H   0  0  0  0  0
   -7.5642   15.7983   14.5196 H   0  0  0  0  0
  -14.1585   16.7998    9.2230 H   0  0  0  0  0
  -14.7251   17.3131   10.8313 H   0  0  0  0  0
  -13.8205   18.4497    9.8013 H   0  0  0  0  0
  -12.3815   17.5076   11.5948 H   0  0  0  0  0
  -13.4745   15.3843   11.8874 H   0  0  0  0  0
  -12.9080   14.8710   10.2791 H   0  0  0  0  0
  -11.7305   15.2154   11.5698 H   0  0  0  0  0
   -4.4560   17.9228   11.3064 H   0  0  0  0  0
   -5.7440   17.6012   13.3758 H   0  0  0  0  0
   -9.3710   19.4505   13.1989 H   0  0  0  0  0
  -10.2217   19.8592   15.4731 H   0  0  0  0  0
   -8.3894   16.2127   16.7973 H   0  0  0  0  0
  -11.8156   17.1033    6.1023 H   0  0  0  0  0
  -12.0571   17.1999    7.8498 H   0  0  0  0  0
  2  1  4  0  0  0
  1  6  4  0  0  0
  1 17  4  0  0  0
 14  2  4  0  0  0
  6  3  4  0  0  0
  3 15  4  0  0  0
  4  7  4  0  0  0
 17  4  1  0  0  0
  4 18  4  0  0  0
  6  5  4  0  0  0
  5 22  4  0  0  0
  7 20  4  0  0  0
  8  9  1  0  0  0
  8 19  4  0  0  0
 20  8  4  0  0  0
  9 21  3  0  0  0
 11 10  1  0  0  0
 11 12  1  0  0  0
 13 11  1  0  0  0
 13 14  1  0  0  0
 14 22  4  0  0  0
 15 16  4  0  0  0
 16 17  4  0  0  0
 18 19  4  0  0  0
 22 23  1  0  0  0
 23 24  2  0  0  0
 23 25  1  0  0  0
  2 26  1  0  0  0
  3 27  1  0  0  0
  5 28  1  0  0  0
  7 29  1  0  0  0
 10 30  1  0  0  0
 10 31  1  0  0  0
 10 32  1  0  0  0
 11 33  1  0  0  0
 12 34  1  0  0  0
 12 35  1  0  0  0
 12 36  1  0  0  0
 15 37  1  0  0  0
 16 38  1  0  0  0
 18 39  1  0  0  0
 19 40  1  0  0  0
 20 41  1  0  0  0
 25 42  1  0  0  0
 25 43  1  0  0  0
M  END
$$$$
