5gvn_ligand
  -I-interpret- 

 58 61  0  0  0  0  0  0  0  0999 V2000
  -25.7630   23.7720   61.7230 O   0  0  0  0  0
  -26.4950   24.4450   62.4970 C   0  0  0  0  0
  -26.5730   24.2170   63.7380 O   0  0  0  0  0
  -27.3000   25.5630   61.8470 C   0  0  0  0  0
  -27.8380   26.6520   62.7950 C   0  0  0  0  0
  -26.9320   27.8570   62.9330 C   0  0  0  0  0
  -26.4370   28.5410   61.8060 C   0  0  0  0  0
  -26.6040   28.2830   64.2190 C   0  0  0  0  0
  -25.7880   29.3800   64.3850 C   0  0  0  0  0
  -25.2930   30.0490   63.2690 C   0  0  0  0  0
  -25.6080   29.6480   61.9730 C   0  0  0  0  0
  -25.0310   30.4230   60.8350 C   0  0  0  0  0
  -24.3980   29.8020   59.7580 C   0  0  0  0  0
  -23.8540   30.5850   58.7320 C   0  0  0  0  0
  -23.2440   30.0020   57.7000 F   0  0  0  0  0
  -23.9490   31.9650   58.7850 C   0  0  0  0  0
  -25.1210   31.8170   60.8620 C   0  0  0  0  0
  -24.5770   32.6220   59.8520 C   0  0  0  0  0
  -24.6830   34.1460   59.8690 C   0  0  0  0  0
  -23.4660   34.9140   59.2840 C   0  0  0  0  0
  -23.5210   36.4400   59.4360 C   0  0  0  0  0
  -22.0950   34.4390   59.7970 C   0  0  0  0  0
  -25.9080   34.5170   59.0340 C   0  0  0  0  0
  -25.9690   34.0440   57.8520 C   0  0  0  0  0
  -26.0260   33.6130   56.7700 N   0  0  0  0  0
  -26.8890   35.3310   59.5050 C   0  0  0  0  0
  -27.9620   35.6910   58.8020 N   0  0  0  0  0
  -24.8480   34.5990   61.2820 C   0  0  0  0  0
  -24.0930   34.3630   62.5450 C   0  0  0  0  0
  -22.8530   33.5270   62.7920 C   0  0  0  0  0
  -24.7600   35.0490   63.4900 N   0  0  0  0  0
  -25.9110   35.7300   63.0380 N   0  0  0  0  0
  -25.9320   35.4570   61.7310 C   0  0  0  0  0
  -26.8480   35.8970   60.8330 O   0  0  0  0  0
  -27.1828   24.8406   64.1391 H   0  0  0  0  0
  -28.1739   25.0892   61.3999 H   0  0  0  0  0
  -26.6215   26.0664   61.1583 H   0  0  0  0  0
  -27.9278   26.2021   63.7837 H   0  0  0  0  0
  -28.7811   27.0047   62.3775 H   0  0  0  0  0
  -26.7023   28.2045   60.8038 H   0  0  0  0  0
  -26.9910   27.7511   65.0881 H   0  0  0  0  0
  -25.5306   29.7233   65.3870 H   0  0  0  0  0
  -24.6409   30.9104   63.4135 H   0  0  0  0  0
  -24.3273   28.7151   59.7153 H   0  0  0  0  0
  -23.5237   32.5570   57.9746 H   0  0  0  0  0
  -25.6321   32.2951   61.6977 H   0  0  0  0  0
  -23.5595   34.6640   58.2272 H   0  0  0  0  0
  -24.4047   36.8231   58.9256 H   0  0  0  0  0
  -23.5711   36.6969   60.4941 H   0  0  0  0  0
  -22.6262   36.8802   58.9959 H   0  0  0  0  0
  -22.0520   34.5591   60.8795 H   0  0  0  0  0
  -21.9567   33.3886   59.5410 H   0  0  0  0  0
  -21.3087   35.0340   59.3326 H   0  0  0  0  0
  -28.0841   35.3515   57.8480 H   0  0  0  0  0
  -28.6613   36.3061   59.2178 H   0  0  0  0  0
  -23.0572   32.4895   62.5275 H   0  0  0  0  0
  -22.0338   33.9048   62.1802 H   0  0  0  0  0
  -22.5794   33.5876   63.8454 H   0  0  0  0  0
  1  2  2  0  0  0
  2  3  1  0  0  0
  2  4  1  0  0  0
  4  5  1  0  0  0
  5  6  1  0  0  0
  6  7  4  0  0  0
  6  8  4  0  0  0
  7 11  4  0  0  0
  8  9  4  0  0  0
  9 10  4  0  0  0
 10 11  4  0  0  0
 11 12  1  0  0  0
 12 13  4  0  0  0
 12 17  4  0  0  0
 13 14  4  0  0  0
 14 15  1  0  0  0
 14 16  4  0  0  0
 16 18  4  0  0  0
 17 18  4  0  0  0
 18 19  1  0  0  0
 19 20  1  0  0  0
 19 23  1  0  0  0
 19 28  1  0  0  0
 20 21  1  0  0  0
 20 22  1  0  0  0
 23 24  1  0  0  0
 23 26  2  0  0  0
 24 25  3  0  0  0
 26 27  1  0  0  0
 26 34  1  0  0  0
 28 29  4  0  0  0
 28 33  4  0  0  0
 29 30  1  0  0  0
 29 31  4  0  0  0
 31 32  4  0  0  0
 32 33  4  0  0  0
 33 34  1  0  0  0
  3 35  1  0  0  0
  4 36  1  0  0  0
  4 37  1  0  0  0
  5 38  1  0  0  0
  5 39  1  0  0  0
  7 40  1  0  0  0
  8 41  1  0  0  0
  9 42  1  0  0  0
 10 43  1  0  0  0
 13 44  1  0  0  0
 16 45  1  0  0  0
 17 46  1  0  0  0
 20 47  1  0  0  0
 21 48  1  0  0  0
 21 49  1  0  0  0
 21 50  1  0  0  0
 22 51  1  0  0  0
 22 52  1  0  0  0
 22 53  1  0  0  0
 27 54  1  0  0  0
 27 55  1  0  0  0
 30 56  1  0  0  0
 30 57  1  0  0  0
 30 58  1  0  0  0
M  END
$$$$
