4ot6_ligand
  -I-interpret- 

 71 76  0  0  0  0  0  0  0  0999 V2000
   22.8400    5.7710    0.0620 C   0  0  0  0  0
   23.9820    6.2000    0.5750 N   0  0  0  0  0
   24.1280    6.4590    1.8940 C   0  0  0  0  0
   23.0720    6.2870    2.7600 C   0  0  0  0  0
   21.7150    5.5790    0.9300 C   0  0  0  0  0
   21.8510    5.8480    2.2850 N   0  0  0  0  0
   20.6460    5.5860    2.8780 C   0  0  0  0  0
   19.8050    5.1770    1.8930 C   0  0  0  0  0
   20.4690    5.1740    0.7330 N   0  0  0  0  0
   22.7110    5.5110   -1.3040 N   0  0  0  0  0
   23.7490    5.4890   -2.2370 C   0  0  0  0  0
   23.5390    4.8560   -3.4620 C   0  0  0  0  0
   24.5450    4.8160   -4.4130 C   0  0  0  0  0
   25.7910    5.4190   -4.1620 C   0  0  0  0  0
   25.9820    6.0700   -2.9280 C   0  0  0  0  0
   24.9770    6.1000   -1.9830 C   0  0  0  0  0
   25.4480    6.9370    2.4010 C   0  0  0  0  0
   26.8700    5.3690   -5.1960 C   0  0  0  0  0
   26.5450    5.4610   -6.3620 O   0  0  0  0  0
   28.2000    5.2080   -4.9210 N   0  0  0  0  0
   28.7420    5.0740   -3.5440 C   0  0  0  0  0
   29.6000    3.8020   -3.4620 C   0  0  0  0  0
   30.5750    3.8190   -4.5180 O   0  0  0  0  0
   30.0720    3.9080   -5.8630 C   0  0  0  0  0
   29.1990    5.1660   -6.0220 C   0  0  0  0  0
   26.3460    7.5600    1.5300 C   0  0  0  0  0
   27.5820    8.0050    1.9960 C   0  0  0  0  0
   27.9040    7.8330    3.3420 C   0  0  0  0  0
   27.0170    7.2220    4.2120 C   0  0  0  0  0
   25.7960    6.7790    3.7480 C   0  0  0  0  0
   28.5200    8.6440    1.1670 N   0  0  0  0  0
   28.6430    8.5680   -0.1850 C   0  0  0  0  0
   29.7330    9.3480   -0.8090 C   0  0  0  0  0
   27.9110    7.8950   -0.8850 O   0  0  0  0  0
   30.4030    8.8790   -1.9520 C   0  0  0  0  0
   31.4260    9.6350   -2.5050 C   0  0  0  0  0
   31.7920   10.8510   -1.9230 C   0  0  0  0  0
   31.1280   11.3080   -0.7860 C   0  0  0  0  0
   30.1060   10.5670   -0.2260 C   0  0  0  0  0
   33.1030   11.8130   -2.6350 S   0  0  0  0  0
   33.4780   13.1880   -1.4990 C   0  0  0  0  0
   34.1980   10.9070   -2.6850 O   0  0  0  0  0
   32.5460   12.3170   -3.8420 O   0  0  0  0  0
   23.1992    6.4974    3.8219 H   0  0  0  0  0
   20.4071    5.6862    3.9368 H   0  0  0  0  0
   18.7600    4.8971    2.0266 H   0  0  0  0  0
   21.7716    5.3195   -1.6521 H   0  0  0  0  0
   22.5765    4.3896   -3.6723 H   0  0  0  0  0
   24.3699    4.3130   -5.3640 H   0  0  0  0  0
   26.9347    6.5558   -2.7169 H   0  0  0  0  0
   25.1438    6.6047   -1.0314 H   0  0  0  0  0
   27.9198    5.0079   -2.8315 H   0  0  0  0  0
   29.3532    5.9442   -3.3046 H   0  0  0  0  0
   28.9626    2.9241   -3.5674 H   0  0  0  0  0
   30.1066    3.7647   -2.4976 H   0  0  0  0  0
   29.4689    3.0258   -6.0775 H   0  0  0  0  0
   30.9121    3.9670   -6.5549 H   0  0  0  0  0
   29.8273    6.0557   -5.9809 H   0  0  0  0  0
   28.6847    5.1362   -6.9826 H   0  0  0  0  0
   26.0788    7.6984    0.4824 H   0  0  0  0  0
   28.8665    8.1842    3.7139 H   0  0  0  0  0
   27.2830    7.0914    5.2610 H   0  0  0  0  0
   25.0968    6.3024    4.4350 H   0  0  0  0  0
   29.1963    9.2425    1.6412 H   0  0  0  0  0
   30.1204    7.9269   -2.4012 H   0  0  0  0  0
   31.9452    9.2797   -3.3951 H   0  0  0  0  0
   31.4175   12.2573   -0.3354 H   0  0  0  0  0
   29.5920   10.9282    0.6648 H   0  0  0  0  0
   33.6614   12.7925   -0.5000 H   0  0  0  0  0
   34.3642   13.7165   -1.8503 H   0  0  0  0  0
   32.6318   13.8745   -1.4697 H   0  0  0  0  0
  1  2  4  0  0  0
  1  5  4  0  0  0
  1 10  1  0  0  0
  2  3  4  0  0  0
  3  4  4  0  0  0
  3 17  1  0  0  0
  4  6  4  0  0  0
  5  6  4  0  0  0
  5  9  4  0  0  0
  6  7  4  0  0  0
  7  8  4  0  0  0
  8  9  4  0  0  0
 10 11  1  0  0  0
 11 12  4  0  0  0
 11 16  4  0  0  0
 12 13  4  0  0  0
 13 14  4  0  0  0
 14 15  4  0  0  0
 14 18  1  0  0  0
 15 16  4  0  0  0
 17 26  4  0  0  0
 17 30  4  0  0  0
 18 19  2  0  0  0
 18 20  1  0  0  0
 20 21  1  0  0  0
 20 25  1  0  0  0
 21 22  1  0  0  0
 22 23  1  0  0  0
 23 24  1  0  0  0
 24 25  1  0  0  0
 26 27  4  0  0  0
 27 28  4  0  0  0
 27 31  1  0  0  0
 28 29  4  0  0  0
 29 30  4  0  0  0
 31 32  1  0  0  0
 32 33  1  0  0  0
 32 34  2  0  0  0
 33 35  4  0  0  0
 33 39  4  0  0  0
 35 36  4  0  0  0
 36 37  4  0  0  0
 37 38  4  0  0  0
 37 40  1  0  0  0
 38 39  4  0  0  0
 40 41  1  0  0  0
 40 42  2  0  0  0
 40 43  2  0  0  0
  4 44  1  0  0  0
  7 45  1  0  0  0
  8 46  1  0  0  0
 10 47  1  0  0  0
 12 48  1  0  0  0
 13 49  1  0  0  0
 15 50  1  0  0  0
 16 51  1  0  0  0
 21 52  1  0  0  0
 21 53  1  0  0  0
 22 54  1  0  0  0
 22 55  1  0  0  0
 24 56  1  0  0  0
 24 57  1  0  0  0
 25 58  1  0  0  0
 25 59  1  0  0  0
 26 60  1  0  0  0
 28 61  1  0  0  0
 29 62  1  0  0  0
 30 63  1  0  0  0
 31 64  1  0  0  0
 35 65  1  0  0  0
 36 66  1  0  0  0
 38 67  1  0  0  0
 39 68  1  0  0  0
 41 69  1  0  0  0
 41 70  1  0  0  0
 41 71  1  0  0  0
M  END
$$$$
