6mo0_ligand
  -I-interpret- 

 63 67  0  0  0  0  0  0  0  0999 V2000
    7.0120  -60.8150    9.3110 N   0  3  0  0  0
    7.9870  -61.7640    8.7180 C   0  0  0  0  0
    7.7750  -61.9860    7.2250 C   0  0  0  0  0
    8.8060  -62.6500    6.5340 C   0  0  0  0  0
    8.6860  -62.7980    5.1410 C   0  0  0  0  0
    7.4910  -62.3040    4.5110 C   0  0  0  0  0
    6.4100  -61.7220    5.1610 C   0  0  0  0  0
    6.5790  -61.5380    6.5760 C   0  0  0  0  0
    7.4050  -62.4910    3.0760 C   0  0  0  0  0
    8.3430  -61.9840    2.1630 C   0  0  0  0  0
    9.4300  -61.0010    2.5800 C   0  0  0  0  0
    9.2980  -60.2220    3.7810 C   0  0  0  0  0
   10.3420  -59.2490    4.0590 C   0  0  0  0  0
   11.4800  -59.1120    3.1050 C   0  0  0  0  0
   12.5010  -58.0800    3.4340 C   0  0  0  0  0
   13.0660  -57.1920    2.4660 C   0  0  0  0  0
   13.9660  -56.3420    3.1650 O   0  0  0  0  0
   13.8580  -56.7130    4.5410 C   0  0  0  0  0
   12.9790  -57.7920    4.7170 C   0  0  0  0  0
   11.5760  -59.8380    1.9020 C   0  0  0  0  0
   10.5360  -60.7600    1.6550 C   0  0  0  0  0
    8.1680  -62.2790    0.7760 N   0  0  0  0  0
    7.1840  -63.1350    0.3590 C   0  0  0  0  0
    6.3660  -63.7140    1.3730 C   0  0  0  0  0
    6.4660  -63.3490    2.6750 N   0  0  0  0  0
    6.9480  -63.4560   -1.0190 O   0  0  0  0  0
    7.9070  -63.0600   -2.0610 C   0  0  0  0  0
    7.2350  -62.0260   -2.9870 C   0  0  0  0  0
    8.2990  -61.1020   -3.6570 C   0  0  0  0  0
    7.6000  -60.0850   -4.5890 C   0  0  0  0  0
    6.6840  -60.8490   -5.5570 N   0  3  0  0  0
    5.6880  -61.8100   -4.9920 C   0  0  0  0  0
    6.3530  -62.8000   -3.9900 C   0  0  0  0  0
    7.2052  -60.7090   10.3069 H   0  0  0  0  0
    7.0964  -59.9096    8.8488 H   0  0  0  0  0
    6.0668  -61.1765    9.1834 H   0  0  0  0  0
    7.8588  -62.7247    9.2167 H   0  0  0  0  0
    8.9829  -61.3415    8.8514 H   0  0  0  0  0
    9.6747  -63.0393    7.0650 H   0  0  0  0  0
    9.4742  -63.2725    4.5565 H   0  0  0  0  0
    5.5012  -61.4269    4.6366 H   0  0  0  0  0
    5.7939  -61.0555    7.1581 H   0  0  0  0  0
    8.4514  -60.3551    4.4545 H   0  0  0  0  0
   10.2935  -58.6277    4.9532 H   0  0  0  0  0
   12.8486  -57.1709    1.3981 H   0  0  0  0  0
   14.3922  -56.2190    5.3526 H   0  0  0  0  0
   12.7241  -58.2958    5.6494 H   0  0  0  0  0
   12.4020  -59.6967    1.2050 H   0  0  0  0  0
   10.5589  -61.3238    0.7224 H   0  0  0  0  0
    5.6370  -64.4743    1.0926 H   0  0  0  0  0
    8.2066  -63.9342   -2.6391 H   0  0  0  0  0
    8.7933  -62.6231   -1.6008 H   0  0  0  0  0
    6.5943  -61.3460   -2.4256 H   0  0  0  0  0
    8.9877  -61.7117   -4.2419 H   0  0  0  0  0
    8.8463  -60.5637   -2.8832 H   0  0  0  0  0
    8.3472  -59.5253   -5.1516 H   0  0  0  0  0
    7.0101  -59.3858   -3.9964 H   0  0  0  0  0
    7.3122  -61.4194   -6.1230 H   0  0  0  0  0
    6.1272  -60.1302   -6.0192 H   0  0  0  0  0
    5.2601  -62.3856   -5.8128 H   0  0  0  0  0
    4.9243  -61.2424   -4.4604 H   0  0  0  0  0
    5.5748  -63.3339   -3.4446 H   0  0  0  0  0
    6.9738  -63.5054   -4.5425 H   0  0  0  0  0
  1  2  1  0  0  0
  2  3  1  0  0  0
  3  4  4  0  0  0
  3  8  4  0  0  0
  4  5  4  0  0  0
  5  6  4  0  0  0
  6  7  4  0  0  0
  6  9  1  0  0  0
  7  8  4  0  0  0
  9 10  4  0  0  0
  9 25  4  0  0  0
 10 11  1  0  0  0
 10 22  4  0  0  0
 11 12  4  0  0  0
 11 21  4  0  0  0
 12 13  4  0  0  0
 13 14  4  0  0  0
 14 15  1  0  0  0
 14 20  4  0  0  0
 15 16  4  0  0  0
 15 19  4  0  0  0
 16 17  4  0  0  0
 17 18  4  0  0  0
 18 19  4  0  0  0
 20 21  4  0  0  0
 22 23  4  0  0  0
 23 24  4  0  0  0
 23 26  1  0  0  0
 24 25  4  0  0  0
 26 27  1  0  0  0
 27 28  1  0  0  0
 28 29  1  0  0  0
 28 33  1  0  0  0
 29 30  1  0  0  0
 30 31  1  0  0  0
 31 32  1  0  0  0
 32 33  1  0  0  0
  1 34  1  0  0  0
  1 35  1  0  0  0
  1 36  1  0  0  0
  2 37  1  0  0  0
  2 38  1  0  0  0
  4 39  1  0  0  0
  5 40  1  0  0  0
  7 41  1  0  0  0
  8 42  1  0  0  0
 12 43  1  0  0  0
 13 44  1  0  0  0
 16 45  1  0  0  0
 18 46  1  0  0  0
 19 47  1  0  0  0
 20 48  1  0  0  0
 21 49  1  0  0  0
 24 50  1  0  0  0
 27 51  1  0  0  0
 27 52  1  0  0  0
 28 53  1  0  0  0
 29 54  1  0  0  0
 29 55  1  0  0  0
 30 56  1  0  0  0
 30 57  1  0  0  0
 31 58  1  0  0  0
 31 59  1  0  0  0
 32 60  1  0  0  0
 32 61  1  0  0  0
 33 62  1  0  0  0
 33 63  1  0  0  0
M  END
$$$$
