2w54_ligand
  -I-interpret- 

 21 22  0  0  0  0  0  0  0  0999 V2000
   14.6360    8.8370   24.8920 C   0  0  0  0  0
   15.2850    9.6180   24.0400 N   0  0  0  0  0
   16.5500    9.9980   24.2860 C   0  0  0  0  0
   17.1830   10.7940   23.4030 N   0  0  0  0  0
   18.4510   11.1970   23.6140 C   0  0  0  0  0
   19.0460   11.9840   22.7230 N   0  0  0  0  0
   17.1910    9.5690   25.4590 C   0  0  0  0  0
   18.5050    9.9690   25.7120 C   0  0  0  0  0
   19.1460   10.7960   24.7750 N   0  0  0  0  0
   19.0970    9.6090   26.7300 O   0  0  0  0  0
   16.5310    8.7760   26.3230 N   0  0  0  0  0
   15.2650    8.4030   26.0580 C   0  0  0  0  0
   14.5110    7.5060   27.0380 C   0  0  0  0  0
   14.6710    7.6240   28.2510 O   0  0  0  0  0
   13.6104    8.5341   24.6809 H   0  0  0  0  0
   18.5426   12.2788   21.8863 H   0  0  0  0  0
   20.0059   12.2931   22.8761 H   0  0  0  0  0
   20.1055   11.1041   24.9323 H   0  0  0  0  0
   14.8787    6.5038   26.8177 H   0  0  0  0  0
   13.4634    7.7635   26.8819 H   0  0  0  0  0
   14.1217    6.9835   28.7089 H   0  0  0  0  0
  1  2  4  0  0  0
  1 12  4  0  0  0
  2  3  4  0  0  0
  3  4  1  0  0  0
  3  7  4  0  0  0
  4  5  2  0  0  0
  5  6  1  0  0  0
  5  9  1  0  0  0
  7  8  1  0  0  0
  7 11  4  0  0  0
  8  9  1  0  0  0
  8 10  2  0  0  0
 11 12  4  0  0  0
 12 13  1  0  0  0
 13 14  1  0  0  0
  1 15  1  0  0  0
  6 16  1  0  0  0
  6 17  1  0  0  0
  9 18  1  0  0  0
 13 19  1  0  0  0
 13 20  1  0  0  0
 14 21  1  0  0  0
M  END
$$$$
