2q9y_ligand
  -I-interpret- 

 36 36  0  0  0  0  0  0  0  0999 V2000
  -39.6830   -3.0680   15.8930 N   0  3  0  0  0
  -40.5330   -2.4500   14.7200 C   0  0  0  0  0
  -40.5870   -3.5210   17.0960 C   0  0  0  0  0
  -41.2090   -4.9480   17.0920 C   0  0  0  0  0
  -38.7370   -1.9680   16.4410 C   0  0  0  0  0
  -39.3560   -0.6670   17.0100 C   0  0  0  0  0
  -38.7970   -4.2710   15.4800 C   0  0  0  0  0
  -37.8150   -4.0700   14.3130 C   0  0  0  0  0
  -41.6120   -3.2600   13.9910 C   0  0  0  0  0
  -42.9290   -2.7120   13.8810 C   0  0  0  0  0
  -43.9710   -3.4160   13.2280 C   0  0  0  0  0
  -43.7150   -4.6900   12.6700 C   0  0  0  0  0
  -42.4150   -5.2590   12.7620 C   0  0  0  0  0
  -41.3790   -4.5510   13.4140 C   0  0  0  0  0
  -39.7941   -2.2479   13.9446 H   0  0  0  0  0
  -41.0933   -1.6487   15.2017 H   0  0  0  0  0
  -41.4425   -2.8461   17.0689 H   0  0  0  0  0
  -39.9230   -3.5109   17.9603 H   0  0  0  0  0
  -41.8486   -5.0617   16.2167 H   0  0  0  0  0
  -40.4116   -5.6904   17.0598 H   0  0  0  0  0
  -41.8008   -5.0875   17.9967 H   0  0  0  0  0
  -38.1480   -1.6481   15.5814 H   0  0  0  0  0
  -38.2256   -2.4302   17.2853 H   0  0  0  0  0
  -39.9346   -0.1705   16.2310 H   0  0  0  0  0
  -40.0082   -0.9128   17.8480 H   0  0  0  0  0
  -38.5592   -0.0055   17.3499 H   0  0  0  0  0
  -39.4908   -5.0430   15.1472 H   0  0  0  0  0
  -38.1760   -4.4873   16.3493 H   0  0  0  0  0
  -38.3706   -3.8017   13.4144 H   0  0  0  0  0
  -37.1159   -3.2715   14.5615 H   0  0  0  0  0
  -37.2651   -4.9949   14.1391 H   0  0  0  0  0
  -43.1354   -1.7311   14.3091 H   0  0  0  0  0
  -44.9662   -2.9772   13.1560 H   0  0  0  0  0
  -44.5145   -5.2360   12.1692 H   0  0  0  0  0
  -42.2173   -6.2401   12.3303 H   0  0  0  0  0
  -40.3857   -4.9950   13.4789 H   0  0  0  0  0
  1  2  1  0  0  0
  1  3  1  0  0  0
  1  5  1  0  0  0
  1  7  1  0  0  0
  2  9  1  0  0  0
  3  4  1  0  0  0
  5  6  1  0  0  0
  7  8  1  0  0  0
  9 10  4  0  0  0
  9 14  4  0  0  0
 10 11  4  0  0  0
 11 12  4  0  0  0
 12 13  4  0  0  0
 13 14  4  0  0  0
  2 15  1  0  0  0
  2 16  1  0  0  0
  3 17  1  0  0  0
  3 18  1  0  0  0
  4 19  1  0  0  0
  4 20  1  0  0  0
  4 21  1  0  0  0
  5 22  1  0  0  0
  5 23  1  0  0  0
  6 24  1  0  0  0
  6 25  1  0  0  0
  6 26  1  0  0  0
  7 27  1  0  0  0
  7 28  1  0  0  0
  8 29  1  0  0  0
  8 30  1  0  0  0
  8 31  1  0  0  0
 10 32  1  0  0  0
 11 33  1  0  0  0
 12 34  1  0  0  0
 13 35  1  0  0  0
 14 36  1  0  0  0
M  END
$$$$
