6arj_ligand
  -I-interpret- 

 79 83  0  0  0  0  0  0  0  0999 V2000
   -7.7590   20.9190   24.4420 C   0  0  0  0  0
   -7.0260   23.0720   23.7350 C   0  0  0  0  0
   -5.6920   22.6580   23.8690 C   0  0  0  0  0
   -5.4480   21.3330   24.2840 C   0  0  0  0  0
    0.7140   16.7630   23.6410 C   0  0  0  0  0
    0.8270   16.0650   24.8980 O   0  0  0  0  0
    0.2140   16.7240   25.9230 C   0  0  0  0  0
    0.6060   16.5410   27.0760 O   0  0  0  0  0
   -0.8040   17.5680   25.6710 N   0  0  0  0  0
   -1.4810   18.2970   26.7750 C   0  0  0  0  0
   -1.7510   19.7500   26.4100 C   0  0  0  0  0
   -1.2480   17.7580   24.2640 C   0  0  0  0  0
   -1.5270   19.2280   23.9280 C   0  0  0  0  0
   -2.3820   19.8520   25.0160 C   0  0  0  0  0
   -2.8170   21.2730   24.6640 C   0  0  0  0  0
   -3.8260   19.4210   24.9420 C   0  0  0  0  0
   -4.2280   20.7910   24.4940 N   0  0  0  0  0
   -6.4880   20.5190   24.5550 N   0  0  0  0  0
   -4.6130   23.5240   23.5790 C   0  0  0  0  0
   -7.3940   24.3220   23.3510 C   0  0  0  0  0
   -7.1400   25.4840   23.9890 C   0  0  0  0  0
   -6.3430   25.6970   25.2810 C   0  0  0  0  0
   -7.6940   26.5150   23.3170 O   0  0  0  0  0
   -8.3450   25.9150   22.1580 N   0  0  0  0  0
   -8.1250   24.6030   22.2640 C   0  0  0  0  0
   -8.6360   23.5960   21.2470 C   0  0  0  0  0
   -8.0150   22.1820   24.0240 N   0  0  0  0  0
   -8.7810   19.9820   24.7200 C   0  0  0  0  0
   -9.7480   19.7290   23.7480 C   0  0  0  0  0
   -8.8430   19.2610   25.9200 C   0  0  0  0  0
   -7.7240   19.4660   27.1900 Cl  0  0  0  0  0
   -9.8530   18.3290   26.1540 C   0  0  0  0  0
  -10.8190   18.0920   25.1940 C   0  0  0  0  0
  -10.7570   18.7890   23.9990 C   0  0  0  0  0
  -11.7290   18.5190   23.1220 O   0  0  0  0  0
  -11.7320   19.2000   21.8520 C   0  0  0  0  0
  -12.9820   18.7300   21.0930 C   0  0  0  0  0
  -12.8040   17.3630   20.7250 O   0  0  0  0  0
  -13.2190   19.5900   19.8300 C   0  0  0  0  0
  -13.8060   20.8960   20.2230 N   0  3  0  0  0
  -14.1900   21.6450   19.0290 C   0  0  0  0  0
   -0.3390   16.8767   23.3834 H   0  0  0  0  0
    1.1758   17.7463   23.7301 H   0  0  0  0  0
    1.2201   16.1917   22.8628 H   0  0  0  0  0
   -0.8293   18.2783   27.6485 H   0  0  0  0  0
   -2.4359   17.8100   26.9726 H   0  0  0  0  0
   -0.8064   20.2940   26.4093 H   0  0  0  0  0
   -2.4404   20.1739   27.1401 H   0  0  0  0  0
   -2.1744   17.2004   24.1261 H   0  0  0  0  0
   -0.4486   17.4099   23.6098 H   0  0  0  0  0
   -2.0562   19.2857   22.9768 H   0  0  0  0  0
   -0.5822   19.7671   23.8591 H   0  0  0  0  0
   -2.3219   21.8133   23.8572 H   0  0  0  0  0
   -2.5978   22.0969   25.3431 H   0  0  0  0  0
   -4.3022   18.9781   25.8167 H   0  0  0  0  0
   -4.1001   18.5546   24.3401 H   0  0  0  0  0
   -4.6709   23.8381   22.5368 H   0  0  0  0  0
   -4.6666   24.3988   24.2270 H   0  0  0  0  0
   -3.6724   23.0005   23.7503 H   0  0  0  0  0
   -6.8144   25.1429   26.0927 H   0  0  0  0  0
   -5.3228   25.3399   25.1401 H   0  0  0  0  0
   -6.3270   26.7591   25.5256 H   0  0  0  0  0
   -7.7907   23.0772   20.7950 H   0  0  0  0  0
   -9.2826   22.8740   21.7458 H   0  0  0  0  0
   -9.2000   24.1171   20.4734 H   0  0  0  0  0
   -9.7195   20.2601   22.7966 H   0  0  0  0  0
   -9.8811   17.7848   27.0980 H   0  0  0  0  0
  -11.6151   17.3696   25.3744 H   0  0  0  0  0
  -10.8286   18.9681   21.2880 H   0  0  0  0  0
  -11.7507   20.2806   21.9940 H   0  0  0  0  0
  -13.8542   18.8365   21.7379 H   0  0  0  0  0
  -13.5798   17.0572   20.2493 H   0  0  0  0  0
  -13.9044   19.0706   19.1603 H   0  0  0  0  0
  -12.2698   19.7569   19.3209 H   0  0  0  0  0
  -13.1157   21.4314   20.7495 H   0  0  0  0  0
  -14.6315   20.7348   20.8001 H   0  0  0  0  0
  -13.3091   21.8165   18.4103 H   0  0  0  0  0
  -14.9265   21.0733   18.4643 H   0  0  0  0  0
  -14.6199   22.6020   19.3246 H   0  0  0  0  0
 18  1  4  0  0  0
  1 27  4  0  0  0
  1 28  1  0  0  0
  3  2  4  0  0  0
  2 20  1  0  0  0
  2 27  4  0  0  0
  4  3  4  0  0  0
  3 19  1  0  0  0
 17  4  1  0  0  0
  4 18  4  0  0  0
  6  5  1  0  0  0
  7  6  1  0  0  0
  7  8  2  0  0  0
  9  7  1  0  0  0
 10  9  1  0  0  0
 12  9  1  0  0  0
 11 10  1  0  0  0
 14 11  1  0  0  0
 13 12  1  0  0  0
 14 13  1  0  0  0
 15 14  1  0  0  0
 14 16  1  0  0  0
 15 17  1  0  0  0
 16 17  1  0  0  0
 20 21  4  0  0  0
 20 25  4  0  0  0
 21 22  1  0  0  0
 21 23  4  0  0  0
 23 24  4  0  0  0
 24 25  4  0  0  0
 25 26  1  0  0  0
 28 29  4  0  0  0
 28 30  4  0  0  0
 29 34  4  0  0  0
 30 31  1  0  0  0
 30 32  4  0  0  0
 32 33  4  0  0  0
 33 34  4  0  0  0
 34 35  1  0  0  0
 35 36  1  0  0  0
 36 37  1  0  0  0
 37 38  1  0  0  0
 37 39  1  0  0  0
 39 40  1  0  0  0
 40 41  1  0  0  0
  5 42  1  0  0  0
  5 43  1  0  0  0
  5 44  1  0  0  0
 10 45  1  0  0  0
 10 46  1  0  0  0
 11 47  1  0  0  0
 11 48  1  0  0  0
 12 49  1  0  0  0
 12 50  1  0  0  0
 13 51  1  0  0  0
 13 52  1  0  0  0
 15 53  1  0  0  0
 15 54  1  0  0  0
 16 55  1  0  0  0
 16 56  1  0  0  0
 19 57  1  0  0  0
 19 58  1  0  0  0
 19 59  1  0  0  0
 22 60  1  0  0  0
 22 61  1  0  0  0
 22 62  1  0  0  0
 26 63  1  0  0  0
 26 64  1  0  0  0
 26 65  1  0  0  0
 29 66  1  0  0  0
 32 67  1  0  0  0
 33 68  1  0  0  0
 36 69  1  0  0  0
 36 70  1  0  0  0
 37 71  1  0  0  0
 38 72  1  0  0  0
 39 73  1  0  0  0
 39 74  1  0  0  0
 40 75  1  0  0  0
 40 76  1  0  0  0
 41 77  1  0  0  0
 41 78  1  0  0  0
 41 79  1  0  0  0
M  END
$$$$
