5hex_ligand
  -I-interpret- 

 54 56  0  0  0  0  0  0  0  0999 V2000
   31.4480   -4.1500  -65.6180 C   0  0  0  0  0
   31.5420   -3.0050  -64.8510 C   0  0  0  0  0
   32.5930   -4.7780  -66.0400 C   0  0  0  0  0
   33.9180   -3.1030  -64.9360 C   0  0  0  0  0
   33.6680    5.9620  -57.1000 C   0  0  0  0  0
   32.7650   -2.4820  -64.5170 C   0  0  0  0  0
   34.2580    7.1740  -56.6870 C   0  0  0  0  0
   33.8240   -4.2540  -65.6940 C   0  0  0  0  0
   34.7710    7.8040  -57.7890 C   0  0  0  0  0
   33.8570    5.9180  -58.4620 C   0  0  0  0  0
   32.8240   -1.2630  -63.7010 C   0  0  0  0  0
   34.2960    7.6700  -55.2570 C   0  0  0  0  0
   34.2620    0.5920  -62.9480 C   0  0  0  0  0
   35.4470    1.3580  -63.4970 C   0  0  0  0  0
   35.4990    2.6980  -62.7960 C   0  0  0  0  0
   35.7180    2.4380  -61.3250 C   0  0  0  0  0
   34.4600    0.4030  -61.4630 C   0  0  0  0  0
   35.4850    9.0730  -57.9450 C   0  0  0  0  0
   35.7770    3.7080  -60.4950 C   0  0  0  0  0
   34.0600   -0.6570  -63.6450 N   0  0  0  0  0
   34.6110    4.5690  -60.7660 N   0  0  0  0  0
   34.7110    8.8530  -55.0920 O   0  0  0  0  0
   31.8220   -0.8920  -63.1150 O   0  0  0  0  0
   33.8950    6.8060  -54.4280 O   0  0  0  0  0
   33.1760    3.5180  -58.7810 O   0  0  0  0  0
   32.1930    5.3290  -60.1640 O   0  0  0  0  0
   34.5270    7.0310  -58.8860 O   0  0  0  0  0
   34.6550    1.6550  -60.8130 O   0  0  0  0  0
   35.3190    1.5200  -64.9050 O   0  0  0  0  0
   36.6120    3.4100  -63.2990 O   0  0  0  0  0
   35.5110   -0.4990  -61.1620 O   0  0  0  0  0
   33.3610    4.7070  -59.5870 S   0  0  0  0  0
   35.4060   -5.1490  -66.2810 Br  0  0  0  0  0
   30.4710   -4.5520  -65.8863 H   0  0  0  0  0
   30.6332   -2.5112  -64.5071 H   0  0  0  0  0
   32.5319   -5.6835  -66.6437 H   0  0  0  0  0
   34.8931   -2.6926  -64.6736 H   0  0  0  0  0
   33.1699    5.2204  -56.4754 H   0  0  0  0  0
   33.3482    1.1633  -63.1113 H   0  0  0  0  0
   36.3733    0.8127  -63.3163 H   0  0  0  0  0
   34.5813    3.2643  -62.9547 H   0  0  0  0  0
   36.6781    1.9274  -61.2509 H   0  0  0  0  0
   33.5452   -0.0474  -61.0779 H   0  0  0  0  0
   34.8523    9.8896  -57.5971 H   0  0  0  0  0
   36.4026    9.0468  -57.3572 H   0  0  0  0  0
   35.7297    9.2239  -58.9964 H   0  0  0  0  0
   36.6838    4.2543  -60.7546 H   0  0  0  0  0
   35.7745    3.4369  -59.4392 H   0  0  0  0  0
   34.8528   -1.1017  -64.1076 H   0  0  0  0  0
   34.5444    5.0801  -61.6462 H   0  0  0  0  0
   34.9377    9.2331  -55.9439 H   0  0  0  0  0
   36.0757    2.0066  -65.2401 H   0  0  0  0  0
   36.6648    4.2657  -62.8671 H   0  0  0  0  0
   35.5954   -0.5838  -60.2095 H   0  0  0  0  0
  2  1  4  0  0  0
  1  3  4  0  0  0
  6  2  4  0  0  0
  8  3  4  0  0  0
  6  4  4  0  0  0
  4  8  4  0  0  0
  5  7  4  0  0  0
 10  5  4  0  0  0
 11  6  1  0  0  0
  9  7  4  0  0  0
  7 12  1  0  0  0
  8 33  1  0  0  0
  9 18  1  0  0  0
 27  9  4  0  0  0
 10 27  4  0  0  0
 32 10  1  0  0  0
 20 11  1  0  0  0
 11 23  2  0  0  0
 12 22  1  0  0  0
 12 24  2  0  0  0
 14 13  1  0  0  0
 17 13  1  0  0  0
 13 20  1  0  0  0
 15 14  1  0  0  0
 14 29  1  0  0  0
 16 15  1  0  0  0
 15 30  1  0  0  0
 19 16  1  0  0  0
 16 28  1  0  0  0
 28 17  1  0  0  0
 17 31  1  0  0  0
 21 19  1  0  0  0
 21 32  1  0  0  0
 32 25  2  0  0  0
 32 26  2  0  0  0
  1 34  1  0  0  0
  2 35  1  0  0  0
  3 36  1  0  0  0
  4 37  1  0  0  0
  5 38  1  0  0  0
 13 39  1  0  0  0
 14 40  1  0  0  0
 15 41  1  0  0  0
 16 42  1  0  0  0
 17 43  1  0  0  0
 18 44  1  0  0  0
 18 45  1  0  0  0
 18 46  1  0  0  0
 19 47  1  0  0  0
 19 48  1  0  0  0
 20 49  1  0  0  0
 21 50  1  0  0  0
 22 51  1  0  0  0
 29 52  1  0  0  0
 30 53  1  0  0  0
 31 54  1  0  0  0
M  END
$$$$
