2zdn_ligand
  -I-interpret- 

 57 59  0  0  0  0  0  0  0  0999 V2000
  -31.2940   -1.9020   18.7110 C   0  0  0  0  0
  -30.6810   -0.5410   18.2600 C   0  0  0  0  0
  -29.1640   -0.6340   18.6100 C   0  0  0  0  0
  -29.1170   -1.6550   19.7750 C   0  0  0  0  0
  -30.2290   -2.6770   19.4830 C   0  0  0  0  0
  -28.4740    0.6340   19.1180 C   0  0  0  0  0
  -28.5490    1.6470   18.0200 C   0  0  0  0  0
  -27.6260    1.3410   16.8970 C   0  0  0  0  0
  -26.4130    1.2220   17.0330 O   0  0  0  0  0
  -28.1900    1.2020   15.7020 N   0  0  0  0  0
  -27.4160    0.7930   14.5370 C   0  0  0  0  0
  -26.2180    1.6490   14.2790 C   0  0  0  0  0
  -26.2630    2.8550   14.4520 O   0  0  0  0  0
  -28.4510    0.9520   13.4430 C   0  0  0  0  0
  -29.8480    0.9250   14.0150 C   0  0  0  0  0
  -29.6150    1.4530   15.4150 C   0  0  0  0  0
  -25.0840    1.1450   13.8960 N   0  0  0  0  0
  -23.8870    1.8350   13.5870 C   0  0  0  0  0
  -22.8330    1.6870   14.6120 C   0  0  0  0  0
  -23.0260    1.9730   15.9290 C   0  0  0  0  0
  -21.9870    1.8100   16.8380 C   0  0  0  0  0
  -20.7410    1.3600   16.4560 C   0  0  0  0  0
  -19.6160    1.1830   17.4360 C   0  0  0  0  0
  -19.4740    2.0300   18.4450 N   0  0  0  0  0
  -18.7650    0.1810   17.2910 N   0  0  0  0  0
  -20.5600    1.0730   15.1090 C   0  0  0  0  0
  -21.5910    1.2310   14.1800 C   0  0  0  0  0
  -31.6141   -2.4741   17.8402 H   0  0  0  0  0
  -32.1627   -1.7280   19.3459 H   0  0  0  0  0
  -31.1575    0.2995   18.7646 H   0  0  0  0  0
  -30.8362   -0.3651   17.1955 H   0  0  0  0  0
  -28.6368   -0.8801   17.6883 H   0  0  0  0  0
  -29.2710   -1.1659   20.7369 H   0  0  0  0  0
  -28.1420   -2.1380   19.8394 H   0  0  0  0  0
  -29.8547   -3.5250   18.9096 H   0  0  0  0  0
  -30.6309   -3.1064   20.4007 H   0  0  0  0  0
  -27.4364    0.4280   19.3806 H   0  0  0  0  0
  -28.9655    1.0050   20.0174 H   0  0  0  0  0
  -28.2636    2.6136   18.4351 H   0  0  0  0  0
  -29.5664    1.6431   17.6288 H   0  0  0  0  0
  -26.9863   -0.2038   14.6364 H   0  0  0  0  0
  -28.3450    0.1277   12.7377 H   0  0  0  0  0
  -28.2934    1.9102   12.9479 H   0  0  0  0  0
  -30.3079   -0.0630   13.9935 H   0  0  0  0  0
  -30.5643    1.5134   13.4417 H   0  0  0  0  0
  -29.8546    2.5140   15.4855 H   0  0  0  0  0
  -30.2606    0.9575   16.1401 H   0  0  0  0  0
  -25.0519    0.1294   13.8071 H   0  0  0  0  0
  -24.1304    2.8954   13.5212 H   0  0  0  0  0
  -23.4996    1.4150   12.6588 H   0  0  0  0  0
  -23.9971    2.3305   16.2713 H   0  0  0  0  0
  -22.1632    2.0458   17.8875 H   0  0  0  0  0
  -18.7091    1.9088   19.1088 H   0  0  0  0  0
  -20.1296    2.8032   18.5580 H   0  0  0  0  0
  -18.8726   -0.4712   16.5141 H   0  0  0  0  0
  -19.5884    0.7153   14.7682 H   0  0  0  0  0
  -21.4247    0.9996   13.1279 H   0  0  0  0  0
  1  2  1  0  0  0
  1  5  1  0  0  0
  2  3  1  0  0  0
  3  4  1  0  0  0
  3  6  1  0  0  0
  4  5  1  0  0  0
  6  7  1  0  0  0
  7  8  1  0  0  0
  8  9  2  0  0  0
  8 10  1  0  0  0
 10 11  1  0  0  0
 10 16  1  0  0  0
 11 12  1  0  0  0
 11 14  1  0  0  0
 12 13  2  0  0  0
 12 17  1  0  0  0
 14 15  1  0  0  0
 15 16  1  0  0  0
 17 18  1  0  0  0
 18 19  1  0  0  0
 19 20  4  0  0  0
 19 27  4  0  0  0
 20 21  4  0  0  0
 21 22  4  0  0  0
 22 23  1  0  0  0
 22 26  4  0  0  0
 23 24  1  0  0  0
 23 25  2  0  0  0
 26 27  4  0  0  0
  1 28  1  0  0  0
  1 29  1  0  0  0
  2 30  1  0  0  0
  2 31  1  0  0  0
  3 32  1  0  0  0
  4 33  1  0  0  0
  4 34  1  0  0  0
  5 35  1  0  0  0
  5 36  1  0  0  0
  6 37  1  0  0  0
  6 38  1  0  0  0
  7 39  1  0  0  0
  7 40  1  0  0  0
 11 41  1  0  0  0
 14 42  1  0  0  0
 14 43  1  0  0  0
 15 44  1  0  0  0
 15 45  1  0  0  0
 16 46  1  0  0  0
 16 47  1  0  0  0
 17 48  1  0  0  0
 18 49  1  0  0  0
 18 50  1  0  0  0
 20 51  1  0  0  0
 21 52  1  0  0  0
 24 53  1  0  0  0
 24 54  1  0  0  0
 25 55  1  0  0  0
 26 56  1  0  0  0
 27 57  1  0  0  0
M  END
$$$$
