6gga_ligand
  -I-interpret- 

 37 39  0  0  0  0  0  0  0  0999 V2000
   90.7020   95.5470  -45.5570 C   0  0  0  0  0
   90.6630   94.4170  -46.4140 C   0  0  0  0  0
   90.9460   93.1170  -45.9260 C   0  0  0  0  0
   91.2670   92.9390  -44.5720 C   0  0  0  0  0
   91.2980   94.0550  -43.7200 C   0  0  0  0  0
   91.0200   95.3400  -44.1970 C   0  0  0  0  0
   91.5850   94.1050  -42.3990 N   0  0  0  0  0
   91.1440   96.2020  -43.1070 C   0  0  0  0  0
   91.4890   95.4030  -42.0030 C   0  0  0  0  0
   90.9920   97.5980  -42.9770 C   0  0  0  0  0
   91.6880   95.9950  -40.7410 C   0  0  0  0  0
   91.5400   97.3960  -40.6040 C   0  0  0  0  0
   91.1800   98.2060  -41.7150 C   0  0  0  0  0
   91.9130   92.9630  -41.5850 C   0  0  0  0  0
   93.4360   92.7050  -41.5650 C   0  0  0  0  0
   91.0290   99.6780  -41.5770 C   0  0  0  0  0
   89.7230  100.0560  -41.0030 N   0  3  0  0  0
   89.5710  101.5110  -40.7890 C   0  0  0  0  0
   90.9050   91.6120  -47.0310 Br  0  0  0  0  0
   90.4924   96.5466  -45.9377 H   0  0  0  0  0
   90.4110   94.5511  -47.4660 H   0  0  0  0  0
   91.4901   91.9447  -44.1852 H   0  0  0  0  0
   90.7311   98.2043  -43.8444 H   0  0  0  0  0
   91.9529   95.3816  -39.8798 H   0  0  0  0  0
   91.7046   97.8607  -39.6318 H   0  0  0  0  0
   91.4185   92.0861  -42.0029 H   0  0  0  0  0
   91.5811   93.1576  -40.5652 H   0  0  0  0  0
   93.7850   92.5187  -42.5807 H   0  0  0  0  0
   93.9459   93.5785  -41.1587 H   0  0  0  0  0
   93.6479   91.8363  -40.9416 H   0  0  0  0  0
   91.1022  100.1200  -42.5707 H   0  0  0  0  0
   91.8096  100.0365  -40.9060 H   0  0  0  0  0
   89.6458   99.6027  -40.0925 H   0  0  0  0  0
   89.0024   99.7667  -41.6644 H   0  0  0  0  0
   90.3427  101.8585  -40.1021 H   0  0  0  0  0
   89.6712  102.0296  -41.7425 H   0  0  0  0  0
   88.5874  101.7138  -40.3653 H   0  0  0  0  0
  1  2  4  0  0  0
  1  6  4  0  0  0
  2  3  4  0  0  0
  3  4  4  0  0  0
  3 19  1  0  0  0
  4  5  4  0  0  0
  5  6  4  0  0  0
  5  7  4  0  0  0
  6  8  4  0  0  0
  7  9  4  0  0  0
  7 14  1  0  0  0
  8  9  4  0  0  0
  8 10  4  0  0  0
  9 11  4  0  0  0
 10 13  4  0  0  0
 11 12  4  0  0  0
 12 13  4  0  0  0
 13 16  1  0  0  0
 14 15  1  0  0  0
 16 17  1  0  0  0
 17 18  1  0  0  0
  1 20  1  0  0  0
  2 21  1  0  0  0
  4 22  1  0  0  0
 10 23  1  0  0  0
 11 24  1  0  0  0
 12 25  1  0  0  0
 14 26  1  0  0  0
 14 27  1  0  0  0
 15 28  1  0  0  0
 15 29  1  0  0  0
 15 30  1  0  0  0
 16 31  1  0  0  0
 16 32  1  0  0  0
 17 33  1  0  0  0
 17 34  1  0  0  0
 18 35  1  0  0  0
 18 36  1  0  0  0
 18 37  1  0  0  0
M  END
$$$$
