3k5d_ligand
  -I-interpret- 

 89 88  0  0  0  0  0  0  0  0999 V2000
    3.2040    7.3270   28.8540 C   0  0  0  0  0
    3.9620    7.4530   29.8440 O   0  0  0  0  0
    3.8210    7.1200   27.5150 C   0  0  0  0  0
    1.8540    7.3650   28.9110 N   0  0  0  0  0
    1.1910    7.6010   30.1850 C   0  0  0  0  0
    1.0610    6.3140   30.9770 C   0  0  0  0  0
    0.8770    5.2740   30.3610 O   0  0  0  0  0
   -0.1120    8.4700   30.1280 C   0  0  0  0  0
   -1.3520    7.8840   29.3890 C   0  0  0  0  0
   -1.0350    7.6270   27.8940 C   0  0  0  0  0
   -2.5450    8.8520   29.4920 C   0  0  0  0  0
    1.1600    6.3920   32.3300 N   0  0  0  0  0
    1.0580    5.2230   33.1830 C   0  0  0  0  0
   -0.0620    5.4590   34.1780 C   0  0  0  0  0
    0.1940    5.6830   35.3600 O   0  0  0  0  0
    2.3990    4.8730   33.9040 C   0  0  0  0  0
    3.4650    4.3590   32.8960 C   0  0  0  0  0
    5.0840    4.3490   33.7130 S   0  0  0  0  0
    5.6870    6.0000   33.2390 C   0  0  0  0  0
   -1.3400    5.4090   33.7120 N   0  0  0  0  0
   -2.5110    5.6340   34.5730 C   0  0  0  0  0
   -3.1970    4.2820   34.9500 C   0  0  0  0  0
   -3.9420    3.7700   33.8320 O   0  0  0  0  0
   -3.4780    6.6650   33.9230 C   0  0  0  0  0
   -2.8680    8.0660   33.6110 C   0  0  0  0  0
   -3.9420    8.9100   32.8690 C   0  0  0  0  0
   -2.4310    8.8390   34.8860 C   0  0  0  0  0
   -2.3250    3.1700   35.6230 C   0  0  0  0  0
   -3.0600    2.2520   36.6480 C   0  0  0  0  0
   -2.3110    0.8990   36.7820 C   0  0  0  0  0
   -3.1640    2.8470   38.0420 C   0  0  0  0  0
   -2.3070    3.6260   38.4360 O   0  0  0  0  0
   -4.4570    2.9680   40.1460 C   0  0  0  0  0
   -4.2310    2.4700   38.7950 N   0  0  0  0  0
   -5.8970    2.6680   40.6250 C   0  0  0  0  0
   -6.0620    2.8680   42.1560 C   0  0  0  0  0
   -6.0320    4.3670   42.5490 C   0  0  0  0  0
    4.4584    7.9709   27.2746 H   0  0  0  0  0
    4.4191    6.2089   27.5289 H   0  0  0  0  0
    3.0357    7.0292   26.7646 H   0  0  0  0  0
    1.3019    7.2288   28.0642 H   0  0  0  0  0
    1.8557    8.2580   30.7460 H   0  0  0  0  0
    0.1617    9.3642   29.5681 H   0  0  0  0  0
   -0.4244    8.5902   31.1653 H   0  0  0  0  0
   -1.6065    6.9378   29.8666 H   0  0  0  0  0
   -0.7536    8.5658   27.4170 H   0  0  0  0  0
   -0.2118    6.9169   27.8153 H   0  0  0  0  0
   -1.9175    7.2181   27.4019 H   0  0  0  0  0
   -2.7965    9.0064   30.5413 H   0  0  0  0  0
   -2.2777    9.8057   29.0370 H   0  0  0  0  0
   -3.4024    8.4267   28.9703 H   0  0  0  0  0
    1.3113    7.3041   32.7608 H   0  0  0  0  0
    0.8345    4.3565   32.5607 H   0  0  0  0  0
    2.2053    4.0877   34.6347 H   0  0  0  0  0
    2.7808    5.7745   34.3831 H   0  0  0  0  0
    3.4949    5.0128   32.0243 H   0  0  0  0  0
    3.2094    3.3508   32.5698 H   0  0  0  0  0
    5.7390    6.0683   32.1524 H   0  0  0  0  0
    5.0028    6.7584   33.6196 H   0  0  0  0  0
    6.6789    6.1584   33.6622 H   0  0  0  0  0
   -1.4920    5.2069   32.7238 H   0  0  0  0  0
   -2.1839    6.0739   35.5151 H   0  0  0  0  0
   -3.8610    4.5614   35.7680 H   0  0  0  0  0
   -4.3572    2.9403   34.0786 H   0  0  0  0  0
   -4.2790    6.8318   34.6432 H   0  0  0  0  0
   -3.7808    6.2413   32.9655 H   0  0  0  0  0
   -1.9756    7.9076   33.0055 H   0  0  0  0  0
   -4.2207    8.4077   31.9426 H   0  0  0  0  0
   -4.8211    9.0169   33.5045 H   0  0  0  0  0
   -3.5346    9.8951   32.6414 H   0  0  0  0  0
   -3.2961    8.9914   35.5313 H   0  0  0  0  0
   -1.6760    8.2610   35.4189 H   0  0  0  0  0
   -2.0154    9.8050   34.5991 H   0  0  0  0  0
   -1.5448    3.6882   36.1805 H   0  0  0  0  0
   -1.9844    2.5188   34.8180 H   0  0  0  0  0
   -4.0683    2.1284   36.2529 H   0  0  0  0  0
   -2.2827    0.4032   35.8117 H   0  0  0  0  0
   -1.2936    1.0811   37.1282 H   0  0  0  0  0
   -2.8326    0.2660   37.4999 H   0  0  0  0  0
   -4.3104    4.0481   40.1457 H   0  0  0  0  0
   -3.7580    2.4717   40.8192 H   0  0  0  0  0
   -4.9012    1.8114   38.3982 H   0  0  0  0  0
   -6.1203    1.6265   40.3939 H   0  0  0  0  0
   -6.5725    3.3578   40.1190 H   0  0  0  0  0
   -5.2344    2.3663   42.6576 H   0  0  0  0  0
   -7.0265    2.4559   42.4527 H   0  0  0  0  0
   -5.0786    4.8012   42.2480 H   0  0  0  0  0
   -6.8457    4.8895   42.0460 H   0  0  0  0  0
   -6.1507    4.4607   43.6285 H   0  0  0  0  0
  1  2  2  0  0  0
  1  3  1  0  0  0
  1  4  1  0  0  0
  4  5  1  0  0  0
  5  6  1  0  0  0
  5  8  1  0  0  0
  6  7  2  0  0  0
  6 12  1  0  0  0
  8  9  1  0  0  0
  9 10  1  0  0  0
  9 11  1  0  0  0
 12 13  1  0  0  0
 13 14  1  0  0  0
 13 16  1  0  0  0
 14 15  2  0  0  0
 14 20  1  0  0  0
 16 17  1  0  0  0
 17 18  1  0  0  0
 18 19  1  0  0  0
 20 21  1  0  0  0
 21 22  1  0  0  0
 21 24  1  0  0  0
 22 23  1  0  0  0
 22 28  1  0  0  0
 24 25  1  0  0  0
 25 26  1  0  0  0
 25 27  1  0  0  0
 28 29  1  0  0  0
 29 30  1  0  0  0
 29 31  1  0  0  0
 31 32  2  0  0  0
 31 34  1  0  0  0
 34 33  1  0  0  0
 33 35  1  0  0  0
 35 36  1  0  0  0
 36 37  1  0  0  0
  3 38  1  0  0  0
  3 39  1  0  0  0
  3 40  1  0  0  0
  4 41  1  0  0  0
  5 42  1  0  0  0
  8 43  1  0  0  0
  8 44  1  0  0  0
  9 45  1  0  0  0
 10 46  1  0  0  0
 10 47  1  0  0  0
 10 48  1  0  0  0
 11 49  1  0  0  0
 11 50  1  0  0  0
 11 51  1  0  0  0
 12 52  1  0  0  0
 13 53  1  0  0  0
 16 54  1  0  0  0
 16 55  1  0  0  0
 17 56  1  0  0  0
 17 57  1  0  0  0
 19 58  1  0  0  0
 19 59  1  0  0  0
 19 60  1  0  0  0
 20 61  1  0  0  0
 21 62  1  0  0  0
 22 63  1  0  0  0
 23 64  1  0  0  0
 24 65  1  0  0  0
 24 66  1  0  0  0
 25 67  1  0  0  0
 26 68  1  0  0  0
 26 69  1  0  0  0
 26 70  1  0  0  0
 27 71  1  0  0  0
 27 72  1  0  0  0
 27 73  1  0  0  0
 28 74  1  0  0  0
 28 75  1  0  0  0
 29 76  1  0  0  0
 30 77  1  0  0  0
 30 78  1  0  0  0
 30 79  1  0  0  0
 33 80  1  0  0  0
 33 81  1  0  0  0
 34 82  1  0  0  0
 35 83  1  0  0  0
 35 84  1  0  0  0
 36 85  1  0  0  0
 36 86  1  0  0  0
 37 87  1  0  0  0
 37 88  1  0  0  0
 37 89  1  0  0  0
M  END
$$$$
