4b60_ligand
  -I-interpret- 

198199  0  0  0  0  0  0  0  0999 V2000
  -12.1090   -0.1230  -35.4040 N   0  3  0  0  0
  -12.6720   -1.4190  -35.8880 C   0  0  0  0  0
  -11.6820   -2.5950  -35.9210 C   0  0  0  0  0
  -12.0360   -3.6600  -35.4160 O   0  0  0  0  0
  -13.4010   -1.2780  -37.2350 C   0  0  0  0  0
  -13.5950   -2.5850  -37.9830 C   0  0  0  0  0
  -14.7930   -2.6070  -38.8970 C   0  0  0  0  0
  -15.6300   -1.6740  -38.9480 O   0  0  0  0  0
  -14.8840   -3.6800  -39.6520 N   0  0  0  0  0
  -10.4830   -2.4410  -36.5050 N   0  0  0  0  0
   -9.4800   -3.5370  -36.4790 C   0  0  0  0  0
   -8.3620   -3.3950  -35.4110 C   0  0  0  0  0
   -7.7150   -4.3860  -35.0820 O   0  0  0  0  0
   -8.8460   -3.7510  -37.8730 C   0  0  0  0  0
   -9.6210   -4.6970  -38.7900 C   0  0  0  0  0
   -9.0680   -4.7310  -40.2090 C   0  0  0  0  0
   -9.2800   -3.8040  -41.0100 O   0  0  0  0  0
   -8.3750   -5.8040  -40.5370 N   0  0  0  0  0
   -8.1300   -2.1770  -34.9090 N   0  0  0  0  0
   -7.0870   -1.9160  -33.9060 C   0  0  0  0  0
   -7.6230   -1.0680  -32.7290 C   0  0  0  0  0
   -8.1370    0.0580  -32.9240 O   0  0  0  0  0
   -5.8780   -1.2270  -34.5570 C   0  0  0  0  0
   -5.4950   -1.7930  -35.8940 C   0  0  0  0  0
   -4.6780   -2.8970  -36.0350 N   0  0  0  0  0
   -5.8260   -1.4110  -37.1570 C   0  0  0  0  0
   -4.5270   -3.1750  -37.3190 C   0  0  0  0  0
   -5.2090   -2.2870  -38.0240 N   0  0  0  0  0
   -7.4990   -1.5980  -31.5150 N   0  0  0  0  0
   -7.9270   -0.9120  -30.2810 C   0  0  0  0  0
   -6.7310   -0.7650  -29.3240 C   0  0  0  0  0
   -5.8870   -1.6560  -29.2500 O   0  0  0  0  0
   -9.0990   -1.6640  -29.6080 C   0  0  0  0  0
  -10.2890   -1.8290  -30.5140 C   0  0  0  0  0
  -11.2250   -0.8340  -30.7120 N   0  0  0  0  0
  -10.6530   -2.8500  -31.3180 C   0  0  0  0  0
  -12.1270   -1.2460  -31.5890 C   0  0  0  0  0
  -11.7930   -2.4630  -31.9810 N   0  0  0  0  0
   -6.6720    0.3640  -28.6250 N   0  0  0  0  0
   -5.5460    0.7800  -27.8160 C   0  0  0  0  0
   -6.0930    1.3220  -26.5100 C   0  0  0  0  0
   -7.0920    2.0910  -26.4930 O   0  0  0  0  0
   -4.7720    1.9070  -28.5350 C   0  0  0  0  0
   -3.8750    2.7050  -27.5900 C   0  0  0  0  0
   -2.6420    1.9270  -27.1870 C   0  0  0  0  0
   -3.4890    4.0740  -28.1400 C   0  0  0  0  0
   -5.4540    0.9290  -25.3990 N   0  0  0  0  0
   -5.8060    1.4790  -24.1070 C   0  0  0  0  0
   -4.6270    1.4050  -23.1550 C   0  0  0  0  0
   -3.5580    0.9420  -23.5250 O   0  0  0  0  0
   -4.8170    1.8510  -21.9250 N   0  0  0  0  0
   -3.7720    1.6260  -20.9370 C   0  0  0  0  0
   -4.1490    2.0260  -19.5400 C   0  0  0  0  0
   -5.2510    2.5070  -19.3110 O   0  0  0  0  0
   -3.2120    1.8170  -18.6120 N   0  0  0  0  0
   -3.4460    2.0540  -17.2120 C   0  0  0  0  0
   -2.1410    2.5140  -16.6090 C   0  0  0  0  0
   -1.0860    2.3750  -17.2440 O   0  0  0  0  0
   -3.8640    0.7300  -16.5640 C   0  0  0  0  0
   -2.2240    3.0630  -15.4010 N   0  0  0  0  0
   -1.0890    3.3990  -14.5810 C   0  0  0  0  0
   -1.2620    2.8570  -13.1630 C   0  0  0  0  0
   -2.3260    2.9910  -12.6010 O   0  0  0  0  0
   -0.9830    4.9000  -14.4820 C   0  0  0  0  0
   -0.9200    5.5160  -15.8510 C   0  0  0  0  0
   -0.4360    6.9370  -15.8040 C   0  0  0  0  0
   -0.1130    7.4290  -17.2020 C   0  0  0  0  0
   -0.2440    8.9080  -17.2350 N   0  3  0  0  0
   -0.2170    2.2440  -12.6090 N   0  0  0  0  0
   -0.2360    1.7160  -11.2310 C   0  0  0  0  0
    0.4390    2.7870  -10.3210 C   0  0  0  0  0
    1.3880    3.4630  -10.7370 O   0  0  0  0  0
    0.4980    0.3600  -11.1300 C   0  0  0  0  0
   -0.2680   -0.9240  -11.5210 C   0  0  0  0  0
   -0.7610   -0.9250  -12.9620 C   0  0  0  0  0
   -1.9920   -0.8750  -13.2360 O   0  0  0  0  0
    0.1630   -0.9500  -13.8900 N   0  0  0  0  0
   -0.0800    2.9450   -9.1070 N   0  0  0  0  0
    0.4910    3.8590   -8.1150 C   0  0  0  0  0
    1.4730    3.1250   -7.2070 C   0  0  0  0  0
    1.2960    1.9230   -6.8770 O   0  0  0  0  0
   -0.6250    4.4840   -7.2780 C   0  0  0  0  0
    2.5070    3.8330   -6.7670 N   0  0  0  0  0
    3.3500    3.3460   -5.6870 C   0  0  0  0  0
    4.2240    4.4470   -5.1270 C   0  0  0  0  0
    4.1680    5.5730   -5.5690 O   0  0  0  0  0
    4.9930    4.1130   -4.1060 N   0  0  0  0  0
    5.7790    5.0910   -3.3830 C   0  0  0  0  0
    7.0790    5.3160   -4.1440 C   0  0  0  0  0
    7.6730    4.3490   -4.6260 O   0  0  0  0  0
    6.0820    4.5300   -1.9980 C   0  0  0  0  0
    6.9850    5.4280   -1.1680 C   0  0  0  0  0
    6.8590    6.6690   -1.1650 O   0  0  0  0  0
    7.8520    4.8820   -0.4780 O   0  0  0  0  0
    7.4710    6.5840   -4.2690 N   0  0  0  0  0
    8.7800    7.0360   -4.7830 C   0  0  0  0  0
    8.8410    7.5930   -6.1940 C   0  0  0  0  0
    9.6167    8.5564   -6.4346 O   0  0  0  0  0
    9.9360    6.0500   -4.4450 C   0  0  0  0  0
   11.1880    6.3480   -5.2130 C   0  0  0  0  0
   10.1770    6.1570   -2.9560 C   0  0  0  0  0
    8.1282    7.1003   -7.1088 O   0  0  0  0  0
  -11.6380   -0.2705  -34.5114 H   0  0  0  0  0
  -11.4408    0.2325  -36.0877 H   0  0  0  0  0
  -12.8651    0.5509  -35.2835 H   0  0  0  0  0
  -13.4027   -1.6789  -35.1221 H   0  0  0  0  0
  -12.7858   -0.6366  -37.8660 H   0  0  0  0  0
  -14.3935   -0.8812  -37.0216 H   0  0  0  0  0
  -13.7493   -3.3622  -37.2345 H   0  0  0  0  0
  -12.7135   -2.7302  -38.6074 H   0  0  0  0  0
  -15.6571   -3.7762  -40.3104 H   0  0  0  0  0
  -14.1815   -4.4159  -39.5791 H   0  0  0  0  0
  -10.2582   -1.5623  -36.9715 H   0  0  0  0  0
  -10.0576   -4.4136  -36.1856 H   0  0  0  0  0
   -7.8662   -4.1998  -37.7099 H   0  0  0  0  0
   -8.8263   -2.7785  -38.3648 H   0  0  0  0  0
  -10.6502   -4.3419  -38.8419 H   0  0  0  0  0
   -9.5401   -5.7023  -38.3767 H   0  0  0  0  0
   -7.9907   -5.8951  -41.4774 H   0  0  0  0  0
   -8.2233   -6.5428  -39.8503 H   0  0  0  0  0
   -8.7003   -1.3969  -35.2356 H   0  0  0  0  0
   -6.7713   -2.8776  -33.5013 H   0  0  0  0  0
   -5.0276   -1.3713  -33.8906 H   0  0  0  0  0
   -6.1486   -0.1830  -34.7148 H   0  0  0  0  0
   -6.4610   -0.5689  -37.4321 H   0  0  0  0  0
   -3.9396   -3.9972  -37.7277 H   0  0  0  0  0
   -7.0864   -2.5272  -31.4332 H   0  0  0  0  0
   -8.2874    0.0841  -30.5378 H   0  0  0  0  0
   -9.4171   -1.0790  -28.7451 H   0  0  0  0  0
   -8.7448   -2.6595  -29.3403 H   0  0  0  0  0
  -10.1381   -3.8050  -31.4223 H   0  0  0  0  0
  -12.9943   -0.6799  -31.9287 H   0  0  0  0  0
   -7.4811    0.9840  -28.6614 H   0  0  0  0  0
   -4.8749   -0.0617  -27.6445 H   0  0  0  0  0
   -5.5026    2.5942  -28.9617 H   0  0  0  0  0
   -4.1352    1.4457  -29.2898 H   0  0  0  0  0
   -4.4771    2.8788  -26.6982 H   0  0  0  0  0
   -2.9422    1.0104  -26.6793 H   0  0  0  0  0
   -2.0639    1.6783  -28.0770 H   0  0  0  0  0
   -2.0346    2.5337  -26.5154 H   0  0  0  0  0
   -2.9495    3.9481  -29.0787 H   0  0  0  0  0
   -4.3904    4.6617  -28.3136 H   0  0  0  0  0
   -2.8522    4.5872  -27.4195 H   0  0  0  0  0
   -4.7105    0.2338  -25.4648 H   0  0  0  0  0
   -6.6321    0.9022  -23.6911 H   0  0  0  0  0
   -6.0920    2.5231  -24.2340 H   0  0  0  0  0
   -5.6756    2.3412  -21.6743 H   0  0  0  0  0
   -2.9180    2.2380  -21.2272 H   0  0  0  0  0
   -3.5697    0.5550  -20.9212 H   0  0  0  0  0
   -2.2965    1.4768  -18.9063 H   0  0  0  0  0
   -4.2244    2.8011  -17.0568 H   0  0  0  0  0
   -4.7746    0.3657  -17.0396 H   0  0  0  0  0
   -3.0675   -0.0030  -16.6919 H   0  0  0  0  0
   -4.0462    0.8887  -15.5011 H   0  0  0  0  0
   -3.1538    3.2593  -15.0303 H   0  0  0  0  0
   -0.1992    2.9630  -15.0352 H   0  0  0  0  0
   -0.0740    5.1551  -13.9373 H   0  0  0  0  0
   -1.8611    5.2830  -13.9620 H   0  0  0  0  0
   -1.9243    5.5108  -16.2746 H   0  0  0  0  0
   -0.2213    4.9367  -16.4546 H   0  0  0  0  0
    0.4648    6.9863  -15.1922 H   0  0  0  0  0
   -1.2176    7.5654  -15.3771 H   0  0  0  0  0
   -0.8030    6.9823  -17.9179 H   0  0  0  0  0
    0.9052    7.1437  -17.4665 H   0  0  0  0  0
   -0.0281    9.2464  -18.1727 H   0  0  0  0  0
   -1.1989    9.1691  -16.9895 H   0  0  0  0  0
    0.4054    9.3207  -16.5654 H   0  0  0  0  0
    0.6335    2.1348  -13.1614 H   0  0  0  0  0
   -1.2621    1.5297  -10.9138 H   0  0  0  0  0
    0.7325    0.2410  -10.0722 H   0  0  0  0  0
    1.3216    0.4281  -11.8408 H   0  0  0  0  0
   -1.1440   -0.9912  -10.8759 H   0  0  0  0  0
    0.4206   -1.7617  -11.4106 H   0  0  0  0  0
   -0.1024   -0.9290  -14.8746 H   0  0  0  0  0
    1.1480   -0.9905  -13.6280 H   0  0  0  0  0
   -0.9099    2.4076   -8.8562 H   0  0  0  0  0
    1.0298    4.6467   -8.6416 H   0  0  0  0  0
   -1.3002    5.0377   -7.9304 H   0  0  0  0  0
   -1.1775    3.6965   -6.7654 H   0  0  0  0  0
   -0.1903    5.1619   -6.5434 H   0  0  0  0  0
    2.7137    4.7356   -7.1949 H   0  0  0  0  0
    3.9943    2.5593   -6.0795 H   0  0  0  0  0
    2.7080    2.9745   -4.8883 H   0  0  0  0  0
    5.0344    3.1354   -3.8179 H   0  0  0  0  0
    5.2421    6.0348   -3.2876 H   0  0  0  0  0
    6.5984    3.5797   -2.1339 H   0  0  0  0  0
    5.1347    4.4353   -1.4671 H   0  0  0  0  0
    6.1424    6.9182   -1.7532 H   0  0  0  0  0
    6.8087    7.3057   -3.9847 H   0  0  0  0  0
    8.9440    7.9452   -4.2046 H   0  0  0  0  0
   10.0787    8.8025   -5.6298 H   0  0  0  0  0
    9.6532    5.0370   -4.7312 H   0  0  0  0  0
   10.9840    6.2732   -6.2811 H   0  0  0  0  0
   11.5266    7.3567   -4.9762 H   0  0  0  0  0
   11.9608    5.6301   -4.9383 H   0  0  0  0  0
   10.4548    7.1811   -2.7069 H   0  0  0  0  0
    9.2666    5.8859   -2.4215 H   0  0  0  0  0
   10.9827    5.4808   -2.6701 H   0  0  0  0  0
  1  2  1  0  0  0
  2  3  1  0  0  0
  2  5  1  0  0  0
  3  4  2  0  0  0
  3 10  1  0  0  0
  5  6  1  0  0  0
  6  7  1  0  0  0
  7  8  2  0  0  0
  7  9  1  0  0  0
 10 11  1  0  0  0
 11 12  1  0  0  0
 11 14  1  0  0  0
 12 13  2  0  0  0
 12 19  1  0  0  0
 14 15  1  0  0  0
 15 16  1  0  0  0
 16 17  2  0  0  0
 16 18  1  0  0  0
 19 20  1  0  0  0
 20 21  1  0  0  0
 20 23  1  0  0  0
 21 22  2  0  0  0
 21 29  1  0  0  0
 23 24  1  0  0  0
 24 25  4  0  0  0
 24 26  4  0  0  0
 25 27  4  0  0  0
 26 28  4  0  0  0
 27 28  4  0  0  0
 29 30  1  0  0  0
 30 31  1  0  0  0
 30 33  1  0  0  0
 31 32  2  0  0  0
 31 39  1  0  0  0
 33 34  1  0  0  0
 34 35  4  0  0  0
 34 36  4  0  0  0
 35 37  4  0  0  0
 36 38  4  0  0  0
 37 38  4  0  0  0
 39 40  1  0  0  0
 40 41  1  0  0  0
 40 43  1  0  0  0
 41 42  2  0  0  0
 41 47  1  0  0  0
 43 44  1  0  0  0
 44 45  1  0  0  0
 44 46  1  0  0  0
 47 48  1  0  0  0
 48 49  1  0  0  0
 49 50  2  0  0  0
 49 51  1  0  0  0
 51 52  1  0  0  0
 52 53  1  0  0  0
 53 54  2  0  0  0
 53 55  1  0  0  0
 55 56  1  0  0  0
 56 57  1  0  0  0
 56 59  1  0  0  0
 57 58  2  0  0  0
 57 60  1  0  0  0
 60 61  1  0  0  0
 61 62  1  0  0  0
 61 64  1  0  0  0
 62 63  2  0  0  0
 62 69  1  0  0  0
 64 65  1  0  0  0
 65 66  1  0  0  0
 66 67  1  0  0  0
 67 68  1  0  0  0
 69 70  1  0  0  0
 70 71  1  0  0  0
 70 73  1  0  0  0
 71 72  2  0  0  0
 71 78  1  0  0  0
 73 74  1  0  0  0
 74 75  1  0  0  0
 75 76  2  0  0  0
 75 77  1  0  0  0
 78 79  1  0  0  0
 79 80  1  0  0  0
 79 82  1  0  0  0
 80 81  2  0  0  0
 80 83  1  0  0  0
 83 84  1  0  0  0
 84 85  1  0  0  0
 85 86  2  0  0  0
 85 87  1  0  0  0
 87 88  1  0  0  0
 88 89  1  0  0  0
 88 91  1  0  0  0
 89 90  2  0  0  0
 89 95  1  0  0  0
 91 92  1  0  0  0
 92 93  1  0  0  0
 92 94  2  0  0  0
 95 96  1  0  0  0
 96 97  1  0  0  0
 96 99  1  0  0  0
 97 98  1  0  0  0
 99100  1  0  0  0
 99101  1  0  0  0
 97102  2  0  0  0
  1103  1  0  0  0
  1104  1  0  0  0
  1105  1  0  0  0
  2106  1  0  0  0
  5107  1  0  0  0
  5108  1  0  0  0
  6109  1  0  0  0
  6110  1  0  0  0
  9111  1  0  0  0
  9112  1  0  0  0
 10113  1  0  0  0
 11114  1  0  0  0
 14115  1  0  0  0
 14116  1  0  0  0
 15117  1  0  0  0
 15118  1  0  0  0
 18119  1  0  0  0
 18120  1  0  0  0
 19121  1  0  0  0
 20122  1  0  0  0
 23123  1  0  0  0
 23124  1  0  0  0
 26125  1  0  0  0
 27126  1  0  0  0
 29127  1  0  0  0
 30128  1  0  0  0
 33129  1  0  0  0
 33130  1  0  0  0
 36131  1  0  0  0
 37132  1  0  0  0
 39133  1  0  0  0
 40134  1  0  0  0
 43135  1  0  0  0
 43136  1  0  0  0
 44137  1  0  0  0
 45138  1  0  0  0
 45139  1  0  0  0
 45140  1  0  0  0
 46141  1  0  0  0
 46142  1  0  0  0
 46143  1  0  0  0
 47144  1  0  0  0
 48145  1  0  0  0
 48146  1  0  0  0
 51147  1  0  0  0
 52148  1  0  0  0
 52149  1  0  0  0
 55150  1  0  0  0
 56151  1  0  0  0
 59152  1  0  0  0
 59153  1  0  0  0
 59154  1  0  0  0
 60155  1  0  0  0
 61156  1  0  0  0
 64157  1  0  0  0
 64158  1  0  0  0
 65159  1  0  0  0
 65160  1  0  0  0
 66161  1  0  0  0
 66162  1  0  0  0
 67163  1  0  0  0
 67164  1  0  0  0
 68165  1  0  0  0
 68166  1  0  0  0
 68167  1  0  0  0
 69168  1  0  0  0
 70169  1  0  0  0
 73170  1  0  0  0
 73171  1  0  0  0
 74172  1  0  0  0
 74173  1  0  0  0
 77174  1  0  0  0
 77175  1  0  0  0
 78176  1  0  0  0
 79177  1  0  0  0
 82178  1  0  0  0
 82179  1  0  0  0
 82180  1  0  0  0
 83181  1  0  0  0
 84182  1  0  0  0
 84183  1  0  0  0
 87184  1  0  0  0
 88185  1  0  0  0
 91186  1  0  0  0
 91187  1  0  0  0
 93188  1  0  0  0
 95189  1  0  0  0
 96190  1  0  0  0
 98191  1  0  0  0
 99192  1  0  0  0
100193  1  0  0  0
100194  1  0  0  0
100195  1  0  0  0
101196  1  0  0  0
101197  1  0  0  0
101198  1  0  0  0
M  END
$$$$
