### 
### Created by X-TOOL on Mon Sep 10 21:13:14 2018
### 

@<TRIPOS>MOLECULE
4b60_ligand
  198   199     1     0     0
SMALL
GAST_HUCK


@<TRIPOS>ATOM
      1 N         -12.1090   -0.1230  -35.4040 N.4       1 GLN         0.2380
      2 CA        -12.6720   -1.4190  -35.8880 C.3       1 GLN         0.0671
      3 C         -11.6820   -2.5950  -35.9210 C.2       1 GLN         0.2269
      4 O         -12.0360   -3.6600  -35.4160 O.2       1 GLN        -0.3907
      5 CB        -13.4010   -1.2780  -37.2350 C.3       1 GLN         0.0247
      6 CG        -13.5950   -2.5850  -37.9830 C.3       1 GLN         0.0443
      7 CD        -14.7930   -2.6070  -38.8970 C.2       1 GLN         0.1738
      8 OE1       -15.6300   -1.6740  -38.9480 O.2       1 GLN        -0.3973
      9 NE2       -14.8840   -3.6800  -39.6520 N.am      1 GLN        -0.3009
     10 N         -10.4830   -2.4410  -36.5050 N.am      1 GLN        -0.2609
     11 CA         -9.4800   -3.5370  -36.4790 C.3       1 GLN         0.1331
     12 C          -8.3620   -3.3950  -35.4110 C.2       1 GLN         0.2041
     13 O          -7.7150   -4.3860  -35.0820 O.2       1 GLN        -0.3944
     14 CB         -8.8460   -3.7510  -37.8730 C.3       1 GLN         0.0045
     15 CG         -9.6210   -4.6970  -38.7900 C.3       1 GLN         0.0412
     16 CD         -9.0680   -4.7310  -40.2090 C.2       1 GLN         0.1737
     17 OE1        -9.2800   -3.8040  -41.0100 O.2       1 GLN        -0.3973
     18 NE2        -8.3750   -5.8040  -40.5370 N.am      1 GLN        -0.3009
     19 N          -8.1300   -2.1770  -34.9090 N.am      1 HIS        -0.2625
     20 CA         -7.0870   -1.9160  -33.9060 C.3       1 HIS         0.1369
     21 C          -7.6230   -1.0680  -32.7290 C.2       1 HIS         0.2055
     22 O          -8.1370    0.0580  -32.9240 O.2       1 HIS        -0.3942
     23 CB         -5.8780   -1.2270  -34.5570 C.3       1 HIS         0.0145
     24 CG         -5.4950   -1.7930  -35.8940 C.2       1 HIS        -0.0027
     25 ND1        -4.6780   -2.8970  -36.0350 N.2       1 HIS        -0.3252
     26 CD2        -5.8260   -1.4110  -37.1570 C.2       1 HIS         0.0291
     27 CE1        -4.5270   -3.1750  -37.3190 C.2       1 HIS         0.0907
     28 NE2        -5.2090   -2.2870  -38.0240 N.pl3     1 HIS        -0.2752
     29 N          -7.4990   -1.5980  -31.5150 N.am      1 HIS        -0.2624
     30 CA         -7.9270   -0.9120  -30.2810 C.3       1 HIS         0.1369
     31 C          -6.7310   -0.7650  -29.3240 C.2       1 HIS         0.2054
     32 O          -5.8870   -1.6560  -29.2500 O.2       1 HIS        -0.3942
     33 CB         -9.0990   -1.6640  -29.6080 C.3       1 HIS         0.0145
     34 CG        -10.2890   -1.8290  -30.5140 C.2       1 HIS        -0.0027
     35 ND1       -11.2250   -0.8340  -30.7120 N.2       1 HIS        -0.3252
     36 CD2       -10.6530   -2.8500  -31.3180 C.2       1 HIS         0.0291
     37 CE1       -12.1270   -1.2460  -31.5890 C.2       1 HIS         0.0907
     38 NE2       -11.7930   -2.4630  -31.9810 N.pl3     1 HIS        -0.2752
     39 N          -6.6720    0.3640  -28.6250 N.am      1 LEU        -0.2636
     40 CA         -5.5460    0.7800  -27.8160 C.3       1 LEU         0.1312
     41 C          -6.0930    1.3220  -26.5100 C.2       1 LEU         0.2037
     42 O          -7.0920    2.0910  -26.4930 O.2       1 LEU        -0.3944
     43 CB         -4.7720    1.9070  -28.5350 C.3       1 LEU        -0.0101
     44 CG         -3.8750    2.7050  -27.5900 C.3       1 LEU        -0.0425
     45 CD1        -2.6420    1.9270  -27.1870 C.3       1 LEU        -0.0625
     46 CD2        -3.4890    4.0740  -28.1400 C.3       1 LEU        -0.0625
     47 N          -5.4540    0.9290  -25.3990 N.am      1 GLY        -0.2664
     48 CA         -5.8060    1.4790  -24.1070 C.3       1 GLY         0.1201
     49 C          -4.6270    1.4050  -23.1550 C.2       1 GLY         0.2005
     50 O          -3.5580    0.9420  -23.5250 O.2       1 GLY        -0.3947
     51 N          -4.8170    1.8510  -21.9250 N.am      1 GLY        -0.2666
     52 CA         -3.7720    1.6260  -20.9370 C.3       1 GLY         0.1201
     53 C          -4.1490    2.0260  -19.5400 C.2       1 GLY         0.2007
     54 O          -5.2510    2.5070  -19.3110 O.2       1 GLY        -0.3947
     55 N          -3.2120    1.8170  -18.6120 N.am      1 ALA        -0.2642
     56 CA         -3.4460    2.0540  -17.2120 C.3       1 ALA         0.1282
     57 C          -2.1410    2.5140  -16.6090 C.2       1 ALA         0.2036
     58 O          -1.0860    2.3750  -17.2440 O.2       1 ALA        -0.3944
     59 CB         -3.8640    0.7300  -16.5640 C.3       1 ALA        -0.0244
     60 N          -2.2240    3.0630  -15.4010 N.am      1 LYS        -0.2637
     61 CA         -1.0890    3.3990  -14.5810 C.3       1 LYS         0.1310
     62 C          -1.2620    2.8570  -13.1630 C.2       1 LYS         0.2039
     63 O          -2.3260    2.9910  -12.6010 O.2       1 LYS        -0.3944
     64 CB         -0.9830    4.9000  -14.4820 C.3       1 LYS        -0.0122
     65 CG         -0.9200    5.5160  -15.8510 C.3       1 LYS        -0.0440
     66 CD         -0.4360    6.9370  -15.8040 C.3       1 LYS        -0.0124
     67 CE         -0.1130    7.4290  -17.2020 C.3       1 LYS        -0.0354
     68 NZ         -0.2440    8.9080  -17.2350 N.4       1 LYS         0.2185
     69 N          -0.2170    2.2440  -12.6090 N.am      1 GLN        -0.2636
     70 CA         -0.2360    1.7160  -11.2310 C.3       1 GLN         0.1330
     71 C           0.4390    2.7870  -10.3210 C.2       1 GLN         0.2040
     72 O           1.3880    3.4630  -10.7370 O.2       1 GLN        -0.3944
     73 CB          0.4980    0.3600  -11.1300 C.3       1 GLN         0.0045
     74 CG         -0.2680   -0.9240  -11.5210 C.3       1 GLN         0.0412
     75 CD         -0.7610   -0.9250  -12.9620 C.2       1 GLN         0.1737
     76 OE1        -1.9920   -0.8750  -13.2360 O.2       1 GLN        -0.3973
     77 NE2         0.1630   -0.9500  -13.8900 N.am      1 GLN        -0.3009
     78 N          -0.0800    2.9450   -9.1070 N.am      1 ALA        -0.2640
     79 CA          0.4910    3.8590   -8.1150 C.3       1 ALA         0.1282
     80 C           1.4730    3.1250   -7.2070 C.2       1 ALA         0.2034
     81 O           1.2960    1.9230   -6.8770 O.2       1 ALA        -0.3944
     82 CB         -0.6250    4.4840   -7.2780 C.3       1 ALA        -0.0244
     83 N           2.5070    3.8330   -6.7670 N.am      1 GLY        -0.2664
     84 CA          3.3500    3.3460   -5.6870 C.3       1 GLY         0.1201
     85 C           4.2240    4.4470   -5.1270 C.2       1 GLY         0.2008
     86 O           4.1680    5.5730   -5.5690 O.2       1 GLY        -0.3947
     87 N           4.9930    4.1130   -4.1060 N.am      1 ASP        -0.2624
     88 CA          5.7790    5.0910   -3.3830 C.3       1 ASP         0.1422
     89 C           7.0790    5.3160   -4.1440 C.2       1 ASP         0.2051
     90 O           7.6730    4.3490   -4.6260 O.2       1 ASP        -0.3943
     91 CB          6.0820    4.5300   -1.9980 C.3       1 ASP         0.0406
     92 CG          6.9850    5.4280   -1.1680 C.2       1 ASP         0.0393
     93 OD1         6.8590    6.6690   -1.1650 O.co2     1 ASP        -0.5688
     94 OD2         7.8520    4.8820   -0.4780 O.co2     1 ASP        -0.5688
     95 N           7.4710    6.5840   -4.2690 N.am      1 VAL        -0.2691
     96 CA          8.7800    7.0360   -4.7830 C.3       1 VAL         0.0967
     97 C           8.8410    7.5930   -6.1940 C.2       1 VAL         0.0603
     98 O           9.6167    8.5564   -6.4346 O.co2     1 VAL        -0.5666
     99 CB          9.9360    6.0500   -4.4450 C.3       1 VAL        -0.0118
    100 CG1        11.1880    6.3480   -5.2130 C.3       1 VAL        -0.0590
    101 CG2        10.1770    6.1570   -2.9560 C.3       1 VAL        -0.0590
    102 O           8.1282    7.1003   -7.1088 O.co2     1 VAL        -0.5666
    103 H1        -12.8290    0.5823  -35.4184 H         1 GLN         0.2015
    104 H2        -11.3503    0.1591  -36.0048 H         1 GLN         0.2015
    105 H3        -11.7678   -0.2357  -34.4622 H         1 GLN         0.2015
    106 H4        -13.4394   -1.6970  -35.1506 H         1 GLN         0.1100
    107 H5        -12.8159   -0.5998  -37.8735 H         1 GLN         0.0370
    108 H6        -14.3919   -0.8396  -37.0457 H         1 GLN         0.0370
    109 H7        -13.7118   -3.3907  -37.2433 H         1 GLN         0.0506
    110 H8        -12.6963   -2.7712  -38.5893 H         1 GLN         0.0506
    111 H9        -15.6480   -3.7795  -40.2895 H         1 GLN         0.1814
    112 H10       -14.1892   -4.3964  -39.5885 H         1 GLN         0.1814
    113 H11       -10.2626   -1.5795  -36.9624 H         1 GLN         0.1885
    114 H12       -10.0349   -4.4532  -36.2286 H         1 GLN         0.0801
    115 H13        -7.8363   -4.1633  -37.7303 H         1 GLN         0.0337
    116 H14        -8.7756   -2.7727  -38.3710 H         1 GLN         0.0337
    117 H15       -10.6696   -4.3670  -38.8296 H         1 GLN         0.0504
    118 H16        -9.5718   -5.7123  -38.3696 H         1 GLN         0.0504
    119 H17        -7.9854   -5.8865  -41.4543 H         1 GLN         0.1814
    120 H18        -8.2391   -6.5351  -39.8684 H         1 GLN         0.1814
    121 H19        -8.6891   -1.4122  -35.2292 H         1 HIS         0.1885
    122 H20        -6.7548   -2.8839  -33.5026 H         1 HIS         0.0817
    123 H21        -5.0170   -1.3281  -33.8799 H         1 HIS         0.0420
    124 H22        -6.1175   -0.1616  -34.6890 H         1 HIS         0.0420
    125 H23        -6.4604   -0.5696  -37.4319 H         1 HIS         0.0729
    126 H24        -3.9402   -3.9965  -37.7274 H         1 HIS         0.1199
    127 H25        -5.2690   -2.2555  -39.0518 H         1 HIS         0.2361
    128 H26        -7.0945   -2.5090  -31.4348 H         1 HIS         0.1885
    129 H27        -8.2787    0.0951  -30.5495 H         1 HIS         0.0817
    130 H28        -9.4122   -1.0997  -28.7172 H         1 HIS         0.0420
    131 H29        -8.7478   -2.6616  -29.3054 H         1 HIS         0.0420
    132 H30       -10.1385   -3.8041  -31.4222 H         1 HIS         0.0729
    133 H31       -12.9935   -0.6804  -31.9284 H         1 HIS         0.1199
    134 H32       -12.3046   -3.0301  -32.6720 H         1 HIS         0.2361
    135 H33        -7.4653    0.9718  -28.6607 H         1 LEU         0.1883
    136 H34        -4.8781   -0.0734  -27.6275 H         1 LEU         0.0800
    137 H35        -5.4978    2.5941  -28.9945 H         1 LEU         0.0315
    138 H36        -4.1449    1.4578  -29.3192 H         1 LEU         0.0315
    139 H37        -4.4600    2.8815  -26.6754 H         1 LEU         0.0298
    140 H38        -2.0281    2.5382  -26.5091 H         1 LEU         0.0232
    141 H39        -2.0576    1.6754  -28.0843 H         1 LEU         0.0232
    142 H40        -2.9436    1.0016  -26.6744 H         1 LEU         0.0232
    143 H41        -4.3978    4.6234  -28.4269 H         1 LEU         0.0232
    144 H42        -2.8440    3.9463  -29.0218 H         1 LEU         0.0232
    145 H43        -2.9469    4.6398  -27.3680 H         1 LEU         0.0232
    146 H44        -4.7251    0.2474  -25.4635 H         1 GLY         0.1881
    147 H45        -6.6459    0.9062  -23.6871 H         1 GLY         0.0763
    148 H46        -6.1048    2.5303  -24.2310 H         1 GLY         0.0763
    149 H47        -5.6588    2.3316  -21.6792 H         1 GLY         0.1881
    150 H48        -2.8856    2.2056  -21.2343 H         1 GLY         0.0763
    151 H49        -3.5252    0.5541  -20.9340 H         1 GLY         0.0763
    152 H50        -2.3145    1.4835  -18.9005 H         1 ALA         0.1883
    153 H51        -4.2277    2.8147  -17.0696 H         1 ALA         0.0797
    154 H52        -4.0482    0.8889  -15.4912 H         1 ALA         0.0277
    155 H53        -3.0610   -0.0107  -16.6923 H         1 ALA         0.0277
    156 H54        -4.7830    0.3613  -17.0431 H         1 ALA         0.0277
    157 H55        -3.1355    3.2555  -15.0376 H         1 LYS         0.1883
    158 H56        -0.1753    2.9827  -15.0302 H         1 LYS         0.0800
    159 H57        -0.0714    5.1623  -13.9251 H         1 LYS         0.0312
    160 H58        -1.8630    5.2905  -13.9499 H         1 LYS         0.0312
    161 H59        -1.9258    5.4975  -16.2959 H         1 LYS         0.0269
    162 H60        -0.2321    4.9265  -16.4749 H         1 LYS         0.0269
    163 H61         0.4694    6.9917  -15.1818 H         1 LYS         0.0317
    164 H62        -1.2199    7.5732  -15.3674 H         1 LYS         0.0317
    165 H63        -0.8132    6.9804  -17.9221 H         1 LYS         0.0813
    166 H64         0.9163    7.1438  -17.4650 H         1 LYS         0.0813
    167 H65        -0.0309    9.2436  -18.1613 H         1 LYS         0.1994
    168 H66         0.3974    9.3170  -16.5737 H         1 LYS         0.1994
    169 H67        -1.1874    9.1673  -16.9925 H         1 LYS         0.1994
    170 H68         0.6168    2.1369  -13.1506 H         1 GLN         0.1883
    171 H69        -1.2790    1.5719  -10.9125 H         1 GLN         0.0801
    172 H70         0.8184    0.2412  -10.0844 H         1 GLN         0.0337
    173 H71         1.3832    0.4207  -11.7802 H         1 GLN         0.0337
    174 H72        -1.1381   -1.0261  -10.8558 H         1 GLN         0.0504
    175 H73         0.4026   -1.7848  -11.3824 H         1 GLN         0.0504
    176 H74        -0.0978   -0.9520  -14.8554 H         1 GLN         0.1814
    177 H75         1.1293   -0.9671  -13.6331 H         1 GLN         0.1814
    178 H76        -0.8936    2.4181   -8.8611 H         1 ALA         0.1883
    179 H77         1.0299    4.6596   -8.6427 H         1 ALA         0.0797
    180 H78        -0.1876    5.1684   -6.5362 H         1 ALA         0.0277
    181 H79        -1.1833    3.6903   -6.7601 H         1 ALA         0.0277
    182 H80        -1.3071    5.0431   -7.9353 H         1 ALA         0.0277
    183 H81         2.7096    4.7179   -7.1865 H         1 GLY         0.1881
    184 H82         3.9925    2.5398   -6.0706 H         1 GLY         0.0763
    185 H83         2.7100    2.9537   -4.8829 H         1 GLY         0.0763
    186 H84         5.0336    3.1546   -3.8235 H         1 ASP         0.1884
    187 H85         5.2253    6.0373   -3.2940 H         1 ASP         0.0819
    188 H86         6.5751    3.5540   -2.1172 H         1 ASP         0.0478
    189 H87         5.1319    4.3976   -1.4598 H         1 ASP         0.0478
    190 H88         6.8216    7.2916   -3.9902 H         1 VAL         0.1875
    191 H89         8.9976    7.9183   -4.1631 H         1 VAL         0.0729
    192 H90         9.6177    5.0261   -4.6903 H         1 VAL         0.0336
    193 H91        11.9687    5.6241   -4.9366 H         1 VAL         0.0234
    194 H92        11.5308    7.3657   -4.9749 H         1 VAL         0.0234
    195 H93        10.9835    6.2728   -6.2912 H         1 VAL         0.0234
    196 H94         9.2445    5.9341   -2.4167 H         1 VAL         0.0234
    197 H95        10.5077    7.1770   -2.7104 H         1 VAL         0.0234
    198 H96        10.9540    5.4378   -2.6577 H         1 VAL         0.0234
@<TRIPOS>BOND
     1    1    2 1  
     2    2    3 1  
     3    2    5 1  
     4    3    4 2  
     5    3   10 am 
     6    5    6 1  
     7    6    7 1  
     8    7    8 2  
     9    7    9 am 
    10   10   11 1  
    11   11   12 1  
    12   11   14 1  
    13   12   13 2  
    14   12   19 am 
    15   14   15 1  
    16   15   16 1  
    17   16   17 2  
    18   16   18 am 
    19   19   20 1  
    20   20   21 1  
    21   20   23 1  
    22   21   22 2  
    23   21   29 am 
    24   23   24 1  
    25   24   25 1  
    26   24   26 2  
    27   25   27 2  
    28   26   28 1  
    29   27   28 1  
    30   29   30 1  
    31   30   31 1  
    32   30   33 1  
    33   31   32 2  
    34   31   39 am 
    35   33   34 1  
    36   34   35 1  
    37   34   36 2  
    38   35   37 2  
    39   36   38 1  
    40   37   38 1  
    41   39   40 1  
    42   40   41 1  
    43   40   43 1  
    44   41   42 2  
    45   41   47 am 
    46   43   44 1  
    47   44   45 1  
    48   44   46 1  
    49   47   48 1  
    50   48   49 1  
    51   49   50 2  
    52   49   51 am 
    53   51   52 1  
    54   52   53 1  
    55   53   54 2  
    56   53   55 am 
    57   55   56 1  
    58   56   57 1  
    59   56   59 1  
    60   57   58 2  
    61   57   60 am 
    62   60   61 1  
    63   61   62 1  
    64   61   64 1  
    65   62   63 2  
    66   62   69 am 
    67   64   65 1  
    68   65   66 1  
    69   66   67 1  
    70   67   68 1  
    71   69   70 1  
    72   70   71 1  
    73   70   73 1  
    74   71   72 2  
    75   71   78 am 
    76   73   74 1  
    77   74   75 1  
    78   75   76 2  
    79   75   77 am 
    80   78   79 1  
    81   79   80 1  
    82   79   82 1  
    83   80   81 2  
    84   80   83 am 
    85   83   84 1  
    86   84   85 1  
    87   85   86 2  
    88   85   87 am 
    89   87   88 1  
    90   88   89 1  
    91   88   91 1  
    92   89   90 2  
    93   89   95 am 
    94   91   92 1  
    95   92   93 ar 
    96   92   94 ar 
    97   95   96 1  
    98   96   97 1  
    99   96   99 1  
   100   97   98 ar 
   101   99  100 1  
   102   99  101 1  
   103   97  102 ar 
   104    1  103 1  
   105    1  104 1  
   106    1  105 1  
   107    2  106 1  
   108    5  107 1  
   109    5  108 1  
   110    6  109 1  
   111    6  110 1  
   112    9  111 1  
   113    9  112 1  
   114   10  113 1  
   115   11  114 1  
   116   14  115 1  
   117   14  116 1  
   118   15  117 1  
   119   15  118 1  
   120   18  119 1  
   121   18  120 1  
   122   19  121 1  
   123   20  122 1  
   124   23  123 1  
   125   23  124 1  
   126   26  125 1  
   127   27  126 1  
   128   28  127 1  
   129   29  128 1  
   130   30  129 1  
   131   33  130 1  
   132   33  131 1  
   133   36  132 1  
   134   37  133 1  
   135   38  134 1  
   136   39  135 1  
   137   40  136 1  
   138   43  137 1  
   139   43  138 1  
   140   44  139 1  
   141   45  140 1  
   142   45  141 1  
   143   45  142 1  
   144   46  143 1  
   145   46  144 1  
   146   46  145 1  
   147   47  146 1  
   148   48  147 1  
   149   48  148 1  
   150   51  149 1  
   151   52  150 1  
   152   52  151 1  
   153   55  152 1  
   154   56  153 1  
   155   59  154 1  
   156   59  155 1  
   157   59  156 1  
   158   60  157 1  
   159   61  158 1  
   160   64  159 1  
   161   64  160 1  
   162   65  161 1  
   163   65  162 1  
   164   66  163 1  
   165   66  164 1  
   166   67  165 1  
   167   67  166 1  
   168   68  167 1  
   169   68  168 1  
   170   68  169 1  
   171   69  170 1  
   172   70  171 1  
   173   73  172 1  
   174   73  173 1  
   175   74  174 1  
   176   74  175 1  
   177   77  176 1  
   178   77  177 1  
   179   78  178 1  
   180   79  179 1  
   181   82  180 1  
   182   82  181 1  
   183   82  182 1  
   184   83  183 1  
   185   84  184 1  
   186   84  185 1  
   187   87  186 1  
   188   88  187 1  
   189   91  188 1  
   190   91  189 1  
   191   95  190 1  
   192   96  191 1  
   193   99  192 1  
   194  100  193 1  
   195  100  194 1  
   196  100  195 1  
   197  101  196 1  
   198  101  197 1  
   199  101  198 1  
@<TRIPOS>SUBSTRUCTURE
     1 GLN         1

