2z7i_ligand
  -I-interpret- 

 63 62  0  0  0  0  0  0  0  0999 V2000
   37.7590   58.1190   12.9960 C   0  0  0  0  0
   38.3310   56.7020   12.9330 C   0  0  0  0  0
   37.4110   55.8220   12.0860 C   0  0  0  0  0
   37.8180   54.3500   12.1110 C   0  0  0  0  0
   36.9070   53.5980   11.1420 C   0  0  0  0  0
   37.0270   52.0840   11.3160 C   0  0  0  0  0
   36.2810   51.3430   10.2050 C   0  0  0  0  0
   34.7670   51.5610   10.2230 C   0  0  0  0  0
   34.1230   50.4690    9.3650 C   0  0  0  0  0
   32.5970   50.5650    9.2850 C   0  0  0  0  0
   32.0120   49.2380    8.7910 C   0  0  0  0  0
   30.5040   49.3580    8.5720 C   0  0  0  0  0
   29.6710   47.7510    8.5250 P   0  0  0  0  0
   28.1540   47.9900    9.4470 C   0  0  0  0  0
   30.6630   46.5060    9.3430 C   0  0  0  0  0
   29.3130   47.2960    6.8070 C   0  0  0  0  0
   28.9170   45.8200    6.6970 C   0  0  0  0  0
   27.0890   45.5990    6.7640 P   0  0  0  0  0
   26.6670   45.8250    8.3000 O   0  0  0  0  0
   26.4370   46.8240    5.9620 O   0  0  0  0  0
   26.7050   44.2620    6.2580 O   0  0  0  0  0
   29.5660   45.0860    5.1390 P   0  0  0  0  0
   29.1070   43.5490    5.0560 O   0  0  0  0  0
   28.7800   45.8250    3.9400 O   0  0  0  0  0
   31.0360   45.2320    5.0230 O   0  0  0  0  0
   37.6903   58.5269   11.9875 H   0  0  0  0  0
   36.7665   58.0891   13.4457 H   0  0  0  0  0
   38.4140   58.7473   13.5996 H   0  0  0  0  0
   38.4015   56.2921   13.9405 H   0  0  0  0  0
   39.3240   56.7293   12.4843 H   0  0  0  0  0
   37.4719   56.1690   11.0545 H   0  0  0  0  0
   36.4039   55.8982   12.4959 H   0  0  0  0  0
   37.7156   53.9458   13.1181 H   0  0  0  0  0
   38.8607   54.2402   11.8130 H   0  0  0  0  0
   37.2028   53.8520   10.1241 H   0  0  0  0  0
   35.8757   53.8871   11.3445 H   0  0  0  0  0
   36.5901   51.8068   12.2754 H   0  0  0  0  0
   38.0810   51.8097   11.2724 H   0  0  0  0  0
   36.4569   50.2773   10.3513 H   0  0  0  0  0
   36.6523   51.7254    9.2542 H   0  0  0  0  0
   34.5231   52.5460    9.8251 H   0  0  0  0  0
   34.3906   51.5088   11.2446 H   0  0  0  0  0
   34.3646   49.5104    9.8241 H   0  0  0  0  0
   34.5092   50.5817    8.3520 H   0  0  0  0  0
   32.3242   51.3579    8.5886 H   0  0  0  0  0
   32.1997   50.7846   10.2760 H   0  0  0  0  0
   32.1982   48.4704    9.5421 H   0  0  0  0  0
   32.4850   48.9759    7.8446 H   0  0  0  0  0
   30.3443   49.8448    7.6099 H   0  0  0  0  0
   30.0898   49.9242    9.4062 H   0  0  0  0  0
   28.3938   48.2903   10.4670 H   0  0  0  0  0
   27.5582   48.7673    8.9686 H   0  0  0  0  0
   27.5902   47.0573    9.4645 H   0  0  0  0  0
   31.6256   46.4212    8.8388 H   0  0  0  0  0
   30.8200   46.7937   10.3826 H   0  0  0  0  0
   30.1454   45.5475    9.3041 H   0  0  0  0  0
   30.2090   47.4618    6.2088 H   0  0  0  0  0
   28.4835   47.9067    6.4505 H   0  0  0  0  0
   29.3577   45.3057    7.5511 H   0  0  0  0  0
   26.9370   46.7030    8.5790 H   0  0  0  0  0
   26.7327   47.6516    6.3484 H   0  0  0  0  0
   28.1517   43.4968    5.1348 H   0  0  0  0  0
   27.8348   45.7042    4.0562 H   0  0  0  0  0
  1  2  1  0  0  0
  2  3  1  0  0  0
  3  4  1  0  0  0
  4  5  1  0  0  0
  5  6  1  0  0  0
  6  7  1  0  0  0
  7  8  1  0  0  0
  8  9  1  0  0  0
  9 10  1  0  0  0
 10 11  1  0  0  0
 11 12  1  0  0  0
 12 13  1  0  0  0
 13 14  1  0  0  0
 13 15  1  0  0  0
 13 16  1  0  0  0
 16 17  1  0  0  0
 17 18  1  0  0  0
 17 22  1  0  0  0
 18 19  1  0  0  0
 18 20  1  0  0  0
 18 21  2  0  0  0
 22 23  1  0  0  0
 22 24  1  0  0  0
 22 25  2  0  0  0
  1 26  1  0  0  0
  1 27  1  0  0  0
  1 28  1  0  0  0
  2 29  1  0  0  0
  2 30  1  0  0  0
  3 31  1  0  0  0
  3 32  1  0  0  0
  4 33  1  0  0  0
  4 34  1  0  0  0
  5 35  1  0  0  0
  5 36  1  0  0  0
  6 37  1  0  0  0
  6 38  1  0  0  0
  7 39  1  0  0  0
  7 40  1  0  0  0
  8 41  1  0  0  0
  8 42  1  0  0  0
  9 43  1  0  0  0
  9 44  1  0  0  0
 10 45  1  0  0  0
 10 46  1  0  0  0
 11 47  1  0  0  0
 11 48  1  0  0  0
 12 49  1  0  0  0
 12 50  1  0  0  0
 14 51  1  0  0  0
 14 52  1  0  0  0
 14 53  1  0  0  0
 15 54  1  0  0  0
 15 55  1  0  0  0
 15 56  1  0  0  0
 16 57  1  0  0  0
 16 58  1  0  0  0
 17 59  1  0  0  0
 19 60  1  0  0  0
 20 61  1  0  0  0
 23 62  1  0  0  0
 24 63  1  0  0  0
M  END
$$$$
