### 
### Created by X-TOOL on Mon Sep 10 21:12:57 2018
### 

@<TRIPOS>MOLECULE
2z7i_ligand
   59    58     1     0     0
SMALL
GAST_HUCK


@<TRIPOS>ATOM
      1 CAA        37.7590   58.1190   12.9960 C.3       1 742        -0.0653
      2 CAJ        38.3310   56.7020   12.9330 C.3       1 742        -0.0559
      3 CAK        37.4110   55.8220   12.0860 C.3       1 742        -0.0533
      4 CAL        37.8180   54.3500   12.1110 C.3       1 742        -0.0531
      5 CAM        36.9070   53.5980   11.1420 C.3       1 742        -0.0531
      6 CAN        37.0270   52.0840   11.3160 C.3       1 742        -0.0531
      7 CAO        36.2810   51.3430   10.2050 C.3       1 742        -0.0531
      8 CAP        34.7670   51.5610   10.2230 C.3       1 742        -0.0531
      9 CAQ        34.1230   50.4690    9.3650 C.3       1 742        -0.0530
     10 CAR        32.5970   50.5650    9.2850 C.3       1 742        -0.0528
     11 CAS        32.0120   49.2380    8.7910 C.3       1 742        -0.0494
     12 CAT        30.5040   49.3580    8.5720 C.3       1 742        -0.0359
     13 PAY        29.6710   47.7510    8.5250 P.3       1 742        -0.1274
     14 CAB        28.1540   47.9900    9.4470 C.3       1 742        -0.0477
     15 CAC        30.6630   46.5060    9.3430 C.3       1 742        -0.0477
     16 CAU        29.3130   47.2960    6.8070 C.3       1 742        -0.0029
     17 CAV        28.9170   45.8200    6.6970 C.3       1 742         0.1044
     18 PAX        27.0890   45.5990    6.7640 P.3       1 742         0.0781
     19 OAH        26.6670   45.8250    8.3000 O.co2     1 742        -0.5611
     20 OAI        26.4370   46.8240    5.9620 O.co2     1 742        -0.5611
     21 OAE        26.7050   44.2620    6.2580 O.co2     1 742        -0.5611
     22 PAW        29.5660   45.0860    5.1390 P.3       1 742         0.0781
     23 OAF        29.1070   43.5490    5.0560 O.co2     1 742        -0.5611
     24 OAG        28.7800   45.8250    3.9400 O.co2     1 742        -0.5611
     25 OAD        31.0360   45.2320    5.0230 O.co2     1 742        -0.5611
     26 H1         38.4192   58.7541   13.6049 H         1 742         0.0230
     27 H2         36.7573   58.0903   13.4497 H         1 742         0.0230
     28 H3         37.6892   58.5318   11.9788 H         1 742         0.0230
     29 H4         38.4007   56.2885   13.9499 H         1 742         0.0263
     30 H5         39.3326   56.7300   12.4790 H         1 742         0.0263
     31 H6         37.4425   56.1784   11.0458 H         1 742         0.0265
     32 H7         36.3851   55.9102   12.4729 H         1 742         0.0265
     33 H8         37.6987   53.9458   13.1270 H         1 742         0.0265
     34 H9         38.8667   54.2461   11.7958 H         1 742         0.0265
     35 H10        37.1867   53.8620   10.1114 H         1 742         0.0265
     36 H11        35.8647   53.8970   11.3271 H         1 742         0.0265
     37 H12        36.5993   51.7988   12.2885 H         1 742         0.0265
     38 H13        38.0897   51.8017   11.2858 H         1 742         0.0265
     39 H14        36.4772   50.2662   10.3145 H         1 742         0.0265
     40 H15        36.6693   51.6898    9.2360 H         1 742         0.0265
     41 H16        34.5272   52.5514    9.8088 H         1 742         0.0265
     42 H17        34.3923   51.4946   11.2551 H         1 742         0.0265
     43 H18        34.3868   49.4908    9.7933 H         1 742         0.0265
     44 H19        34.5290   50.5445    8.3455 H         1 742         0.0265
     45 H20        32.3189   51.3678    8.5863 H         1 742         0.0265
     46 H21        32.1937   50.7914   10.2830 H         1 742         0.0265
     47 H22        32.2065   48.4568    9.5405 H         1 742         0.0269
     48 H23        32.4936   48.9629    7.8411 H         1 742         0.0269
     49 H24        30.3276   49.8732    7.6162 H         1 742         0.0310
     50 H25        30.0759   49.9517    9.3931 H         1 742         0.0310
     51 H26        27.5841   47.0493    9.4654 H         1 742         0.0275
     52 H27        27.5517   48.7742    8.9651 H         1 742         0.0275
     53 H28        28.3946   48.2931   10.4767 H         1 742         0.0275
     54 H29        31.5967   46.3541    8.7817 H         1 742         0.0275
     55 H30        30.1028   45.5603    9.3854 H         1 742         0.0275
     56 H31        30.8993   46.8383   10.3646 H         1 742         0.0275
     57 H32        30.2091   47.4739    6.1943 H         1 742         0.0340
     58 H33        28.4854   47.9183    6.4358 H         1 742         0.0340
     59 H34        29.3617   45.2830    7.5478 H         1 742         0.0681
@<TRIPOS>BOND
     1    1    2 1  
     2    2    3 1  
     3    3    4 1  
     4    4    5 1  
     5    5    6 1  
     6    6    7 1  
     7    7    8 1  
     8    8    9 1  
     9    9   10 1  
    10   10   11 1  
    11   11   12 1  
    12   12   13 1  
    13   13   14 1  
    14   13   15 1  
    15   13   16 1  
    16   16   17 1  
    17   17   18 1  
    18   17   22 1  
    19   18   19 ar 
    20   18   20 ar 
    21   18   21 ar 
    22   22   23 ar 
    23   22   24 ar 
    24   22   25 ar 
    25    1   26 1  
    26    1   27 1  
    27    1   28 1  
    28    2   29 1  
    29    2   30 1  
    30    3   31 1  
    31    3   32 1  
    32    4   33 1  
    33    4   34 1  
    34    5   35 1  
    35    5   36 1  
    36    6   37 1  
    37    6   38 1  
    38    7   39 1  
    39    7   40 1  
    40    8   41 1  
    41    8   42 1  
    42    9   43 1  
    43    9   44 1  
    44   10   45 1  
    45   10   46 1  
    46   11   47 1  
    47   11   48 1  
    48   12   49 1  
    49   12   50 1  
    50   14   51 1  
    51   14   52 1  
    52   14   53 1  
    53   15   54 1  
    54   15   55 1  
    55   15   56 1  
    56   16   57 1  
    57   16   58 1  
    58   17   59 1  
@<TRIPOS>SUBSTRUCTURE
     1 742         1

