6i3s_ligand
  -I-interpret- 

 52 57  0  0  0  0  0  0  0  0999 V2000
   -3.9840    8.8740   -1.3030 C   0  0  0  0  0
   -5.2840    9.3060   -1.0290 C   0  0  0  0  0
   -5.7080   10.5720   -1.4750 C   0  0  0  0  0
   -7.1050   11.1570   -1.2430 C   0  0  0  0  0
   -9.2460   10.7270   -0.1350 C   0  0  0  0  0
  -10.7850   14.3010    2.4670 C   0  0  0  0  0
  -10.5410   14.6330    0.9830 C   0  0  0  0  0
   -7.2240   11.9200    0.0990 C   0  0  0  0  0
   -5.6220   13.2190    1.1890 C   0  0  0  0  0
   -4.9590   15.4780    0.6910 C   0  0  0  0  0
   -2.4450   11.9830   -3.3720 Cl  0  0  0  0  0
   -3.5080   10.9180   -2.4780 C   0  0  0  0  0
   -3.1120    9.6700   -2.0240 C   0  0  0  0  0
   -8.2590   10.1380   -1.1850 C   0  0  0  0  0
   -9.0340   10.0350   -2.4980 C   0  0  0  0  0
   -8.5920    9.6260   -3.5640 O   0  0  0  0  0
  -10.3110   10.4190   -2.3360 N   0  0  0  0  0
  -10.5670   10.8630   -0.9610 C   0  0  0  0  0
   -8.6940   12.0540    0.2330 N   0  3  0  0  0
   -9.1600   12.5300    1.5690 C   0  0  0  0  0
  -10.5370   13.1900    1.4620 C   0  0  0  0  0
   -6.6020   11.1670    1.2760 C   0  0  0  0  0
   -6.8780   10.0460    1.6330 O   0  0  0  0  0
   -5.6860   11.9790    1.8380 N   0  0  0  0  0
   -4.8360   14.3390    1.4770 C   0  0  0  0  0
   -4.0220   16.8850    0.9960 Cl  0  0  0  0  0
   -5.8690   15.5150   -0.3520 C   0  0  0  0  0
   -6.6730   14.4250   -0.6450 C   0  0  0  0  0
   -6.5370   13.2620    0.1260 C   0  0  0  0  0
   -4.7980   11.3630   -2.1930 C   0  0  0  0  0
   -5.1410   12.5820   -2.6570 F   0  0  0  0  0
   -3.6532    7.8991   -0.9448 H   0  0  0  0  0
   -5.9674    8.6651   -0.4719 H   0  0  0  0  0
   -7.2049   11.7976   -2.1192 H   0  0  0  0  0
   -9.4002   10.1507    0.7772 H   0  0  0  0  0
  -11.4927   14.5493    3.2579 H   0  0  0  0  0
  -10.4280   14.6152    3.4478 H   0  0  0  0  0
   -9.9247   15.3006    0.3809 H   0  0  0  0  0
  -10.9875   15.2348    0.1914 H   0  0  0  0  0
   -2.1046    9.3124   -2.2369 H   0  0  0  0  0
   -7.8602    9.1491   -0.9588 H   0  0  0  0  0
  -11.0137   10.4039   -3.0752 H   0  0  0  0  0
  -10.8967   11.9019   -0.9631 H   0  0  0  0  0
  -11.3482   10.2487   -0.5133 H   0  0  0  0  0
   -9.0347   12.7918   -0.3834 H   0  0  0  0  0
   -8.4479   13.2628    1.9486 H   0  0  0  0  0
   -9.2318   11.6748    2.2410 H   0  0  0  0  0
  -11.0674   12.2866    1.1608 H   0  0  0  0  0
   -5.1089   11.7223    2.6389 H   0  0  0  0  0
   -4.1335   14.3187    2.3102 H   0  0  0  0  0
   -5.9546   16.4193   -0.9545 H   0  0  0  0  0
   -7.3968   14.4709   -1.4587 H   0  0  0  0  0
  2  1  4  0  0  0
  1 13  4  0  0  0
  3  2  4  0  0  0
  4  3  1  0  0  0
  3 30  4  0  0  0
  8  4  1  0  0  0
  4 14  1  0  0  0
  5 14  1  0  0  0
  5 18  1  0  0  0
 19  5  1  0  0  0
  7  6  1  0  0  0
 21  6  1  0  0  0
 21  7  1  0  0  0
 19  8  1  0  0  0
  8 22  1  0  0  0
  8 29  1  0  0  0
  9 24  1  0  0  0
  9 25  4  0  0  0
 29  9  4  0  0  0
 25 10  4  0  0  0
 10 26  1  0  0  0
 10 27  4  0  0  0
 12 11  1  0  0  0
 12 13  4  0  0  0
 30 12  4  0  0  0
 14 15  1  0  0  0
 15 16  2  0  0  0
 17 15  1  0  0  0
 18 17  1  0  0  0
 20 19  1  0  0  0
 20 21  1  0  0  0
 22 23  2  0  0  0
 22 24  1  0  0  0
 27 28  4  0  0  0
 28 29  4  0  0  0
 30 31  1  0  0  0
  1 32  1  0  0  0
  2 33  1  0  0  0
  4 34  1  0  0  0
  5 35  1  0  0  0
  6 36  1  0  0  0
  6 37  1  0  0  0
  7 38  1  0  0  0
  7 39  1  0  0  0
 13 40  1  0  0  0
 14 41  1  0  0  0
 17 42  1  0  0  0
 18 43  1  0  0  0
 18 44  1  0  0  0
 19 45  1  0  0  0
 20 46  1  0  0  0
 20 47  1  0  0  0
 21 48  1  0  0  0
 24 49  1  0  0  0
 25 50  1  0  0  0
 27 51  1  0  0  0
 28 52  1  0  0  0
M  END
$$$$
