5ekj_ligand
  -I-interpret- 

 45 45  0  0  0  0  0  0  0  0999 V2000
    2.1860    8.2880   83.7390 C   0  0  0  0  0
    2.6160    8.2880   84.8870 O   0  0  0  0  0
    3.0280   10.5770   83.3250 N   0  3  0  0  0
    2.6580    9.2780   82.7060 C   0  0  0  0  0
   -2.3590    0.7730   86.7660 S   0  0  0  0  0
    0.1440    3.1490   84.6970 C   0  0  0  0  0
   -0.6990    4.2060   84.3140 C   0  0  0  0  0
   -2.0430    4.1990   84.6870 C   0  0  0  0  0
   -2.5380    3.1850   85.4040 C   0  0  0  0  0
   -1.6920    2.1090   85.8040 C   0  0  0  0  0
   -0.3640    2.1120   85.4370 C   0  0  0  0  0
   -0.1550    5.3590   83.4570 C   0  0  0  0  0
    0.6910    6.3190   84.2930 C   0  0  0  0  0
    1.1850    7.3110   83.3380 N   0  0  0  0  0
   -1.8240    0.9310   88.1000 O   0  0  0  0  0
   -3.8060    0.8770   86.6730 O   0  0  0  0  0
   -1.8490   -0.6120   86.1200 N   0  0  0  0  0
    3.2790   11.5300   82.3000 C   0  0  0  0  0
    3.7460   12.8880   82.9220 C   0  0  0  0  0
    2.7350   13.9810   82.5920 C   0  0  0  0  0
    3.3100   15.3520   82.9800 C   0  0  0  0  0
    3.8661   10.4582   83.8940 H   0  0  0  0  0
    2.2638   10.9040   83.9162 H   0  0  0  0  0
    1.8472    9.4514   81.9985 H   0  0  0  0  0
    3.5388    8.8678   82.2121 H   0  0  0  0  0
    1.1949    3.1532   84.4078 H   0  0  0  0  0
   -2.6923    5.0236   84.3927 H   0  0  0  0  0
   -3.5915    3.1807   85.6837 H   0  0  0  0  0
    0.2844    1.2883   85.7355 H   0  0  0  0  0
   -0.9981    5.9107   83.0412 H   0  0  0  0  0
    0.4708    4.9408   82.6686 H   0  0  0  0  0
    1.5063    5.8039   84.8010 H   0  0  0  0  0
    0.1110    6.7796   85.0927 H   0  0  0  0  0
    0.8250    7.3179   82.3837 H   0  0  0  0  0
   -1.2357   -1.2282   86.6534 H   0  0  0  0  0
   -2.1394   -0.8726   85.1776 H   0  0  0  0  0
    2.3614   11.6946   81.7352 H   0  0  0  0  0
    4.0638   11.1501   81.6458 H   0  0  0  0  0
    4.7177   13.1588   82.5089 H   0  0  0  0  0
    3.8222   12.7819   84.0041 H   0  0  0  0  0
    1.8157   13.8035   83.1501 H   0  0  0  0  0
    2.5238   13.9671   81.5228 H   0  0  0  0  0
    3.5225   15.3661   84.0490 H   0  0  0  0  0
    4.2300   15.5296   82.4230 H   0  0  0  0  0
    2.5840   16.1295   82.7423 H   0  0  0  0  0
  1  2  2  0  0  0
  1  4  1  0  0  0
 14  1  1  0  0  0
  4  3  1  0  0  0
  3 18  1  0  0  0
 10  5  1  0  0  0
  5 15  2  0  0  0
  5 16  2  0  0  0
  5 17  1  0  0  0
  7  6  4  0  0  0
  6 11  4  0  0  0
  7  8  4  0  0  0
 12  7  1  0  0  0
  8  9  4  0  0  0
  9 10  4  0  0  0
 11 10  4  0  0  0
 13 12  1  0  0  0
 13 14  1  0  0  0
 18 19  1  0  0  0
 19 20  1  0  0  0
 20 21  1  0  0  0
  3 22  1  0  0  0
  3 23  1  0  0  0
  4 24  1  0  0  0
  4 25  1  0  0  0
  6 26  1  0  0  0
  8 27  1  0  0  0
  9 28  1  0  0  0
 11 29  1  0  0  0
 12 30  1  0  0  0
 12 31  1  0  0  0
 13 32  1  0  0  0
 13 33  1  0  0  0
 14 34  1  0  0  0
 17 35  1  0  0  0
 17 36  1  0  0  0
 18 37  1  0  0  0
 18 38  1  0  0  0
 19 39  1  0  0  0
 19 40  1  0  0  0
 20 41  1  0  0  0
 20 42  1  0  0  0
 21 43  1  0  0  0
 21 44  1  0  0  0
 21 45  1  0  0  0
M  END
$$$$
