1olx_ligand
  -I-interpret- 

 45 46  0  0  0  0  0  0  0  0999 V2000
   77.2010    0.5650   11.6500 N   0  0  0  0  0
   77.4630    1.7830   12.1580 C   0  0  0  0  0
   77.5550    1.8660   13.6830 C   0  0  0  0  0
   77.6430    2.8940   11.3810 N   0  0  0  0  0
   77.5410    2.7130   10.0480 C   0  0  0  0  0
   77.7330    3.8440    9.3150 N   0  0  0  0  0
   77.2660    1.4320    9.4140 C   0  0  0  0  0
   77.0990    0.3750   10.3200 C   0  0  0  0  0
   77.1590    1.2490    7.8810 C   0  0  0  0  0
   75.9320    1.8660    7.3190 N   0  3  0  0  0
   75.9500    3.1120    6.7310 C   0  0  0  0  0
   74.3290    3.5720    6.2000 S   0  0  0  0  0
   73.6800    2.0570    6.7790 C   0  0  0  0  0
   74.5830    1.2170    7.3540 C   0  0  0  0  0
   74.3140   -0.1720    7.9600 C   0  0  0  0  0
   72.1800    1.9210    6.5600 C   0  0  0  0  0
   71.3880    2.7750    7.5860 C   0  0  0  0  0
   69.9990    2.6740    7.2480 O   0  0  0  0  0
   68.9720    3.7060    7.7490 P   0  0  0  0  0
   69.0130    4.9850    6.8360 O   0  0  0  0  0
   69.2770    4.0940    9.1750 O   0  0  0  0  0
   67.6420    3.0380    7.6400 O   0  0  0  0  0
   68.7590    5.2370    5.2700 P   0  0  0  0  0
   68.2420    6.6700    5.2020 O   0  0  0  0  0
   70.1080    5.0990    4.6290 O   0  0  0  0  0
   67.7570    4.2830    4.7560 O   0  0  0  0  0
   76.6075    1.5514   14.1205 H   0  0  0  0  0
   78.3535    1.2121   14.0337 H   0  0  0  0  0
   77.7693    2.8934   13.9774 H   0  0  0  0  0
   77.9341    4.7274    9.7836 H   0  0  0  0  0
   77.6757    3.8080    8.2972 H   0  0  0  0  0
   76.8817   -0.6231    9.9397 H   0  0  0  0  0
   77.1238    0.1799    7.6717 H   0  0  0  0  0
   78.0201    1.7360    7.4234 H   0  0  0  0  0
   76.8408    3.7284    6.6102 H   0  0  0  0  0
   74.9088   -0.9182    7.4332 H   0  0  0  0  0
   74.5879   -0.1659    9.0150 H   0  0  0  0  0
   73.2555   -0.4121    7.8595 H   0  0  0  0  0
   71.9016    0.8748    6.6871 H   0  0  0  0  0
   71.9403    2.2701    5.5556 H   0  0  0  0  0
   71.7148    3.8143    7.5505 H   0  0  0  0  0
   71.5615    2.4123    8.5991 H   0  0  0  0  0
   70.1364    4.5201    9.2127 H   0  0  0  0  0
   68.9124    7.2673    5.5417 H   0  0  0  0  0
   70.7084    5.7456    5.0072 H   0  0  0  0  0
  1  2  4  0  0  0
  1  8  4  0  0  0
  2  3  1  0  0  0
  2  4  4  0  0  0
  4  5  4  0  0  0
  5  6  1  0  0  0
  5  7  4  0  0  0
  7  8  4  0  0  0
  7  9  1  0  0  0
  9 10  1  0  0  0
 10 11  4  0  0  0
 10 14  4  0  0  0
 11 12  4  0  0  0
 12 13  4  0  0  0
 13 14  4  0  0  0
 13 16  1  0  0  0
 14 15  1  0  0  0
 16 17  1  0  0  0
 17 18  1  0  0  0
 18 19  1  0  0  0
 19 20  1  0  0  0
 19 21  1  0  0  0
 19 22  2  0  0  0
 20 23  1  0  0  0
 23 24  1  0  0  0
 23 25  1  0  0  0
 23 26  2  0  0  0
  3 27  1  0  0  0
  3 28  1  0  0  0
  3 29  1  0  0  0
  6 30  1  0  0  0
  6 31  1  0  0  0
  8 32  1  0  0  0
  9 33  1  0  0  0
  9 34  1  0  0  0
 11 35  1  0  0  0
 15 36  1  0  0  0
 15 37  1  0  0  0
 15 38  1  0  0  0
 16 39  1  0  0  0
 16 40  1  0  0  0
 17 41  1  0  0  0
 17 42  1  0  0  0
 21 43  1  0  0  0
 24 44  1  0  0  0
 25 45  1  0  0  0
M  END
$$$$
