2oht_ligand
  -I-interpret- 

 41 44  0  0  0  0  0  0  0  0999 V2000
   65.8610   48.7170    6.5440 N   0  0  0  0  0
   65.7760   48.1960    7.8330 C   0  0  0  0  0
   65.1480   47.0390    8.0370 N   0  0  0  0  0
   65.0470   46.5000    9.2420 C   0  0  0  0  0
   65.5920   47.1180   10.3530 C   0  0  0  0  0
   66.2570   48.3260   10.1850 C   0  0  0  0  0
   66.3570   48.8900    8.9100 C   0  0  0  0  0
   67.0270   50.1180    8.6990 N   0  0  0  0  0
   67.7440   50.8000    9.7950 C   0  0  0  0  0
   69.1070   50.1540    9.9970 C   0  0  0  0  0
   69.5460   49.9200   11.3020 C   0  0  0  0  0
   70.7790   49.3260   11.5120 C   0  0  0  0  0
   71.5790   48.9590   10.4280 C   0  0  0  0  0
   71.1570   49.2000    9.1100 C   0  0  0  0  0
   69.9000   49.7890    8.8990 C   0  0  0  0  0
   72.0310   48.7840    7.9840 C   0  0  0  0  0
   73.4380   48.8230    8.1250 C   0  0  0  0  0
   74.2530   48.4180    7.0920 C   0  0  0  0  0
   73.6950   47.9500    5.8810 C   0  0  0  0  0
   74.2490   47.4550    4.6050 C   0  0  0  0  0
   73.2110   47.1310    3.7960 C   0  0  0  0  0
   72.0250   47.3840    4.4400 N   0  0  0  0  0
   72.2780   47.8790    5.7250 C   0  0  0  0  0
   71.4560   48.2980    6.7960 C   0  0  0  0  0
   65.4435   48.2130    5.7616 H   0  0  0  0  0
   66.3407   49.6025    6.3824 H   0  0  0  0  0
   64.5243   45.5509    9.3609 H   0  0  0  0  0
   65.5015   46.6661   11.3408 H   0  0  0  0  0
   66.6988   48.8318   11.0436 H   0  0  0  0  0
   67.0145   50.5409    7.7709 H   0  0  0  0  0
   67.1641   50.7147   10.7140 H   0  0  0  0  0
   67.8769   51.8515    9.5403 H   0  0  0  0  0
   68.9220   50.2031   12.1497 H   0  0  0  0  0
   71.1269   49.1439   12.5288 H   0  0  0  0  0
   72.5418   48.4801   10.6065 H   0  0  0  0  0
   69.5412   49.9622    7.8844 H   0  0  0  0  0
   73.8795   49.1758    9.0570 H   0  0  0  0  0
   75.3359   48.4586    7.2090 H   0  0  0  0  0
   75.3067   47.3658    4.3572 H   0  0  0  0  0
   73.3037   46.7301    2.7866 H   0  0  0  0  0
   70.3715   48.2442    6.7007 H   0  0  0  0  0
  1  2  1  0  0  0
  2  3  4  0  0  0
  2  7  4  0  0  0
  3  4  4  0  0  0
  4  5  4  0  0  0
  5  6  4  0  0  0
  6  7  4  0  0  0
  7  8  1  0  0  0
  8  9  1  0  0  0
  9 10  1  0  0  0
 10 11  4  0  0  0
 10 15  4  0  0  0
 11 12  4  0  0  0
 12 13  4  0  0  0
 13 14  4  0  0  0
 14 15  4  0  0  0
 14 16  1  0  0  0
 16 17  4  0  0  0
 16 24  4  0  0  0
 17 18  4  0  0  0
 18 19  4  0  0  0
 19 20  4  0  0  0
 19 23  4  0  0  0
 20 21  4  0  0  0
 21 22  4  0  0  0
 22 23  4  0  0  0
 23 24  4  0  0  0
  1 25  1  0  0  0
  1 26  1  0  0  0
  4 27  1  0  0  0
  5 28  1  0  0  0
  6 29  1  0  0  0
  8 30  1  0  0  0
  9 31  1  0  0  0
  9 32  1  0  0  0
 11 33  1  0  0  0
 12 34  1  0  0  0
 13 35  1  0  0  0
 15 36  1  0  0  0
 17 37  1  0  0  0
 18 38  1  0  0  0
 20 39  1  0  0  0
 21 40  1  0  0  0
 24 41  1  0  0  0
M  END
$$$$
