5ukl_ligand
  -I-interpret- 

 64 68  0  0  0  0  0  0  0  0999 V2000
   14.2980   -3.1330   47.9620 O   0  0  0  0  0
   13.2500   -2.8310   48.5330 C   0  0  0  0  0
   12.2710   -3.6970   48.8050 N   0  0  0  0  0
   12.3590   -5.1350   48.5130 C   0  0  0  0  0
   11.1060   -5.9490   48.8980 C   0  0  0  0  0
   11.2330   -7.3550   48.3680 C   0  0  0  0  0
   10.3100   -8.0200   47.5530 C   0  0  0  0  0
   10.8350   -9.2270   47.2880 N   0  0  0  0  0
   12.0760   -9.3730   47.9390 N   0  0  0  0  0
   12.3180   -8.2130   48.5900 C   0  0  0  0  0
   13.0070   -1.4170   49.0160 C   0  0  0  0  0
   14.2940   -0.7930   49.5770 C   0  0  0  0  0
   15.2040   -0.1070   48.7590 C   0  0  0  0  0
   14.9420    0.0010   47.4580 F   0  0  0  0  0
   14.5720   -0.8900   50.9390 C   0  0  0  0  0
   15.7340   -0.3220   51.4950 C   0  0  0  0  0
   16.6290    0.3580   50.6690 C   0  0  0  0  0
   16.3580    0.4670   49.2910 C   0  0  0  0  0
   15.9970   -0.4620   52.9430 C   0  0  0  0  0
   14.8710    0.1270   53.8260 C   0  0  0  0  0
   15.1880   -0.0810   55.3040 C   0  0  0  0  0
   15.3660   -1.5400   55.5530 N   0  3  0  0  0
   16.5020   -2.0610   54.7690 C   0  0  0  0  0
   16.1350   -1.9500   53.2890 C   0  0  0  0  0
   14.5850    1.5850   53.6060 C   0  0  0  0  0
   15.7970    2.3410   53.5000 O   0  0  0  0  0
   15.7310    3.7350   53.5060 C   0  0  0  0  0
   14.5380    4.4420   53.2640 C   0  0  0  0  0
   14.5510    5.8220   53.2880 C   0  0  0  0  0
   13.4990    6.6770   53.0740 O   0  0  0  0  0
   13.9840    7.9720   53.4150 C   0  0  0  0  0
   15.4100    7.8620   53.5560 O   0  0  0  0  0
   15.6830    6.5280   53.5590 C   0  0  0  0  0
   16.8790    5.8810   53.8410 C   0  0  0  0  0
   16.8850    4.4750   53.7930 C   0  0  0  0  0
   11.4180   -3.3426   49.2377 H   0  0  0  0  0
   13.1866   -5.5285   49.1032 H   0  0  0  0  0
   12.4818   -5.2328   47.4344 H   0  0  0  0  0
   10.2222   -5.4783   48.4675 H   0  0  0  0  0
   11.0129   -5.9784   49.9836 H   0  0  0  0  0
    9.3529   -7.6339   47.2022 H   0  0  0  0  0
   13.2030   -7.9851   49.1840 H   0  0  0  0  0
   12.2590   -1.4436   49.8084 H   0  0  0  0  0
   12.6669   -0.8150   48.1734 H   0  0  0  0  0
   13.8738   -1.4177   51.5888 H   0  0  0  0  0
   17.5323    0.8022   51.0872 H   0  0  0  0  0
   17.0508    1.0004   48.6402 H   0  0  0  0  0
   16.9122    0.0931   53.1487 H   0  0  0  0  0
   13.9765   -0.4178   53.5240 H   0  0  0  0  0
   14.3714    0.3024   55.9157 H   0  0  0  0  0
   16.1009    0.4538   55.5660 H   0  0  0  0  0
   14.5166   -2.0307   55.2733 H   0  0  0  0  0
   15.5518   -1.6874   56.5451 H   0  0  0  0  0
   16.7010   -3.0995   55.0336 H   0  0  0  0  0
   17.4039   -1.4866   54.9803 H   0  0  0  0  0
   16.9096   -2.4085   52.6743 H   0  0  0  0  0
   15.1968   -2.4697   53.0944 H   0  0  0  0  0
   14.0148    1.9596   54.4561 H   0  0  0  0  0
   14.0254    1.6932   52.6769 H   0  0  0  0  0
   13.6121    3.9044   53.0595 H   0  0  0  0  0
   13.5303    8.3223   54.3421 H   0  0  0  0  0
   13.7273    8.6962   52.6419 H   0  0  0  0  0
   17.7798    6.4418   54.0903 H   0  0  0  0  0
   17.8176    3.9446   53.9853 H   0  0  0  0  0
  1  2  2  0  0  0
  2  3  1  0  0  0
  2 11  1  0  0  0
  3  4  1  0  0  0
  4  5  1  0  0  0
  5  6  1  0  0  0
  6  7  4  0  0  0
  6 10  4  0  0  0
  7  8  4  0  0  0
  8  9  4  0  0  0
  9 10  4  0  0  0
 11 12  1  0  0  0
 12 13  4  0  0  0
 12 15  4  0  0  0
 13 14  1  0  0  0
 13 18  4  0  0  0
 15 16  4  0  0  0
 16 17  4  0  0  0
 16 19  1  0  0  0
 17 18  4  0  0  0
 19 20  1  0  0  0
 19 24  1  0  0  0
 20 21  1  0  0  0
 20 25  1  0  0  0
 21 22  1  0  0  0
 22 23  1  0  0  0
 23 24  1  0  0  0
 25 26  1  0  0  0
 26 27  1  0  0  0
 27 28  4  0  0  0
 27 35  4  0  0  0
 28 29  4  0  0  0
 29 30  1  0  0  0
 29 33  4  0  0  0
 30 31  1  0  0  0
 31 32  1  0  0  0
 32 33  1  0  0  0
 33 34  4  0  0  0
 34 35  4  0  0  0
  3 36  1  0  0  0
  4 37  1  0  0  0
  4 38  1  0  0  0
  5 39  1  0  0  0
  5 40  1  0  0  0
  7 41  1  0  0  0
 10 42  1  0  0  0
 11 43  1  0  0  0
 11 44  1  0  0  0
 15 45  1  0  0  0
 17 46  1  0  0  0
 18 47  1  0  0  0
 19 48  1  0  0  0
 20 49  1  0  0  0
 21 50  1  0  0  0
 21 51  1  0  0  0
 22 52  1  0  0  0
 22 53  1  0  0  0
 23 54  1  0  0  0
 23 55  1  0  0  0
 24 56  1  0  0  0
 24 57  1  0  0  0
 25 58  1  0  0  0
 25 59  1  0  0  0
 28 60  1  0  0  0
 31 61  1  0  0  0
 31 62  1  0  0  0
 34 63  1  0  0  0
 35 64  1  0  0  0
M  END
$$$$
