4aj1_ligand
  -I-interpret- 

 26 27  0  0  0  0  0  0  0  0999 V2000
   16.2620   -7.0320    2.8090 C   0  0  0  0  0
   17.3180   -7.1970    1.7360 C   0  0  0  0  0
   17.4300   -8.2210    1.0580 O   0  0  0  0  0
   18.1550   -6.1210    1.5830 N   0  0  0  0  0
   19.4650   -6.1310    1.0090 C   0  0  0  0  0
   20.5500   -5.5310    1.6600 C   0  0  0  0  0
   21.8110   -5.5480    1.0890 C   0  0  0  0  0
   22.0300   -6.1640   -0.1350 C   0  0  0  0  0
   20.9340   -6.7580   -0.7670 C   0  0  0  0  0
   19.6630   -6.7430   -0.2070 C   0  0  0  0  0
   21.4220   -7.4670   -2.2850 S   0  0  0  0  0
   23.0680   -6.9040   -1.9670 C   0  0  0  0  0
   23.2370   -6.2650   -0.8380 N   0  0  0  0  0
   24.0810   -7.1390   -2.8410 N   0  0  0  0  0
   23.9560   -7.9510   -4.0550 C   0  0  0  0  0
   15.2728   -7.1264    2.3610 H   0  0  0  0  0
   16.3936   -7.8031    3.5681 H   0  0  0  0  0
   16.3623   -6.0482    3.2674 H   0  0  0  0  0
   17.8071   -5.2206    1.9127 H   0  0  0  0  0
   20.4003   -5.0463    2.6248 H   0  0  0  0  0
   22.6428   -5.0713    1.6077 H   0  0  0  0  0
   18.8284   -7.2128   -0.7274 H   0  0  0  0  0
   24.9898   -6.7224   -2.6389 H   0  0  0  0  0
   23.6605   -8.9645   -3.7838 H   0  0  0  0  0
   23.2004   -7.5131   -4.7073 H   0  0  0  0  0
   24.9145   -7.9771   -4.5734 H   0  0  0  0  0
  1  2  1  0  0  0
  2  3  2  0  0  0
  2  4  1  0  0  0
  4  5  1  0  0  0
  5  6  4  0  0  0
  5 10  4  0  0  0
  6  7  4  0  0  0
  7  8  4  0  0  0
  8  9  4  0  0  0
  8 13  4  0  0  0
  9 10  4  0  0  0
  9 11  4  0  0  0
 11 12  4  0  0  0
 12 13  4  0  0  0
 12 14  1  0  0  0
 14 15  1  0  0  0
  1 16  1  0  0  0
  1 17  1  0  0  0
  1 18  1  0  0  0
  4 19  1  0  0  0
  6 20  1  0  0  0
  7 21  1  0  0  0
 10 22  1  0  0  0
 14 23  1  0  0  0
 15 24  1  0  0  0
 15 25  1  0  0  0
 15 26  1  0  0  0
M  END
$$$$
