2wk6_ligand
  -I-interpret- 

 12 12  0  0  0  0  0  0  0  0999 V2000
   16.6580   16.1180   45.6180 N   0  0  0  0  0
   15.4900   16.7150   46.1710 C   0  0  0  0  0
   14.8440   17.6110   45.6880 O   0  0  0  0  0
   15.0900   16.1560   47.4150 N   0  0  0  0  0
   15.7070   15.1100   48.1510 C   0  0  0  0  0
   15.2390   14.7370   49.2240 O   0  0  0  0  0
   16.9130   14.5550   47.5070 C   0  0  0  0  0
   17.3380   15.0780   46.2740 C   0  0  0  0  0
   17.9680   13.0080   48.4700 I   0  0  0  0  0
   14.2512   16.5582   47.8333 H   0  0  0  0  0
   17.5074   13.9691   46.8059 H   0  0  0  0  0
   18.2305   14.6604   45.8080 H   0  0  0  0  0
  1  2  1  0  0  0
  1  8  2  0  0  0
  2  3  2  0  0  0
  2  4  1  0  0  0
  4  5  1  0  0  0
  5  6  2  0  0  0
  5  7  1  0  0  0
  7  8  1  0  0  0
  7  9  1  0  0  0
  4 10  1  0  0  0
  7 11  1  0  0  0
  8 12  1  0  0  0
M  END
$$$$
