4gb9_ligand
  -I-interpret- 

 79 84  0  0  0  0  0  0  0  0999 V2000
    9.0550   -2.9520   16.6550 C   0  0  0  0  0
   13.4260   -1.4250   18.9060 N   0  3  0  0  0
   15.1030   -8.2290   22.2000 O   0  0  0  0  0
    9.3100   -2.3920   18.0510 C   0  0  0  0  0
   15.4750   -3.4400   19.7570 N   0  0  0  0  0
    9.2420   -3.4290   18.9540 O   0  0  0  0  0
    8.2310   -1.3550   18.3930 C   0  0  0  0  0
   17.0700   -2.0030   19.1310 N   0  0  0  0  0
   10.7070   -1.6580   18.1060 C   0  0  0  0  0
   18.9750   -3.7330   19.0560 N   0  0  0  0  0
   11.0570   -1.2920   19.5000 C   0  0  0  0  0
   18.3460   -5.9430   19.6190 N   0  0  0  0  0
   12.3950   -0.6490   19.5700 C   0  0  0  0  0
   16.1480   -6.5970   20.2440 N   0  0  0  0  0
   13.0680   -1.7800   17.5420 C   0  0  0  0  0
   11.7260   -2.4380   17.4720 C   0  0  0  0  0
   14.7540   -0.9400   19.4390 C   0  0  0  0  0
   15.7670   -2.1020   19.4350 C   0  0  0  0  0
   16.6720   -4.1820   19.6440 C   0  0  0  0  0
   17.6660   -3.2940   19.2590 C   0  0  0  0  0
   17.8240   -0.8550   18.7350 C   0  0  0  0  0
   19.2790   -5.0240   19.2460 C   0  0  0  0  0
   17.0550   -5.5630   19.8370 C   0  0  0  0  0
   14.8200   -6.4150   20.6780 C   0  0  0  0  0
   14.5950   -6.9320   22.0600 C   0  0  0  0  0
   16.4820   -8.2780   21.9230 C   0  0  0  0  0
   16.7280   -7.8550   20.5180 C   0  0  0  0  0
   20.5970   -5.4580   19.0040 N   0  0  0  0  0
   21.2250   -6.5160   19.6440 C   0  0  0  0  0
   20.8400   -7.3960   20.6420 C   0  0  0  0  0
   21.7260   -8.3610   21.0720 C   0  0  0  0  0
   22.9920   -8.4550   20.5160 C   0  0  0  0  0
   23.3910   -7.5900   19.5230 C   0  0  0  0  0
   22.5070   -6.6040   19.0790 C   0  0  0  0  0
   22.6010   -5.6290   18.1390 N   0  0  0  0  0
   21.4830   -4.9530   18.0860 C   0  0  0  0  0
   21.2400   -3.8880   17.2420 N   0  0  0  0  0
   20.1500   -4.1760   16.2970 C   0  0  0  0  0
   22.4570   -3.4570   16.5420 C   0  0  0  0  0
    8.0739   -3.4262   16.6288 H   0  0  0  0  0
    9.0873   -2.1406   15.9279 H   0  0  0  0  0
    9.8222   -3.6879   16.4144 H   0  0  0  0  0
   13.5519   -2.4158   19.1128 H   0  0  0  0  0
    9.9155   -4.0799   18.7434 H   0  0  0  0  0
    8.4143   -0.9575   19.3912 H   0  0  0  0  0
    8.2649   -0.5439   17.6657 H   0  0  0  0  0
    7.2503   -1.8299   18.3641 H   0  0  0  0  0
   10.6300   -0.7280   17.5427 H   0  0  0  0  0
   11.0766   -2.2001   20.1026 H   0  0  0  0  0
   10.3133   -0.5865   19.8706 H   0  0  0  0  0
   12.3284    0.3166   19.0687 H   0  0  0  0  0
   12.6685   -0.5601   20.6214 H   0  0  0  0  0
   13.8127   -2.4804   17.1640 H   0  0  0  0  0
   13.0326   -0.8663   16.9486 H   0  0  0  0  0
   11.4597   -2.5538   16.4214 H   0  0  0  0  0
   11.7907   -3.3955   17.9888 H   0  0  0  0  0
   14.6244   -0.5754   20.4580 H   0  0  0  0  0
   15.1254   -0.1330   18.8073 H   0  0  0  0  0
   17.4056   -0.4468   17.8150 H   0  0  0  0  0
   17.7777   -0.1023   19.5220 H   0  0  0  0  0
   18.8616   -1.1436   18.5671 H   0  0  0  0  0
   14.1665   -6.9663   20.0019 H   0  0  0  0  0
   14.6104   -5.3453   20.6806 H   0  0  0  0  0
   15.1074   -6.2780   22.7655 H   0  0  0  0  0
   13.5228   -6.9538   22.2547 H   0  0  0  0  0
   16.8417   -9.2976   22.0611 H   0  0  0  0  0
   17.0100   -7.6062   22.5998 H   0  0  0  0  0
   17.8045   -7.7782   20.3652 H   0  0  0  0  0
   16.2794   -8.5929   19.8529 H   0  0  0  0  0
   19.8458   -7.3263   21.0833 H   0  0  0  0  0
   21.4279   -9.0565   21.8566 H   0  0  0  0  0
   23.6798   -9.2232   20.8695 H   0  0  0  0  0
   24.3867   -7.6734   19.0874 H   0  0  0  0  0
   20.4167   -5.0406   15.6892 H   0  0  0  0  0
   19.2363   -4.3884   16.8521 H   0  0  0  0  0
   19.9922   -3.3116   15.6520 H   0  0  0  0  0
   23.2058   -3.1511   17.2726 H   0  0  0  0  0
   22.8446   -4.2840   15.9471 H   0  0  0  0  0
   22.2207   -2.6172   15.8886 H   0  0  0  0  0
  4  1  1  0  0  0
  2 13  1  0  0  0
  2 15  1  0  0  0
 17  2  1  0  0  0
 25  3  1  0  0  0
  3 26  1  0  0  0
  4  6  1  0  0  0
  4  7  1  0  0  0
  9  4  1  0  0  0
  5 18  4  0  0  0
 19  5  4  0  0  0
  8 18  4  0  0  0
 20  8  4  0  0  0
  8 21  1  0  0  0
 11  9  1  0  0  0
 16  9  1  0  0  0
 20 10  4  0  0  0
 22 10  4  0  0  0
 13 11  1  0  0  0
 12 22  4  0  0  0
 23 12  4  0  0  0
 14 23  1  0  0  0
 24 14  1  0  0  0
 14 27  1  0  0  0
 15 16  1  0  0  0
 18 17  1  0  0  0
 19 20  4  0  0  0
 23 19  4  0  0  0
 22 28  1  0  0  0
 24 25  1  0  0  0
 26 27  1  0  0  0
 28 29  4  0  0  0
 28 36  4  0  0  0
 29 30  4  0  0  0
 29 34  4  0  0  0
 30 31  4  0  0  0
 31 32  4  0  0  0
 32 33  4  0  0  0
 33 34  4  0  0  0
 34 35  4  0  0  0
 35 36  4  0  0  0
 36 37  1  0  0  0
 37 38  1  0  0  0
 37 39  1  0  0  0
  1 40  1  0  0  0
  1 41  1  0  0  0
  1 42  1  0  0  0
  2 43  1  0  0  0
  6 44  1  0  0  0
  7 45  1  0  0  0
  7 46  1  0  0  0
  7 47  1  0  0  0
  9 48  1  0  0  0
 11 49  1  0  0  0
 11 50  1  0  0  0
 13 51  1  0  0  0
 13 52  1  0  0  0
 15 53  1  0  0  0
 15 54  1  0  0  0
 16 55  1  0  0  0
 16 56  1  0  0  0
 17 57  1  0  0  0
 17 58  1  0  0  0
 21 59  1  0  0  0
 21 60  1  0  0  0
 21 61  1  0  0  0
 24 62  1  0  0  0
 24 63  1  0  0  0
 25 64  1  0  0  0
 25 65  1  0  0  0
 26 66  1  0  0  0
 26 67  1  0  0  0
 27 68  1  0  0  0
 27 69  1  0  0  0
 30 70  1  0  0  0
 31 71  1  0  0  0
 32 72  1  0  0  0
 33 73  1  0  0  0
 38 74  1  0  0  0
 38 75  1  0  0  0
 38 76  1  0  0  0
 39 77  1  0  0  0
 39 78  1  0  0  0
 39 79  1  0  0  0
M  END
$$$$
