1pye_ligand
  -I-interpret- 

 41 44  0  0  0  0  0  0  0  0999 V2000
   12.1640   -8.8880   22.8640 C   0  0  0  0  0
   13.0340   -9.2590   23.9350 C   0  0  0  0  0
   13.9760  -10.2500   23.8420 N   0  0  0  0  0
   14.1340  -10.9480   22.5960 C   0  0  0  0  0
   13.3150  -10.6450   21.5040 C   0  0  0  0  0
   12.3350   -9.6040   21.6290 C   0  0  0  0  0
   14.9410  -10.7780   24.7210 C   0  0  0  0  0
   15.5940  -11.7950   23.9830 C   0  0  0  0  0
   15.1130  -11.8720   22.7300 N   0  0  0  0  0
   15.2930  -10.4970   26.1290 C   0  0  0  0  0
   14.6600   -9.4620   26.9840 C   0  0  0  0  0
   13.3970   -9.7370   27.6360 C   0  0  0  0  0
   12.7780   -8.7330   28.4710 C   0  0  0  0  0
   13.4230   -7.4700   28.6490 C   0  0  0  0  0
   14.6680   -7.1930   28.0000 C   0  0  0  0  0
   15.2930   -8.1840   27.1670 C   0  0  0  0  0
   11.1070   -7.7970   22.9750 C   0  0  0  0  0
   10.9440   -7.0500   24.3110 C   0  0  0  0  0
    9.7520   -7.2480   25.0880 C   0  0  0  0  0
    9.5190   -6.5890   26.3420 C   0  0  0  0  0
   10.4960   -5.6770   26.8580 C   0  0  0  0  0
   11.7070   -5.4310   26.1370 C   0  0  0  0  0
   11.9280   -6.0940   24.8830 C   0  0  0  0  0
   10.3790   -7.5170   21.9890 O   0  0  0  0  0
   16.2190  -11.1720   26.6280 O   0  0  0  0  0
   16.6740  -12.6470   24.4810 N   0  0  0  0  0
    8.8000   -8.0830   24.6690 F   0  0  0  0  0
   13.0910   -5.8090   24.2780 F   0  0  0  0  0
   12.9433   -8.7232   24.8799 H   0  0  0  0  0
   13.4197  -11.1935   20.5679 H   0  0  0  0  0
   11.7094   -9.3518   20.7727 H   0  0  0  0  0
   12.9120  -10.7032   27.4968 H   0  0  0  0  0
   11.8263   -8.9374   28.9614 H   0  0  0  0  0
   12.9633   -6.7124   29.2836 H   0  0  0  0  0
   15.1460   -6.2232   28.1383 H   0  0  0  0  0
   16.2421   -7.9677   26.6765 H   0  0  0  0  0
    8.6023   -6.7818   26.8993 H   0  0  0  0  0
   10.3158   -5.1679   27.8048 H   0  0  0  0  0
   12.4552   -4.7463   26.5363 H   0  0  0  0  0
   17.0157  -12.5319   25.4351 H   0  0  0  0  0
   17.0853  -13.3562   23.8741 H   0  0  0  0  0
  1  2  4  0  0  0
  1  6  4  0  0  0
  1 17  1  0  0  0
  2  3  4  0  0  0
  3  4  4  0  0  0
  3  7  4  0  0  0
  4  5  4  0  0  0
  4  9  4  0  0  0
  5  6  4  0  0  0
  7  8  4  0  0  0
  7 10  1  0  0  0
  8  9  4  0  0  0
  8 26  1  0  0  0
 10 11  1  0  0  0
 10 25  2  0  0  0
 11 12  4  0  0  0
 11 16  4  0  0  0
 12 13  4  0  0  0
 13 14  4  0  0  0
 14 15  4  0  0  0
 15 16  4  0  0  0
 17 18  1  0  0  0
 17 24  2  0  0  0
 18 19  4  0  0  0
 18 23  4  0  0  0
 19 20  4  0  0  0
 19 27  1  0  0  0
 20 21  4  0  0  0
 21 22  4  0  0  0
 22 23  4  0  0  0
 23 28  1  0  0  0
  2 29  1  0  0  0
  5 30  1  0  0  0
  6 31  1  0  0  0
 12 32  1  0  0  0
 13 33  1  0  0  0
 14 34  1  0  0  0
 15 35  1  0  0  0
 16 36  1  0  0  0
 20 37  1  0  0  0
 21 38  1  0  0  0
 22 39  1  0  0  0
 26 40  1  0  0  0
 26 41  1  0  0  0
M  END
$$$$
