4z0u_ligand
  -I-interpret- 

 70 71  0  0  0  0  0  0  0  0999 V2000
   89.2080   47.6330   33.3080 N   0  3  0  0  0
   88.0420   47.1540   34.1190 C   0  0  0  0  0
   86.9960   46.3680   33.3240 C   0  0  0  0  0
   86.3680   45.4620   33.8700 O   0  0  0  0  0
   87.3410   48.3140   34.8180 C   0  0  0  0  0
   86.3330   47.8360   35.8490 C   0  0  0  0  0
   86.7540   47.1300   36.7940 O   0  0  0  0  0
   85.1280   48.1460   35.7070 O   0  0  0  0  0
   86.7710   46.7410   32.0650 N   0  0  0  0  0
   85.9670   45.9140   31.1650 C   0  0  0  0  0
   86.7610   44.6210   30.8730 C   0  0  0  0  0
   87.9230   44.6830   30.4610 O   0  0  0  0  0
   85.5700   46.6730   29.8720 C   0  0  0  0  0
   84.4630   45.9190   29.1190 C   0  0  0  0  0
   86.7730   46.9230   28.9630 C   0  0  0  0  0
   83.6400   46.7970   28.1980 C   0  0  0  0  0
   86.1440   43.4460   31.1060 N   0  0  0  0  0
   86.8850   42.1840   31.0460 C   0  0  0  0  0
   86.9950   41.5890   29.6290 C   0  0  0  0  0
   87.1560   40.3690   29.4660 O   0  0  0  0  0
   86.0520   41.2850   31.9540 C   0  0  0  0  0
   84.6520   41.7240   31.6710 C   0  0  0  0  0
   84.7160   43.2080   31.3940 C   0  0  0  0  0
   86.9050   42.4400   28.6120 N   0  0  0  0  0
   87.1410   42.0230   27.2340 C   0  0  0  0  0
   87.5640   43.2220   26.4000 C   0  0  0  0  0
   87.4200   44.3690   26.8240 O   0  0  0  0  0
   85.8890   41.3650   26.6390 C   0  0  0  0  0
   84.6270   42.1620   26.8300 C   0  0  0  0  0
   84.3290   43.2350   25.9940 C   0  0  0  0  0
   83.7220   41.8260   27.8280 C   0  0  0  0  0
   83.1650   43.9660   26.1670 C   0  0  0  0  0
   82.5530   42.5510   28.0000 C   0  0  0  0  0
   82.2770   43.6230   27.1690 C   0  0  0  0  0
   88.0520   43.0720   25.2860 O   0  0  0  0  0
   89.6550   46.8365   32.8540 H   0  0  0  0  0
   88.8810   48.2901   32.5997 H   0  0  0  0  0
   89.8787   48.0973   33.9204 H   0  0  0  0  0
   88.4822   46.4704   34.8450 H   0  0  0  0  0
   86.8073   48.8924   34.0639 H   0  0  0  0  0
   88.0970   48.9077   35.3319 H   0  0  0  0  0
   87.7035   47.0170   36.7092 H   0  0  0  0  0
   87.1656   47.6172   31.7231 H   0  0  0  0  0
   85.0209   45.6588   31.6424 H   0  0  0  0  0
   85.1849   47.6476   30.1718 H   0  0  0  0  0
   83.7847   45.5073   29.8664 H   0  0  0  0  0
   84.9479   45.1643   28.4999 H   0  0  0  0  0
   87.5118   47.5211   29.4965 H   0  0  0  0  0
   87.2147   45.9686   28.6763 H   0  0  0  0  0
   86.4474   47.4569   28.0702 H   0  0  0  0  0
   83.1579   47.5817   28.7811 H   0  0  0  0  0
   84.2917   47.2473   27.4492 H   0  0  0  0  0
   82.8805   46.1913   27.7036 H   0  0  0  0  0
   87.9257   42.3049   31.3468 H   0  0  0  0  0
   86.3204   41.3828   33.0059 H   0  0  0  0  0
   86.2096   40.2245   31.7574 H   0  0  0  0  0
   83.9980   41.5126   32.5169 H   0  0  0  0  0
   84.2386   41.1851   30.8184 H   0  0  0  0  0
   84.0690   43.5064   30.5691 H   0  0  0  0  0
   84.3547   43.8044   32.2318 H   0  0  0  0  0
   86.6639   43.4130   28.8005 H   0  0  0  0  0
   87.9420   41.2838   27.2245 H   0  0  0  0  0
   87.0302   44.3383   27.7008 H   0  0  0  0  0
   85.7502   40.4131   27.1516 H   0  0  0  0  0
   86.0526   41.2721   25.5654 H   0  0  0  0  0
   85.0195   43.5028   25.1943 H   0  0  0  0  0
   83.9333   40.9818   28.4843 H   0  0  0  0  0
   82.9496   44.8112   25.5133 H   0  0  0  0  0
   81.8521   42.2772   28.7886 H   0  0  0  0  0
   81.3599   44.1963   27.3048 H   0  0  0  0  0
  1  2  1  0  0  0
  2  3  1  0  0  0
  2  5  1  0  0  0
  3  4  2  0  0  0
  3  9  1  0  0  0
  5  6  1  0  0  0
  6  7  1  0  0  0
  6  8  2  0  0  0
  9 10  1  0  0  0
 10 11  1  0  0  0
 10 13  1  0  0  0
 11 12  2  0  0  0
 11 17  1  0  0  0
 13 14  1  0  0  0
 13 15  1  0  0  0
 14 16  1  0  0  0
 17 18  1  0  0  0
 17 23  1  0  0  0
 18 19  1  0  0  0
 18 21  1  0  0  0
 19 20  2  0  0  0
 19 24  1  0  0  0
 21 22  1  0  0  0
 22 23  1  0  0  0
 24 25  1  0  0  0
 25 26  1  0  0  0
 25 28  1  0  0  0
 26 27  1  0  0  0
 26 35  2  0  0  0
 28 29  1  0  0  0
 29 30  4  0  0  0
 29 31  4  0  0  0
 30 32  4  0  0  0
 31 33  4  0  0  0
 32 34  4  0  0  0
 33 34  4  0  0  0
  1 36  1  0  0  0
  1 37  1  0  0  0
  1 38  1  0  0  0
  2 39  1  0  0  0
  5 40  1  0  0  0
  5 41  1  0  0  0
  7 42  1  0  0  0
  9 43  1  0  0  0
 10 44  1  0  0  0
 13 45  1  0  0  0
 14 46  1  0  0  0
 14 47  1  0  0  0
 15 48  1  0  0  0
 15 49  1  0  0  0
 15 50  1  0  0  0
 16 51  1  0  0  0
 16 52  1  0  0  0
 16 53  1  0  0  0
 18 54  1  0  0  0
 21 55  1  0  0  0
 21 56  1  0  0  0
 22 57  1  0  0  0
 22 58  1  0  0  0
 23 59  1  0  0  0
 23 60  1  0  0  0
 24 61  1  0  0  0
 25 62  1  0  0  0
 27 63  1  0  0  0
 28 64  1  0  0  0
 28 65  1  0  0  0
 30 66  1  0  0  0
 31 67  1  0  0  0
 32 68  1  0  0  0
 33 69  1  0  0  0
 34 70  1  0  0  0
M  END
$$$$
