1gux_ligand
  -I-interpret- 

155156  0  0  0  0  0  0  0  0999 V2000
   26.2620   45.2800   89.8180 N   0  3  0  0  0
   25.8040   43.9550   89.3120 C   0  0  0  0  0
   26.4610   43.7220   87.9450 C   0  0  0  0  0
   27.4480   44.4030   87.6190 O   0  0  0  0  0
   24.2600   43.8740   89.2650 C   0  0  0  0  0
   23.6100   44.8530   88.2800 C   0  0  0  0  0
   24.2610   45.7690   87.7230 O   0  0  0  0  0
   22.3880   44.6880   88.0750 O   0  0  0  0  0
   25.9610   42.7760   87.1570 N   0  0  0  0  0
   26.5930   42.5410   85.8710 C   0  0  0  0  0
   25.8900   43.2290   84.7030 C   0  0  0  0  0
   26.3980   43.1870   83.5820 O   0  0  0  0  0
   26.7210   41.0410   85.6100 C   0  0  0  0  0
   27.4090   40.1980   86.6930 C   0  0  0  0  0
   27.3770   38.7380   86.3000 C   0  0  0  0  0
   28.8230   40.6810   86.9540 C   0  0  0  0  0
   24.7580   43.8860   84.9640 N   0  0  0  0  0
   23.9880   44.5460   83.9060 C   0  0  0  0  0
   24.7300   45.6640   83.2150 C   0  0  0  0  0
   25.4730   46.3890   83.8540 O   0  0  0  0  0
   22.6710   45.0940   84.4490 C   0  0  0  0  0
   21.5250   45.0060   83.4560 C   0  0  0  0  0
   20.7400   43.8610   83.3840 C   0  0  0  0  0
   21.2550   46.0460   82.5550 C   0  0  0  0  0
   19.7170   43.7410   82.4390 C   0  0  0  0  0
   20.2280   45.9310   81.5970 C   0  0  0  0  0
   19.4710   44.7770   81.5490 C   0  0  0  0  0
   18.4730   44.6080   80.6130 O   0  0  0  0  0
   24.5200   45.8050   81.9080 N   0  0  0  0  0
   25.1700   46.8600   81.1480 C   0  0  0  0  0
   24.1390   47.9440   80.9100 C   0  0  0  0  0
   23.0680   47.6690   80.3560 O   0  0  0  0  0
   25.6670   46.3480   79.7790 C   0  0  0  0  0
   26.5530   47.6070   78.8360 S   0  0  0  0  0
   24.4480   49.1620   81.3400 N   0  0  0  0  0
   23.5350   50.2820   81.1500 C   0  0  0  0  0
   24.0980   51.1540   80.0540 C   0  0  0  0  0
   24.5870   52.2660   80.2860 O   0  0  0  0  0
   23.3140   51.0620   82.4560 C   0  0  0  0  0
   22.6390   50.2180   83.5170 C   0  0  0  0  0
   21.2820   49.9250   83.4370 C   0  0  0  0  0
   23.3790   49.6430   84.5560 C   0  0  0  0  0
   20.6730   49.0750   84.3610 C   0  0  0  0  0
   22.7730   48.7900   85.4810 C   0  0  0  0  0
   21.4270   48.5130   85.3750 C   0  0  0  0  0
   20.8370   47.6650   86.2690 O   0  0  0  0  0
   24.0810   50.5880   78.8530 N   0  0  0  0  0
   24.5770   51.2610   77.6630 C   0  0  0  0  0
   23.6530   51.0090   76.4870 C   0  0  0  0  0
   22.8560   50.0640   76.4910 O   0  0  0  0  0
   26.0030   50.8090   77.3390 C   0  0  0  0  0
   27.0160   51.3500   78.2870 C   0  0  0  0  0
   28.3880   50.8960   77.9470 C   0  0  0  0  0
   28.9690   51.4580   76.9910 O   0  0  0  0  0
   28.8860   49.9700   78.6280 O   0  0  0  0  0
   23.6930   51.9290   75.5340 N   0  0  0  0  0
   22.8780   51.8440   74.3360 C   0  0  0  0  0
   23.9050   52.0200   73.2390 C   0  0  0  0  0
   24.7090   52.9670   73.2870 O   0  0  0  0  0
   21.8470   52.9720   74.2990 C   0  0  0  0  0
   20.9210   53.0110   75.5320 C   0  0  0  0  0
   21.4270   53.9110   76.6500 C   0  0  0  0  0
   21.8530   55.0480   76.4070 O   0  0  0  0  0
   21.3580   53.4180   77.8880 N   0  0  0  0  0
   23.9440   51.0580   72.3130 N   0  0  0  0  0
   24.9160   51.1190   71.2420 C   0  0  0  0  0
   24.8160   52.2630   70.2630 C   0  0  0  0  0
   24.0140   52.2720   69.3090 O   0  0  0  0  0
   25.1570   49.7690   70.5710 C   0  0  0  0  0
   26.2610   49.0640   71.3730 C   0  0  0  0  0
   26.8490   47.9310   70.5680 C   0  0  0  0  0
   27.3670   50.0590   71.7660 C   0  0  0  0  0
   25.6230   53.2580   70.6300 N   0  0  0  0  0
   25.8440   54.5330   69.9760 C   0  0  0  0  0
   26.8360   55.2380   70.9360 C   0  0  0  0  0
   26.6110   56.3830   71.3770 O   0  0  0  0  0
   24.5210   55.3170   69.7490 C   0  0  0  0  0
   23.6430   55.4310   71.0010 C   0  0  0  0  0
   22.6320   54.7230   71.1530 O   0  0  0  0  0
   23.9710   56.3840   71.8490 N   0  0  0  0  0
   27.8400   54.5760   71.2960 O   0  0  0  0  0
   27.2816   45.3014   89.8369 H   0  0  0  0  0
   25.9166   46.0158   89.2018 H   0  0  0  0  0
   25.9001   45.4263   90.7603 H   0  0  0  0  0
   26.1099   43.1577   89.9893 H   0  0  0  0  0
   23.8938   44.1276   90.2599 H   0  0  0  0  0
   24.0002   42.8674   88.9372 H   0  0  0  0  0
   25.1766   45.7286   88.0086 H   0  0  0  0  0
   25.1520   42.2276   87.4488 H   0  0  0  0  0
   27.5836   42.9917   85.9321 H   0  0  0  0  0
   27.3442   40.9470   84.7207 H   0  0  0  0  0
   25.7006   40.6635   85.5442 H   0  0  0  0  0
   26.8627   40.3135   87.6291 H   0  0  0  0  0
   26.3416   38.4145   86.1930 H   0  0  0  0  0
   27.8998   38.6065   85.3526 H   0  0  0  0  0
   27.8666   38.1444   87.0721 H   0  0  0  0  0
   29.4057   40.6084   86.0357 H   0  0  0  0  0
   28.7955   41.7184   87.2873 H   0  0  0  0  0
   29.2803   40.0620   87.7259 H   0  0  0  0  0
   24.4198   43.9299   85.9253 H   0  0  0  0  0
   23.8035   43.7689   83.1643 H   0  0  0  0  0
   22.8246   46.1480   84.6805 H   0  0  0  0  0
   22.3993   44.4945   85.3178 H   0  0  0  0  0
   20.9258   43.0410   84.0777 H   0  0  0  0  0
   21.8495   46.9587   82.5964 H   0  0  0  0  0
   19.1130   42.8344   82.4012 H   0  0  0  0  0
   20.0328   46.7459   80.8999 H   0  0  0  0  0
   18.4112   45.3952   80.0671 H   0  0  0  0  0
   23.8905   45.1600   81.4304 H   0  0  0  0  0
   26.0322   47.2257   81.7056 H   0  0  0  0  0
   24.7938   46.0507   79.1982 H   0  0  0  0  0
   26.3561   45.5237   79.9625 H   0  0  0  0  0
   26.9477   47.0929   77.6746 H   0  0  0  0  0
   25.3394   49.3162   81.8112 H   0  0  0  0  0
   22.5502   49.9176   80.8578 H   0  0  0  0  0
   22.6694   51.9136   82.2383 H   0  0  0  0  0
   24.2877   51.3710   82.8362 H   0  0  0  0  0
   20.6843   50.3665   82.6395 H   0  0  0  0  0
   24.4427   49.8638   84.6447 H   0  0  0  0  0
   19.6082   48.8551   84.2839 H   0  0  0  0  0
   23.3619   48.3453   86.2832 H   0  0  0  0  0
   21.4918   47.3647   86.9036 H   0  0  0  0  0
   23.7053   49.6441   78.7614 H   0  0  0  0  0
   24.5986   52.3330   77.8588 H   0  0  0  0  0
   26.2498   51.1785   76.3437 H   0  0  0  0  0
   26.0302   49.7216   77.4097 H   0  0  0  0  0
   26.7747   50.9911   79.2875 H   0  0  0  0  0
   26.9915   52.4382   78.2300 H   0  0  0  0  0
   28.2596   49.6980   79.3028 H   0  0  0  0  0
   24.3195   52.7260   75.6465 H   0  0  0  0  0
   22.3051   50.9199   74.2589 H   0  0  0  0  0
   21.2170   52.8075   73.4248 H   0  0  0  0  0
   22.3962   53.9132   74.2755 H   0  0  0  0  0
   20.8655   51.9977   75.9297 H   0  0  0  0  0
   19.9597   53.4073   75.2049 H   0  0  0  0  0
   21.6632   53.9837   78.6800 H   0  0  0  0  0
   21.0000   52.4754   78.0424 H   0  0  0  0  0
   23.2875   50.2788   72.3607 H   0  0  0  0  0
   25.8227   51.3821   71.7868 H   0  0  0  0  0
   25.4581   49.9016   69.5318 H   0  0  0  0  0
   24.2445   49.1729   70.5619 H   0  0  0  0  0
   25.8178   48.6603   72.2833 H   0  0  0  0  0
   26.0657   47.2113   70.3300 H   0  0  0  0  0
   27.2745   48.3253   69.6452 H   0  0  0  0  0
   27.6300   47.4410   71.1494 H   0  0  0  0  0
   27.8047   50.4883   70.8648 H   0  0  0  0  0
   26.9389   50.8533   72.3775 H   0  0  0  0  0
   28.1382   49.5377   72.3332 H   0  0  0  0  0
   26.1565   53.1017   71.4852 H   0  0  0  0  0
   26.2416   54.4457   68.9649 H   0  0  0  0  0
   23.9467   54.7731   68.9990 H   0  0  0  0  0
   24.7917   56.3296   69.4499 H   0  0  0  0  0
   23.3871   56.5629   72.6660 H   0  0  0  0  0
   24.8089   56.9431   71.6887 H   0  0  0  0  0
   27.8382   53.7260   70.8498 H   0  0  0  0  0
  1  2  1  0  0  0
  2  3  1  0  0  0
  2  5  1  0  0  0
  3  4  2  0  0  0
  3  9  1  0  0  0
  5  6  1  0  0  0
  6  7  1  0  0  0
  6  8  2  0  0  0
  9 10  1  0  0  0
 10 11  1  0  0  0
 10 13  1  0  0  0
 11 12  2  0  0  0
 11 17  1  0  0  0
 13 14  1  0  0  0
 14 15  1  0  0  0
 14 16  1  0  0  0
 17 18  1  0  0  0
 18 19  1  0  0  0
 18 21  1  0  0  0
 19 20  2  0  0  0
 19 29  1  0  0  0
 21 22  1  0  0  0
 22 23  4  0  0  0
 22 24  4  0  0  0
 23 25  4  0  0  0
 24 26  4  0  0  0
 25 27  4  0  0  0
 26 27  4  0  0  0
 27 28  1  0  0  0
 29 30  1  0  0  0
 30 31  1  0  0  0
 30 33  1  0  0  0
 31 32  2  0  0  0
 31 35  1  0  0  0
 33 34  1  0  0  0
 35 36  1  0  0  0
 36 37  1  0  0  0
 36 39  1  0  0  0
 37 38  2  0  0  0
 37 47  1  0  0  0
 39 40  1  0  0  0
 40 41  4  0  0  0
 40 42  4  0  0  0
 41 43  4  0  0  0
 42 44  4  0  0  0
 43 45  4  0  0  0
 44 45  4  0  0  0
 45 46  1  0  0  0
 47 48  1  0  0  0
 48 49  1  0  0  0
 48 51  1  0  0  0
 49 50  2  0  0  0
 49 56  1  0  0  0
 51 52  1  0  0  0
 52 53  1  0  0  0
 53 54  2  0  0  0
 53 55  1  0  0  0
 56 57  1  0  0  0
 57 58  1  0  0  0
 57 60  1  0  0  0
 58 59  2  0  0  0
 58 65  1  0  0  0
 60 61  1  0  0  0
 61 62  1  0  0  0
 62 63  2  0  0  0
 62 64  1  0  0  0
 65 66  1  0  0  0
 66 67  1  0  0  0
 66 69  1  0  0  0
 67 68  2  0  0  0
 67 73  1  0  0  0
 69 70  1  0  0  0
 70 71  1  0  0  0
 70 72  1  0  0  0
 73 74  1  0  0  0
 74 75  1  0  0  0
 74 77  1  0  0  0
 75 76  2  0  0  0
 75 81  1  0  0  0
 77 78  1  0  0  0
 78 79  2  0  0  0
 78 80  1  0  0  0
  1 82  1  0  0  0
  1 83  1  0  0  0
  1 84  1  0  0  0
  2 85  1  0  0  0
  5 86  1  0  0  0
  5 87  1  0  0  0
  7 88  1  0  0  0
  9 89  1  0  0  0
 10 90  1  0  0  0
 13 91  1  0  0  0
 13 92  1  0  0  0
 14 93  1  0  0  0
 15 94  1  0  0  0
 15 95  1  0  0  0
 15 96  1  0  0  0
 16 97  1  0  0  0
 16 98  1  0  0  0
 16 99  1  0  0  0
 17100  1  0  0  0
 18101  1  0  0  0
 21102  1  0  0  0
 21103  1  0  0  0
 23104  1  0  0  0
 24105  1  0  0  0
 25106  1  0  0  0
 26107  1  0  0  0
 28108  1  0  0  0
 29109  1  0  0  0
 30110  1  0  0  0
 33111  1  0  0  0
 33112  1  0  0  0
 34113  1  0  0  0
 35114  1  0  0  0
 36115  1  0  0  0
 39116  1  0  0  0
 39117  1  0  0  0
 41118  1  0  0  0
 42119  1  0  0  0
 43120  1  0  0  0
 44121  1  0  0  0
 46122  1  0  0  0
 47123  1  0  0  0
 48124  1  0  0  0
 51125  1  0  0  0
 51126  1  0  0  0
 52127  1  0  0  0
 52128  1  0  0  0
 55129  1  0  0  0
 56130  1  0  0  0
 57131  1  0  0  0
 60132  1  0  0  0
 60133  1  0  0  0
 61134  1  0  0  0
 61135  1  0  0  0
 64136  1  0  0  0
 64137  1  0  0  0
 65138  1  0  0  0
 66139  1  0  0  0
 69140  1  0  0  0
 69141  1  0  0  0
 70142  1  0  0  0
 71143  1  0  0  0
 71144  1  0  0  0
 71145  1  0  0  0
 72146  1  0  0  0
 72147  1  0  0  0
 72148  1  0  0  0
 73149  1  0  0  0
 74150  1  0  0  0
 77151  1  0  0  0
 77152  1  0  0  0
 80153  1  0  0  0
 80154  1  0  0  0
 81155  1  0  0  0
M  END
$$$$
