### 
### Created by X-TOOL on Mon Sep 10 21:12:46 2018
### 

@<TRIPOS>MOLECULE
1gux_ligand
  152   153     1     0     0
SMALL
GAST_HUCK


@<TRIPOS>ATOM
      1 N          26.2620   45.2800   89.8180 N.4       1 ASP         0.2391
      2 CA         25.8040   43.9550   89.3120 C.3       1 ASP         0.0764
      3 C          26.4610   43.7220   87.9450 C.2       1 ASP         0.2284
      4 O          27.4480   44.4030   87.6190 O.2       1 ASP        -0.3906
      5 CB         24.2600   43.8740   89.2650 C.3       1 ASP         0.0607
      6 CG         23.6100   44.8530   88.2800 C.2       1 ASP         0.0425
      7 OD1        24.2610   45.7690   87.7230 O.co2     1 ASP        -0.5686
      8 OD2        22.3880   44.6880   88.0750 O.co2     1 ASP        -0.5686
      9 N          25.9610   42.7760   87.1570 N.am      1 LEU        -0.2609
     10 CA         26.5930   42.5410   85.8710 C.3       1 LEU         0.1313
     11 C          25.8900   43.2290   84.7030 C.2       1 LEU         0.2040
     12 O          26.3980   43.1870   83.5820 O.2       1 LEU        -0.3944
     13 CB         26.7210   41.0410   85.6100 C.3       1 LEU        -0.0101
     14 CG         27.4090   40.1980   86.6930 C.3       1 LEU        -0.0425
     15 CD1        27.3770   38.7380   86.3000 C.3       1 LEU        -0.0625
     16 CD2        28.8230   40.6810   86.9540 C.3       1 LEU        -0.0625
     17 N          24.7580   43.8860   84.9640 N.am      1 TYR        -0.2621
     18 CA         23.9880   44.5460   83.9060 C.3       1 TYR         0.1390
     19 C          24.7300   45.6640   83.2150 C.2       1 TYR         0.2058
     20 O          25.4730   46.3890   83.8540 O.2       1 TYR        -0.3942
     21 CB         22.6710   45.0940   84.4490 C.3       1 TYR         0.0163
     22 CG         21.5250   45.0060   83.4560 C.ar      1 TYR        -0.0493
     23 CD1        20.7400   43.8610   83.3840 C.ar      1 TYR        -0.0685
     24 CD2        21.2550   46.0460   82.5550 C.ar      1 TYR        -0.0685
     25 CE1        19.7170   43.7410   82.4390 C.ar      1 TYR        -0.0398
     26 CE2        20.2280   45.9310   81.5970 C.ar      1 TYR        -0.0398
     27 CZ         19.4710   44.7770   81.5490 C.ar      1 TYR         0.0805
     28 OH         18.4730   44.6080   80.6130 O.3       1 TYR        -0.3376
     29 N          24.5200   45.8050   81.9080 N.am      1 CYS        -0.2628
     30 CA         25.1700   46.8600   81.1480 C.3       1 CYS         0.1396
     31 C          24.1390   47.9440   80.9100 C.2       1 CYS         0.2048
     32 O          23.0680   47.6690   80.3560 O.2       1 CYS        -0.3944
     33 CB         25.6670   46.3480   79.7790 C.3       1 CYS         0.0311
     34 SG         26.5530   47.6070   78.8360 S.3       1 CYS        -0.1735
     35 N          24.4480   49.1620   81.3400 N.am      1 TYR        -0.2621
     36 CA         23.5350   50.2820   81.1500 C.3       1 TYR         0.1390
     37 C          24.0980   51.1540   80.0540 C.2       1 TYR         0.2057
     38 O          24.5870   52.2660   80.2860 O.2       1 TYR        -0.3942
     39 CB         23.3140   51.0620   82.4560 C.3       1 TYR         0.0163
     40 CG         22.6390   50.2180   83.5170 C.ar      1 TYR        -0.0493
     41 CD1        21.2820   49.9250   83.4370 C.ar      1 TYR        -0.0685
     42 CD2        23.3790   49.6430   84.5560 C.ar      1 TYR        -0.0685
     43 CE1        20.6730   49.0750   84.3610 C.ar      1 TYR        -0.0398
     44 CE2        22.7730   48.7900   85.4810 C.ar      1 TYR        -0.0398
     45 CZ         21.4270   48.5130   85.3750 C.ar      1 TYR         0.0805
     46 OH         20.8370   47.6650   86.2690 O.3       1 TYR        -0.3376
     47 N          24.0810   50.5880   78.8530 N.am      1 GLU        -0.2635
     48 CA         24.5770   51.2610   77.6630 C.3       1 GLU         0.1325
     49 C          23.6530   51.0090   76.4870 C.2       1 GLU         0.2040
     50 O          22.8560   50.0640   76.4910 O.2       1 GLU        -0.3944
     51 CB         26.0030   50.8090   77.3390 C.3       1 GLU        -0.0008
     52 CG         27.0160   51.3500   78.2870 C.3       1 GLU         0.0044
     53 CD         28.3880   50.8960   77.9470 C.2       1 GLU         0.0350
     54 OE1        28.9690   51.4580   76.9910 O.co2     1 GLU        -0.5690
     55 OE2        28.8860   49.9700   78.6280 O.co2     1 GLU        -0.5690
     56 N          23.6930   51.9290   75.5340 N.am      1 GLN        -0.2636
     57 CA         22.8780   51.8440   74.3360 C.3       1 GLN         0.1330
     58 C          23.9050   52.0200   73.2390 C.2       1 GLN         0.2040
     59 O          24.7090   52.9670   73.2870 O.2       1 GLN        -0.3944
     60 CB         21.8470   52.9720   74.2990 C.3       1 GLN         0.0045
     61 CG         20.9210   53.0110   75.5320 C.3       1 GLN         0.0412
     62 CD         21.4270   53.9110   76.6500 C.2       1 GLN         0.1737
     63 OE1        21.8530   55.0480   76.4070 O.2       1 GLN        -0.3973
     64 NE2        21.3580   53.4180   77.8880 N.am      1 GLN        -0.3009
     65 N          23.9440   51.0580   72.3130 N.am      1 LEU        -0.2637
     66 CA         24.9160   51.1190   71.2420 C.3       1 LEU         0.1312
     67 C          24.8160   52.2630   70.2630 C.2       1 LEU         0.2035
     68 O          24.0140   52.2720   69.3090 O.2       1 LEU        -0.3944
     69 CB         25.1570   49.7690   70.5710 C.3       1 LEU        -0.0101
     70 CG         26.2610   49.0640   71.3730 C.3       1 LEU        -0.0425
     71 CD1        26.8490   47.9310   70.5680 C.3       1 LEU        -0.0625
     72 CD2        27.3670   50.0590   71.7660 C.3       1 LEU        -0.0625
     73 N          25.6230   53.2580   70.6300 N.am      1 ASN        -0.2674
     74 CA         25.8440   54.5330   69.9760 C.3       1 ASN         0.1110
     75 C          26.8360   55.2380   70.9360 C.2       1 ASN         0.0624
     76 O          26.6110   56.3830   71.3770 O.co2     1 ASN        -0.5665
     77 CB         24.5210   55.3170   69.7490 C.3       1 ASN         0.0718
     78 CG         23.6430   55.4310   71.0010 C.2       1 ASN         0.1774
     79 OD1        22.6320   54.7230   71.1530 O.2       1 ASN        -0.3971
     80 ND2        23.9710   56.3840   71.8490 N.am      1 ASN        -0.3007
     81 OXT        27.8400   54.5760   71.2960 O.co2     1 ASN        -0.5665
     82 H1         25.8440   45.4588   90.7177 H         1 ASP         0.2016
     83 H2         25.9858   46.0009   89.1699 H         1 ASP         0.2016
     84 H3         27.2659   45.2763   89.9087 H         1 ASP         0.2016
     85 H4         26.1569   43.1742   90.0018 H         1 ASP         0.1117
     86 H5         23.8723   44.0889   90.2717 H         1 ASP         0.0512
     87 H6         23.9767   42.8519   88.9734 H         1 ASP         0.0512
     88 H7         25.1678   42.2384   87.4430 H         1 LEU         0.1885
     89 H8         27.6086   42.9596   85.9283 H         1 LEU         0.0800
     90 H9         27.2928   40.9144   84.6789 H         1 LEU         0.0315
     91 H10        25.7055   40.6406   85.4741 H         1 LEU         0.0315
     92 H11        26.8396   40.3112   87.6273 H         1 LEU         0.0298
     93 H12        27.8708   38.1379   87.0785 H         1 LEU         0.0232
     94 H13        27.9044   38.6039   85.3440 H         1 LEU         0.0232
     95 H14        26.3326   38.4102   86.1917 H         1 LEU         0.0232
     96 H15        28.8011   41.7440   87.2359 H         1 LEU         0.0232
     97 H16        29.4273   40.5555   86.0435 H         1 LEU         0.0232
     98 H17        29.2660   40.0938   87.7719 H         1 LEU         0.0232
     99 H18        24.4264   43.9291   85.9064 H         1 TYR         0.1885
    100 H19        23.7562   43.7826   83.1487 H         1 TYR         0.0821
    101 H20        22.8178   46.1502   84.7190 H         1 TYR         0.0453
    102 H21        22.3987   44.5203   85.3472 H         1 TYR         0.0453
    103 H22        20.9247   43.0456   84.0739 H         1 TYR         0.0530
    104 H23        21.8462   46.9537   82.5961 H         1 TYR         0.0530
    105 H24        19.1163   42.8394   82.4014 H         1 TYR         0.0525
    106 H25        20.0339   46.7414   80.9037 H         1 TYR         0.0525
    107 H26        18.0662   43.7583   80.7354 H         1 TYR         0.2458
    108 H27        23.9029   45.1726   81.4398 H         1 CYS         0.1884
    109 H28        26.0199   47.2600   81.7204 H         1 CYS         0.0808
    110 H29        24.7978   46.0169   79.1917 H         1 CYS         0.0422
    111 H30        26.3421   45.4960   79.9472 H         1 CYS         0.0422
    112 H31        26.8521   47.2173   77.9558 H         1 CYS         0.1019
    113 H32        25.3219   49.3132   81.8020 H         1 TYR         0.1885
    114 H33        22.5605   49.8912   80.8219 H         1 TYR         0.0821
    115 H34        22.6820   51.9370   82.2439 H         1 TYR         0.0453
    116 H35        24.2894   51.3980   82.8377 H         1 TYR         0.0453
    117 H36        20.6876   50.3641   82.6439 H         1 TYR         0.0530
    118 H37        24.4369   49.8626   84.6442 H         1 TYR         0.0530
    119 H38        19.6141   48.8563   84.2844 H         1 TYR         0.0525
    120 H39        23.3587   48.3477   86.2788 H         1 TYR         0.0525
    121 H40        19.9140   47.5796   86.0610 H         1 TYR         0.2458
    122 H41        23.7127   49.6626   78.7632 H         1 GLU         0.1883
    123 H42        24.5959   52.3428   77.8611 H         1 GLU         0.0801
    124 H43        26.2562   51.1493   76.3241 H         1 GLU         0.0330
    125 H44        26.0393   49.7103   77.3771 H         1 GLU         0.0330
    126 H45        26.7700   51.0092   79.3035 H         1 GLU         0.0433
    127 H46        26.9857   52.4490   78.2513 H         1 GLU         0.0433
    128 H47        24.3072   52.7104   75.6443 H         1 GLN         0.1883
    129 H48        22.3698   50.8713   74.2615 H         1 GLN         0.0801
    130 H49        21.2240   52.8429   73.4016 H         1 GLN         0.0337
    131 H50        22.3836   53.9303   74.2381 H         1 GLN         0.0337
    132 H51        20.8246   51.9886   75.9262 H         1 GLN         0.0504
    133 H52        19.9334   53.3756   75.2130 H         1 GLN         0.0504
    134 H53        21.6762   53.9649   78.6624 H         1 GLN         0.1814
    135 H54        20.9881   52.5017   78.0414 H         1 GLN         0.1814
    136 H55        23.3004   50.2941   72.3597 H         1 LEU         0.1883
    137 H56        25.8580   51.3253   71.7711 H         1 LEU         0.0800
    138 H57        25.4807   49.9162   69.5301 H         1 LEU         0.0315
    139 H58        24.2355   49.1685   70.5870 H         1 LEU         0.0315
    140 H59        25.8176   48.6513   72.2912 H         1 LEU         0.0298
    141 H60        27.6373   47.4356   71.1537 H         1 LEU         0.0232
    142 H61        27.2789   48.3276   69.6364 H         1 LEU         0.0232
    143 H62        26.0595   47.2039   70.3272 H         1 LEU         0.0232
    144 H63        26.9296   50.8808   72.3520 H         1 LEU         0.0232
    145 H64        27.8346   50.4653   70.8570 H         1 LEU         0.0232
    146 H65        28.1274   49.5423   72.3700 H         1 LEU         0.0232
    147 H66        26.1460   53.1048   71.4685 H         1 ASN         0.1877
    148 H67        26.3190   54.3791   68.9959 H         1 ASN         0.0752
    149 H68        23.9435   54.8025   68.9669 H         1 ASN         0.0544
    150 H69        24.7740   56.3324   69.4100 H         1 ASN         0.0544
    151 H70        23.4395   56.5130   72.6862 H         1 ASN         0.1814
    152 H71        24.7515   56.9785   71.6556 H         1 ASN         0.1814
@<TRIPOS>BOND
     1    1    2 1  
     2    2    3 1  
     3    2    5 1  
     4    3    4 2  
     5    3    9 am 
     6    5    6 1  
     7    6    7 ar 
     8    6    8 ar 
     9    9   10 1  
    10   10   11 1  
    11   10   13 1  
    12   11   12 2  
    13   11   17 am 
    14   13   14 1  
    15   14   15 1  
    16   14   16 1  
    17   17   18 1  
    18   18   19 1  
    19   18   21 1  
    20   19   20 2  
    21   19   29 am 
    22   21   22 1  
    23   22   23 ar 
    24   22   24 ar 
    25   23   25 ar 
    26   24   26 ar 
    27   25   27 ar 
    28   26   27 ar 
    29   27   28 1  
    30   29   30 1  
    31   30   31 1  
    32   30   33 1  
    33   31   32 2  
    34   31   35 am 
    35   33   34 1  
    36   35   36 1  
    37   36   37 1  
    38   36   39 1  
    39   37   38 2  
    40   37   47 am 
    41   39   40 1  
    42   40   41 ar 
    43   40   42 ar 
    44   41   43 ar 
    45   42   44 ar 
    46   43   45 ar 
    47   44   45 ar 
    48   45   46 1  
    49   47   48 1  
    50   48   49 1  
    51   48   51 1  
    52   49   50 2  
    53   49   56 am 
    54   51   52 1  
    55   52   53 1  
    56   53   54 ar 
    57   53   55 ar 
    58   56   57 1  
    59   57   58 1  
    60   57   60 1  
    61   58   59 2  
    62   58   65 am 
    63   60   61 1  
    64   61   62 1  
    65   62   63 2  
    66   62   64 am 
    67   65   66 1  
    68   66   67 1  
    69   66   69 1  
    70   67   68 2  
    71   67   73 am 
    72   69   70 1  
    73   70   71 1  
    74   70   72 1  
    75   73   74 1  
    76   74   75 1  
    77   74   77 1  
    78   75   76 ar 
    79   75   81 ar 
    80   77   78 1  
    81   78   79 2  
    82   78   80 am 
    83    1   82 1  
    84    1   83 1  
    85    1   84 1  
    86    2   85 1  
    87    5   86 1  
    88    5   87 1  
    89    9   88 1  
    90   10   89 1  
    91   13   90 1  
    92   13   91 1  
    93   14   92 1  
    94   15   93 1  
    95   15   94 1  
    96   15   95 1  
    97   16   96 1  
    98   16   97 1  
    99   16   98 1  
   100   17   99 1  
   101   18  100 1  
   102   21  101 1  
   103   21  102 1  
   104   23  103 1  
   105   24  104 1  
   106   25  105 1  
   107   26  106 1  
   108   28  107 1  
   109   29  108 1  
   110   30  109 1  
   111   33  110 1  
   112   33  111 1  
   113   34  112 1  
   114   35  113 1  
   115   36  114 1  
   116   39  115 1  
   117   39  116 1  
   118   41  117 1  
   119   42  118 1  
   120   43  119 1  
   121   44  120 1  
   122   46  121 1  
   123   47  122 1  
   124   48  123 1  
   125   51  124 1  
   126   51  125 1  
   127   52  126 1  
   128   52  127 1  
   129   56  128 1  
   130   57  129 1  
   131   60  130 1  
   132   60  131 1  
   133   61  132 1  
   134   61  133 1  
   135   64  134 1  
   136   64  135 1  
   137   65  136 1  
   138   66  137 1  
   139   69  138 1  
   140   69  139 1  
   141   70  140 1  
   142   71  141 1  
   143   71  142 1  
   144   71  143 1  
   145   72  144 1  
   146   72  145 1  
   147   72  146 1  
   148   73  147 1  
   149   74  148 1  
   150   77  149 1  
   151   77  150 1  
   152   80  151 1  
   153   80  152 1  
@<TRIPOS>SUBSTRUCTURE
     1 ASP         1

