4nct_ligand
  -I-interpret- 

 73 81  0  0  0  0  0  0  0  0999 V2000
   36.4290   30.2370   -9.2630 O   0  0  0  0  0
   36.6920   29.3740  -10.1030 C   0  0  0  0  0
   35.7610   28.5260  -10.4940 N   0  0  0  0  0
   36.4000   27.6760  -11.4900 C   0  0  0  0  0
   37.7070   28.1560  -11.6210 C   0  0  0  0  0
   37.8740   29.1950  -10.7630 C   0  0  0  0  0
   39.0910   29.8120  -10.7310 C   0  0  0  0  0
   39.6120   30.8430  -10.0320 C   0  0  0  0  0
   39.1070   31.6560   -9.0950 C   0  0  0  0  0
   39.8740   32.6760   -8.5150 C   0  0  0  0  0
   41.1840   32.8500   -8.9170 C   0  0  0  0  0
   41.6750   31.9950   -9.8930 C   0  0  0  0  0
   40.8930   31.0270  -10.4210 C   0  0  0  0  0
   45.3480   27.6830  -11.5600 N   0  0  0  0  0
   40.0780   29.3710  -11.5490 C   0  0  0  0  0
   39.8890   28.3320  -12.3910 C   0  0  0  0  0
   38.7020   27.7290  -12.4300 C   0  0  0  0  0
   38.7890   26.7350  -13.3350 C   0  0  0  0  0
   37.8880   25.8320  -13.7430 C   0  0  0  0  0
   38.1980   24.8650  -14.6910 C   0  0  0  0  0
   39.4730   24.8670  -15.2240 C   0  0  0  0  0
   40.3690   25.8350  -14.7940 C   0  0  0  0  0
   40.0230   26.7350  -13.8610 C   0  0  0  0  0
   41.1720   30.1060  -11.3370 N   0  0  0  0  0
   42.1350   28.1180  -13.5270 C   0  0  0  0  0
   43.0610   27.3600  -12.5440 C   0  0  0  0  0
   42.3400   27.0370  -11.3230 O   0  0  0  0  0
   41.7970   25.7220  -11.2440 C   0  0  0  0  0
   42.6460   27.8870  -14.9510 C   0  0  0  0  0
   42.2200   29.5330  -13.3420 O   0  0  0  0  0
   42.4840   30.0590  -12.0320 C   0  0  0  0  0
   43.6500   29.3910  -11.3320 C   0  0  0  0  0
   45.1340   26.7880  -10.4000 C   0  0  0  0  0
   46.6020   28.0160  -11.9770 C   0  0  0  0  0
   46.8050   28.7900  -12.9190 O   0  0  0  0  0
   47.7050   27.5630  -11.2600 C   0  0  0  0  0
   48.5940   26.6440  -11.8050 C   0  0  0  0  0
   49.7080   26.2510  -11.0640 C   0  0  0  0  0
   49.9380   26.7790   -9.7910 C   0  0  0  0  0
   49.0560   27.7130   -9.2490 C   0  0  0  0  0
   47.9490   28.1140   -9.9930 C   0  0  0  0  0
   40.7020   27.7330  -13.2850 N   0  0  0  0  0
   44.1950   28.2950  -12.2370 C   0  0  0  0  0
   34.7959   28.4757  -10.1676 H   0  0  0  0  0
   35.8681   27.7116  -12.4407 H   0  0  0  0  0
   36.3913   26.6304  -11.1823 H   0  0  0  0  0
   38.0737   31.5211   -8.7754 H   0  0  0  0  0
   39.4409   33.3254   -7.7542 H   0  0  0  0  0
   41.8091   33.6305   -8.4833 H   0  0  0  0  0
   42.7031   32.1050  -10.2380 H   0  0  0  0  0
   36.8839   25.8565  -13.3196 H   0  0  0  0  0
   37.4588   24.1279  -15.0046 H   0  0  0  0  0
   39.7681   24.1247  -15.9656 H   0  0  0  0  0
   41.3712   25.8649  -15.2215 H   0  0  0  0  0
   43.4169   26.4240  -12.9744 H   0  0  0  0  0
   41.0906   25.5723  -12.0605 H   0  0  0  0  0
   42.6030   24.9922  -11.3209 H   0  0  0  0  0
   41.2835   25.5990  -10.2904 H   0  0  0  0  0
   43.6659   28.2624  -15.0350 H   0  0  0  0  0
   42.6309   26.8198  -15.1724 H   0  0  0  0  0
   42.0039   28.4148  -15.6562 H   0  0  0  0  0
   42.8743   31.0764  -12.0552 H   0  0  0  0  0
   43.3191   28.9616  -10.3863 H   0  0  0  0  0
   44.4294   30.1246  -11.1261 H   0  0  0  0  0
   45.5971   25.8214  -10.5982 H   0  0  0  0  0
   45.5836   27.2324   -9.5120 H   0  0  0  0  0
   44.0644   26.6537  -10.2388 H   0  0  0  0  0
   48.4223   26.2350  -12.8007 H   0  0  0  0  0
   50.4058   25.5252  -11.4817 H   0  0  0  0  0
   50.8097   26.4597   -9.2198 H   0  0  0  0  0
   49.2308   28.1244   -8.2549 H   0  0  0  0  0
   47.2670   28.8616   -9.5879 H   0  0  0  0  0
   44.5664   28.6548  -13.1965 H   0  0  0  0  0
  2  1  2  0  0  0
  2  3  1  0  0  0
  6  2  1  0  0  0
  4  3  1  0  0  0
  5  4  1  0  0  0
  5  6  4  0  0  0
 17  5  4  0  0  0
  7  6  4  0  0  0
  7  8  4  0  0  0
 15  7  4  0  0  0
  8  9  4  0  0  0
 13  8  4  0  0  0
  9 10  4  0  0  0
 11 10  4  0  0  0
 12 11  4  0  0  0
 13 12  4  0  0  0
 24 13  4  0  0  0
 14 33  1  0  0  0
 14 34  1  0  0  0
 43 14  1  0  0  0
 16 15  4  0  0  0
 15 24  4  0  0  0
 16 17  4  0  0  0
 42 16  4  0  0  0
 18 17  4  0  0  0
 18 19  4  0  0  0
 23 18  4  0  0  0
 19 20  4  0  0  0
 21 20  4  0  0  0
 22 21  4  0  0  0
 23 22  4  0  0  0
 42 23  4  0  0  0
 24 31  1  0  0  0
 26 25  1  0  0  0
 25 29  1  0  0  0
 25 30  1  0  0  0
 25 42  1  0  0  0
 26 27  1  0  0  0
 26 43  1  0  0  0
 27 28  1  0  0  0
 30 31  1  0  0  0
 31 32  1  0  0  0
 32 43  1  0  0  0
 34 35  2  0  0  0
 34 36  1  0  0  0
 36 37  4  0  0  0
 36 41  4  0  0  0
 37 38  4  0  0  0
 38 39  4  0  0  0
 39 40  4  0  0  0
 40 41  4  0  0  0
  3 44  1  0  0  0
  4 45  1  0  0  0
  4 46  1  0  0  0
  9 47  1  0  0  0
 10 48  1  0  0  0
 11 49  1  0  0  0
 12 50  1  0  0  0
 19 51  1  0  0  0
 20 52  1  0  0  0
 21 53  1  0  0  0
 22 54  1  0  0  0
 26 55  1  0  0  0
 28 56  1  0  0  0
 28 57  1  0  0  0
 28 58  1  0  0  0
 29 59  1  0  0  0
 29 60  1  0  0  0
 29 61  1  0  0  0
 31 62  1  0  0  0
 32 63  1  0  0  0
 32 64  1  0  0  0
 33 65  1  0  0  0
 33 66  1  0  0  0
 33 67  1  0  0  0
 37 68  1  0  0  0
 38 69  1  0  0  0
 39 70  1  0  0  0
 40 71  1  0  0  0
 41 72  1  0  0  0
 43 73  1  0  0  0
M  END
$$$$
