2vtj_ligand
  -I-interpret- 

 27 28  0  0  0  0  0  0  0  0999 V2000
   33.7280   10.7150   65.9980 N   0  0  0  0  0
   33.3900   10.4230   64.4600 S   0  0  0  0  0
   33.1620   11.6880   63.8110 O   0  0  0  0  0
   34.4200    9.5500   63.9490 O   0  0  0  0  0
   31.8740    9.5190   64.4050 C   0  0  0  0  0
   30.6730   10.1960   64.2540 C   0  0  0  0  0
   29.4930    9.4860   64.2020 C   0  0  0  0  0
   29.4990    8.0950   64.3100 C   0  0  0  0  0
   28.2950    7.3750   64.2670 N   0  0  0  0  0
   28.0360    6.0050   64.3840 C   0  0  0  0  0
   28.7650    5.1590   65.2090 C   0  0  0  0  0
   28.4960    3.8550   65.3060 N   0  0  0  0  0
   27.4790    3.3990   64.5710 C   0  0  0  0  0
   26.7590    4.2540   63.7640 C   0  0  0  0  0
   25.4450    3.6360   62.8150 Cl  0  0  0  0  0
   27.0110    5.5580   63.6410 N   0  0  0  0  0
   30.7110    7.4290   64.4730 C   0  0  0  0  0
   31.8910    8.1390   64.5220 C   0  0  0  0  0
   33.7486   11.6749   66.3423 H   0  0  0  0  0
   33.9226    9.9411   66.6332 H   0  0  0  0  0
   30.6625   11.2832   64.1769 H   0  0  0  0  0
   28.5483   10.0149   64.0756 H   0  0  0  0  0
   27.4647    7.9504   64.1260 H   0  0  0  0  0
   29.5840    5.5733   65.7969 H   0  0  0  0  0
   27.2158    2.3420   64.6093 H   0  0  0  0  0
   30.7264    6.3428   64.5621 H   0  0  0  0  0
   32.8376    7.6147   64.6528 H   0  0  0  0  0
  1  2  1  0  0  0
  2  3  2  0  0  0
  2  4  2  0  0  0
  2  5  1  0  0  0
  5  6  4  0  0  0
  5 18  4  0  0  0
  6  7  4  0  0  0
  7  8  4  0  0  0
  8  9  1  0  0  0
  8 17  4  0  0  0
  9 10  1  0  0  0
 10 11  4  0  0  0
 10 16  4  0  0  0
 11 12  4  0  0  0
 12 13  4  0  0  0
 13 14  4  0  0  0
 14 15  1  0  0  0
 14 16  4  0  0  0
 17 18  4  0  0  0
  1 19  1  0  0  0
  1 20  1  0  0  0
  6 21  1  0  0  0
  7 22  1  0  0  0
  9 23  1  0  0  0
 11 24  1  0  0  0
 13 25  1  0  0  0
 17 26  1  0  0  0
 18 27  1  0  0  0
M  END
$$$$
