5gx7_ligand
  -I-interpret- 

 51 52  0  0  0  0  0  0  0  0999 V2000
   16.8220  -16.0320   -4.5740 C   0  0  0  0  0
   16.8890  -16.7220   -3.1930 C   0  0  0  0  0
   15.9270  -15.9720   -2.2700 C   0  0  0  0  0
   16.1690  -14.4440   -2.3520 C   0  0  0  0  0
   16.8880  -13.9060   -3.3590 C   0  0  0  0  0
   17.2720  -12.4980   -3.4710 C   0  0  0  0  0
   16.3460  -18.0400   -3.3970 O   0  0  0  0  0
   16.0920  -16.4550   -0.9010 O   0  0  0  0  0
   17.3470  -14.7340   -4.4470 O   0  0  0  0  0
   18.0580  -12.1840   -4.4350 O   0  0  0  0  0
   16.8010  -11.6800   -2.6420 O   0  0  0  0  0
   17.4340  -17.9750   -8.9280 C   0  0  0  0  0
   17.7260  -18.0160   -7.4260 C   0  0  0  0  0
   17.2290  -16.7420   -6.7790 C   0  0  0  0  0
   17.8740  -15.5290   -7.4380 C   0  0  0  0  0
   17.6510  -15.6310   -8.9530 C   0  0  0  0  0
   18.3590  -14.5120   -9.6540 C   0  0  0  0  0
   17.6420  -20.1970   -6.1900 C   0  0  0  0  0
   16.6990  -21.3240   -5.7920 C   0  0  0  0  0
   17.0300  -19.1390   -6.7710 N   0  0  0  0  0
   18.0420  -19.1530   -9.4370 O   0  0  0  0  0
   17.6600  -16.8040   -5.4490 O   0  0  0  0  0
   19.2920  -15.5440   -7.2240 O   0  0  0  0  0
   18.1700  -16.8710   -9.4800 O   0  0  0  0  0
   17.9220  -14.8060  -10.9680 O   0  0  0  0  0
   18.8630  -20.2670   -5.9580 O   0  0  0  0  0
   17.5410  -13.7270  -11.9120 S   0  0  0  0  0
   16.7790  -14.1770  -13.0350 O   0  0  0  0  0
   19.1350  -13.4010  -12.2010 O   0  0  0  0  0
   16.7350  -12.7620  -11.2020 O   0  0  0  0  0
   15.8030  -15.9702   -4.9561 H   0  0  0  0  0
   17.8968  -16.7427   -2.7781 H   0  0  0  0  0
   14.9023  -16.1607   -2.5902 H   0  0  0  0  0
   15.7517  -13.7930   -1.5838 H   0  0  0  0  0
   16.9284  -18.5389   -3.9745 H   0  0  0  0  0
   15.9373  -17.4021   -0.8762 H   0  0  0  0  0
   18.2841  -12.9735   -4.9321 H   0  0  0  0  0
   16.3706  -17.8921   -9.1524 H   0  0  0  0  0
   18.8032  -18.1327   -7.3071 H   0  0  0  0  0
   16.1468  -16.6498   -6.8711 H   0  0  0  0  0
   17.4380  -14.6230   -7.0172 H   0  0  0  0  0
   16.5755  -15.5809   -9.1228 H   0  0  0  0  0
   19.4392  -14.4745   -9.5127 H   0  0  0  0  0
   18.1304  -13.5091   -9.2935 H   0  0  0  0  0
   16.9997  -22.2426   -6.2958 H   0  0  0  0  0
   16.7432  -21.4689   -4.7126 H   0  0  0  0  0
   15.6813  -21.0645   -6.0837 H   0  0  0  0  0
   16.0104  -19.1167   -6.7546 H   0  0  0  0  0
   17.9011  -19.2003  -10.3854 H   0  0  0  0  0
   19.6859  -14.7756   -7.6435 H   0  0  0  0  0
   19.5531  -13.1082  -11.3879 H   0  0  0  0  0
  1  2  1  0  0  0
  1  9  1  0  0  0
 22  1  1  0  0  0
  2  3  1  0  0  0
  2  7  1  0  0  0
  3  4  1  0  0  0
  3  8  1  0  0  0
  5  4  2  0  0  0
  5  6  1  0  0  0
  9  5  1  0  0  0
  6 10  1  0  0  0
  6 11  2  0  0  0
 13 12  1  0  0  0
 12 21  1  0  0  0
 12 24  1  0  0  0
 13 14  1  0  0  0
 20 13  1  0  0  0
 14 15  1  0  0  0
 14 22  1  0  0  0
 15 16  1  0  0  0
 15 23  1  0  0  0
 16 17  1  0  0  0
 24 16  1  0  0  0
 17 25  1  0  0  0
 18 19  1  0  0  0
 18 20  1  0  0  0
 18 26  2  0  0  0
 25 27  1  0  0  0
 27 28  2  0  0  0
 27 29  1  0  0  0
 27 30  2  0  0  0
  1 31  1  0  0  0
  2 32  1  0  0  0
  3 33  1  0  0  0
  4 34  1  0  0  0
  7 35  1  0  0  0
  8 36  1  0  0  0
 10 37  1  0  0  0
 12 38  1  0  0  0
 13 39  1  0  0  0
 14 40  1  0  0  0
 15 41  1  0  0  0
 16 42  1  0  0  0
 17 43  1  0  0  0
 17 44  1  0  0  0
 19 45  1  0  0  0
 19 46  1  0  0  0
 19 47  1  0  0  0
 20 48  1  0  0  0
 21 49  1  0  0  0
 23 50  1  0  0  0
 29 51  1  0  0  0
M  END
$$$$
