5hcv_ligand
  -I-interpret- 

 44 48  0  0  0  0  0  0  0  0999 V2000
   -4.0670  -20.5520   -8.5950 C   0  0  0  0  0
   -1.7460  -18.9830   -7.9330 C   0  0  0  0  0
   -1.6010  -20.3100   -8.2560 C   0  0  0  0  0
    0.0350  -21.9490   -8.9760 C   0  0  0  0  0
   -0.3490  -23.0840   -8.1060 C   0  0  0  0  0
   -1.7890  -23.4190   -8.0700 C   0  0  0  0  0
   -2.1730  -24.4750   -7.2660 C   0  0  0  0  0
   -1.1840  -25.1370   -6.5260 C   0  0  0  0  0
   -2.5030  -25.3120  -10.5340 C   0  0  0  0  0
   -2.7460  -26.6160  -11.0150 C   0  0  0  0  0
   -3.1890  -17.1770   -7.6680 F   0  0  0  0  0
   -3.0400  -18.4620   -7.9360 C   0  0  0  0  0
   -4.1810  -19.2050   -8.2580 C   0  0  0  0  0
   -2.8040  -21.1460   -8.5850 C   0  0  0  0  0
   -0.3400  -20.7850   -8.2440 O   0  0  0  0  0
    0.5840  -23.7500   -7.3620 C   0  0  0  0  0
    0.1490  -24.8000   -6.5570 C   0  0  0  0  0
   -2.7210  -22.5880   -8.9210 C   0  0  0  0  0
   -3.4290  -22.9950   -9.9950 C   0  0  0  0  0
   -3.5520  -24.3760  -10.5140 C   0  0  0  0  0
   -4.8520  -24.7040  -10.9570 C   0  0  0  0  0
   -5.1430  -25.9770  -11.4340 C   0  0  0  0  0
   -6.3710  -26.3260  -11.9060 N   0  0  0  0  0
   -6.7480  -27.6140  -12.0420 C   0  0  0  0  0
   -7.9030  -27.9490  -12.3520 O   0  0  0  0  0
   -4.0380  -26.9790  -11.4570 C   0  0  0  0  0
   -4.3760  -28.2210  -11.9530 O   0  0  0  0  0
   -5.7160  -28.7010  -11.7800 C   0  0  0  0  0
   -4.9499  -21.1326   -8.8622 H   0  0  0  0  0
   -0.8851  -18.3623   -7.6845 H   0  0  0  0  0
   -0.4608  -21.9955   -9.9456 H   0  0  0  0  0
    1.1003  -21.9572   -9.2067 H   0  0  0  0  0
   -3.2165  -24.7847   -7.2089 H   0  0  0  0  0
   -1.4890  -25.9672   -5.8889 H   0  0  0  0  0
   -1.5104  -25.0326  -10.1809 H   0  0  0  0  0
   -1.9358  -27.3445  -11.0457 H   0  0  0  0  0
   -5.1614  -18.7288   -8.2452 H   0  0  0  0  0
    1.6363  -23.4681   -7.3975 H   0  0  0  0  0
    0.8654  -25.3549   -5.9513 H   0  0  0  0  0
   -3.9700  -22.2219  -10.5406 H   0  0  0  0  0
   -5.6377  -23.9492  -10.9246 H   0  0  0  0  0
   -7.0275  -25.5897  -12.1653 H   0  0  0  0  0
   -5.8835  -29.5092  -12.4919 H   0  0  0  0  0
   -5.8279  -29.0363  -10.7489 H   0  0  0  0  0
  1 13  4  0  0  0
 14  1  4  0  0  0
  3  2  4  0  0  0
  2 12  4  0  0  0
 14  3  4  0  0  0
  3 15  1  0  0  0
  5  4  1  0  0  0
 15  4  1  0  0  0
  6  5  4  0  0  0
  5 16  4  0  0  0
  6  7  4  0  0  0
 18  6  1  0  0  0
  7  8  4  0  0  0
  8 17  4  0  0  0
  9 10  4  0  0  0
 20  9  4  0  0  0
 10 26  4  0  0  0
 12 11  1  0  0  0
 13 12  4  0  0  0
 18 14  1  0  0  0
 16 17  4  0  0  0
 19 18  2  0  0  0
 19 20  1  0  0  0
 20 21  4  0  0  0
 21 22  4  0  0  0
 22 23  1  0  0  0
 22 26  4  0  0  0
 23 24  1  0  0  0
 24 25  2  0  0  0
 24 28  1  0  0  0
 26 27  1  0  0  0
 27 28  1  0  0  0
  1 29  1  0  0  0
  2 30  1  0  0  0
  4 31  1  0  0  0
  4 32  1  0  0  0
  7 33  1  0  0  0
  8 34  1  0  0  0
  9 35  1  0  0  0
 10 36  1  0  0  0
 13 37  1  0  0  0
 16 38  1  0  0  0
 17 39  1  0  0  0
 19 40  1  0  0  0
 21 41  1  0  0  0
 23 42  1  0  0  0
 28 43  1  0  0  0
 28 44  1  0  0  0
M  END
$$$$
