3ole_ligand
  -I-interpret- 

152158  0  0  0  0  0  0  0  0999 V2000
   15.5080  -23.8490  -31.0090 C   0  0  0  0  0
   14.4640  -24.8290  -31.5130 C   0  0  0  0  0
   15.0790  -26.2070  -31.3020 C   0  0  0  0  0
   16.3080  -26.3420  -32.2080 C   0  0  0  0  0
   17.1060  -25.0450  -32.4600 C   0  0  0  0  0
   18.3190  -25.1300  -33.3950 C   0  0  0  0  0
   16.7270  -23.8190  -31.9360 C   0  0  0  0  0
   15.0380  -22.7610  -30.1470 N   0  3  0  0  0
   13.1900  -24.5230  -30.9390 O   0  0  0  0  0
   14.0910  -27.2210  -31.5010 O   0  0  0  0  0
   17.1580  -27.3680  -31.6950 O   0  0  0  0  0
   19.2300  -24.0330  -33.2890 O   0  0  0  0  0
   15.8550  -19.0600  -28.5940 C   0  0  0  0  0
   14.4490  -18.1460  -30.3510 O   0  0  0  0  0
   15.4670  -19.1120  -30.0750 C   0  0  0  0  0
   14.9150  -20.4920  -30.4230 C   0  0  0  0  0
   14.6330  -20.6130  -31.8190 O   0  0  0  0  0
   15.8830  -21.5940  -30.0010 C   0  0  0  0  0
   16.2200  -21.4020  -28.5190 C   0  0  0  0  0
   16.7870  -20.1060  -28.2730 O   0  0  0  0  0
   17.1750  -22.4840  -28.0120 C   0  0  0  0  0
   13.5960  -16.2490  -24.8620 C   0  0  0  0  0
   13.0690  -16.0710  -26.2870 C   0  0  0  0  0
   13.1700  -17.3660  -27.0980 C   0  0  0  0  0
   14.5770  -17.9310  -26.9800 C   0  0  0  0  0
   14.8510  -18.1860  -25.5000 C   0  0  0  0  0
   16.1870  -18.8550  -25.2530 C   0  0  0  0  0
   11.7130  -15.6400  -26.2400 O   0  0  0  0  0
   12.8840  -17.0950  -28.4610 O   0  0  0  0  0
   14.7070  -19.1300  -27.7420 O   0  0  0  0  0
   14.8590  -16.9250  -24.7960 O   0  0  0  0  0
   17.2550  -18.0480  -25.7210 O   0  0  0  0  0
   10.1500  -16.4920  -21.4240 C   0  0  0  0  0
   11.0440  -15.2950  -21.1750 C   0  0  0  0  0
   11.8430  -15.2600  -22.4760 C   0  0  0  0  0
   12.6580  -16.5510  -22.6280 C   0  0  0  0  0
   12.1670  -17.7650  -21.8190 C   0  0  0  0  0
   13.0580  -19.0040  -21.6970 C   0  0  0  0  0
   10.9120  -17.7950  -21.2290 C   0  0  0  0  0
    8.6820  -16.4620  -21.5180 N   0  3  0  0  0
   10.3510  -14.1530  -20.6630 O   0  0  0  0  0
   12.6200  -14.0750  -22.6410 O   0  0  0  0  0
   12.6250  -16.8700  -24.0180 O   0  0  0  0  0
   14.0330  -18.8740  -20.6580 O   0  0  0  0  0
    6.4420  -19.1320  -23.8470 C   0  0  0  0  0
    5.6090  -19.9990  -21.7440 O   0  0  0  0  0
    6.7850  -19.5280  -22.4060 C   0  0  0  0  0
    7.2690  -18.3170  -21.6150 C   0  0  0  0  0
    7.7690  -18.6860  -20.3270 O   0  0  0  0  0
    8.3550  -17.5770  -22.3820 C   0  0  0  0  0
    7.8310  -17.1850  -23.7650 C   0  0  0  0  0
    7.5090  -18.3950  -24.4720 O   0  0  0  0  0
    8.8540  -16.4100  -24.6010 C   0  0  0  0  0
    1.6430  -19.4780  -26.0110 C   0  0  0  0  0
    1.8240  -20.0340  -24.5740 C   0  0  0  0  0
    2.8930  -19.2550  -23.8360 C   0  0  0  0  0
    4.1970  -19.1710  -24.6410 C   0  0  0  0  0
    3.8960  -18.5630  -26.0180 C   0  0  0  0  0
    5.1330  -18.5330  -26.9130 C   0  0  0  0  0
    0.5820  -19.8990  -23.8740 O   0  0  0  0  0
    3.1590  -19.8800  -22.5780 O   0  0  0  0  0
    5.2010  -18.4220  -23.9390 O   0  0  0  0  0
    2.9260  -19.3810  -26.7120 O   0  0  0  0  0
    5.5170  -19.8580  -27.2930 O   0  0  0  0  0
   -2.4140  -16.7750  -27.8020 C   0  0  0  0  0
   -2.5460  -17.5560  -26.4820 C   0  0  0  0  0
   -1.2230  -17.5270  -25.7220 C   0  0  0  0  0
   -0.1630  -18.1050  -26.6460 C   0  0  0  0  0
   -0.0610  -17.2540  -27.9160 C   0  0  0  0  0
    0.9920  -17.7840  -28.8780 C   0  0  0  0  0
   -2.1380  -15.4480  -27.5210 O   0  0  0  0  0
   -3.5750  -16.9890  -25.6880 O   0  0  0  0  0
   -1.3350  -18.3200  -24.5480 O   0  0  0  0  0
    1.1000  -18.2220  -25.9680 O   0  0  0  0  0
   -1.3290  -17.2920  -28.6030 O   0  0  0  0  0
    2.2590  -17.2020  -28.6220 O   0  0  0  0  0
   16.0534  -24.1476  -30.1137 H   0  0  0  0  0
   14.2197  -24.7744  -32.5739 H   0  0  0  0  0
   15.4249  -26.3334  -30.2761 H   0  0  0  0  0
   15.9197  -26.6042  -33.1922 H   0  0  0  0  0
   17.9352  -25.1275  -34.4152 H   0  0  0  0  0
   18.8703  -26.0292  -33.1200 H   0  0  0  0  0
   17.2599  -22.8968  -32.1677 H   0  0  0  0  0
   14.9725  -23.1656  -29.2130 H   0  0  0  0  0
   14.1813  -22.4211  -30.5839 H   0  0  0  0  0
   12.9471  -23.6219  -31.1639 H   0  0  0  0  0
   13.3556  -27.0716  -30.9022 H   0  0  0  0  0
   16.6426  -28.1641  -31.5457 H   0  0  0  0  0
   19.9566  -24.1615  -33.9031 H   0  0  0  0  0
   16.3376  -18.0986  -28.4182 H   0  0  0  0  0
   14.2138  -18.1874  -31.2808 H   0  0  0  0  0
   16.3572  -18.9007  -30.6675 H   0  0  0  0  0
   13.9819  -20.6058  -29.8712 H   0  0  0  0  0
   14.2888  -21.4907  -31.9999 H   0  0  0  0  0
   16.8206  -21.6330  -30.5555 H   0  0  0  0  0
   15.2804  -21.4842  -27.9727 H   0  0  0  0  0
   16.7115  -23.4628  -28.1354 H   0  0  0  0  0
   18.1024  -22.4451  -28.5835 H   0  0  0  0  0
   17.3893  -22.3124  -26.9571 H   0  0  0  0  0
   13.7789  -15.2423  -24.4863 H   0  0  0  0  0
   13.6858  -15.3208  -26.7819 H   0  0  0  0  0
   12.4531  -18.0911  -26.7127 H   0  0  0  0  0
   15.3048  -17.2238  -27.3778 H   0  0  0  0  0
   14.0637  -18.8512  -25.1455 H   0  0  0  0  0
   16.2063  -19.8045  -25.7880 H   0  0  0  0  0
   16.3083  -19.0073  -24.1805 H   0  0  0  0  0
   11.3827  -15.5284  -27.1345 H   0  0  0  0  0
   12.9478  -17.9078  -28.9679 H   0  0  0  0  0
   18.0886  -18.4935  -25.5530 H   0  0  0  0  0
    9.7455  -16.2948  -22.4168 H   0  0  0  0  0
   11.7434  -15.3342  -20.3399 H   0  0  0  0  0
   11.1294  -15.2165  -23.2988 H   0  0  0  0  0
   13.6536  -16.3562  -22.2293 H   0  0  0  0  0
   13.5866  -19.1338  -22.6414 H   0  0  0  0  0
   12.4210  -19.8554  -21.4573 H   0  0  0  0  0
   10.5164  -18.6542  -20.6872 H   0  0  0  0  0
    8.3394  -15.5758  -21.8890 H   0  0  0  0  0
    8.2373  -16.5420  -20.6035 H   0  0  0  0  0
   10.9743  -13.4353  -20.5292 H   0  0  0  0  0
   13.0943  -14.1182  -23.4745 H   0  0  0  0  0
   14.5660  -19.6715  -20.6193 H   0  0  0  0  0
    6.3191  -20.0651  -24.3968 H   0  0  0  0  0
    5.8278  -20.2458  -20.8424 H   0  0  0  0  0
    7.5585  -20.2947  -22.4505 H   0  0  0  0  0
    6.4077  -17.6640  -21.4741 H   0  0  0  0  0
    8.0629  -17.8994  -19.8617 H   0  0  0  0  0
    9.2513  -18.1598  -22.5945 H   0  0  0  0  0
    6.9679  -16.5356  -23.6184 H   0  0  0  0  0
    9.1270  -15.4925  -24.0797 H   0  0  0  0  0
    9.7423  -17.0246  -24.7470 H   0  0  0  0  0
    8.4181  -16.1634  -25.5691 H   0  0  0  0  0
    0.9856  -20.1681  -26.5399 H   0  0  0  0  0
    2.1250  -21.0802  -24.6279 H   0  0  0  0  0
    2.5202  -18.2416  -23.6870 H   0  0  0  0  0
    4.6000  -20.1747  -24.7763 H   0  0  0  0  0
    3.5355  -17.5505  -25.8365 H   0  0  0  0  0
    5.9540  -18.0731  -26.3629 H   0  0  0  0  0
    4.9024  -17.9621  -27.8125 H   0  0  0  0  0
    0.6801  -20.2398  -22.9819 H   0  0  0  0  0
    3.8367  -19.3843  -22.1126 H   0  0  0  0  0
    6.2949  -19.8160  -27.8540 H   0  0  0  0  0
   -3.3508  -16.8761  -28.3500 H   0  0  0  0  0
   -2.8000  -18.5920  -26.7063 H   0  0  0  0  0
   -0.9594  -16.5118  -25.4254 H   0  0  0  0  0
   -0.4550  -19.1128  -26.9413 H   0  0  0  0  0
    0.2142  -16.2440  -27.6124 H   0  0  0  0  0
    0.6924  -17.5321  -29.8953 H   0  0  0  0  0
    1.0717  -18.8631  -28.7467 H   0  0  0  0  0
   -2.0552  -14.9586  -28.3427 H   0  0  0  0  0
   -3.6518  -17.4806  -24.8670 H   0  0  0  0  0
   -0.5026  -18.3016  -24.0701 H   0  0  0  0  0
    2.9024  -17.5534  -29.2418 H   0  0  0  0  0
  1  2  1  0  0  0
  1  7  1  0  0  0
  8  1  1  0  0  0
  2  3  1  0  0  0
  2  9  1  0  0  0
  3  4  1  0  0  0
  3 10  1  0  0  0
  5  4  1  0  0  0
  4 11  1  0  0  0
  5  6  1  0  0  0
  7  5  2  0  0  0
  6 12  1  0  0  0
 18  8  1  0  0  0
 13 15  1  0  0  0
 13 20  1  0  0  0
 30 13  1  0  0  0
 15 14  1  0  0  0
 15 16  1  0  0  0
 16 17  1  0  0  0
 16 18  1  0  0  0
 19 18  1  0  0  0
 20 19  1  0  0  0
 19 21  1  0  0  0
 22 23  1  0  0  0
 22 31  1  0  0  0
 43 22  1  0  0  0
 23 24  1  0  0  0
 23 28  1  0  0  0
 24 25  1  0  0  0
 24 29  1  0  0  0
 26 25  1  0  0  0
 25 30  1  0  0  0
 26 27  1  0  0  0
 31 26  1  0  0  0
 27 32  1  0  0  0
 33 34  1  0  0  0
 33 39  1  0  0  0
 40 33  1  0  0  0
 34 35  1  0  0  0
 34 41  1  0  0  0
 35 36  1  0  0  0
 35 42  1  0  0  0
 37 36  1  0  0  0
 36 43  1  0  0  0
 37 38  1  0  0  0
 39 37  2  0  0  0
 38 44  1  0  0  0
 50 40  1  0  0  0
 45 47  1  0  0  0
 45 52  1  0  0  0
 62 45  1  0  0  0
 47 46  1  0  0  0
 47 48  1  0  0  0
 48 49  1  0  0  0
 48 50  1  0  0  0
 51 50  1  0  0  0
 52 51  1  0  0  0
 51 53  1  0  0  0
 54 55  1  0  0  0
 54 63  1  0  0  0
 74 54  1  0  0  0
 55 56  1  0  0  0
 55 60  1  0  0  0
 56 57  1  0  0  0
 56 61  1  0  0  0
 58 57  1  0  0  0
 57 62  1  0  0  0
 58 59  1  0  0  0
 63 58  1  0  0  0
 59 64  1  0  0  0
 66 65  1  0  0  0
 65 71  1  0  0  0
 65 75  1  0  0  0
 67 66  1  0  0  0
 66 72  1  0  0  0
 68 67  1  0  0  0
 67 73  1  0  0  0
 68 69  1  0  0  0
 68 74  1  0  0  0
 69 70  1  0  0  0
 69 75  1  0  0  0
 70 76  1  0  0  0
  1 77  1  0  0  0
  2 78  1  0  0  0
  3 79  1  0  0  0
  4 80  1  0  0  0
  6 81  1  0  0  0
  6 82  1  0  0  0
  7 83  1  0  0  0
  8 84  1  0  0  0
  8 85  1  0  0  0
  9 86  1  0  0  0
 10 87  1  0  0  0
 11 88  1  0  0  0
 12 89  1  0  0  0
 13 90  1  0  0  0
 14 91  1  0  0  0
 15 92  1  0  0  0
 16 93  1  0  0  0
 17 94  1  0  0  0
 18 95  1  0  0  0
 19 96  1  0  0  0
 21 97  1  0  0  0
 21 98  1  0  0  0
 21 99  1  0  0  0
 22100  1  0  0  0
 23101  1  0  0  0
 24102  1  0  0  0
 25103  1  0  0  0
 26104  1  0  0  0
 27105  1  0  0  0
 27106  1  0  0  0
 28107  1  0  0  0
 29108  1  0  0  0
 32109  1  0  0  0
 33110  1  0  0  0
 34111  1  0  0  0
 35112  1  0  0  0
 36113  1  0  0  0
 38114  1  0  0  0
 38115  1  0  0  0
 39116  1  0  0  0
 40117  1  0  0  0
 40118  1  0  0  0
 41119  1  0  0  0
 42120  1  0  0  0
 44121  1  0  0  0
 45122  1  0  0  0
 46123  1  0  0  0
 47124  1  0  0  0
 48125  1  0  0  0
 49126  1  0  0  0
 50127  1  0  0  0
 51128  1  0  0  0
 53129  1  0  0  0
 53130  1  0  0  0
 53131  1  0  0  0
 54132  1  0  0  0
 55133  1  0  0  0
 56134  1  0  0  0
 57135  1  0  0  0
 58136  1  0  0  0
 59137  1  0  0  0
 59138  1  0  0  0
 60139  1  0  0  0
 61140  1  0  0  0
 64141  1  0  0  0
 65142  1  0  0  0
 66143  1  0  0  0
 67144  1  0  0  0
 68145  1  0  0  0
 69146  1  0  0  0
 70147  1  0  0  0
 70148  1  0  0  0
 71149  1  0  0  0
 72150  1  0  0  0
 73151  1  0  0  0
 76152  1  0  0  0
M  END
$$$$
