### 
### Created by X-TOOL on Mon Sep 10 21:13:05 2018
### 

@<TRIPOS>MOLECULE
3ole_ligand
  152   158     1     0     0
SMALL
GAST_HUCK


@<TRIPOS>ATOM
      1 C1         15.5080  -23.8490  -31.0090 C.3       1 ACI         0.0141
      2 C2         14.4640  -24.8290  -31.5130 C.3       1 ACI         0.1303
      3 C3         15.0790  -26.2070  -31.3020 C.3       1 ACI         0.1215
      4 C4         16.3080  -26.3420  -32.2080 C.3       1 ACI         0.1112
      5 C5         17.1060  -25.0450  -32.4600 C.2       1 ACI        -0.0200
      6 C6         18.3190  -25.1300  -33.3950 C.3       1 ACI         0.0719
      7 C7         16.7270  -23.8190  -31.9360 C.2       1 ACI        -0.0543
      8 N1         15.0380  -22.7610  -30.1470 N.4       1 ACI         0.2433
      9 O2         13.1900  -24.5230  -30.9390 O.3       1 ACI        -0.3821
     10 O3         14.0910  -27.2210  -31.5010 O.3       1 ACI        -0.3843
     11 O4         17.1580  -27.3680  -31.6950 O.3       1 ACI        -0.3780
     12 O6         19.2300  -24.0330  -33.2890 O.3       1 ACI        -0.3839
     13 C1         15.8550  -19.0600  -28.5940 C.3       1 G6D         0.1886
     14 O2         14.4490  -18.1460  -30.3510 O.3       1 G6D        -0.3840
     15 C2         15.4670  -19.1120  -30.0750 C.3       1 G6D         0.1370
     16 C3A        14.9150  -20.4920  -30.4230 C.3       1 G6D         0.1304
     17 O3A        14.6330  -20.6130  -31.8190 O.3       1 G6D        -0.3834
     18 C4A        15.8830  -21.5940  -30.0010 C.3       1 G6D         0.0341
     19 C5A        16.2200  -21.4020  -28.5190 C.3       1 G6D         0.1038
     20 O5         16.7870  -20.1060  -28.2730 O.3       1 G6D        -0.3401
     21 C6A        17.1750  -22.4840  -28.0120 C.3       1 G6D        -0.0332
     22 C1         13.5960  -16.2490  -24.8620 C.3       1 GLC         0.1904
     23 C2         13.0690  -16.0710  -26.2870 C.3       1 GLC         0.1343
     24 C3         13.1700  -17.3660  -27.0980 C.3       1 GLC         0.1144
     25 C4         14.5770  -17.9310  -26.9800 C.3       1 GLC         0.1184
     26 C5         14.8510  -18.1860  -25.5000 C.3       1 GLC         0.1134
     27 C6         16.1870  -18.8550  -25.2530 C.3       1 GLC         0.0730
     28 O2         11.7130  -15.6400  -26.2400 O.3       1 GLC        -0.3841
     29 O3         12.8840  -17.0950  -28.4610 O.3       1 GLC        -0.3864
     30 O4         14.7070  -19.1300  -27.7420 O.3       1 GLC        -0.3401
     31 O5         14.8590  -16.9250  -24.7960 O.3       1 GLC        -0.3404
     32 O6         17.2550  -18.0480  -25.7210 O.3       1 GLC        -0.3924
     33 C1         10.1500  -16.4920  -21.4240 C.3       1 ACI         0.0141
     34 C2         11.0440  -15.2950  -21.1750 C.3       1 ACI         0.1303
     35 C3         11.8430  -15.2600  -22.4760 C.3       1 ACI         0.1219
     36 C4         12.6580  -16.5510  -22.6280 C.3       1 ACI         0.1178
     37 C5         12.1670  -17.7650  -21.8190 C.2       1 ACI        -0.0196
     38 C6         13.0580  -19.0040  -21.6970 C.3       1 ACI         0.0719
     39 C7         10.9120  -17.7950  -21.2290 C.2       1 ACI        -0.0543
     40 N1          8.6820  -16.4620  -21.5180 N.4       1 ACI         0.2433
     41 O2         10.3510  -14.1530  -20.6630 O.3       1 ACI        -0.3821
     42 O3         12.6200  -14.0750  -22.6410 O.3       1 ACI        -0.3843
     43 O4         12.6250  -16.8700  -24.0180 O.3       1 ACI        -0.3313
     44 O6         14.0330  -18.8740  -20.6580 O.3       1 ACI        -0.3839
     45 C1          6.4420  -19.1320  -23.8470 C.3       1 G6D         0.1886
     46 O2          5.6090  -19.9990  -21.7440 O.3       1 G6D        -0.3840
     47 C2          6.7850  -19.5280  -22.4060 C.3       1 G6D         0.1370
     48 C3A         7.2690  -18.3170  -21.6150 C.3       1 G6D         0.1304
     49 O3A         7.7690  -18.6860  -20.3270 O.3       1 G6D        -0.3834
     50 C4A         8.3550  -17.5770  -22.3820 C.3       1 G6D         0.0341
     51 C5A         7.8310  -17.1850  -23.7650 C.3       1 G6D         0.1038
     52 O5          7.5090  -18.3950  -24.4720 O.3       1 G6D        -0.3401
     53 C6A         8.8540  -16.4100  -24.6010 C.3       1 G6D        -0.0332
     54 C1          1.6430  -19.4780  -26.0110 C.3       1 GLC         0.1884
     55 C2          1.8240  -20.0340  -24.5740 C.3       1 GLC         0.1341
     56 C3          2.8930  -19.2550  -23.8360 C.3       1 GLC         0.1144
     57 C4          4.1970  -19.1710  -24.6410 C.3       1 GLC         0.1184
     58 C5          3.8960  -18.5630  -26.0180 C.3       1 GLC         0.1134
     59 C6          5.1330  -18.5330  -26.9130 C.3       1 GLC         0.0730
     60 O2          0.5820  -19.8990  -23.8740 O.3       1 GLC        -0.3841
     61 O3          3.1590  -19.8800  -22.5780 O.3       1 GLC        -0.3864
     62 O4          5.2010  -18.4220  -23.9390 O.3       1 GLC        -0.3401
     63 O5          2.9260  -19.3810  -26.7120 O.3       1 GLC        -0.3405
     64 O6          5.5170  -19.8580  -27.2930 O.3       1 GLC        -0.3924
     65 C1         -2.4140  -16.7750  -27.8020 C.3       1 GLC         0.1854
     66 C2         -2.5460  -17.5560  -26.4820 C.3       1 GLC         0.1339
     67 C3         -1.2230  -17.5270  -25.7220 C.3       1 GLC         0.1144
     68 C4         -0.1630  -18.1050  -26.6460 C.3       1 GLC         0.1184
     69 C5         -0.0610  -17.2540  -27.9160 C.3       1 GLC         0.1134
     70 C6          0.9920  -17.7840  -28.8780 C.3       1 GLC         0.0730
     71 O1         -2.1380  -15.4480  -27.5210 O.3       1 GLC        -0.3649
     72 O2         -3.5750  -16.9890  -25.6880 O.3       1 GLC        -0.3841
     73 O3         -1.3350  -18.3200  -24.5480 O.3       1 GLC        -0.3864
     74 O4          1.1000  -18.2220  -25.9680 O.3       1 GLC        -0.3401
     75 O5         -1.3290  -17.2920  -28.6030 O.3       1 GLC        -0.3407
     76 O6          2.2590  -17.2020  -28.6220 O.3       1 GLC        -0.3924
     77 H          16.0534  -24.1476  -30.1137 H         1 ACI         0.0950
     78 H          14.2197  -24.7744  -32.5739 H         1 ACI         0.0694
     79 H          15.4249  -26.3334  -30.2761 H         1 ACI         0.0671
     80 H          15.9197  -26.6042  -33.1922 H         1 ACI         0.0769
     81 H          17.9352  -25.1275  -34.4152 H         1 ACI         0.0706
     82 H          18.8703  -26.0292  -33.1200 H         1 ACI         0.0706
     83 H          17.2599  -22.8968  -32.1677 H         1 ACI         0.0299
     84 H          14.9725  -23.1656  -29.2130 H         1 ACI         0.2029
     85 H          14.1813  -22.4211  -30.5839 H         1 ACI         0.2029
     86 H          13.2403  -24.6134  -29.9846 H         1 ACI         0.2103
     87 H          13.7783  -27.1879  -32.4081 H         1 ACI         0.2102
     88 H          17.5457  -27.0764  -30.8665 H         1 ACI         0.2130
     89 H          19.5712  -23.9873  -32.3929 H         1 ACI         0.2125
     90 H          16.3376  -18.0986  -28.4182 H         1 ACI         0.0938
     91 H          13.6754  -18.3361  -29.8154 H         1 ACI         0.2101
     92 H          16.3572  -18.9007  -30.6675 H         1 ACI         0.0672
     93 H          13.9819  -20.6058  -29.8712 H         1 ACI         0.0679
     94 H          13.9816  -19.9544  -32.0710 H         1 ACI         0.2102
     95 H          16.8206  -21.6330  -30.5555 H         1 ACI         0.0903
     96 H          15.2804  -21.4842  -27.9727 H         1 ACI         0.0652
     97 H          16.7115  -23.4628  -28.1354 H         1 ACI         0.0257
     98 H          18.1024  -22.4451  -28.5835 H         1 ACI         0.0257
     99 H          17.3893  -22.3124  -26.9571 H         1 ACI         0.0257
    100 H          13.7789  -15.2423  -24.4863 H         1 ACI         0.0939
    101 H          13.6858  -15.3208  -26.7819 H         1 ACI         0.0671
    102 H          12.4531  -18.0911  -26.7127 H         1 ACI         0.0648
    103 H          15.3048  -17.2238  -27.3778 H         1 ACI         0.0651
    104 H          14.0637  -18.8512  -25.1455 H         1 ACI         0.0647
    105 H          16.2063  -19.8045  -25.7880 H         1 ACI         0.0584
    106 H          16.3083  -19.0073  -24.1805 H         1 ACI         0.0584
    107 H          11.3972  -15.4828  -27.1329 H         1 ACI         0.2101
    108 H          12.9473  -17.9079  -28.9678 H         1 ACI         0.2100
    109 H          17.2429  -17.2052  -25.2615 H         1 ACI         0.2095
    110 H           9.7455  -16.2948  -22.4168 H         1 ACI         0.0950
    111 H          11.7434  -15.3342  -20.3399 H         1 ACI         0.0694
    112 H          11.1294  -15.2165  -23.2988 H         1 ACI         0.0671
    113 H          13.6536  -16.3562  -22.2293 H         1 ACI         0.0773
    114 H          13.5866  -19.1338  -22.6414 H         1 ACI         0.0706
    115 H          12.4210  -19.8554  -21.4573 H         1 ACI         0.0706
    116 H          10.5164  -18.6542  -20.6872 H         1 ACI         0.0299
    117 H           8.3394  -15.5758  -21.8890 H         1 ACI         0.2029
    118 H           8.2373  -16.5420  -20.6035 H         1 ACI         0.2029
    119 H           9.6960  -13.8643  -21.3026 H         1 ACI         0.2103
    120 H          12.0553  -13.3060  -22.5346 H         1 ACI         0.2102
    121 H          14.5660  -19.6715  -20.6193 H         1 ACI         0.2125
    122 H           6.3191  -20.0651  -24.3968 H         1 ACI         0.0938
    123 H           4.9478  -19.3030  -21.7349 H         1 ACI         0.2101
    124 H           7.5585  -20.2947  -22.4505 H         1 ACI         0.0672
    125 H           6.4077  -17.6640  -21.4741 H         1 ACI         0.0679
    126 H           8.0629  -17.8994  -19.8617 H         1 ACI         0.2102
    127 H           9.2513  -18.1598  -22.5945 H         1 ACI         0.0903
    128 H           6.9679  -16.5356  -23.6184 H         1 ACI         0.0652
    129 H           9.1270  -15.4925  -24.0797 H         1 ACI         0.0257
    130 H           9.7423  -17.0246  -24.7470 H         1 ACI         0.0257
    131 H           8.4181  -16.1634  -25.5691 H         1 ACI         0.0257
    132 H           0.9856  -20.1681  -26.5399 H         1 ACI         0.0938
    133 H           2.1250  -21.0802  -24.6279 H         1 ACI         0.0671
    134 H           2.5202  -18.2416  -23.6870 H         1 ACI         0.0648
    135 H           4.6000  -20.1747  -24.7763 H         1 ACI         0.0651
    136 H           3.5355  -17.5505  -25.8365 H         1 ACI         0.0647
    137 H           5.9540  -18.0731  -26.3629 H         1 ACI         0.0584
    138 H           4.9024  -17.9621  -27.8125 H         1 ACI         0.0584
    139 H          -0.1002  -20.3909  -24.3371 H         1 ACI         0.2101
    140 H           3.8049  -19.3603  -22.0940 H         1 ACI         0.2100
    141 H           4.7969  -20.2734  -27.7731 H         1 ACI         0.2095
    142 H          -3.3508  -16.8761  -28.3500 H         1 ACI         0.0935
    143 H          -2.8000  -18.5920  -26.7063 H         1 ACI         0.0671
    144 H          -0.9594  -16.5118  -25.4254 H         1 ACI         0.0648
    145 H          -0.4550  -19.1128  -26.9413 H         1 ACI         0.0651
    146 H           0.2142  -16.2440  -27.6124 H         1 ACI         0.0647
    147 H           0.6924  -17.5321  -29.8953 H         1 ACI         0.0584
    148 H           1.0717  -18.8631  -28.7467 H         1 ACI         0.0584
    149 H          -2.0662  -14.9564  -28.3424 H         1 ACI         0.2126
    150 H          -3.3511  -16.0794  -25.4778 H         1 ACI         0.2101
    151 H          -0.4912  -18.3330  -24.0902 H         1 ACI         0.2100
    152 H           2.5302  -17.4102  -27.7250 H         1 ACI         0.2095
@<TRIPOS>BOND
     1    1    2 1  
     2    1    7 1  
     3    8    1 1  
     4    2    3 1  
     5    2    9 1  
     6    3    4 1  
     7    3   10 1  
     8    5    4 1  
     9    4   11 1  
    10    5    6 1  
    11    7    5 2  
    12    6   12 1  
    13   18    8 1  
    14   13   15 1  
    15   13   20 1  
    16   30   13 1  
    17   15   14 1  
    18   15   16 1  
    19   16   17 1  
    20   16   18 1  
    21   19   18 1  
    22   20   19 1  
    23   19   21 1  
    24   22   23 1  
    25   22   31 1  
    26   43   22 1  
    27   23   24 1  
    28   23   28 1  
    29   24   25 1  
    30   24   29 1  
    31   26   25 1  
    32   25   30 1  
    33   26   27 1  
    34   31   26 1  
    35   27   32 1  
    36   33   34 1  
    37   33   39 1  
    38   40   33 1  
    39   34   35 1  
    40   34   41 1  
    41   35   36 1  
    42   35   42 1  
    43   37   36 1  
    44   36   43 1  
    45   37   38 1  
    46   39   37 2  
    47   38   44 1  
    48   50   40 1  
    49   45   47 1  
    50   45   52 1  
    51   62   45 1  
    52   47   46 1  
    53   47   48 1  
    54   48   49 1  
    55   48   50 1  
    56   51   50 1  
    57   52   51 1  
    58   51   53 1  
    59   54   55 1  
    60   54   63 1  
    61   74   54 1  
    62   55   56 1  
    63   55   60 1  
    64   56   57 1  
    65   56   61 1  
    66   58   57 1  
    67   57   62 1  
    68   58   59 1  
    69   63   58 1  
    70   59   64 1  
    71   66   65 1  
    72   65   71 1  
    73   65   75 1  
    74   67   66 1  
    75   66   72 1  
    76   68   67 1  
    77   67   73 1  
    78   68   69 1  
    79   68   74 1  
    80   69   70 1  
    81   69   75 1  
    82   70   76 1  
    83    1   77 1  
    84    2   78 1  
    85    3   79 1  
    86    4   80 1  
    87    6   81 1  
    88    6   82 1  
    89    7   83 1  
    90    8   84 1  
    91    8   85 1  
    92    9   86 1  
    93   10   87 1  
    94   11   88 1  
    95   12   89 1  
    96   13   90 1  
    97   14   91 1  
    98   15   92 1  
    99   16   93 1  
   100   17   94 1  
   101   18   95 1  
   102   19   96 1  
   103   21   97 1  
   104   21   98 1  
   105   21   99 1  
   106   22  100 1  
   107   23  101 1  
   108   24  102 1  
   109   25  103 1  
   110   26  104 1  
   111   27  105 1  
   112   27  106 1  
   113   28  107 1  
   114   29  108 1  
   115   32  109 1  
   116   33  110 1  
   117   34  111 1  
   118   35  112 1  
   119   36  113 1  
   120   38  114 1  
   121   38  115 1  
   122   39  116 1  
   123   40  117 1  
   124   40  118 1  
   125   41  119 1  
   126   42  120 1  
   127   44  121 1  
   128   45  122 1  
   129   46  123 1  
   130   47  124 1  
   131   48  125 1  
   132   49  126 1  
   133   50  127 1  
   134   51  128 1  
   135   53  129 1  
   136   53  130 1  
   137   53  131 1  
   138   54  132 1  
   139   55  133 1  
   140   56  134 1  
   141   57  135 1  
   142   58  136 1  
   143   59  137 1  
   144   59  138 1  
   145   60  139 1  
   146   61  140 1  
   147   64  141 1  
   148   65  142 1  
   149   66  143 1  
   150   67  144 1  
   151   68  145 1  
   152   69  146 1  
   153   70  147 1  
   154   70  148 1  
   155   71  149 1  
   156   72  150 1  
   157   73  151 1  
   158   76  152 1  
@<TRIPOS>SUBSTRUCTURE
     1 ACI         1

