2o64_ligand
  -I-interpret- 

 33 35  0  0  0  0  0  0  0  0999 V2000
   74.0290   38.9190   -1.5840 O   0  0  0  0  0
   74.3420   37.8600   -1.0440 C   0  0  0  0  0
   74.6040   36.6660   -1.8290 C   0  0  0  0  0
   74.5220   36.7960   -3.1630 O   0  0  0  0  0
   74.4120   37.7750    0.4280 C   0  0  0  0  0
   74.1450   38.9430    1.2880 C   0  0  0  0  0
   73.8540   40.1350    0.7860 O   0  0  0  0  0
   74.7510   36.4930    1.0510 C   0  0  0  0  0
   74.8110   36.3470    2.4310 C   0  0  0  0  0
   74.5680   37.4190    3.2870 C   0  0  0  0  0
   74.6230   37.2070    4.6040 O   0  0  0  0  0
   74.2320   38.7670    2.7390 C   0  0  0  0  0
   73.9910   39.8210    3.5090 O   0  0  0  0  0
   74.9890   35.4310    0.2540 O   0  0  0  0  0
   74.8940   35.5200   -1.1910 C   0  0  0  0  0
   75.2110   34.2050   -1.8280 C   0  0  0  0  0
   75.7170   33.2280   -0.9570 C   0  0  0  0  0
   76.0520   31.9730   -1.4390 C   0  0  0  0  0
   76.5390   31.0080   -0.6750 O   0  0  0  0  0
   75.8560   31.7120   -2.8510 C   0  0  0  0  0
   76.1860   30.5230   -3.2750 O   0  0  0  0  0
   75.3380   32.6850   -3.6970 C   0  0  0  0  0
   75.0140   33.9390   -3.1760 C   0  0  0  0  0
   74.3032   37.7047   -3.3820 H   0  0  0  0  0
   73.7151   40.7578    1.5032 H   0  0  0  0  0
   75.0536   35.3720    2.8536 H   0  0  0  0  0
   74.4362   38.0269    5.0670 H   0  0  0  0  0
   74.0812   39.5696    4.4311 H   0  0  0  0  0
   75.8467   33.4569    0.1008 H   0  0  0  0  0
   76.2501   32.0450   -0.3696 H   0  0  0  0  0
   76.6996   30.2276   -1.2106 H   0  0  0  0  0
   75.1864   32.4716   -4.7551 H   0  0  0  0  0
   74.6057   34.7105   -3.8288 H   0  0  0  0  0
  1  2  2  0  0  0
  2  3  1  0  0  0
  2  5  1  0  0  0
  3  4  1  0  0  0
  3 15  2  0  0  0
  5  6  4  0  0  0
  5  8  4  0  0  0
  6  7  1  0  0  0
  6 12  4  0  0  0
  8  9  4  0  0  0
  8 14  1  0  0  0
  9 10  4  0  0  0
 10 11  1  0  0  0
 10 12  4  0  0  0
 12 13  1  0  0  0
 14 15  1  0  0  0
 15 16  1  0  0  0
 16 17  2  0  0  0
 16 23  1  0  0  0
 17 18  1  0  0  0
 18 19  1  0  0  0
 18 20  1  0  0  0
 20 21  2  0  0  0
 20 22  1  0  0  0
 22 23  2  0  0  0
  4 24  1  0  0  0
  7 25  1  0  0  0
  9 26  1  0  0  0
 11 27  1  0  0  0
 13 28  1  0  0  0
 17 29  1  0  0  0
 18 30  1  0  0  0
 19 31  1  0  0  0
 22 32  1  0  0  0
 23 33  1  0  0  0
M  END
$$$$
