5e2q_ligand
  -I-interpret- 

146149  0  0  0  0  0  0  0  0999 V2000
  259.2750  -15.6450   89.1990 N   0  3  0  0  0
  259.0910  -16.8660   88.4230 C   0  0  0  0  0
  257.6250  -17.0450   88.0410 C   0  0  0  0  0
  256.7290  -16.7470   88.8300 O   0  0  0  0  0
  259.5910  -18.0810   89.2080 C   0  0  0  0  0
  261.0450  -17.9480   89.6250 C   0  0  0  0  0
  261.7980  -17.2140   88.9490 O   0  0  0  0  0
  261.4350  -18.5800   90.6290 O   0  0  0  0  0
  257.3830  -17.5340   86.8290 N   0  0  0  0  0
  256.0200  -17.6700   86.3250 C   0  0  0  0  0
  255.5770  -19.1240   86.2030 C   0  0  0  0  0
  256.3980  -20.0340   86.1000 O   0  0  0  0  0
  255.8880  -16.9740   84.9660 C   0  0  0  0  0
  255.7870  -15.4600   85.0540 C   0  0  0  0  0
  256.3880  -14.7840   83.8310 C   0  0  0  0  0
  255.5090  -14.7990   82.6670 N   0  0  0  0  0
  254.9420  -13.7160   82.1440 C   0  0  0  0  0
  255.1590  -12.5220   82.6810 N   0  0  0  0  0
  254.1600  -13.8240   81.0790 N   0  0  0  0  0
  254.2630  -19.3250   86.2290 N   0  0  0  0  0
  253.6610  -20.6310   85.9950 C   0  0  0  0  0
  252.7810  -20.5560   84.7530 C   0  0  0  0  0
  252.0080  -19.6120   84.5950 O   0  0  0  0  0
  252.8100  -21.0990   87.1910 C   0  0  0  0  0
  252.4670  -22.5720   87.0470 C   0  0  0  0  0
  253.5370  -20.8400   88.5020 C   0  0  0  0  0
  252.8940  -21.5450   83.8730 N   0  0  0  0  0
  252.1300  -21.5350   82.6300 C   0  0  0  0  0
  251.1950  -22.7300   82.4860 C   0  0  0  0  0
  251.3760  -23.7640   83.1290 O   0  0  0  0  0
  253.0710  -21.4890   81.4250 C   0  0  0  0  0
  253.5910  -20.1100   81.1000 C   0  0  0  0  0
  252.7680  -19.1600   80.5070 C   0  0  0  0  0
  254.9060  -19.7600   81.3720 C   0  0  0  0  0
  253.2390  -17.8980   80.2020 C   0  0  0  0  0
  255.3860  -18.4990   81.0710 C   0  0  0  0  0
  254.5480  -17.5740   80.4860 C   0  0  0  0  0
  255.0220  -16.3190   80.1830 O   0  0  0  0  0
  250.1950  -22.5690   81.6270 N   0  0  0  0  0
  249.2820  -23.6480   81.2820 C   0  0  0  0  0
  249.3040  -23.8810   79.7780 C   0  0  0  0  0
  249.0400  -22.9680   78.9970 O   0  0  0  0  0
  247.8440  -23.3440   81.7280 C   0  0  0  0  0
  247.7440  -23.3720   83.2520 C   0  0  0  0  0
  246.8710  -24.3430   81.1230 C   0  0  0  0  0
  246.3820  -22.9980   83.7630 C   0  0  0  0  0
  249.6300  -25.1040   79.3770 N   0  0  0  0  0
  249.6670  -25.4560   77.9650 C   0  0  0  0  0
  249.0480  -26.8340   77.7460 C   0  0  0  0  0
  249.3570  -27.7720   78.4810 O   0  0  0  0  0
  251.1020  -25.4220   77.4390 C   0  0  0  0  0
  251.1980  -25.5060   75.9480 C   0  0  0  0  0
  250.9390  -24.4320   75.1260 N   0  0  0  0  0
  251.5130  -26.5390   75.1320 C   0  0  0  0  0
  251.0960  -24.7970   73.8660 C   0  0  0  0  0
  251.4440  -26.0710   73.8420 N   0  0  0  0  0
  248.1700  -26.9670   76.7350 N   0  0  0  0  0
  247.7260  -25.9460   75.7740 C   0  0  0  0  0
  246.8950  -24.8320   76.4090 C   0  0  0  0  0
  246.3540  -25.0110   77.5000 O   0  0  0  0  0
  246.8730  -26.7460   74.7790 C   0  0  0  0  0
  247.2850  -28.1700   74.9660 C   0  0  0  0  0
  247.6020  -28.2880   76.4200 C   0  0  0  0  0
  246.8050  -23.6950   75.7270 N   0  0  0  0  0
  246.1260  -22.5280   76.2740 C   0  0  0  0  0
  245.1940  -21.8900   75.2490 C   0  0  0  0  0
  245.6350  -21.2870   74.2700 O   0  0  0  0  0
  247.1550  -21.5050   76.7650 C   0  0  0  0  0
  246.5520  -20.3240   77.4710 C   0  0  0  0  0
  246.1120  -20.4330   78.7790 C   0  0  0  0  0
  246.4360  -19.1020   76.8290 C   0  0  0  0  0
  245.5600  -19.3480   79.4320 C   0  0  0  0  0
  245.8850  -18.0130   77.4760 C   0  0  0  0  0
  245.4470  -18.1360   78.7790 C   0  0  0  0  0
  243.9710  -21.9590   75.3790 O   0  0  0  0  0
  258.9367  -14.8473   88.6608 H   0  0  0  0  0
  258.7504  -15.7154   90.0709 H   0  0  0  0  0
  260.2661  -15.5213   89.4061 H   0  0  0  0  0
  259.6765  -16.7808   87.5075 H   0  0  0  0  0
  259.5054  -18.9556   88.5632 H   0  0  0  0  0
  258.9889  -18.1671   90.1125 H   0  0  0  0  0
  261.2997  -16.8252   88.2264 H   0  0  0  0  0
  258.1650  -17.8198   86.2397 H   0  0  0  0  0
  255.3657  -17.1930   87.0547 H   0  0  0  0  0
  254.9671  -17.3333   84.5068 H   0  0  0  0  0
  256.7875  -17.2054   84.3955 H   0  0  0  0  0
  256.3380  -15.1297   85.9345 H   0  0  0  0  0
  254.7329  -15.1890   85.1129 H   0  0  0  0  0
  257.2925  -15.3313   83.5655 H   0  0  0  0  0
  256.5710  -13.7411   84.0899 H   0  0  0  0  0
  255.3169  -15.6984   82.2258 H   0  0  0  0  0
  254.7250  -11.6934   82.2743 H   0  0  0  0  0
  255.7598  -12.4329   83.5005 H   0  0  0  0  0
  253.9927  -14.7387   80.6598 H   0  0  0  0  0
  253.6509  -18.5319   86.4207 H   0  0  0  0  0
  254.4665  -21.3524   85.8579 H   0  0  0  0  0
  251.8820  -20.5274   87.2017 H   0  0  0  0  0
  251.9036  -22.7242   86.1264 H   0  0  0  0  0
  253.3866  -23.1562   87.0125 H   0  0  0  0  0
  251.8656  -22.8887   87.8991 H   0  0  0  0  0
  254.4812  -21.3845   88.5061 H   0  0  0  0  0
  253.7314  -19.7723   88.6034 H   0  0  0  0  0
  252.9174  -21.1783   89.3325 H   0  0  0  0  0
  253.5241  -22.3227   84.0693 H   0  0  0  0  0
  251.5110  -20.6385   82.6658 H   0  0  0  0  0
  252.5032  -21.8313   80.5598 H   0  0  0  0  0
  253.9338  -22.1099   81.6663 H   0  0  0  0  0
  251.7332  -19.4152   80.2787 H   0  0  0  0  0
  255.5714  -20.4914   81.8306 H   0  0  0  0  0
  252.5798  -17.1632   79.7398 H   0  0  0  0  0
  256.4203  -18.2379   81.2948 H   0  0  0  0  0
  255.9443  -16.2554   80.4418 H   0  0  0  0  0
  250.0622  -21.6554   81.1932 H   0  0  0  0  0
  249.6169  -24.5431   81.8062 H   0  0  0  0  0
  247.5807  -22.3470   81.3749 H   0  0  0  0  0
  248.4547  -22.6439   83.6429 H   0  0  0  0  0
  247.9503  -24.3915   83.5777 H   0  0  0  0  0
  246.9227  -24.2858   80.0357 H   0  0  0  0  0
  247.1360  -25.3490   81.4482 H   0  0  0  0  0
  245.8590  -24.1080   81.4528 H   0  0  0  0  0
  246.1371  -21.9878   83.4350 H   0  0  0  0  0
  245.6436  -23.6976   83.3712 H   0  0  0  0  0
  246.3804  -23.0382   84.8523 H   0  0  0  0  0
  249.8596  -25.8126   80.0738 H   0  0  0  0  0
  249.0831  -24.7215   77.4102 H   0  0  0  0  0
  251.6199  -26.2893   77.8484 H   0  0  0  0  0
  251.5373  -24.4693   77.7406 H   0  0  0  0  0
  251.7726  -27.5517   75.4403 H   0  0  0  0  0
  250.9613  -24.1560   72.9947 H   0  0  0  0  0
  248.5745  -25.4287   75.3261 H   0  0  0  0  0
  247.0327  -26.4126   73.7536 H   0  0  0  0  0
  245.8072  -26.6085   74.9616 H   0  0  0  0  0
  248.1401  -28.4301   74.3420 H   0  0  0  0  0
  246.4990  -28.8625   74.6647 H   0  0  0  0  0
  246.7302  -28.5319   77.0271 H   0  0  0  0  0
  248.2847  -29.1084   76.6414 H   0  0  0  0  0
  247.2216  -23.6380   74.7977 H   0  0  0  0  0
  245.5164  -22.8578   77.1153 H   0  0  0  0  0
  247.6780  -21.1251   75.8874 H   0  0  0  0  0
  247.8017  -22.0139   77.4798 H   0  0  0  0  0
  246.2022  -21.3863   79.2998 H   0  0  0  0  0
  246.7836  -18.9985   75.8011 H   0  0  0  0  0
  245.2142  -19.4481   80.4608 H   0  0  0  0  0
  245.7963  -17.0579   76.9582 H   0  0  0  0  0
  245.0125  -17.2780   79.2921 H   0  0  0  0  0
  243.7623  -22.4515   76.1762 H   0  0  0  0  0
  1  2  1  0  0  0
  2  3  1  0  0  0
  2  5  1  0  0  0
  3  4  2  0  0  0
  3  9  1  0  0  0
  5  6  1  0  0  0
  6  7  1  0  0  0
  6  8  2  0  0  0
  9 10  1  0  0  0
 10 11  1  0  0  0
 10 13  1  0  0  0
 11 12  2  0  0  0
 11 20  1  0  0  0
 13 14  1  0  0  0
 14 15  1  0  0  0
 15 16  1  0  0  0
 16 17  1  0  0  0
 17 18  1  0  0  0
 17 19  2  0  0  0
 20 21  1  0  0  0
 21 22  1  0  0  0
 21 24  1  0  0  0
 22 23  2  0  0  0
 22 27  1  0  0  0
 24 25  1  0  0  0
 24 26  1  0  0  0
 27 28  1  0  0  0
 28 29  1  0  0  0
 28 31  1  0  0  0
 29 30  2  0  0  0
 29 39  1  0  0  0
 31 32  1  0  0  0
 32 33  4  0  0  0
 32 34  4  0  0  0
 33 35  4  0  0  0
 34 36  4  0  0  0
 35 37  4  0  0  0
 36 37  4  0  0  0
 37 38  1  0  0  0
 39 40  1  0  0  0
 40 41  1  0  0  0
 40 43  1  0  0  0
 41 42  2  0  0  0
 41 47  1  0  0  0
 43 44  1  0  0  0
 43 45  1  0  0  0
 44 46  1  0  0  0
 47 48  1  0  0  0
 48 49  1  0  0  0
 48 51  1  0  0  0
 49 50  2  0  0  0
 49 57  1  0  0  0
 51 52  1  0  0  0
 52 53  4  0  0  0
 52 54  4  0  0  0
 53 55  4  0  0  0
 54 56  4  0  0  0
 55 56  4  0  0  0
 57 58  1  0  0  0
 57 63  1  0  0  0
 58 59  1  0  0  0
 58 61  1  0  0  0
 59 60  2  0  0  0
 59 64  1  0  0  0
 61 62  1  0  0  0
 62 63  1  0  0  0
 64 65  1  0  0  0
 65 66  1  0  0  0
 65 68  1  0  0  0
 66 67  2  0  0  0
 66 75  1  0  0  0
 68 69  1  0  0  0
 69 70  4  0  0  0
 69 71  4  0  0  0
 70 72  4  0  0  0
 71 73  4  0  0  0
 72 74  4  0  0  0
 73 74  4  0  0  0
  1 76  1  0  0  0
  1 77  1  0  0  0
  1 78  1  0  0  0
  2 79  1  0  0  0
  5 80  1  0  0  0
  5 81  1  0  0  0
  7 82  1  0  0  0
  9 83  1  0  0  0
 10 84  1  0  0  0
 13 85  1  0  0  0
 13 86  1  0  0  0
 14 87  1  0  0  0
 14 88  1  0  0  0
 15 89  1  0  0  0
 15 90  1  0  0  0
 16 91  1  0  0  0
 18 92  1  0  0  0
 18 93  1  0  0  0
 19 94  1  0  0  0
 20 95  1  0  0  0
 21 96  1  0  0  0
 24 97  1  0  0  0
 25 98  1  0  0  0
 25 99  1  0  0  0
 25100  1  0  0  0
 26101  1  0  0  0
 26102  1  0  0  0
 26103  1  0  0  0
 27104  1  0  0  0
 28105  1  0  0  0
 31106  1  0  0  0
 31107  1  0  0  0
 33108  1  0  0  0
 34109  1  0  0  0
 35110  1  0  0  0
 36111  1  0  0  0
 38112  1  0  0  0
 39113  1  0  0  0
 40114  1  0  0  0
 43115  1  0  0  0
 44116  1  0  0  0
 44117  1  0  0  0
 45118  1  0  0  0
 45119  1  0  0  0
 45120  1  0  0  0
 46121  1  0  0  0
 46122  1  0  0  0
 46123  1  0  0  0
 47124  1  0  0  0
 48125  1  0  0  0
 51126  1  0  0  0
 51127  1  0  0  0
 54128  1  0  0  0
 55129  1  0  0  0
 58130  1  0  0  0
 61131  1  0  0  0
 61132  1  0  0  0
 62133  1  0  0  0
 62134  1  0  0  0
 63135  1  0  0  0
 63136  1  0  0  0
 64137  1  0  0  0
 65138  1  0  0  0
 68139  1  0  0  0
 68140  1  0  0  0
 70141  1  0  0  0
 71142  1  0  0  0
 72143  1  0  0  0
 73144  1  0  0  0
 74145  1  0  0  0
 75146  1  0  0  0
M  END
$$$$
