### 
### Created by X-TOOL on Mon Sep 10 21:13:29 2018
### 

@<TRIPOS>MOLECULE
5e2q_ligand
  146   149     1     0     0
SMALL
GAST_HUCK


@<TRIPOS>ATOM
      1 N         259.2750  -15.6450   89.1990 N.4       1 ASP         0.2391
      2 CA        259.0910  -16.8660   88.4230 C.3       1 ASP         0.0764
      3 C         257.6250  -17.0450   88.0410 C.2       1 ASP         0.2284
      4 O         256.7290  -16.7470   88.8300 O.2       1 ASP        -0.3906
      5 CB        259.5910  -18.0810   89.2080 C.3       1 ASP         0.0607
      6 CG        261.0450  -17.9480   89.6250 C.2       1 ASP         0.0425
      7 OD1       261.7980  -17.2140   88.9490 O.co2     1 ASP        -0.5686
      8 OD2       261.4350  -18.5800   90.6290 O.co2     1 ASP        -0.5686
      9 N         257.3830  -17.5340   86.8290 N.am      1 ARG        -0.2609
     10 CA        256.0200  -17.6700   86.3250 C.3       1 ARG         0.1312
     11 C         255.5770  -19.1240   86.2030 C.2       1 ARG         0.2039
     12 O         256.3980  -20.0340   86.1000 O.2       1 ARG        -0.3944
     13 CB        255.8880  -16.9740   84.9660 C.3       1 ARG        -0.0092
     14 CG        255.7870  -15.4600   85.0540 C.3       1 ARG        -0.0156
     15 CD        256.3880  -14.7840   83.8310 C.3       1 ARG         0.0627
     16 NE        255.5090  -14.7990   82.6670 N.pl3     1 ARG        -0.2723
     17 CZ        254.9420  -13.7160   82.1440 C.cat     1 ARG         0.2882
     18 NH1       255.1590  -12.5220   82.6810 N.pl3     1 ARG        -0.2849
     19 NH2       254.1600  -13.8240   81.0790 N.pl3     1 ARG        -0.2849
     20 N         254.2630  -19.3250   86.2290 N.am      1 VAL        -0.2635
     21 CA        253.6610  -20.6310   85.9950 C.3       1 VAL         0.1333
     22 C         252.7810  -20.5560   84.7530 C.2       1 VAL         0.2043
     23 O         252.0080  -19.6120   84.5950 O.2       1 VAL        -0.3944
     24 CB        252.8100  -21.0990   87.1910 C.3       1 VAL        -0.0063
     25 CG1       252.4670  -22.5720   87.0470 C.3       1 VAL        -0.0584
     26 CG2       253.5370  -20.8400   88.5020 C.3       1 VAL        -0.0584
     27 N         252.8940  -21.5450   83.8730 N.am      1 TYR        -0.2621
     28 CA        252.1300  -21.5350   82.6300 C.3       1 TYR         0.1390
     29 C         251.1950  -22.7300   82.4860 C.2       1 TYR         0.2057
     30 O         251.3760  -23.7640   83.1290 O.2       1 TYR        -0.3942
     31 CB        253.0710  -21.4890   81.4250 C.3       1 TYR         0.0163
     32 CG        253.5910  -20.1100   81.1000 C.ar      1 TYR        -0.0493
     33 CD1       252.7680  -19.1600   80.5070 C.ar      1 TYR        -0.0685
     34 CD2       254.9060  -19.7600   81.3720 C.ar      1 TYR        -0.0685
     35 CE1       253.2390  -17.8980   80.2020 C.ar      1 TYR        -0.0398
     36 CE2       255.3860  -18.4990   81.0710 C.ar      1 TYR        -0.0398
     37 CZ        254.5480  -17.5740   80.4860 C.ar      1 TYR         0.0805
     38 OH        255.0220  -16.3190   80.1830 O.3       1 TYR        -0.3376
     39 N         250.1950  -22.5690   81.6270 N.am      1 ILE        -0.2633
     40 CA        249.2820  -23.6480   81.2820 C.3       1 ILE         0.1335
     41 C         249.3040  -23.8810   79.7780 C.2       1 ILE         0.2043
     42 O         249.0400  -22.9680   78.9970 O.2       1 ILE        -0.3944
     43 CB        247.8440  -23.3440   81.7280 C.3       1 ILE        -0.0037
     44 CG1       247.7440  -23.3720   83.2520 C.3       1 ILE        -0.0491
     45 CG2       246.8710  -24.3430   81.1230 C.3       1 ILE        -0.0582
     46 CD1       246.3820  -22.9980   83.7630 C.3       1 ILE        -0.0648
     47 N         249.6300  -25.1040   79.3770 N.am      1 HIS        -0.2625
     48 CA        249.6670  -25.4560   77.9650 C.3       1 HIS         0.1371
     49 C         249.0480  -26.8340   77.7460 C.2       1 HIS         0.2079
     50 O         249.3570  -27.7720   78.4810 O.2       1 HIS        -0.3940
     51 CB        251.1020  -25.4220   77.4390 C.3       1 HIS         0.0145
     52 CG        251.1980  -25.5060   75.9480 C.2       1 HIS        -0.0027
     53 ND1       250.9390  -24.4320   75.1260 N.2       1 HIS        -0.3252
     54 CD2       251.5130  -26.5390   75.1320 C.2       1 HIS         0.0291
     55 CE1       251.0960  -24.7970   73.8660 C.2       1 HIS         0.0907
     56 NE2       251.4440  -26.0710   73.8420 N.pl3     1 HIS        -0.2752
     57 N         248.1700  -26.9670   76.7350 N.am      1 PRO        -0.2497
     58 CA        247.7260  -25.9460   75.7740 C.3       1 PRO         0.1337
     59 C         246.8950  -24.8320   76.4090 C.2       1 PRO         0.2037
     60 O         246.3540  -25.0110   77.5000 O.2       1 PRO        -0.3944
     61 CB        246.8730  -26.7460   74.7790 C.3       1 PRO        -0.0104
     62 CG        247.2850  -28.1700   74.9660 C.3       1 PRO        -0.0281
     63 CD        247.6020  -28.2880   76.4200 C.3       1 PRO         0.0369
     64 N         246.8050  -23.6950   75.7270 N.am      1 PHE        -0.2677
     65 CA        246.1260  -22.5280   76.2740 C.3       1 PHE         0.1039
     66 C         245.1940  -21.8900   75.2490 C.2       1 PHE         0.0621
     67 O         245.6350  -21.2870   74.2700 O.co2     1 PHE        -0.5664
     68 CB        247.1550  -21.5050   76.7650 C.3       1 PHE         0.0159
     69 CG        246.5520  -20.3240   77.4710 C.ar      1 PHE        -0.0392
     70 CD1       246.1120  -20.4330   78.7790 C.ar      1 PHE        -0.0602
     71 CD2       246.4360  -19.1020   76.8290 C.ar      1 PHE        -0.0602
     72 CE1       245.5600  -19.3480   79.4320 C.ar      1 PHE        -0.0686
     73 CE2       245.8850  -18.0130   77.4760 C.ar      1 PHE        -0.0686
     74 CZ        245.4470  -18.1360   78.7790 C.ar      1 PHE        -0.0687
     75 OXT       243.9710  -21.9590   75.3790 O.co2     1 PHE        -0.5664
     76 H1        260.2482  -15.5445   89.4415 H         1 ASP         0.2016
     77 H2        258.7225  -15.6953   90.0406 H         1 ASP         0.2016
     78 H3        258.9815  -14.8513   88.6513 H         1 ASP         0.2016
     79 H4        259.6823  -16.7820   87.4993 H         1 ASP         0.1117
     80 H5        259.4858  -18.9759   88.5771 H         1 ASP         0.0512
     81 H6        258.9743  -18.1949   90.1117 H         1 ASP         0.0512
     82 H7        258.1496  -17.8142   86.2513 H         1 ARG         0.1885
     83 H8        255.3470  -17.1708   87.0376 H         1 ARG         0.0800
     84 H9        254.9822  -17.3528   84.4699 H         1 ARG         0.0313
     85 H10       256.7708  -17.2271   84.3605 H         1 ARG         0.0313
     86 H11       256.3250  -15.1183   85.9506 H         1 ARG         0.0301
     87 H12       254.7268  -15.1774   85.1325 H         1 ARG         0.0301
     88 H13       257.3213  -15.3040   83.5692 H         1 ARG         0.0689
     89 H14       256.6104  -13.7373   84.0858 H         1 ARG         0.0689
     90 H15       255.3150  -15.7072   82.2215 H         1 ARG         0.2642
     91 H16       254.7177  -11.6857   82.2726 H         1 ARG         0.2615
     92 H17       255.7687  -12.4316   83.5062 H         1 ARG         0.2615
     93 H18       253.9880  -14.7481   80.6580 H         1 ARG         0.2615
     94 H19       253.7244  -12.9838   80.6726 H         1 ARG         0.2615
     95 H20       253.6629  -18.5475   86.4170 H         1 VAL         0.1883
     96 H21       254.4639  -21.3639   85.8269 H         1 VAL         0.0802
     97 H22       251.8726  -20.5234   87.1966 H         1 VAL         0.0343
     98 H23       251.8600  -22.8928   87.9064 H         1 VAL         0.0234
     99 H24       253.3943  -23.1627   87.0122 H         1 VAL         0.0234
    100 H25       251.8983  -22.7270   86.1183 H         1 VAL         0.0234
    101 H26       253.7746  -19.7691   88.5841 H         1 VAL         0.0234
    102 H27       254.4681  -21.4251   88.5268 H         1 VAL         0.0234
    103 H28       252.8939  -21.1384   89.3431 H         1 VAL         0.0234
    104 H29       253.5118  -22.3075   84.0654 H         1 TYR         0.1885
    105 H30       251.5147  -20.6232   82.6256 H         1 TYR         0.0821
    106 H31       252.5270  -21.8684   80.5475 H         1 TYR         0.0453
    107 H32       253.9313  -22.1420   81.6337 H         1 TYR         0.0453
    108 H33       251.7389  -19.4138   80.2800 H         1 TYR         0.0530
    109 H34       255.5678  -20.4874   81.8280 H         1 TYR         0.0530
    110 H35       252.5834  -17.1673   79.7423 H         1 TYR         0.0525
    111 H36       256.4146  -18.2393   81.2936 H         1 TYR         0.0525
    112 H37       254.3267  -15.8059   79.7883 H         1 TYR         0.2458
    113 H38       250.0648  -21.6733   81.2017 H         1 ILE         0.1883
    114 H39       249.6188  -24.5639   81.7897 H         1 ILE         0.0803
    115 H40       247.5751  -22.3369   81.3767 H         1 ILE         0.0345
    116 H41       248.4783  -22.6639   83.6635 H         1 ILE         0.0267
    117 H42       247.9805  -24.3886   83.5992 H         1 ILE         0.0267
    118 H43       246.9511  -24.3147   80.0263 H         1 ILE         0.0235
    119 H44       245.8450  -24.0830   81.4225 H         1 ILE         0.0235
    120 H45       247.1128  -25.3541   81.4823 H         1 ILE         0.0235
    121 H46       246.3791  -23.0382   84.8623 H         1 ILE         0.0230
    122 H47       245.6359  -23.7033   83.3684 H         1 ILE         0.0230
    123 H48       246.1336  -21.9786   83.4327 H         1 ILE         0.0230
    124 H49       249.8551  -25.7987   80.0601 H         1 HIS         0.1885
    125 H50       249.0752  -24.7159   77.4064 H         1 HIS         0.0817
    126 H51       251.6505  -26.2722   77.8708 H         1 HIS         0.0420
    127 H52       251.5691  -24.4808   77.7646 H         1 HIS         0.0420
    128 H53       251.7724  -27.5508   75.4400 H         1 HIS         0.0729
    129 H54       250.9614  -24.1566   72.9955 H         1 HIS         0.1199
    130 H55       251.6330  -26.6239   72.9938 H         1 HIS         0.2361
    131 H56       248.5947  -25.4965   75.2707 H         1 PRO         0.0802
    132 H57       247.0739  -26.4186   73.7483 H         1 PRO         0.0313
    133 H58       245.8029  -26.6218   75.0012 H         1 PRO         0.0313
    134 H59       248.1712  -28.4002   74.3564 H         1 PRO         0.0287
    135 H60       246.4648  -28.8498   74.6920 H         1 PRO         0.0287
    136 H61       246.6936  -28.4802   77.0098 H         1 PRO         0.0524
    137 H62       248.3340  -29.0885   76.6027 H         1 PRO         0.0524
    138 H63       247.2134  -23.6391   74.8159 H         1 PHE         0.1877
    139 H64       245.5205  -22.8533   77.1328 H         1 PHE         0.0749
    140 H65       247.7195  -21.1372   75.8955 H         1 PHE         0.0467
    141 H66       247.8411  -22.0106   77.4604 H         1 PHE         0.0467
    142 H67       246.2017  -21.3810   79.2970 H         1 PHE         0.0557
    143 H68       246.7817  -18.9991   75.8068 H         1 PHE         0.0557
    144 H69       245.2161  -19.4475   80.4552 H         1 PHE         0.0599
    145 H70       245.7968  -17.0632   76.9611 H         1 PHE         0.0599
    146 H71       245.0149  -17.2827   79.2892 H         1 PHE         0.0559
@<TRIPOS>BOND
     1    1    2 1  
     2    2    3 1  
     3    2    5 1  
     4    3    4 2  
     5    3    9 am 
     6    5    6 1  
     7    6    7 ar 
     8    6    8 ar 
     9    9   10 1  
    10   10   11 1  
    11   10   13 1  
    12   11   12 2  
    13   11   20 am 
    14   13   14 1  
    15   14   15 1  
    16   15   16 1  
    17   16   17 ar 
    18   17   18 ar 
    19   17   19 ar 
    20   20   21 1  
    21   21   22 1  
    22   21   24 1  
    23   22   23 2  
    24   22   27 am 
    25   24   25 1  
    26   24   26 1  
    27   27   28 1  
    28   28   29 1  
    29   28   31 1  
    30   29   30 2  
    31   29   39 am 
    32   31   32 1  
    33   32   33 ar 
    34   32   34 ar 
    35   33   35 ar 
    36   34   36 ar 
    37   35   37 ar 
    38   36   37 ar 
    39   37   38 1  
    40   39   40 1  
    41   40   41 1  
    42   40   43 1  
    43   41   42 2  
    44   41   47 am 
    45   43   44 1  
    46   43   45 1  
    47   44   46 1  
    48   47   48 1  
    49   48   49 1  
    50   48   51 1  
    51   49   50 2  
    52   49   57 am 
    53   51   52 1  
    54   52   53 1  
    55   52   54 2  
    56   53   55 2  
    57   54   56 1  
    58   55   56 1  
    59   57   58 1  
    60   57   63 1  
    61   58   59 1  
    62   58   61 1  
    63   59   60 2  
    64   59   64 am 
    65   61   62 1  
    66   62   63 1  
    67   64   65 1  
    68   65   66 1  
    69   65   68 1  
    70   66   67 ar 
    71   66   75 ar 
    72   68   69 1  
    73   69   70 ar 
    74   69   71 ar 
    75   70   72 ar 
    76   71   73 ar 
    77   72   74 ar 
    78   73   74 ar 
    79    1   76 1  
    80    1   77 1  
    81    1   78 1  
    82    2   79 1  
    83    5   80 1  
    84    5   81 1  
    85    9   82 1  
    86   10   83 1  
    87   13   84 1  
    88   13   85 1  
    89   14   86 1  
    90   14   87 1  
    91   15   88 1  
    92   15   89 1  
    93   16   90 1  
    94   18   91 1  
    95   18   92 1  
    96   19   93 1  
    97   19   94 1  
    98   20   95 1  
    99   21   96 1  
   100   24   97 1  
   101   25   98 1  
   102   25   99 1  
   103   25  100 1  
   104   26  101 1  
   105   26  102 1  
   106   26  103 1  
   107   27  104 1  
   108   28  105 1  
   109   31  106 1  
   110   31  107 1  
   111   33  108 1  
   112   34  109 1  
   113   35  110 1  
   114   36  111 1  
   115   38  112 1  
   116   39  113 1  
   117   40  114 1  
   118   43  115 1  
   119   44  116 1  
   120   44  117 1  
   121   45  118 1  
   122   45  119 1  
   123   45  120 1  
   124   46  121 1  
   125   46  122 1  
   126   46  123 1  
   127   47  124 1  
   128   48  125 1  
   129   51  126 1  
   130   51  127 1  
   131   54  128 1  
   132   55  129 1  
   133   56  130 1  
   134   58  131 1  
   135   61  132 1  
   136   61  133 1  
   137   62  134 1  
   138   62  135 1  
   139   63  136 1  
   140   63  137 1  
   141   64  138 1  
   142   65  139 1  
   143   68  140 1  
   144   68  141 1  
   145   70  142 1  
   146   71  143 1  
   147   72  144 1  
   148   73  145 1  
   149   74  146 1  
@<TRIPOS>SUBSTRUCTURE
     1 ASP         1

