4c94_ligand
  -I-interpret- 

 35 37  0  0  0  0  0  0  0  0999 V2000
  -38.2490  -22.6620   -1.1000 O   0  0  0  0  0
  -39.5830  -22.3950   -1.1700 C   0  0  0  0  0
  -40.2230  -23.2120   -2.0670 C   0  0  0  0  0
  -39.3510  -24.0580   -2.6500 O   0  0  0  0  0
  -41.5980  -23.1450   -2.2910 C   0  0  0  0  0
  -40.2690  -21.4040   -0.4430 C   0  0  0  0  0
  -41.6340  -21.3060   -0.6700 C   0  0  0  0  0
  -42.2540  -22.1880   -1.5800 C   0  0  0  0  0
  -43.5430  -22.0610   -1.9030 C   0  0  0  0  0
  -44.3850  -22.2980   -0.8230 O   0  0  0  0  0
  -43.8480  -20.4550   -2.1980 C   0  0  0  0  0
  -43.0090  -19.7900   -3.1610 O   0  0  0  0  0
  -45.1540  -20.2440   -2.7780 C   0  0  0  0  0
  -46.0460  -21.0650   -2.1040 C   0  0  0  0  0
  -45.6960  -22.0640   -1.1710 C   0  0  0  0  0
  -46.6890  -22.7930   -0.5620 C   0  0  0  0  0
  -47.3760  -20.8150   -2.4080 C   0  0  0  0  0
  -47.6300  -19.8150   -3.3370 O   0  0  0  0  0
  -48.3780  -21.5580   -1.8070 C   0  0  0  0  0
  -48.0250  -22.5510   -0.8960 C   0  0  0  0  0
  -48.9970  -23.2980   -0.3090 O   0  0  0  0  0
  -37.8386  -22.0715   -0.4640 H   0  0  0  0  0
  -39.8190  -24.6192   -3.2726 H   0  0  0  0  0
  -42.1101  -23.8111   -2.9854 H   0  0  0  0  0
  -39.7553  -20.7488    0.2605 H   0  0  0  0  0
  -42.2239  -20.5522   -0.1485 H   0  0  0  0  0
  -43.7161  -22.7499   -2.7298 H   0  0  0  0  0
  -43.6934  -20.0525   -1.1969 H   0  0  0  0  0
  -43.2823  -18.8734   -3.2429 H   0  0  0  0  0
  -45.1427  -20.4843   -3.8411 H   0  0  0  0  0
  -45.4498  -19.1993   -2.6822 H   0  0  0  0  0
  -46.4370  -23.5544    0.1761 H   0  0  0  0  0
  -48.5777  -19.7328   -3.4659 H   0  0  0  0  0
  -49.4253  -21.3691   -2.0427 H   0  0  0  0  0
  -49.8553  -23.0180   -0.6355 H   0  0  0  0  0
  1  2  1  0  0  0
  2  3  4  0  0  0
  2  6  4  0  0  0
  3  4  1  0  0  0
  3  5  4  0  0  0
  5  8  4  0  0  0
  6  7  4  0  0  0
  7  8  4  0  0  0
  8  9  1  0  0  0
  9 10  1  0  0  0
  9 11  1  0  0  0
 10 15  1  0  0  0
 11 12  1  0  0  0
 11 13  1  0  0  0
 13 14  1  0  0  0
 14 15  4  0  0  0
 14 17  4  0  0  0
 15 16  4  0  0  0
 16 20  4  0  0  0
 17 18  1  0  0  0
 17 19  4  0  0  0
 19 20  4  0  0  0
 20 21  1  0  0  0
  1 22  1  0  0  0
  4 23  1  0  0  0
  5 24  1  0  0  0
  6 25  1  0  0  0
  7 26  1  0  0  0
  9 27  1  0  0  0
 11 28  1  0  0  0
 12 29  1  0  0  0
 13 30  1  0  0  0
 13 31  1  0  0  0
 16 32  1  0  0  0
 18 33  1  0  0  0
 19 34  1  0  0  0
 21 35  1  0  0  0
M  END
$$$$
