3exh_ligand
  -I-interpret- 

 45 46  0  0  0  0  0  0  0  0999 V2000
  -35.5910   59.8340   18.2730 N   0  0  0  0  0
  -36.3630   60.8080   17.7070 C   0  0  0  0  0
  -36.7100   60.7030   16.2260 C   0  0  0  0  0
  -36.7840   61.8670   18.5180 N   0  0  0  0  0
  -36.4650   61.9530   19.8530 C   0  0  0  0  0
  -36.9290   62.9790   20.5490 N   0  0  0  0  0
  -35.6930   60.9360   20.3950 C   0  0  0  0  0
  -35.2740   59.9100   19.5860 C   0  0  0  0  0
  -35.2610   60.8580   21.8430 C   0  0  0  0  0
  -34.2330   61.8390   22.0630 N   0  3  0  0  0
  -34.6120   63.0970   22.5250 C   0  0  0  0  0
  -33.3330   64.0530   22.7160 S   0  0  0  0  0
  -32.2600   62.9440   22.1900 C   0  0  0  0  0
  -32.8600   61.7300   21.8470 C   0  0  0  0  0
  -32.0990   60.5320   21.3760 C   0  0  0  0  0
  -30.8240   63.3900   22.1410 C   0  0  0  0  0
  -30.7010   64.4200   21.0050 C   0  0  0  0  0
  -29.5640   65.2280   21.2370 O   0  0  0  0  0
  -28.9320   66.4240   20.3610 P   0  0  0  0  0
  -29.5110   66.5620   18.9650 O   0  0  0  0  0
  -27.4460   66.3520   20.3680 O   0  0  0  0  0
  -29.5460   67.7490   21.0430 O   0  0  0  0  0
  -29.2770   68.2870   22.5540 P   0  0  0  0  0
  -27.8410   67.9890   22.8620 O   0  0  0  0  0
  -29.4030   69.7950   22.4560 O   0  0  0  0  0
  -30.2160   67.7140   23.5590 O   0  0  0  0  0
  -35.7921   60.7023   15.6382 H   0  0  0  0  0
  -37.2581   59.7780   16.0473 H   0  0  0  0  0
  -37.3270   61.5540   15.9375 H   0  0  0  0  0
  -37.5092   63.6835   20.0936 H   0  0  0  0  0
  -36.7063   63.0650   21.5407 H   0  0  0  0  0
  -34.6589   59.1218   20.0202 H   0  0  0  0  0
  -34.8795   59.8615   22.0654 H   0  0  0  0  0
  -36.1106   61.0547   22.4969 H   0  0  0  0  0
  -35.6403   63.3945   22.7302 H   0  0  0  0  0
  -32.2404   59.7130   22.0812 H   0  0  0  0  0
  -32.4646   60.2342   20.3933 H   0  0  0  0  0
  -31.0392   60.7786   21.3114 H   0  0  0  0  0
  -30.1659   62.5403   21.9593 H   0  0  0  0  0
  -30.5288   63.8331   23.0921 H   0  0  0  0  0
  -31.5948   65.0431   20.9756 H   0  0  0  0  0
  -30.5965   63.9038   20.0507 H   0  0  0  0  0
  -30.4685   66.6037   19.0196 H   0  0  0  0  0
  -27.2822   68.3795   22.1861 H   0  0  0  0  0
  -28.7840   70.1248   21.8005 H   0  0  0  0  0
  1  2  4  0  0  0
  1  8  4  0  0  0
  2  3  1  0  0  0
  2  4  4  0  0  0
  4  5  4  0  0  0
  5  6  1  0  0  0
  5  7  4  0  0  0
  7  8  4  0  0  0
  7  9  1  0  0  0
  9 10  1  0  0  0
 10 11  4  0  0  0
 10 14  4  0  0  0
 11 12  4  0  0  0
 12 13  4  0  0  0
 13 14  4  0  0  0
 13 16  1  0  0  0
 14 15  1  0  0  0
 16 17  1  0  0  0
 17 18  1  0  0  0
 18 19  1  0  0  0
 19 20  1  0  0  0
 19 21  2  0  0  0
 19 22  1  0  0  0
 22 23  1  0  0  0
 23 24  1  0  0  0
 23 25  1  0  0  0
 23 26  2  0  0  0
  3 27  1  0  0  0
  3 28  1  0  0  0
  3 29  1  0  0  0
  6 30  1  0  0  0
  6 31  1  0  0  0
  8 32  1  0  0  0
  9 33  1  0  0  0
  9 34  1  0  0  0
 11 35  1  0  0  0
 15 36  1  0  0  0
 15 37  1  0  0  0
 15 38  1  0  0  0
 16 39  1  0  0  0
 16 40  1  0  0  0
 17 41  1  0  0  0
 17 42  1  0  0  0
 20 43  1  0  0  0
 24 44  1  0  0  0
 25 45  1  0  0  0
M  END
$$$$
