5o0s_ligand
  -I-interpret- 

 28 29  0  0  0  0  0  0  0  0999 V2000
   57.6330   66.8080   61.5450 C   0  0  0  0  0
   57.1340   66.3270   60.1810 C   0  0  0  0  0
   58.2900   65.9080   59.2430 C   0  0  0  0  0
   59.3290   66.9940   59.1440 C   0  0  0  0  0
   59.9460   67.2900   60.4990 C   0  0  0  0  0
   61.0210   68.3790   60.4560 C   0  0  0  0  0
   58.8680   67.6740   61.5020 C   0  0  0  0  0
   56.6240   67.6830   62.1420 O   0  0  0  0  0
   56.1730   65.2880   60.3110 O   0  0  0  0  0
   57.6990   65.6620   57.9420 O   0  0  0  0  0
   60.3610   66.5780   58.2360 O   0  0  0  0  0
   61.7580   68.3980   61.6860 O   0  0  0  0  0
   58.2920   68.9730   61.1730 O   0  0  0  0  0
   56.9910   69.1870   61.9820 S   0  0  0  0  0
   56.0330   69.8370   61.1260 O   0  0  0  0  0
   57.2140   69.7260   63.2810 O   0  0  0  0  0
   57.8444   65.8898   62.0931 H   0  0  0  0  0
   56.6411   67.1797   59.7141 H   0  0  0  0  0
   58.7922   65.0204   59.6278 H   0  0  0  0  0
   58.8451   67.9009   58.7814 H   0  0  0  0  0
   60.4398   66.3701   60.8120 H   0  0  0  0  0
   60.5416   69.3474   60.3129 H   0  0  0  0  0
   61.7056   68.1716   59.6336 H   0  0  0  0  0
   59.4205   67.6036   62.4389 H   0  0  0  0  0
   55.4694   65.5759   60.8973 H   0  0  0  0  0
   57.0391   64.9688   58.0174 H   0  0  0  0  0
   59.9739   66.3900   57.3778 H   0  0  0  0  0
   62.4279   69.0844   61.6458 H   0  0  0  0  0
  1  2  1  0  0  0
  1  7  1  0  0  0
  1  8  1  0  0  0
  2  3  1  0  0  0
  2  9  1  0  0  0
  3  4  1  0  0  0
  3 10  1  0  0  0
  4  5  1  0  0  0
  4 11  1  0  0  0
  5  6  1  0  0  0
  5  7  1  0  0  0
  6 12  1  0  0  0
  7 13  1  0  0  0
  8 14  1  0  0  0
 13 14  1  0  0  0
 14 15  2  0  0  0
 14 16  2  0  0  0
  1 17  1  0  0  0
  2 18  1  0  0  0
  3 19  1  0  0  0
  4 20  1  0  0  0
  5 21  1  0  0  0
  6 22  1  0  0  0
  6 23  1  0  0  0
  7 24  1  0  0  0
  9 25  1  0  0  0
 10 26  1  0  0  0
 11 27  1  0  0  0
 12 28  1  0  0  0
M  END
$$$$
