2b54_ligand
  -I-interpret- 

 45 48  0  0  0  0  0  0  0  0999 V2000
  120.4880  -84.9370   91.8640 N   0  0  0  0  0
  119.8170  -83.7510   91.7590 C   0  0  0  0  0
  119.0250  -83.2370   92.7230 N   0  0  0  0  0
  118.9100  -83.9470   93.8720 C   0  0  0  0  0
  119.5950  -85.1780   94.0530 C   0  0  0  0  0
  120.3910  -85.6520   93.0220 C   0  0  0  0  0
  118.1280  -83.6850   94.9940 N   0  0  0  0  0
  118.3150  -84.6860   95.9240 N   0  0  0  0  0
  119.1800  -85.5810   95.3970 C   0  0  0  0  0
  120.9500  -86.7440   93.1570 O   0  0  0  0  0
  117.1590  -82.6290   95.1030 C   0  0  0  0  0
  115.8170  -82.9780   95.0730 C   0  0  0  0  0
  117.4390  -81.2680   95.3240 C   0  0  0  0  0
  114.7870  -82.0250   95.2710 C   0  0  0  0  0
  116.4300  -80.3100   95.5160 C   0  0  0  0  0
  115.0850  -80.6670   95.5030 C   0  0  0  0  0
  113.8350  -79.4270   95.8390 Cl  0  0  0  0  0
  119.4830  -86.8030   96.2130 C   0  0  0  0  0
  118.5470  -87.9520   95.8440 C   0  0  0  0  0
  119.8960  -82.9560   90.4600 C   0  0  0  0  0
  115.4420  -84.6380   94.6820 Cl  0  0  0  0  0
  119.0390  -80.6500   95.3620 Cl  0  0  0  0  0
  121.1780  -82.1590   90.2770 C   0  0  0  0  0
  121.2510  -80.7890   90.6320 C   0  0  0  0  0
  122.4970  -80.1090   90.5020 C   0  0  0  0  0
  123.6280  -80.7940   90.0260 C   0  0  0  0  0
  123.5380  -82.1500   89.6390 C   0  0  0  0  0
  122.3090  -82.8190   89.7670 C   0  0  0  0  0
  122.6550  -78.7760   90.8720 O   0  0  0  0  0
  124.8550  -80.1440   89.9950 O   0  0  0  0  0
  121.0529  -85.2825   91.0882 H   0  0  0  0  0
  113.7462  -82.3478   95.2434 H   0  0  0  0  0
  116.7055  -79.2679   95.6781 H   0  0  0  0  0
  119.3444  -86.5633   97.2672 H   0  0  0  0  0
  120.5098  -87.1105   96.0150 H   0  0  0  0  0
  117.5156  -87.6529   96.0304 H   0  0  0  0  0
  118.6710  -88.1954   94.7888 H   0  0  0  0  0
  118.7887  -88.8249   96.4504 H   0  0  0  0  0
  119.0766  -82.2374   90.4785 H   0  0  0  0  0
  119.8529  -83.6777   89.6442 H   0  0  0  0  0
  120.3689  -80.2639   90.9984 H   0  0  0  0  0
  124.4112  -82.6707   89.2460 H   0  0  0  0  0
  122.2318  -83.8640   89.4667 H   0  0  0  0  0
  123.5612  -78.5049   90.7082 H   0  0  0  0  0
  125.5227  -80.7397   89.6473 H   0  0  0  0  0
  1  2  1  0  0  0
  1  6  1  0  0  0
  2  3  2  0  0  0
  2 20  1  0  0  0
  3  4  1  0  0  0
  4  5  4  0  0  0
  4  7  4  0  0  0
  5  6  1  0  0  0
  5  9  4  0  0  0
  6 10  2  0  0  0
  7  8  4  0  0  0
  7 11  1  0  0  0
  8  9  4  0  0  0
  9 18  1  0  0  0
 11 12  4  0  0  0
 11 13  4  0  0  0
 12 14  4  0  0  0
 12 21  1  0  0  0
 13 15  4  0  0  0
 13 22  1  0  0  0
 14 16  4  0  0  0
 15 16  4  0  0  0
 16 17  1  0  0  0
 18 19  1  0  0  0
 20 23  1  0  0  0
 23 24  4  0  0  0
 23 28  4  0  0  0
 24 25  4  0  0  0
 25 26  4  0  0  0
 25 29  1  0  0  0
 26 27  4  0  0  0
 26 30  1  0  0  0
 27 28  4  0  0  0
  1 31  1  0  0  0
 14 32  1  0  0  0
 15 33  1  0  0  0
 18 34  1  0  0  0
 18 35  1  0  0  0
 19 36  1  0  0  0
 19 37  1  0  0  0
 19 38  1  0  0  0
 20 39  1  0  0  0
 20 40  1  0  0  0
 24 41  1  0  0  0
 27 42  1  0  0  0
 28 43  1  0  0  0
 29 44  1  0  0  0
 30 45  1  0  0  0
M  END
$$$$
