5edi_ligand
  -I-interpret- 

 47 50  0  0  0  0  0  0  0  0999 V2000
   91.0320   -7.9310   16.8210 C   0  0  0  0  0
   91.8210   -6.8510   16.4270 C   0  0  0  0  0
   90.8710   -9.1040   15.9580 C   0  0  0  0  0
   92.3270   -8.0750   14.2910 C   0  0  0  0  0
   91.5390  -10.0560   13.6750 N   0  0  0  0  0
   92.6540  -10.2880   11.3650 C   0  0  0  0  0
   93.5440  -11.5020   11.7510 C   0  0  0  0  0
   94.1810  -14.2500    6.1790 C   0  0  0  0  0
   93.1320  -14.7190    5.2250 C   0  0  0  0  0
   91.9150  -14.9110    6.0200 C   0  0  0  0  0
   92.1210  -14.1150    7.2750 C   0  0  0  0  0
   96.4280  -11.8400   10.7290 C   0  0  0  0  0
   90.0020  -10.3390   16.3200 C   0  0  0  0  0
   93.3690   -5.6630   14.7580 C   0  0  0  0  0
   92.4940   -6.8640   15.1520 C   0  0  0  0  0
   91.5410   -9.1080   14.6520 N   0  0  0  0  0
   92.8040   -8.3920   13.0630 N   0  0  0  0  0
   92.3290   -9.5800   12.6820 C   0  0  0  0  0
   93.9720  -12.1330   10.4530 C   0  0  0  0  0
   93.1560  -12.6330    9.5450 N   0  0  0  0  0
   93.9230  -13.0660    8.5260 C   0  0  0  0  0
   95.1640  -12.8440    8.8100 N   0  0  0  0  0
   95.2160  -12.2630   10.0290 N   0  0  0  0  0
   93.4600  -13.7040    7.2800 N   0  0  0  0  0
   90.2690   -7.8440   18.3790 Cl  0  0  0  0  0
   91.9298   -5.9908   17.0876 H   0  0  0  0  0
   91.7477  -10.6064   10.8499 H   0  0  0  0  0
   93.1675   -9.6224   10.6712 H   0  0  0  0  0
   92.9967  -12.2106   12.3726 H   0  0  0  0  0
   94.4057  -11.1880   12.3400 H   0  0  0  0  0
   94.8415  -13.5126    5.7229 H   0  0  0  0  0
   94.8377  -15.0628    6.4891 H   0  0  0  0  0
   93.4318  -15.6450    4.7343 H   0  0  0  0  0
   92.9713  -13.9926    4.4284 H   0  0  0  0  0
   91.7461  -15.9650    6.2407 H   0  0  0  0  0
   91.0295  -14.5780    5.4786 H   0  0  0  0  0
   91.8976  -14.7167    8.1560 H   0  0  0  0  0
   91.4521  -13.2548    7.3019 H   0  0  0  0  0
   96.3912  -10.7639   10.8987 H   0  0  0  0  0
   96.4929  -12.3580   11.6859 H   0  0  0  0  0
   97.3002  -12.0839   10.1225 H   0  0  0  0  0
   90.3773  -10.7889   17.2392 H   0  0  0  0  0
   88.9682  -10.0248   16.4635 H   0  0  0  0  0
   90.0527  -11.0672   15.5105 H   0  0  0  0  0
   92.7572   -4.7612   14.7354 H   0  0  0  0  0
   94.1689   -5.5427   15.4886 H   0  0  0  0  0
   93.7992   -5.8366   13.7716 H   0  0  0  0  0
  2  1  4  0  0  0
  3  1  4  0  0  0
  1 25  1  0  0  0
 15  2  4  0  0  0
  3 13  1  0  0  0
 16  3  4  0  0  0
  4 15  4  0  0  0
  4 16  4  0  0  0
 17  4  4  0  0  0
  5 16  4  0  0  0
 18  5  4  0  0  0
  7  6  1  0  0  0
  6 18  1  0  0  0
 19  7  1  0  0  0
  8  9  1  0  0  0
 24  8  1  0  0  0
 10  9  1  0  0  0
 11 10  1  0  0  0
 24 11  1  0  0  0
 23 12  1  0  0  0
 15 14  1  0  0  0
 18 17  4  0  0  0
 20 19  4  0  0  0
 19 23  4  0  0  0
 21 20  4  0  0  0
 21 22  4  0  0  0
 21 24  1  0  0  0
 22 23  4  0  0  0
  2 26  1  0  0  0
  6 27  1  0  0  0
  6 28  1  0  0  0
  7 29  1  0  0  0
  7 30  1  0  0  0
  8 31  1  0  0  0
  8 32  1  0  0  0
  9 33  1  0  0  0
  9 34  1  0  0  0
 10 35  1  0  0  0
 10 36  1  0  0  0
 11 37  1  0  0  0
 11 38  1  0  0  0
 12 39  1  0  0  0
 12 40  1  0  0  0
 12 41  1  0  0  0
 13 42  1  0  0  0
 13 43  1  0  0  0
 13 44  1  0  0  0
 14 45  1  0  0  0
 14 46  1  0  0  0
 14 47  1  0  0  0
M  END
$$$$
