4awg_ligand
  -I-interpret- 

 54 56  0  0  0  0  0  0  0  0999 V2000
  -25.1320  -19.9040   21.3950 Cl  0  0  0  0  0
  -23.7910  -19.8130   22.5690 C   0  0  0  0  0
  -24.0750  -19.7480   23.9380 C   0  0  0  0  0
  -23.0090  -19.6660   24.8330 C   0  0  0  0  0
  -22.4850  -19.8010   22.0780 C   0  0  0  0  0
  -21.4470  -19.7120   22.9820 C   0  0  0  0  0
  -21.7070  -19.6540   24.3480 C   0  0  0  0  0
  -20.5460  -19.5290   25.2870 C   0  0  0  0  0
  -20.2050  -18.0480   25.5680 C   0  0  0  0  0
  -18.8640  -17.9840   26.3360 C   0  0  0  0  0
  -19.9920  -17.2900   24.2630 C   0  0  0  0  0
  -18.8780  -17.3100   23.7680 O   0  0  0  0  0
  -21.0550  -16.6050   23.4920 C   0  0  0  0  0
  -20.7930  -16.2000   22.2160 C   0  0  0  0  0
  -19.5820  -16.3260   21.6290 O   0  0  0  0  0
  -21.8650  -15.5690   21.4560 C   0  0  0  0  0
  -21.3820  -17.4380   26.3700 C   0  0  0  0  0
  -21.6600  -15.2360   20.2610 O   0  0  0  0  0
  -22.9730  -15.3830   22.0190 O   0  0  0  0  0
  -21.0500  -16.1910   27.1990 C   0  0  0  0  0
  -19.6090  -16.1250   27.6820 C   0  0  0  0  0
  -19.0410  -17.4920   27.7110 N   0  3  0  0  0
  -17.7440  -17.5280   28.4740 C   0  0  0  0  0
  -17.6450  -18.8670   29.1560 C   0  0  0  0  0
  -16.9210  -19.8970   28.5530 C   0  0  0  0  0
  -16.8820  -21.1390   29.1580 C   0  0  0  0  0
  -17.5690  -21.3400   30.3540 C   0  0  0  0  0
  -18.2960  -20.3090   30.9590 C   0  0  0  0  0
  -18.3330  -19.0600   30.3480 C   0  0  0  0  0
  -25.1045  -19.7612   24.2958 H   0  0  0  0  0
  -23.1957  -19.6117   25.9055 H   0  0  0  0  0
  -22.2900  -19.8604   21.0072 H   0  0  0  0  0
  -20.4176  -19.6870   22.6246 H   0  0  0  0  0
  -19.6779  -20.0033   24.8292 H   0  0  0  0  0
  -20.8100  -20.0083   26.2297 H   0  0  0  0  0
  -18.2018  -17.2963   25.8100 H   0  0  0  0  0
  -18.4500  -18.9911   26.3845 H   0  0  0  0  0
  -22.0334  -16.4269   23.9381 H   0  0  0  0  0
  -19.6231  -15.9780   20.7352 H   0  0  0  0  0
  -21.7006  -18.2026   27.0785 H   0  0  0  0  0
  -22.1274  -17.1304   25.6366 H   0  0  0  0  0
  -20.7587  -15.4597   20.0178 H   0  0  0  0  0
  -21.6842  -16.2171   28.0851 H   0  0  0  0  0
  -21.2124  -15.3260   26.5559 H   0  0  0  0  0
  -19.5786  -15.6954   28.6833 H   0  0  0  0  0
  -19.0251  -15.5010   27.0054 H   0  0  0  0  0
  -19.6926  -18.1072   28.1982 H   0  0  0  0  0
  -17.7176  -16.7259   29.2116 H   0  0  0  0  0
  -16.9028  -17.3870   27.7953 H   0  0  0  0  0
  -16.3924  -19.7237   27.6156 H   0  0  0  0  0
  -16.3189  -21.9543   28.7038 H   0  0  0  0  0
  -17.5392  -22.3211   30.8280 H   0  0  0  0  0
  -18.8258  -20.4821   31.8957 H   0  0  0  0  0
  -18.8951  -18.2421   30.7988 H   0  0  0  0  0
  1  2  1  0  0  0
  2  3  4  0  0  0
  2  5  4  0  0  0
  3  4  4  0  0  0
  4  7  4  0  0  0
  5  6  4  0  0  0
  6  7  4  0  0  0
  7  8  1  0  0  0
  8  9  1  0  0  0
  9 10  1  0  0  0
  9 11  1  0  0  0
  9 17  1  0  0  0
 10 22  1  0  0  0
 11 12  2  0  0  0
 11 13  1  0  0  0
 13 14  2  0  0  0
 14 15  1  0  0  0
 14 16  1  0  0  0
 16 18  1  0  0  0
 16 19  2  0  0  0
 17 20  1  0  0  0
 20 21  1  0  0  0
 21 22  1  0  0  0
 22 23  1  0  0  0
 23 24  1  0  0  0
 24 25  4  0  0  0
 24 29  4  0  0  0
 25 26  4  0  0  0
 26 27  4  0  0  0
 27 28  4  0  0  0
 28 29  4  0  0  0
  3 30  1  0  0  0
  4 31  1  0  0  0
  5 32  1  0  0  0
  6 33  1  0  0  0
  8 34  1  0  0  0
  8 35  1  0  0  0
 10 36  1  0  0  0
 10 37  1  0  0  0
 13 38  1  0  0  0
 15 39  1  0  0  0
 17 40  1  0  0  0
 17 41  1  0  0  0
 18 42  1  0  0  0
 20 43  1  0  0  0
 20 44  1  0  0  0
 21 45  1  0  0  0
 21 46  1  0  0  0
 22 47  1  0  0  0
 23 48  1  0  0  0
 23 49  1  0  0  0
 25 50  1  0  0  0
 26 51  1  0  0  0
 27 52  1  0  0  0
 28 53  1  0  0  0
 29 54  1  0  0  0
M  END
$$$$
