### 
### Created by X-TOOL on Mon Sep 10 21:13:10 2018
### 

@<TRIPOS>MOLECULE
4awg_ligand
   52    54     1     0     0
SMALL
GAST_HUCK


@<TRIPOS>ATOM
      1 CL        -25.1320  -19.9040   21.3950 Cl        1 CI3        -0.0771
      2 CZB       -23.7910  -19.8130   22.5690 C.ar      1 CI3         0.0330
      3 CEA       -24.0750  -19.7480   23.9380 C.ar      1 CI3        -0.0546
      4 CDA       -23.0090  -19.6660   24.8330 C.ar      1 CI3        -0.0599
      5 CEB       -22.4850  -19.8010   22.0780 C.ar      1 CI3        -0.0546
      6 CDB       -21.4470  -19.7120   22.9820 C.ar      1 CI3        -0.0599
      7 CGA       -21.7070  -19.6540   24.3480 C.ar      1 CI3        -0.0434
      8 CO        -20.5460  -19.5290   25.2870 C.3       1 CI3        -0.0110
      9 CF        -20.2050  -18.0480   25.5680 C.3       1 CI3         0.0204
     10 CH        -18.8640  -17.9840   26.3360 C.3       1 CI3        -0.0989
     11 CB        -19.9920  -17.2900   24.2630 C.2       1 CI3         0.1256
     12 O13       -18.8780  -17.3100   23.7680 O.2       1 CI3        -0.3516
     13 CM        -21.0550  -16.6050   23.4920 C.2       1 CI3         0.0206
     14 CA        -20.7930  -16.2000   22.2160 C.2       1 CI3         0.1460
     15 O14       -19.5820  -16.3260   21.6290 O.3       1 CI3        -0.3094
     16 CE        -21.8650  -15.5690   21.4560 C.2       1 CI3         0.1137
     17 CG        -21.3820  -17.4380   26.3700 C.3       1 CI3        -0.0451
     18 OAO       -21.6600  -15.2360   20.2610 O.co2     1 CI3        -0.5508
     19 OAN       -22.9730  -15.3830   22.0190 O.co2     1 CI3        -0.5508
     20 CK        -21.0500  -16.1910   27.1990 C.3       1 CI3        -0.0720
     21 CI        -19.6090  -16.1250   27.6820 C.3       1 CI3        -0.1107
     22 NJ        -19.0410  -17.4920   27.7110 N.4       1 CI3         0.4077
     23 CP        -17.7440  -17.5280   28.4740 C.3       1 CI3        -0.0765
     24 CGB       -17.6450  -18.8670   29.1560 C.ar      1 CI3        -0.0632
     25 CD1       -16.9210  -19.8970   28.5530 C.ar      1 CI3        -0.0623
     26 CE1       -16.8820  -21.1390   29.1580 C.ar      1 CI3        -0.0686
     27 CZ        -17.5690  -21.3400   30.3540 C.ar      1 CI3        -0.0687
     28 CE2       -18.2960  -20.3090   30.9590 C.ar      1 CI3        -0.0686
     29 CD2       -18.3330  -19.0600   30.3480 C.ar      1 CI3        -0.0623
     30 H         -25.1045  -19.7612   24.2958 H         1 CI3         0.0606
     31 H         -23.1957  -19.6117   25.9055 H         1 CI3         0.0557
     32 H         -22.2900  -19.8604   21.0072 H         1 CI3         0.0606
     33 H         -20.4176  -19.6870   22.6246 H         1 CI3         0.0557
     34 H         -19.6779  -20.0033   24.8292 H         1 CI3         0.0417
     35 H         -20.8100  -20.0083   26.2297 H         1 CI3         0.0417
     36 H         -18.2018  -17.2963   25.8100 H         1 CI3         0.0012
     37 H         -18.4500  -18.9911   26.3845 H         1 CI3         0.0012
     38 H         -22.0334  -16.4269   23.9381 H         1 CI3         0.0456
     39 H         -18.9298  -15.8356   22.1349 H         1 CI3         0.2615
     40 H         -21.7006  -18.2026   27.0785 H         1 CI3         0.0256
     41 H         -22.1274  -17.1304   25.6366 H         1 CI3         0.0256
     42 H         -21.6842  -16.2171   28.0851 H         1 CI3         0.0244
     43 H         -21.2124  -15.3260   26.5559 H         1 CI3         0.0244
     44 H         -19.5786  -15.6954   28.6833 H         1 CI3         0.0020
     45 H         -19.0251  -15.5010   27.0054 H         1 CI3         0.0020
     46 H         -17.7176  -16.7259   29.2116 H         1 CI3         0.0182
     47 H         -16.9028  -17.3870   27.7953 H         1 CI3         0.0182
     48 H         -16.3924  -19.7237   27.6156 H         1 CI3         0.0556
     49 H         -16.3189  -21.9543   28.7038 H         1 CI3         0.0599
     50 H         -17.5392  -22.3211   30.8280 H         1 CI3         0.0559
     51 H         -18.8258  -20.4821   31.8957 H         1 CI3         0.0599
     52 H         -18.8951  -18.2421   30.7988 H         1 CI3         0.0556
@<TRIPOS>BOND
     1    1    2 1  
     2    2    3 ar 
     3    2    5 ar 
     4    3    4 ar 
     5    4    7 ar 
     6    5    6 ar 
     7    6    7 ar 
     8    7    8 1  
     9    8    9 1  
    10    9   10 1  
    11    9   11 1  
    12    9   17 1  
    13   10   22 1  
    14   11   12 2  
    15   11   13 1  
    16   13   14 2  
    17   14   15 1  
    18   14   16 1  
    19   16   18 ar 
    20   16   19 ar 
    21   17   20 1  
    22   20   21 1  
    23   21   22 1  
    24   22   23 1  
    25   23   24 1  
    26   24   25 ar 
    27   24   29 ar 
    28   25   26 ar 
    29   26   27 ar 
    30   27   28 ar 
    31   28   29 ar 
    32    3   30 1  
    33    4   31 1  
    34    5   32 1  
    35    6   33 1  
    36    8   34 1  
    37    8   35 1  
    38   10   36 1  
    39   10   37 1  
    40   13   38 1  
    41   15   39 1  
    42   17   40 1  
    43   17   41 1  
    44   20   42 1  
    45   20   43 1  
    46   21   44 1  
    47   21   45 1  
    48   23   46 1  
    49   23   47 1  
    50   25   48 1  
    51   26   49 1  
    52   27   50 1  
    53   28   51 1  
    54   29   52 1  
@<TRIPOS>SUBSTRUCTURE
     1 CI3         1

