2qbu_ligand
  -I-interpret- 

 47 49  0  0  0  0  0  0  0  0999 V2000
  -23.9480   37.0590    1.5440 N   0  3  0  0  0
  -24.1450   37.4690    0.1270 C   0  0  0  0  0
  -23.3240   36.5830   -0.8190 C   0  0  0  0  0
  -21.8440   36.9270   -0.9690 C   0  0  0  0  0
  -21.0200   35.7910   -2.1240 S   0  0  0  0  0
  -25.6320   37.3640   -0.2130 C   0  0  0  0  0
  -26.4350   36.9130    0.5730 O   0  0  0  0  0
  -26.0730   37.7170   -1.2930 O   0  0  0  0  0
  -20.6820   37.0290   -3.4100 C   0  0  0  0  0
  -21.5490   36.7020   -4.6100 C   0  0  0  0  0
  -22.8610   37.1320   -4.3130 O   0  0  0  0  0
  -21.1630   37.3380   -5.9390 C   0  0  0  0  0
  -20.2190   36.5700   -6.6580 O   0  0  0  0  0
  -22.5120   37.3730   -6.6410 C   0  0  0  0  0
  -22.8050   36.1490   -7.3200 O   0  0  0  0  0
  -23.5010   37.5790   -5.4900 C   0  0  0  0  0
  -23.9040   39.0040   -5.2880 N   0  0  0  0  0
  -23.7890   39.7480   -4.1380 C   0  0  0  0  0
  -24.2980   40.9890   -4.3490 N   0  0  0  0  0
  -24.7040   41.0510   -5.6240 C   0  0  0  0  0
  -25.2890   42.0690   -6.3540 C   0  0  0  0  0
  -25.5290   43.2510   -5.7810 N   0  0  0  0  0
  -25.6270   41.8140   -7.6600 N   0  0  0  0  0
  -25.3980   40.5970   -8.2590 C   0  0  0  0  0
  -24.8180   39.5900   -7.5310 N   0  0  0  0  0
  -24.4820   39.8150   -6.2270 C   0  0  0  0  0
  -22.9583   37.1254    1.7815 H   0  0  0  0  0
  -24.4870   37.6747    2.1529 H   0  0  0  0  0
  -24.2642   36.0969    1.6654 H   0  0  0  0  0
  -23.8048   38.4968    0.0008 H   0  0  0  0  0
  -23.7638   36.7116   -1.8080 H   0  0  0  0  0
  -23.3575   35.5794   -0.3950 H   0  0  0  0  0
  -21.3655   36.8394    0.0065 H   0  0  0  0  0
  -21.7601   37.9414   -1.3589 H   0  0  0  0  0
  -25.3565   38.0560   -1.8346 H   0  0  0  0  0
  -19.6283   37.0069   -3.6880 H   0  0  0  0  0
  -20.9096   38.0290   -3.0408 H   0  0  0  0  0
  -21.4303   35.6286   -4.7579 H   0  0  0  0  0
  -20.6748   38.3073   -5.8381 H   0  0  0  0  0
  -20.0105   37.0127   -7.4839 H   0  0  0  0  0
  -22.5496   38.1465   -7.4081 H   0  0  0  0  0
  -23.6624   36.2181   -7.7462 H   0  0  0  0  0
  -24.4108   37.0278   -5.7280 H   0  0  0  0  0
  -23.3562   39.3962   -3.2015 H   0  0  0  0  0
  -25.2807   43.4037   -4.8035 H   0  0  0  0  0
  -25.9606   44.0012   -6.3208 H   0  0  0  0  0
  -25.6745   40.4349   -9.3008 H   0  0  0  0  0
  1  2  1  0  0  0
  2  3  1  0  0  0
  2  6  1  0  0  0
  3  4  1  0  0  0
  4  5  1  0  0  0
  5  9  1  0  0  0
  6  7  2  0  0  0
  6  8  1  0  0  0
  9 10  1  0  0  0
 10 11  1  0  0  0
 10 12  1  0  0  0
 11 16  1  0  0  0
 12 13  1  0  0  0
 12 14  1  0  0  0
 14 15  1  0  0  0
 14 16  1  0  0  0
 16 17  1  0  0  0
 17 18  4  0  0  0
 17 26  4  0  0  0
 18 19  4  0  0  0
 19 20  4  0  0  0
 20 21  4  0  0  0
 20 26  4  0  0  0
 21 22  1  0  0  0
 21 23  4  0  0  0
 23 24  4  0  0  0
 24 25  4  0  0  0
 25 26  4  0  0  0
  1 27  1  0  0  0
  1 28  1  0  0  0
  1 29  1  0  0  0
  2 30  1  0  0  0
  3 31  1  0  0  0
  3 32  1  0  0  0
  4 33  1  0  0  0
  4 34  1  0  0  0
  8 35  1  0  0  0
  9 36  1  0  0  0
  9 37  1  0  0  0
 10 38  1  0  0  0
 12 39  1  0  0  0
 13 40  1  0  0  0
 14 41  1  0  0  0
 15 42  1  0  0  0
 16 43  1  0  0  0
 18 44  1  0  0  0
 22 45  1  0  0  0
 22 46  1  0  0  0
 24 47  1  0  0  0
M  END
$$$$
