6hu1_ligand
  -I-interpret- 

 31 32  0  0  0  0  0  0  0  0999 V2000
   43.4180   36.3290   87.5040 N   0  0  0  0  0
   44.0620   37.4130   88.0110 C   0  0  0  0  0
   42.5090   38.8120   91.7410 C   0  0  0  0  0
   44.3240   38.6860   90.2150 C   0  0  0  0  0
   43.5570   37.9270   89.3300 C   0  0  0  0  0
   41.7250   38.0590   90.9020 C   0  0  0  0  0
   44.8430   33.6300   84.5960 C   0  0  0  0  0
   45.3920   33.6080   85.8740 C   0  0  0  0  0
   44.9320   34.5160   86.8270 C   0  0  0  0  0
   43.9290   35.4370   86.5190 C   0  0  0  0  0
   43.4130   35.4400   85.2200 C   0  0  0  0  0
   43.8610   34.5440   84.2690 C   0  0  0  0  0
   46.4540   32.6140   86.2390 C   0  0  0  0  0
   43.8100   39.1320   91.4180 C   0  0  0  0  0
   42.2520   37.6210   89.7030 C   0  0  0  0  0
   46.5450   31.5280   85.4760 N   0  0  0  0  0
   45.0160   37.9450   87.4520 O   0  0  0  0  0
   47.5120   30.5610   85.7440 O   0  0  0  0  0
   47.1890   32.8030   87.2030 O   0  0  0  0  0
   45.9660   39.1020   89.8430 Cl  0  0  0  0  0
   41.8390   39.3940   93.2410 Cl  0  0  0  0  0
   42.2090   36.6060   84.7670 Cl  0  0  0  0  0
   42.4825   36.1368   87.8621 H   0  0  0  0  0
   40.7004   37.8103   91.1787 H   0  0  0  0  0
   45.1911   32.9195   83.8462 H   0  0  0  0  0
   45.3624   34.5066   87.8284 H   0  0  0  0  0
   43.4406   34.5584   83.2634 H   0  0  0  0  0
   44.4216   39.7251   92.0979 H   0  0  0  0  0
   41.6325   37.0229   89.0347 H   0  0  0  0  0
   45.9047   31.4027   84.6920 H   0  0  0  0  0
   47.4387   29.8504   85.1027 H   0  0  0  0  0
  1  2  1  0  0  0
 10  1  1  0  0  0
  2  5  1  0  0  0
  2 17  2  0  0  0
  6  3  4  0  0  0
 14  3  4  0  0  0
  3 21  1  0  0  0
  5  4  4  0  0  0
  4 14  4  0  0  0
  4 20  1  0  0  0
  5 15  4  0  0  0
 15  6  4  0  0  0
  8  7  4  0  0  0
  7 12  4  0  0  0
  9  8  4  0  0  0
  8 13  1  0  0  0
  9 10  4  0  0  0
 10 11  4  0  0  0
 11 12  4  0  0  0
 11 22  1  0  0  0
 13 16  1  0  0  0
 13 19  2  0  0  0
 16 18  1  0  0  0
  1 23  1  0  0  0
  6 24  1  0  0  0
  7 25  1  0  0  0
  9 26  1  0  0  0
 12 27  1  0  0  0
 14 28  1  0  0  0
 15 29  1  0  0  0
 16 30  1  0  0  0
 18 31  1  0  0  0
M  END
$$$$
