4eej_ligand
  -I-interpret- 

 50 50  0  0  0  0  0  0  0  0999 V2000
   -7.9290   -0.3080   -7.6190 C   0  0  0  0  0
   -8.8400   -0.0870   -6.4560 C   0  0  0  0  0
   -8.5110    1.2640   -5.9100 C   0  0  0  0  0
   -9.0430    2.2390   -6.9140 C   0  0  0  0  0
   -8.3760    2.0710   -8.2230 C   0  0  0  0  0
   -7.8780    0.8910   -8.5790 C   0  0  0  0  0
   -7.2560    0.7970   -9.9160 C   0  0  0  0  0
   -6.5050   -0.2210  -10.3120 C   0  0  0  0  0
   -5.9740   -0.2080  -11.6610 C   0  0  0  0  0
   -5.1350   -1.1670  -12.0330 C   0  0  0  0  0
   -4.5460   -1.2520  -13.3660 C   0  0  0  0  0
   -3.8720   -2.3510  -13.6930 C   0  0  0  0  0
   -3.2330   -2.6370  -14.9700 C   0  0  0  0  0
   -2.3010   -3.5730  -15.1410 C   0  0  0  0  0
   -1.5950   -3.9660  -16.3350 C   0  0  0  0  0
   -6.5480   -0.4900   -6.9880 C   0  0  0  0  0
   -8.4180   -1.6030   -8.1840 C   0  0  0  0  0
   -8.3110    3.3280   -9.0330 C   0  0  0  0  0
   -6.4120    0.8790  -12.5870 C   0  0  0  0  0
   -3.7070   -1.8150  -16.0880 C   0  0  0  0  0
   -8.7003   -0.8585   -5.6988 H   0  0  0  0  0
   -9.8845   -0.1400   -6.7630 H   0  0  0  0  0
   -7.4378    1.3860   -5.7633 H   0  0  0  0  0
   -8.9568    1.4180   -4.9273 H   0  0  0  0  0
   -8.8540    3.2500   -6.5530 H   0  0  0  0  0
  -10.1110    2.0617   -7.0410 H   0  0  0  0  0
   -7.4247    1.6133  -10.6184 H   0  0  0  0  0
   -6.2912   -1.0503   -9.6377 H   0  0  0  0  0
   -4.8715   -1.9327  -11.3034 H   0  0  0  0  0
   -4.6561   -0.4334  -14.0772 H   0  0  0  0  0
   -3.7891   -3.1188  -12.9238 H   0  0  0  0  0
   -2.0310   -4.1260  -14.2414 H   0  0  0  0  0
   -2.3104   -4.3102  -17.0819 H   0  0  0  0  0
   -1.0419   -3.1121  -16.7262 H   0  0  0  0  0
   -0.9008   -4.7718  -16.0965 H   0  0  0  0  0
   -6.6101   -1.2268   -6.1871 H   0  0  0  0  0
   -5.8458   -0.8348   -7.7470 H   0  0  0  0  0
   -6.2072    0.4623   -6.5817 H   0  0  0  0  0
   -7.7214   -1.9513   -8.9466 H   0  0  0  0  0
   -8.4858   -2.3432   -7.3868 H   0  0  0  0  0
   -9.4020   -1.4553   -8.6291 H   0  0  0  0  0
   -7.2682    3.5902   -9.2114 H   0  0  0  0  0
   -8.8157    3.1709   -9.9863 H   0  0  0  0  0
   -8.8020    4.1350   -8.4891 H   0  0  0  0  0
   -5.5407    1.4410  -12.9234 H   0  0  0  0  0
   -6.9172    0.4400  -13.4473 H   0  0  0  0  0
   -7.0966    1.5465  -12.0636 H   0  0  0  0  0
   -2.8694   -1.2589  -16.5091 H   0  0  0  0  0
   -4.1385   -2.4595  -16.8538 H   0  0  0  0  0
   -4.4641   -1.1178  -15.7292 H   0  0  0  0  0
  1  2  1  0  0  0
  1  6  1  0  0  0
  1 16  1  0  0  0
  1 17  1  0  0  0
  2  3  1  0  0  0
  3  4  1  0  0  0
  4  5  1  0  0  0
  5  6  2  0  0  0
  5 18  1  0  0  0
  6  7  1  0  0  0
  7  8  2  0  0  0
  8  9  1  0  0  0
  9 10  2  0  0  0
  9 19  1  0  0  0
 10 11  1  0  0  0
 11 12  2  0  0  0
 12 13  1  0  0  0
 13 14  2  0  0  0
 13 20  1  0  0  0
 14 15  1  0  0  0
  2 21  1  0  0  0
  2 22  1  0  0  0
  3 23  1  0  0  0
  3 24  1  0  0  0
  4 25  1  0  0  0
  4 26  1  0  0  0
  7 27  1  0  0  0
  8 28  1  0  0  0
 10 29  1  0  0  0
 11 30  1  0  0  0
 12 31  1  0  0  0
 14 32  1  0  0  0
 15 33  1  0  0  0
 15 34  1  0  0  0
 15 35  1  0  0  0
 16 36  1  0  0  0
 16 37  1  0  0  0
 16 38  1  0  0  0
 17 39  1  0  0  0
 17 40  1  0  0  0
 17 41  1  0  0  0
 18 42  1  0  0  0
 18 43  1  0  0  0
 18 44  1  0  0  0
 19 45  1  0  0  0
 19 46  1  0  0  0
 19 47  1  0  0  0
 20 48  1  0  0  0
 20 49  1  0  0  0
 20 50  1  0  0  0
M  END
$$$$
