### 
### Created by X-TOOL on Mon Sep 10 21:13:10 2018
### 

@<TRIPOS>MOLECULE
4a4c_ligand
  124   126     1     0     0
SMALL
GAST_HUCK


@<TRIPOS>ATOM
      1 N         -30.6440    8.8000   -5.0180 N.4       1 SER         0.2396
      2 CA        -31.2330   10.1360   -4.9270 C.3       1 SER         0.0885
      3 C         -30.7430   10.9900   -6.0860 C.2       1 SER         0.2291
      4 O         -29.9240   11.8880   -5.9100 O.2       1 SER        -0.3906
      5 CB        -30.8940   10.8130   -3.5890 C.3       1 SER         0.1041
      6 OG        -29.6420   11.4900   -3.6130 O.3       1 SER        -0.3870
      7 N         -31.1960   10.6440   -7.2830 N.am      1 ASP        -0.2594
      8 CA        -30.8270   11.3480   -8.4940 C.3       1 ASP         0.1424
      9 C         -31.9020   12.3550   -8.9990 C.2       1 ASP         0.2054
     10 O         -31.8060   12.9000  -10.1130 O.2       1 ASP        -0.3943
     11 CB        -30.3690   10.3590   -9.5690 C.3       1 ASP         0.0406
     12 CG        -31.4970    9.4980  -10.0880 C.2       1 ASP         0.0393
     13 OD1       -32.5860    9.5240   -9.4690 O.co2     1 ASP        -0.5688
     14 OD2       -31.2920    8.8170  -11.1270 O.co2     1 ASP        -0.5688
     15 N         -32.9510   12.5550   -8.2110 N.am      1 GLY        -0.2663
     16 CA        -33.9940   13.4820   -8.6140 C.3       1 GLY         0.1201
     17 C         -35.2180   12.8010   -9.1990 C.2       1 GLY         0.2009
     18 O         -36.2830   13.4020   -9.3130 O.2       1 GLY        -0.3947
     19 N         -35.0690   11.5340   -9.5680 N.am      1 PTR        -0.2609
     20 CA        -36.2020   10.7860  -10.0660 C.3       1 PTR         0.1468
     21 C         -36.8840   10.0340   -8.9250 C.2       1 PTR         0.2075
     22 O         -36.2720    9.7340   -7.9010 O.2       1 PTR        -0.3941
     23 CB        -35.7560    9.9340  -11.2460 C.3       1 PTR         0.0400
     24 CG        -35.2370   10.7520  -12.4050 C.ar      1 PTR        -0.0004
     25 CD1       -33.8850   10.8050  -12.6930 C.ar      1 PTR        -0.0239
     26 CD2       -36.0960   11.4850  -13.2010 C.ar      1 PTR        -0.0239
     27 CE1       -33.4030   11.5340  -13.7600 C.ar      1 PTR         0.0115
     28 CE2       -35.6220   12.2200  -14.2690 C.ar      1 PTR         0.0115
     29 CZ        -34.2710   12.2560  -14.5530 C.ar      1 PTR         0.1728
     30 OH        -33.8760   12.9700  -15.5130 O.3       1 PTR        -0.2040
     31 P         -32.3720   13.0930  -16.1320 P.3       1 PTR         0.1348
     32 O1P       -31.3810   13.6650  -15.1850 O.co2     1 PTR        -0.6653
     33 O2P       -32.4890   13.9530  -17.3920 O.co2     1 PTR        -0.6653
     34 O3P       -31.8790   11.7060  -16.5910 O.co2     1 PTR        -0.6653
     35 N         -38.1710    9.7720   -9.0930 N.am      1 THR        -0.2611
     36 CA        -38.9420    9.0930   -8.0680 C.3       1 THR         0.1567
     37 C         -39.7880    7.9670   -8.6460 C.2       1 THR         0.2090
     38 O         -39.9640    7.8680   -9.8570 O.2       1 THR        -0.3941
     39 CB        -39.8130   10.0690   -7.2170 C.3       1 THR         0.0924
     40 OG1       -40.5990   10.9310   -8.0590 O.3       1 THR        -0.3874
     41 CG2       -38.9300   10.8920   -6.2930 C.3       1 THR        -0.0346
     42 N         -40.2770    7.0870   -7.7750 N.am      1 PRO        -0.2498
     43 CA        -41.1090    5.9710   -8.2220 C.3       1 PRO         0.1338
     44 C         -42.3910    6.4610   -8.8720 C.2       1 PRO         0.2041
     45 O         -42.9660    7.4630   -8.4620 O.2       1 PRO        -0.3944
     46 CB        -41.4120    5.2110   -6.9200 C.3       1 PRO        -0.0104
     47 CG        -40.2530    5.5270   -6.0360 C.3       1 PRO        -0.0281
     48 CD        -39.8930    6.9630   -6.3590 C.3       1 PRO         0.0369
     49 N         -42.8310    5.7340   -9.8880 N.am      1 GLU        -0.2636
     50 CA        -44.0060    6.1070  -10.6520 C.3       1 GLU         0.1327
     51 C         -45.2380    6.2260   -9.7770 C.2       1 GLU         0.2065
     52 O         -45.4040    5.4610   -8.8360 O.2       1 GLU        -0.3942
     53 CB        -44.2800    5.0560  -11.7170 C.3       1 GLU        -0.0008
     54 CG        -43.1690    4.8530  -12.7110 C.3       1 GLU         0.0044
     55 CD        -43.6350    4.0390  -13.9010 C.2       1 GLU         0.0350
     56 OE1       -44.3910    4.6010  -14.7300 O.co2     1 GLU        -0.5690
     57 OE2       -43.2640    2.8400  -13.9920 O.co2     1 GLU        -0.5690
     58 N         -46.1230    7.1710  -10.1070 N.am      1 PRO        -0.2498
     59 CA        -47.3960    7.2660   -9.3890 C.3       1 PRO         0.1337
     60 C         -48.2670    6.0290   -9.6160 C.2       1 PRO         0.2035
     61 O         -48.2640    5.4560  -10.7130 O.2       1 PRO        -0.3944
     62 CB        -48.0480    8.5270   -9.9770 C.3       1 PRO        -0.0104
     63 CG        -47.3550    8.7610  -11.2780 C.3       1 PRO        -0.0281
     64 CD        -45.9740    8.2130  -11.1400 C.3       1 PRO         0.0369
     65 N         -48.9960    5.6240   -8.5780 N.am      1 ALA        -0.2697
     66 CA        -49.8460    4.4430   -8.6550 C.3       1 ALA         0.0916
     67 C         -51.2250    4.6980   -8.0470 C.2       1 ALA         0.0598
     68 O         -51.3951    4.6744   -6.7988 O.co2     1 ALA        -0.5666
     69 CB        -49.1680    3.2600   -7.9780 C.3       1 ALA        -0.0300
     70 H         -30.8888    8.3822   -5.9158 H         1 SER         0.2016
     71 H         -29.6295    8.8710   -4.9400 H         1 SER         0.2016
     72 H         -31.0045    8.2185   -4.2615 H         1 SER         0.2016
     73 H         -32.3170   10.0343   -4.9797 H         1 SER         0.1122
     74 H         -30.8378   10.0356   -2.8271 H         1 SER         0.0640
     75 H         -31.6685   11.5520   -3.3839 H         1 SER         0.0640
     76 H         -29.6605   12.1708   -4.2897 H         1 SER         0.2099
     77 H         -31.8309    9.8489   -7.3542 H         1 ASP         0.1886
     78 H         -29.9789   11.9853   -8.2438 H         1 ASP         0.0819
     79 H         -29.6238    9.7007   -9.1224 H         1 ASP         0.0478
     80 H         -29.9744   10.9342  -10.4066 H         1 ASP         0.0478
     81 H         -33.0247   12.0582   -7.3232 H         1 GLY         0.1881
     82 H         -33.5774   14.1271   -9.3876 H         1 GLY         0.0763
     83 H         -34.3144   14.0216   -7.7228 H         1 GLY         0.0763
     84 H         -34.1542   11.0879   -9.5001 H         1 PTR         0.1886
     85 H         -36.9780   11.4449  -10.4556 H         1 PTR         0.0840
     86 H         -36.6232    9.3749  -11.5973 H         1 PTR         0.0584
     87 H         -34.9439    9.2928  -10.9033 H         1 PTR         0.0584
     88 H         -33.1844   10.2580  -12.0621 H         1 PTR         0.0703
     89 H         -37.1639   11.4829  -12.9824 H         1 PTR         0.0703
     90 H         -32.3348   11.5397  -13.9771 H         1 PTR         0.0736
     91 H         -36.3203   12.7769  -14.8937 H         1 PTR         0.0736
     92 H         -38.6295   10.0529   -9.9598 H         1 THR         0.1884
     93 H         -38.2121    8.6499   -7.3906 H         1 THR         0.0826
     94 H         -40.4978    9.4738   -6.6130 H         1 THR         0.0639
     95 H         -40.0155   11.4484   -8.6188 H         1 THR         0.2101
     96 H         -38.3844   10.2255   -5.6250 H         1 THR         0.0257
     97 H         -38.2233   11.4705   -6.8880 H         1 THR         0.0257
     98 H         -39.5514   11.5681   -5.7058 H         1 THR         0.0257
     99 H         -40.6178    5.3554   -8.9756 H         1 PRO         0.0802
    100 H         -41.5242    4.1394   -7.0850 H         1 PRO         0.0313
    101 H         -42.3616    5.5129   -6.4781 H         1 PRO         0.0313
    102 H         -39.4156    4.8516   -6.2111 H         1 PRO         0.0287
    103 H         -40.5024    5.4004   -4.9825 H         1 PRO         0.0287
    104 H         -40.4025    7.6820   -5.7175 H         1 PRO         0.0524
    105 H         -38.8402    7.1852   -6.1846 H         1 PRO         0.0524
    106 H         -42.3271    4.8841  -10.1413 H         1 GLU         0.1883
    107 H         -43.8019    7.0781  -11.1030 H         1 GLU         0.0801
    108 H         -45.1479    5.3982  -12.2807 H         1 GLU         0.0330
    109 H         -44.4134    4.1078  -11.1963 H         1 GLU         0.0330
    110 H         -42.3583    4.3152  -12.2195 H         1 GLU         0.0433
    111 H         -42.8396    5.8293  -13.0666 H         1 GLU         0.0433
    112 H         -47.2643    7.3218   -8.3084 H         1 PRO         0.0802
    113 H         -47.9430    9.3812   -9.3081 H         1 PRO         0.0313
    114 H         -49.1216    8.3965  -10.1129 H         1 PRO         0.0313
    115 H         -47.3265    9.8247  -11.5145 H         1 PRO         0.0287
    116 H         -47.8862    8.2685  -12.0925 H         1 PRO         0.0287
    117 H         -45.5832    7.8200  -12.0786 H         1 PRO         0.0524
    118 H         -45.2459    8.9758  -10.8641 H         1 PRO         0.0524
    119 H         -48.9585    6.1537   -7.7071 H         1 ALA         0.1875
    120 H         -49.9949    4.2073   -9.7087 H         1 ALA         0.0723
    121 O         -52.2042    4.9348   -8.8038 O.co2     1 ALA        -0.5666
    122 H         -48.2214    3.0513   -8.4765 H         1 ALA         0.0270
    123 H         -48.9836    3.4991   -6.9307 H         1 ALA         0.0270
    124 H         -49.8153    2.3855   -8.0438 H         1 ALA         0.0270
@<TRIPOS>BOND
     1    1    2 1  
     2    2    3 1  
     3    2    5 1  
     4    3    4 2  
     5    3    7 am 
     6    5    6 1  
     7    7    8 1  
     8    8    9 1  
     9    8   11 1  
    10    9   10 2  
    11    9   15 am 
    12   11   12 1  
    13   12   13 ar 
    14   12   14 ar 
    15   15   16 1  
    16   16   17 1  
    17   17   18 2  
    18   17   19 am 
    19   19   20 1  
    20   20   21 1  
    21   20   23 1  
    22   21   22 2  
    23   21   35 am 
    24   23   24 1  
    25   24   25 ar 
    26   24   26 ar 
    27   25   27 ar 
    28   26   28 ar 
    29   27   29 ar 
    30   28   29 ar 
    31   29   30 1  
    32   30   31 1  
    33   31   32 ar 
    34   31   33 ar 
    35   31   34 ar 
    36   35   36 1  
    37   36   37 1  
    38   36   39 1  
    39   37   38 2  
    40   37   42 am 
    41   39   40 1  
    42   39   41 1  
    43   42   43 1  
    44   42   48 1  
    45   43   44 1  
    46   43   46 1  
    47   44   45 2  
    48   44   49 am 
    49   46   47 1  
    50   47   48 1  
    51   49   50 1  
    52   50   51 1  
    53   50   53 1  
    54   51   52 2  
    55   51   58 am 
    56   53   54 1  
    57   54   55 1  
    58   55   56 ar 
    59   55   57 ar 
    60   58   59 1  
    61   58   64 1  
    62   59   60 1  
    63   59   62 1  
    64   60   61 2  
    65   60   65 am 
    66   62   63 1  
    67   63   64 1  
    68   65   66 1  
    69   66   67 1  
    70   66   69 1  
    71   67   68 ar 
    72    1   70 1  
    73    1   71 1  
    74    1   72 1  
    75    2   73 1  
    76    5   74 1  
    77    5   75 1  
    78    6   76 1  
    79    7   77 1  
    80    8   78 1  
    81   11   79 1  
    82   11   80 1  
    83   15   81 1  
    84   16   82 1  
    85   16   83 1  
    86   19   84 1  
    87   20   85 1  
    88   23   86 1  
    89   23   87 1  
    90   25   88 1  
    91   26   89 1  
    92   27   90 1  
    93   28   91 1  
    94   35   92 1  
    95   36   93 1  
    96   39   94 1  
    97   40   95 1  
    98   41   96 1  
    99   41   97 1  
   100   41   98 1  
   101   43   99 1  
   102   46  100 1  
   103   46  101 1  
   104   47  102 1  
   105   47  103 1  
   106   48  104 1  
   107   48  105 1  
   108   49  106 1  
   109   50  107 1  
   110   53  108 1  
   111   53  109 1  
   112   54  110 1  
   113   54  111 1  
   114   59  112 1  
   115   62  113 1  
   116   62  114 1  
   117   63  115 1  
   118   63  116 1  
   119   64  117 1  
   120   64  118 1  
   121   65  119 1  
   122   66  120 1  
   123   67  121 ar 
   124   69  122 1  
   125   69  123 1  
   126   69  124 1  
@<TRIPOS>SUBSTRUCTURE
     1 SER         1

