4a4c_ligand
  -I-interpret- 

129131  0  0  0  0  0  0  0  0999 V2000
  -30.6440    8.8000   -5.0180 N   0  3  0  0  0
  -31.2330   10.1360   -4.9270 C   0  0  0  0  0
  -30.7430   10.9900   -6.0860 C   0  0  0  0  0
  -29.9240   11.8880   -5.9100 O   0  0  0  0  0
  -30.8940   10.8130   -3.5890 C   0  0  0  0  0
  -29.6420   11.4900   -3.6130 O   0  0  0  0  0
  -31.1960   10.6440   -7.2830 N   0  0  0  0  0
  -30.8270   11.3480   -8.4940 C   0  0  0  0  0
  -31.9020   12.3550   -8.9990 C   0  0  0  0  0
  -31.8060   12.9000  -10.1130 O   0  0  0  0  0
  -30.3690   10.3590   -9.5690 C   0  0  0  0  0
  -31.4970    9.4980  -10.0880 C   0  0  0  0  0
  -32.5860    9.5240   -9.4690 O   0  0  0  0  0
  -31.2920    8.8170  -11.1270 O   0  0  0  0  0
  -32.9510   12.5550   -8.2110 N   0  0  0  0  0
  -33.9940   13.4820   -8.6140 C   0  0  0  0  0
  -35.2180   12.8010   -9.1990 C   0  0  0  0  0
  -36.2830   13.4020   -9.3130 O   0  0  0  0  0
  -35.0690   11.5340   -9.5680 N   0  0  0  0  0
  -36.2020   10.7860  -10.0660 C   0  0  0  0  0
  -36.8840   10.0340   -8.9250 C   0  0  0  0  0
  -36.2720    9.7340   -7.9010 O   0  0  0  0  0
  -35.7560    9.9340  -11.2460 C   0  0  0  0  0
  -35.2370   10.7520  -12.4050 C   0  0  0  0  0
  -33.8850   10.8050  -12.6930 C   0  0  0  0  0
  -36.0960   11.4850  -13.2010 C   0  0  0  0  0
  -33.4030   11.5340  -13.7600 C   0  0  0  0  0
  -35.6220   12.2200  -14.2690 C   0  0  0  0  0
  -34.2710   12.2560  -14.5530 C   0  0  0  0  0
  -33.8760   12.9700  -15.5130 O   0  0  0  0  0
  -32.3720   13.0930  -16.1320 P   0  0  0  0  0
  -31.3810   13.6650  -15.1850 O   0  0  0  0  0
  -32.4890   13.9530  -17.3920 O   0  0  0  0  0
  -31.8790   11.7060  -16.5910 O   0  0  0  0  0
  -38.1710    9.7720   -9.0930 N   0  0  0  0  0
  -38.9420    9.0930   -8.0680 C   0  0  0  0  0
  -39.7880    7.9670   -8.6460 C   0  0  0  0  0
  -39.9640    7.8680   -9.8570 O   0  0  0  0  0
  -39.8130   10.0690   -7.2170 C   0  0  0  0  0
  -40.5990   10.9310   -8.0590 O   0  0  0  0  0
  -38.9300   10.8920   -6.2930 C   0  0  0  0  0
  -40.2770    7.0870   -7.7750 N   0  0  0  0  0
  -41.1090    5.9710   -8.2220 C   0  0  0  0  0
  -42.3910    6.4610   -8.8720 C   0  0  0  0  0
  -42.9660    7.4630   -8.4620 O   0  0  0  0  0
  -41.4120    5.2110   -6.9200 C   0  0  0  0  0
  -40.2530    5.5270   -6.0360 C   0  0  0  0  0
  -39.8930    6.9630   -6.3590 C   0  0  0  0  0
  -42.8310    5.7340   -9.8880 N   0  0  0  0  0
  -44.0060    6.1070  -10.6520 C   0  0  0  0  0
  -45.2380    6.2260   -9.7770 C   0  0  0  0  0
  -45.4040    5.4610   -8.8360 O   0  0  0  0  0
  -44.2800    5.0560  -11.7170 C   0  0  0  0  0
  -43.1690    4.8530  -12.7110 C   0  0  0  0  0
  -43.6350    4.0390  -13.9010 C   0  0  0  0  0
  -44.3910    4.6010  -14.7300 O   0  0  0  0  0
  -43.2640    2.8400  -13.9920 O   0  0  0  0  0
  -46.1230    7.1710  -10.1070 N   0  0  0  0  0
  -47.3960    7.2660   -9.3890 C   0  0  0  0  0
  -48.2670    6.0290   -9.6160 C   0  0  0  0  0
  -48.2640    5.4560  -10.7130 O   0  0  0  0  0
  -48.0480    8.5270   -9.9770 C   0  0  0  0  0
  -47.3550    8.7610  -11.2780 C   0  0  0  0  0
  -45.9740    8.2130  -11.1400 C   0  0  0  0  0
  -48.9960    5.6240   -8.5780 N   0  0  0  0  0
  -49.8460    4.4430   -8.6550 C   0  0  0  0  0
  -51.2250    4.6980   -8.0470 C   0  0  0  0  0
  -51.3951    4.6744   -6.7988 O   0  0  0  0  0
  -49.1680    3.2600   -7.9780 C   0  0  0  0  0
  -52.2042    4.9348   -8.8038 O   0  0  0  0  0
  -30.8888    8.3822   -5.9158 H   0  0  0  0  0
  -29.6295    8.8710   -4.9400 H   0  0  0  0  0
  -31.0045    8.2185   -4.2615 H   0  0  0  0  0
  -32.3170   10.0343   -4.9797 H   0  0  0  0  0
  -30.8378   10.0356   -2.8271 H   0  0  0  0  0
  -31.6685   11.5520   -3.3839 H   0  0  0  0  0
  -29.4808   11.8928   -2.7566 H   0  0  0  0  0
  -31.8309    9.8489   -7.3542 H   0  0  0  0  0
  -29.9789   11.9853   -8.2438 H   0  0  0  0  0
  -29.6238    9.7007   -9.1224 H   0  0  0  0  0
  -29.9744   10.9342  -10.4066 H   0  0  0  0  0
  -30.3895    8.9533  -11.4247 H   0  0  0  0  0
  -33.0247   12.0582   -7.3232 H   0  0  0  0  0
  -33.5774   14.1271   -9.3876 H   0  0  0  0  0
  -34.3144   14.0216   -7.7228 H   0  0  0  0  0
  -34.1542   11.0879   -9.5001 H   0  0  0  0  0
  -36.9780   11.4449  -10.4556 H   0  0  0  0  0
  -36.6232    9.3749  -11.5973 H   0  0  0  0  0
  -34.9439    9.2928  -10.9033 H   0  0  0  0  0
  -33.1844   10.2580  -12.0621 H   0  0  0  0  0
  -37.1639   11.4829  -12.9824 H   0  0  0  0  0
  -32.3348   11.5397  -13.9771 H   0  0  0  0  0
  -36.3203   12.7769  -14.8937 H   0  0  0  0  0
  -33.1342   13.5624  -17.9859 H   0  0  0  0  0
  -32.5142   11.3286  -17.2040 H   0  0  0  0  0
  -38.6295   10.0529   -9.9598 H   0  0  0  0  0
  -38.2121    8.6499   -7.3906 H   0  0  0  0  0
  -40.4978    9.4738   -6.6130 H   0  0  0  0  0
  -41.1238   11.5195   -7.5114 H   0  0  0  0  0
  -38.3844   10.2255   -5.6250 H   0  0  0  0  0
  -38.2233   11.4705   -6.8880 H   0  0  0  0  0
  -39.5514   11.5681   -5.7058 H   0  0  0  0  0
  -40.6178    5.3554   -8.9756 H   0  0  0  0  0
  -41.5242    4.1394   -7.0850 H   0  0  0  0  0
  -42.3616    5.5129   -6.4781 H   0  0  0  0  0
  -39.4156    4.8516   -6.2111 H   0  0  0  0  0
  -40.5024    5.4004   -4.9825 H   0  0  0  0  0
  -40.4025    7.6820   -5.7175 H   0  0  0  0  0
  -38.8402    7.1852   -6.1846 H   0  0  0  0  0
  -42.3271    4.8841  -10.1413 H   0  0  0  0  0
  -43.8019    7.0781  -11.1030 H   0  0  0  0  0
  -45.1479    5.3982  -12.2807 H   0  0  0  0  0
  -44.4134    4.1078  -11.1963 H   0  0  0  0  0
  -42.3583    4.3152  -12.2195 H   0  0  0  0  0
  -42.8396    5.8293  -13.0666 H   0  0  0  0  0
  -42.6922    2.6260  -13.2511 H   0  0  0  0  0
  -47.2643    7.3218   -8.3084 H   0  0  0  0  0
  -47.9430    9.3812   -9.3081 H   0  0  0  0  0
  -49.1216    8.3965  -10.1129 H   0  0  0  0  0
  -47.3265    9.8247  -11.5145 H   0  0  0  0  0
  -47.8862    8.2685  -12.0925 H   0  0  0  0  0
  -45.5832    7.8200  -12.0786 H   0  0  0  0  0
  -45.2459    8.9758  -10.8641 H   0  0  0  0  0
  -48.9585    6.1537   -7.7071 H   0  0  0  0  0
  -49.9949    4.2073   -9.7087 H   0  0  0  0  0
  -48.2214    3.0513   -8.4765 H   0  0  0  0  0
  -48.9836    3.4991   -6.9307 H   0  0  0  0  0
  -49.8153    2.3855   -8.0438 H   0  0  0  0  0
  -51.9120    4.9176   -9.7181 H   0  0  0  0  0
  1  2  1  0  0  0
  2  3  1  0  0  0
  2  5  1  0  0  0
  3  4  2  0  0  0
  3  7  1  0  0  0
  5  6  1  0  0  0
  7  8  1  0  0  0
  8  9  1  0  0  0
  8 11  1  0  0  0
  9 10  2  0  0  0
  9 15  1  0  0  0
 11 12  1  0  0  0
 12 13  2  0  0  0
 12 14  1  0  0  0
 15 16  1  0  0  0
 16 17  1  0  0  0
 17 18  2  0  0  0
 17 19  1  0  0  0
 19 20  1  0  0  0
 20 21  1  0  0  0
 20 23  1  0  0  0
 21 22  2  0  0  0
 21 35  1  0  0  0
 23 24  1  0  0  0
 24 25  4  0  0  0
 24 26  4  0  0  0
 25 27  4  0  0  0
 26 28  4  0  0  0
 27 29  4  0  0  0
 28 29  4  0  0  0
 29 30  1  0  0  0
 30 31  1  0  0  0
 31 32  2  0  0  0
 31 33  1  0  0  0
 31 34  1  0  0  0
 35 36  1  0  0  0
 36 37  1  0  0  0
 36 39  1  0  0  0
 37 38  2  0  0  0
 37 42  1  0  0  0
 39 40  1  0  0  0
 39 41  1  0  0  0
 42 43  1  0  0  0
 42 48  1  0  0  0
 43 44  1  0  0  0
 43 46  1  0  0  0
 44 45  2  0  0  0
 44 49  1  0  0  0
 46 47  1  0  0  0
 47 48  1  0  0  0
 49 50  1  0  0  0
 50 51  1  0  0  0
 50 53  1  0  0  0
 51 52  2  0  0  0
 51 58  1  0  0  0
 53 54  1  0  0  0
 54 55  1  0  0  0
 55 56  2  0  0  0
 55 57  1  0  0  0
 58 59  1  0  0  0
 58 64  1  0  0  0
 59 60  1  0  0  0
 59 62  1  0  0  0
 60 61  2  0  0  0
 60 65  1  0  0  0
 62 63  1  0  0  0
 63 64  1  0  0  0
 65 66  1  0  0  0
 66 67  1  0  0  0
 66 69  1  0  0  0
 67 68  2  0  0  0
 67 70  1  0  0  0
  1 71  1  0  0  0
  1 72  1  0  0  0
  1 73  1  0  0  0
  2 74  1  0  0  0
  5 75  1  0  0  0
  5 76  1  0  0  0
  6 77  1  0  0  0
  7 78  1  0  0  0
  8 79  1  0  0  0
 11 80  1  0  0  0
 11 81  1  0  0  0
 14 82  1  0  0  0
 15 83  1  0  0  0
 16 84  1  0  0  0
 16 85  1  0  0  0
 19 86  1  0  0  0
 20 87  1  0  0  0
 23 88  1  0  0  0
 23 89  1  0  0  0
 25 90  1  0  0  0
 26 91  1  0  0  0
 27 92  1  0  0  0
 28 93  1  0  0  0
 33 94  1  0  0  0
 34 95  1  0  0  0
 35 96  1  0  0  0
 36 97  1  0  0  0
 39 98  1  0  0  0
 40 99  1  0  0  0
 41100  1  0  0  0
 41101  1  0  0  0
 41102  1  0  0  0
 43103  1  0  0  0
 46104  1  0  0  0
 46105  1  0  0  0
 47106  1  0  0  0
 47107  1  0  0  0
 48108  1  0  0  0
 48109  1  0  0  0
 49110  1  0  0  0
 50111  1  0  0  0
 53112  1  0  0  0
 53113  1  0  0  0
 54114  1  0  0  0
 54115  1  0  0  0
 57116  1  0  0  0
 59117  1  0  0  0
 62118  1  0  0  0
 62119  1  0  0  0
 63120  1  0  0  0
 63121  1  0  0  0
 64122  1  0  0  0
 64123  1  0  0  0
 65124  1  0  0  0
 66125  1  0  0  0
 69126  1  0  0  0
 69127  1  0  0  0
 69128  1  0  0  0
 70129  1  0  0  0
M  END
$$$$
