5sy2_ligand
  -I-interpret- 

 51 53  0  0  0  0  0  0  0  0999 V2000
   33.2040   57.7040   41.8880 N   0  0  0  0  0
   32.8050   58.6610   40.8150 C   0  0  0  0  0
   32.5040   57.9780   39.4640 C   0  0  0  0  0
   32.1590   58.9810   38.3450 C   0  0  0  0  0
   30.9920   59.8790   38.7930 C   0  0  0  0  0
   34.4170   57.9490   42.4720 C   0  0  0  0  0
   35.7600   55.9650   43.1550 C   0  0  0  0  0
   36.3400   55.5690   45.3590 C   0  0  0  0  0
   34.6490   59.1130   46.7320 C   0  0  0  0  0
   33.7830   60.3020   47.0300 C   0  0  0  0  0
   32.5470   60.2690   47.5410 C   0  0  0  0  0
   33.1270   62.3780   47.2000 C   0  0  0  0  0
   31.5090   56.8490   43.5180 C   0  0  0  0  0
   32.3560   56.5490   42.2740 C   0  0  0  0  0
   31.3050   60.5250   40.0920 N   0  3  0  0  0
   31.6440   59.5940   41.1960 C   0  0  0  0  0
   35.0610   58.9160   42.0950 O   0  0  0  0  0
   35.0610   57.1300   43.5290 C   0  0  0  0  0
   36.3650   55.2230   44.0850 N   0  0  0  0  0
   37.0390   54.6910   46.3610 C   0  0  0  0  0
   35.7140   56.6620   45.7670 N   0  0  0  0  0
   35.0640   57.4760   44.9130 C   0  0  0  0  0
   34.4090   58.6090   45.3730 N   0  0  0  0  0
   32.1240   61.6060   47.6440 C   0  0  0  0  0
   34.1280   61.5760   46.8280 O   0  0  0  0  0
   33.6932   59.2815   40.6958 H   0  0  0  0  0
   31.6401   57.3286   39.6056 H   0  0  0  0  0
   33.3993   57.4359   39.1594 H   0  0  0  0  0
   31.8698   58.4346   37.4473 H   0  0  0  0  0
   33.0307   59.6005   38.1344 H   0  0  0  0  0
   30.0971   59.2673   38.9074 H   0  0  0  0  0
   30.8306   60.6522   38.0419 H   0  0  0  0  0
   35.8066   55.6699   42.1067 H   0  0  0  0  0
   34.4115   58.3222   47.4436 H   0  0  0  0  0
   35.6935   59.4142   46.8122 H   0  0  0  0  0
   31.9801   59.3814   47.8219 H   0  0  0  0  0
   33.1254   63.4669   47.1514 H   0  0  0  0  0
   32.1660   57.0848   44.3551 H   0  0  0  0  0
   30.8569   57.6987   43.3157 H   0  0  0  0  0
   30.9046   55.9758   43.7637 H   0  0  0  0  0
   33.0096   55.7068   42.5013 H   0  0  0  0  0
   31.6811   56.3297   41.4466 H   0  0  0  0  0
   30.4644   61.0261   40.3796 H   0  0  0  0  0
   32.1276   61.1081   39.9380 H   0  0  0  0  0
   31.9461   60.1830   42.0620 H   0  0  0  0  0
   30.7678   58.9824   41.4114 H   0  0  0  0  0
   36.6003   53.6935   46.3366 H   0  0  0  0  0
   38.0983   54.6296   46.1118 H   0  0  0  0  0
   36.9230   55.1161   47.3580 H   0  0  0  0  0
   33.7543   59.0970   44.7617 H   0  0  0  0  0
   31.1593   61.9513   48.0159 H   0  0  0  0  0
  1  2  1  0  0  0
  6  1  1  0  0  0
  1 14  1  0  0  0
  2  3  1  0  0  0
  2 16  1  0  0  0
  3  4  1  0  0  0
  4  5  1  0  0  0
 15  5  1  0  0  0
  6 17  2  0  0  0
 18  6  1  0  0  0
 18  7  4  0  0  0
  7 19  4  0  0  0
  8 19  4  0  0  0
  8 20  1  0  0  0
 21  8  4  0  0  0
  9 10  1  0  0  0
 23  9  1  0  0  0
 10 11  4  0  0  0
 10 25  4  0  0  0
 11 24  4  0  0  0
 12 24  4  0  0  0
 25 12  4  0  0  0
 14 13  1  0  0  0
 16 15  1  0  0  0
 22 18  4  0  0  0
 22 21  4  0  0  0
 22 23  1  0  0  0
  2 26  1  0  0  0
  3 27  1  0  0  0
  3 28  1  0  0  0
  4 29  1  0  0  0
  4 30  1  0  0  0
  5 31  1  0  0  0
  5 32  1  0  0  0
  7 33  1  0  0  0
  9 34  1  0  0  0
  9 35  1  0  0  0
 11 36  1  0  0  0
 12 37  1  0  0  0
 13 38  1  0  0  0
 13 39  1  0  0  0
 13 40  1  0  0  0
 14 41  1  0  0  0
 14 42  1  0  0  0
 15 43  1  0  0  0
 15 44  1  0  0  0
 16 45  1  0  0  0
 16 46  1  0  0  0
 20 47  1  0  0  0
 20 48  1  0  0  0
 20 49  1  0  0  0
 23 50  1  0  0  0
 24 51  1  0  0  0
M  END
$$$$
