### 
### Created by X-TOOL on Mon Sep 10 21:13:29 2018
### 

@<TRIPOS>MOLECULE
5khh_ligand
   32    35     1     0     0
SMALL
GAST_HUCK


@<TRIPOS>ATOM
      1 P         -26.1080    4.7880  -44.7540 P.3       1 6SW         0.2557
      2 C8        -34.6370    2.1860  -43.0150 C.2       1 6SW         0.1273
      3 C5        -31.7560    4.7510  -45.2060 C.2       1 6SW         0.1004
      4 C6        -33.7280    3.9020  -44.9720 C.2       1 6SW         0.1044
      5 O6        -24.6570    4.3110  -44.7070 O.co2     1 6SW        -0.6177
      6 N1        -33.0010    4.7260  -45.7300 N.2       1 6SW        -0.3155
      7 C2        -28.5290    3.9860  -44.3300 C.3       1 6SW         0.1540
      8 N3        -35.4910    2.5830  -43.9890 N.am      1 6SW        -0.2042
      9 C4        -30.5650    3.7500  -43.2440 C.3       1 6SW         0.2007
     10 O4        -26.3950    5.6300  -45.9450 O.co2     1 6SW        -0.6177
     11 O5        -26.4110    5.7000  -43.4310 O.3       1 6SW        -0.2514
     12 C         -27.7510    6.0690  -43.2160 C.3       1 6SW         0.1128
     13 O3        -27.1820    3.6150  -44.5870 O.3       1 6SW        -0.2453
     14 C3        -29.5450    2.9340  -44.0210 C.3       1 6SW         0.1442
     15 O2        -29.1060    1.8990  -43.1540 O.3       1 6SW        -0.3831
     16 O         -29.9410    4.9700  -42.9280 O.3       1 6SW        -0.3357
     17 C1        -28.5640    4.8160  -43.0620 C.3       1 6SW         0.1243
     18 N         -31.7170    3.9790  -44.1080 N.pl3     1 6SW        -0.2044
     19 C7        -32.8750    3.4150  -43.8980 C.2       1 6SW         0.1354
     20 N2        -33.3590    2.5990  -42.9730 N.2       1 6SW        -0.2683
     21 C9        -35.1150    3.4250  -44.9660 C.2       1 6SW         0.2200
     22 O1        -35.8940    3.7840  -45.8680 O.2       1 6SW        -0.4066
     23 H1        -34.9980    1.5103  -42.2411 H         1 6SW         0.1493
     24 H2        -30.9143    5.3106  -45.6114 H         1 6SW         0.1213
     25 H3        -28.8788    4.5696  -45.1943 H         1 6SW         0.0712
     26 H4        -36.4299    2.2388  -43.9804 H         1 6SW         0.2557
     27 H5        -30.8748    3.2256  -42.3280 H         1 6SW         0.1001
     28 H6        -28.1199    6.6489  -44.0748 H         1 6SW         0.0647
     29 H7        -27.8278    6.6772  -42.3027 H         1 6SW         0.0647
     30 H8        -29.9571    2.4996  -44.9437 H         1 6SW         0.0681
     31 H9        -28.4636    1.3623  -43.6033 H         1 6SW         0.2102
     32 H10       -28.1618    4.2555  -42.2053 H         1 6SW         0.0655
@<TRIPOS>BOND
     1    1    5 ar 
     2    1   10 ar 
     3    1   11 1  
     4   13    1 1  
     5    8    2 1  
     6    2   20 2  
     7    3    6 2  
     8   18    3 1  
     9    6    4 1  
    10    4   19 2  
    11    4   21 1  
    12    7   13 1  
    13   14    7 1  
    14    7   17 1  
    15   21    8 am 
    16    9   14 1  
    17    9   16 1  
    18    9   18 1  
    19   11   12 1  
    20   12   17 1  
    21   14   15 1  
    22   16   17 1  
    23   18   19 1  
    24   19   20 1  
    25   21   22 2  
    26    2   23 1  
    27    3   24 1  
    28    7   25 1  
    29    8   26 1  
    30    9   27 1  
    31   12   28 1  
    32   12   29 1  
    33   14   30 1  
    34   15   31 1  
    35   17   32 1  
@<TRIPOS>SUBSTRUCTURE
     1 6SW         1

