5khh_ligand
  -I-interpret- 

 33 36  0  0  0  0  0  0  0  0999 V2000
  -26.1080    4.7880  -44.7540 P   0  0  0  0  0
  -34.6370    2.1860  -43.0150 C   0  0  0  0  0
  -31.7560    4.7510  -45.2060 C   0  0  0  0  0
  -33.7280    3.9020  -44.9720 C   0  0  0  0  0
  -24.6570    4.3110  -44.7070 O   0  0  0  0  0
  -33.0010    4.7260  -45.7300 N   0  0  0  0  0
  -28.5290    3.9860  -44.3300 C   0  0  0  0  0
  -35.4910    2.5830  -43.9890 N   0  0  0  0  0
  -30.5650    3.7500  -43.2440 C   0  0  0  0  0
  -26.3950    5.6300  -45.9450 O   0  0  0  0  0
  -26.4110    5.7000  -43.4310 O   0  0  0  0  0
  -27.7510    6.0690  -43.2160 C   0  0  0  0  0
  -27.1820    3.6150  -44.5870 O   0  0  0  0  0
  -29.5450    2.9340  -44.0210 C   0  0  0  0  0
  -29.1060    1.8990  -43.1540 O   0  0  0  0  0
  -29.9410    4.9700  -42.9280 O   0  0  0  0  0
  -28.5640    4.8160  -43.0620 C   0  0  0  0  0
  -31.7170    3.9790  -44.1080 N   0  0  0  0  0
  -32.8750    3.4150  -43.8980 C   0  0  0  0  0
  -33.3590    2.5990  -42.9730 N   0  0  0  0  0
  -35.1150    3.4250  -44.9660 C   0  0  0  0  0
  -35.8940    3.7840  -45.8680 O   0  0  0  0  0
  -34.9983    1.5097  -42.2403 H   0  0  0  0  0
  -30.9136    5.3111  -45.6117 H   0  0  0  0  0
  -24.5232    3.7736  -43.9228 H   0  0  0  0  0
  -28.7995    4.4461  -45.2804 H   0  0  0  0  0
  -36.4486    2.2319  -43.9802 H   0  0  0  0  0
  -30.9001    3.2468  -42.3370 H   0  0  0  0  0
  -28.1188    6.6529  -44.0598 H   0  0  0  0  0
  -27.8316    6.6807  -42.3174 H   0  0  0  0  0
  -29.8612    2.4250  -44.9315 H   0  0  0  0  0
  -29.8218    1.2746  -43.0147 H   0  0  0  0  0
  -28.1120    4.3928  -42.1649 H   0  0  0  0  0
  1  5  1  0  0  0
  1 10  2  0  0  0
  1 11  1  0  0  0
 13  1  1  0  0  0
  8  2  1  0  0  0
  2 20  2  0  0  0
  3  6  4  0  0  0
 18  3  4  0  0  0
  6  4  4  0  0  0
  4 19  4  0  0  0
  4 21  1  0  0  0
  7 13  1  0  0  0
 14  7  1  0  0  0
  7 17  1  0  0  0
 21  8  1  0  0  0
  9 14  1  0  0  0
  9 16  1  0  0  0
  9 18  1  0  0  0
 11 12  1  0  0  0
 12 17  1  0  0  0
 14 15  1  0  0  0
 16 17  1  0  0  0
 18 19  4  0  0  0
 19 20  1  0  0  0
 21 22  2  0  0  0
  2 23  1  0  0  0
  3 24  1  0  0  0
  5 25  1  0  0  0
  7 26  1  0  0  0
  8 27  1  0  0  0
  9 28  1  0  0  0
 12 29  1  0  0  0
 12 30  1  0  0  0
 14 31  1  0  0  0
 15 32  1  0  0  0
 17 33  1  0  0  0
M  END
$$$$
