1cea_ligand
  -I-interpret- 

 23 22  0  0  0  0  0  0  0  0999 V2000
   37.1580    4.4210  -30.0460 C   0  0  0  0  0
   38.1450    3.6840  -30.2690 O   0  0  0  0  0
   36.9190    5.6690  -30.0140 O   0  0  0  0  0
   35.9070    3.5120  -29.7010 C   0  0  0  0  0
   35.4640    3.0680  -31.0940 C   0  0  0  0  0
   33.9160    2.9280  -31.0900 C   0  0  0  0  0
   33.5780    1.4560  -30.8870 C   0  0  0  0  0
   32.3200    1.0240  -31.4940 C   0  0  0  0  0
   32.4130    0.6400  -32.9180 N   0  3  0  0  0
   35.9954    5.8113  -29.7941 H   0  0  0  0  0
   35.1303    4.0313  -29.1397 H   0  0  0  0  0
   36.1392    2.6841  -29.0311 H   0  0  0  0  0
   35.9258    2.1138  -31.3475 H   0  0  0  0  0
   35.7717    3.8036  -31.8372 H   0  0  0  0  0
   33.5029    3.2829  -32.0342 H   0  0  0  0  0
   33.4853    3.5278  -30.2882 H   0  0  0  0  0
   33.4800    1.3000  -29.8127 H   0  0  0  0  0
   34.3721    0.8812  -31.3636 H   0  0  0  0  0
   31.6374    1.8721  -31.4408 H   0  0  0  0  0
   31.9962    0.1370  -30.9494 H   0  0  0  0  0
   31.4927    0.3549  -33.2528 H   0  0  0  0  0
   32.7426    1.4368  -33.4629 H   0  0  0  0  0
   33.0677   -0.1358  -33.0176 H   0  0  0  0  0
  1  2  2  0  0  0
  1  3  1  0  0  0
  1  4  1  0  0  0
  4  5  1  0  0  0
  5  6  1  0  0  0
  6  7  1  0  0  0
  7  8  1  0  0  0
  8  9  1  0  0  0
  3 10  1  0  0  0
  4 11  1  0  0  0
  4 12  1  0  0  0
  5 13  1  0  0  0
  5 14  1  0  0  0
  6 15  1  0  0  0
  6 16  1  0  0  0
  7 17  1  0  0  0
  7 18  1  0  0  0
  8 19  1  0  0  0
  8 20  1  0  0  0
  9 21  1  0  0  0
  9 22  1  0  0  0
  9 23  1  0  0  0
M  END
$$$$
