4okp_ligand
  -I-interpret- 

 26 26  0  0  0  0  0  0  0  0999 V2000
   63.0310    6.1080   48.1280 O   0  0  0  0  0
   64.1420    6.5290   48.5260 C   0  0  0  0  0
   65.0180    5.8460   49.0970 O   0  0  0  0  0
   64.4480    8.0220   48.3490 C   0  0  0  0  0
   65.7570    8.3050   48.9530 N   0  3  0  0  0
   64.4460    8.4600   46.8690 C   0  0  0  0  0
   65.4620    7.6130   46.1940 N   0  0  0  0  0
   64.7360   10.1310   46.3670 S   0  0  0  0  0
   64.5280    9.8200   44.5710 C   0  0  0  0  0
   65.4520    8.8820   44.1520 C   0  0  0  0  0
   65.9270    8.9890   42.8530 C   0  0  0  0  0
   65.7610    7.7310   44.8910 C   0  0  0  0  0
   66.7140    6.8500   44.3910 C   0  0  0  0  0
   66.3710    5.7030   44.0290 O   0  0  0  0  0
   67.9210    7.1740   44.3750 O   0  0  0  0  0
   62.5430    6.8291   47.7236 H   0  0  0  0  0
   63.6593    8.5895   48.8430 H   0  0  0  0  0
   65.7495    8.0127   49.9302 H   0  0  0  0  0
   66.4806    7.7924   48.4490 H   0  0  0  0  0
   65.9464    9.3057   48.8976 H   0  0  0  0  0
   63.3966    8.3480   46.5965 H   0  0  0  0  0
   64.6818   10.7494   44.0227 H   0  0  0  0  0
   63.5217    9.4458   44.3828 H   0  0  0  0  0
   65.5701    9.7908   42.2065 H   0  0  0  0  0
   66.6571    8.2713   42.4788 H   0  0  0  0  0
   65.4175    5.6177   44.1009 H   0  0  0  0  0
  1  2  1  0  0  0
  2  3  2  0  0  0
  2  4  1  0  0  0
  4  5  1  0  0  0
  4  6  1  0  0  0
  6  7  1  0  0  0
  6  8  1  0  0  0
  7 12  2  0  0  0
  8  9  1  0  0  0
  9 10  1  0  0  0
 10 11  2  0  0  0
 10 12  1  0  0  0
 12 13  1  0  0  0
 13 14  1  0  0  0
 13 15  2  0  0  0
  1 16  1  0  0  0
  4 17  1  0  0  0
  5 18  1  0  0  0
  5 19  1  0  0  0
  5 20  1  0  0  0
  6 21  1  0  0  0
  9 22  1  0  0  0
  9 23  1  0  0  0
 11 24  1  0  0  0
 11 25  1  0  0  0
 14 26  1  0  0  0
M  END
$$$$
