6qau_ligand
  -I-interpret- 

 69 73  0  0  0  0  0  0  0  0999 V2000
   37.5730  -44.4250  -31.3450 C   0  0  0  0  0
   36.8910  -45.5950  -32.0600 C   0  0  0  0  0
   37.4030  -45.0350  -33.3730 C   0  0  0  0  0
   37.6270  -43.7010  -32.6770 C   0  0  0  0  0
   38.8850  -42.9200  -32.9890 C   0  0  0  0  0
   39.6440  -43.2440  -33.8980 O   0  0  0  0  0
   39.0950  -41.8450  -32.2330 N   0  0  0  0  0
   40.2700  -40.9970  -32.3750 C   0  0  0  0  0
   41.2850  -41.2820  -31.2970 C   0  0  0  0  0
   41.7520  -42.7190  -31.2790 C   0  0  0  0  0
   42.4430  -43.0740  -32.5060 N   0  0  0  0  0
   43.6730  -42.6320  -32.8080 C   0  0  0  0  0
   44.4220  -42.1220  -31.8260 N   0  0  0  0  0
   44.1600  -42.7470  -34.1150 C   0  0  0  0  0
   43.2380  -43.1160  -35.2590 C   0  0  0  0  0
   43.7540  -43.6570  -36.5530 C   0  0  0  0  0
   43.0210  -44.5440  -35.6390 C   0  0  0  0  0
   45.4720  -42.3580  -34.3010 C   0  0  0  0  0
   46.2560  -41.8740  -33.3280 N   0  0  0  0  0
   45.6820  -41.7870  -32.1240 C   0  0  0  0  0
   46.4550  -41.4770  -31.0570 N   0  0  0  0  0
   46.1360  -41.1370  -29.7400 C   0  0  0  0  0
   47.0960  -41.1800  -28.7410 C   0  0  0  0  0
   44.8640  -40.6840  -29.4420 C   0  0  0  0  0
   44.5410  -40.3490  -28.1410 C   0  0  0  0  0
   45.4790  -40.4790  -27.1350 C   0  0  0  0  0
   46.7650  -40.9050  -27.4190 C   0  0  0  0  0
   47.7350  -41.2050  -26.3020 C   0  0  0  0  0
   48.5990  -40.0760  -25.9360 N   0  3  0  0  0
   49.1840  -40.2920  -24.6020 C   0  0  0  0  0
   50.4900  -39.5560  -24.4760 C   0  0  0  0  0
   50.4860  -38.3590  -25.2360 O   0  0  0  0  0
   50.5010  -38.6690  -26.6200 C   0  0  0  0  0
   49.6820  -39.9060  -26.9290 C   0  0  0  0  0
   38.4752  -44.5784  -30.7528 H   0  0  0  0  0
   37.1175  -43.9591  -30.4712 H   0  0  0  0  0
   35.8305  -45.7997  -31.9136 H   0  0  0  0  0
   37.0981  -46.6255  -31.7715 H   0  0  0  0  0
   36.7993  -45.0968  -34.2784 H   0  0  0  0  0
   38.2142  -45.5266  -33.9100 H   0  0  0  0  0
   36.9732  -42.8561  -32.8931 H   0  0  0  0  0
   38.4028  -41.6048  -31.5234 H   0  0  0  0  0
   39.9585  -39.9558  -32.2917 H   0  0  0  0  0
   40.7274  -41.1974  -33.3439 H   0  0  0  0  0
   40.8112  -41.0780  -30.3368 H   0  0  0  0  0
   42.1556  -40.6555  -31.4909 H   0  0  0  0  0
   40.8784  -43.3630  -31.1779 H   0  0  0  0  0
   42.4438  -42.8451  -30.4462 H   0  0  0  0  0
   41.9708  -43.6883  -33.1694 H   0  0  0  0  0
   42.6055  -42.2755  -34.9734 H   0  0  0  0  0
   44.2866  -43.5046  -37.4917 H   0  0  0  0  0
   42.6145  -45.5284  -35.4070 H   0  0  0  0  0
   45.8959  -42.4504  -35.3009 H   0  0  0  0  0
   47.4563  -41.4950  -31.2504 H   0  0  0  0  0
   48.1252  -41.4331  -28.9956 H   0  0  0  0  0
   44.1180  -40.5914  -30.2314 H   0  0  0  0  0
   43.5421  -39.9807  -27.9074 H   0  0  0  0  0
   45.2035  -40.2437  -26.1070 H   0  0  0  0  0
   48.3851  -42.0087  -26.6478 H   0  0  0  0  0
   47.1438  -41.4562  -25.4214 H   0  0  0  0  0
   48.0281  -39.2308  -25.9204 H   0  0  0  0  0
   49.3625  -41.3580  -24.4612 H   0  0  0  0  0
   48.4923  -39.9191  -23.8466 H   0  0  0  0  0
   51.2869  -40.1995  -24.8488 H   0  0  0  0  0
   50.6425  -39.2994  -23.4277 H   0  0  0  0  0
   51.5324  -38.8581  -26.9174 H   0  0  0  0  0
   50.0702  -37.8284  -27.1639 H   0  0  0  0  0
   49.2391  -39.7977  -27.9190 H   0  0  0  0  0
   50.3339  -40.7788  -26.8930 H   0  0  0  0  0
  1  2  1  0  0  0
  1  4  1  0  0  0
  2  3  1  0  0  0
  3  4  1  0  0  0
  4  5  1  0  0  0
  5  6  2  0  0  0
  5  7  1  0  0  0
  7  8  1  0  0  0
  8  9  1  0  0  0
  9 10  1  0  0  0
 10 11  1  0  0  0
 11 12  1  0  0  0
 12 13  4  0  0  0
 12 14  4  0  0  0
 13 20  4  0  0  0
 14 15  1  0  0  0
 14 18  4  0  0  0
 15 16  1  0  0  0
 15 17  1  0  0  0
 16 17  2  0  0  0
 18 19  4  0  0  0
 19 20  4  0  0  0
 20 21  1  0  0  0
 21 22  1  0  0  0
 22 23  4  0  0  0
 22 24  4  0  0  0
 23 27  4  0  0  0
 24 25  4  0  0  0
 25 26  4  0  0  0
 26 27  4  0  0  0
 27 28  1  0  0  0
 28 29  1  0  0  0
 29 30  1  0  0  0
 29 34  1  0  0  0
 30 31  1  0  0  0
 31 32  1  0  0  0
 32 33  1  0  0  0
 33 34  1  0  0  0
  1 35  1  0  0  0
  1 36  1  0  0  0
  2 37  1  0  0  0
  2 38  1  0  0  0
  3 39  1  0  0  0
  3 40  1  0  0  0
  4 41  1  0  0  0
  7 42  1  0  0  0
  8 43  1  0  0  0
  8 44  1  0  0  0
  9 45  1  0  0  0
  9 46  1  0  0  0
 10 47  1  0  0  0
 10 48  1  0  0  0
 11 49  1  0  0  0
 15 50  1  0  0  0
 16 51  1  0  0  0
 17 52  1  0  0  0
 18 53  1  0  0  0
 21 54  1  0  0  0
 23 55  1  0  0  0
 24 56  1  0  0  0
 25 57  1  0  0  0
 26 58  1  0  0  0
 28 59  1  0  0  0
 28 60  1  0  0  0
 29 61  1  0  0  0
 30 62  1  0  0  0
 30 63  1  0  0  0
 31 64  1  0  0  0
 31 65  1  0  0  0
 33 66  1  0  0  0
 33 67  1  0  0  0
 34 68  1  0  0  0
 34 69  1  0  0  0
M  END
$$$$
