5zhm_ligand
  -I-interpret- 

 49 51  0  0  0  0  0  0  0  0999 V2000
   47.7150  123.2820   20.6500 C   0  0  0  0  0
   48.2590  122.2090   19.6760 C   0  0  0  0  0
   47.8800  120.8040   20.0040 N   0  3  0  0  0
   48.6390  120.2600   21.1670 C   0  0  0  0  0
   47.7840  120.1270   22.4400 C   0  0  0  0  0
   48.1960  119.9590   18.8220 C   0  0  0  0  0
   47.0910  119.2130   18.3940 C   0  0  0  0  0
   46.3420  119.6620   17.2970 C   0  0  0  0  0
   45.2130  118.9650   16.8490 C   0  0  0  0  0
   46.7380  118.0160   19.0350 C   0  0  0  0  0
   45.6120  117.3110   18.5900 C   0  0  0  0  0
   44.8440  117.7980   17.5150 C   0  0  0  0  0
   43.7340  117.1050   17.0960 C   0  0  0  0  0
   44.1750  116.1930   16.0470 N   0  0  0  0  0
   44.0170  114.8690   16.1090 C   0  0  0  0  0
   43.5110  114.3440   17.1080 O   0  0  0  0  0
   44.4560  114.1000   15.0690 C   0  0  0  0  0
   44.8410  114.4770   13.7900 C   0  0  0  0  0
   44.9180  115.6800   13.1320 C   0  0  0  0  0
   44.6010  116.7640   13.6380 O   0  0  0  0  0
   45.3690  115.7690   11.7690 N   0  0  0  0  0
   45.6590  114.6820   11.0860 C   0  0  0  0  0
   45.5460  113.4640   11.7540 N   0  0  0  0  0
   45.1830  113.3820   13.0430 C   0  0  0  0  0
   44.9710  111.9720   13.9330 S   0  0  0  0  0
   44.4350  112.7640   15.2950 C   0  0  0  0  0
   46.6256  123.2467   20.6558 H   0  0  0  0  0
   48.0915  123.0842   21.6536 H   0  0  0  0  0
   48.0461  124.2680   20.3241 H   0  0  0  0  0
   49.3465  122.2605   19.7288 H   0  0  0  0  0
   47.8315  122.4285   18.6976 H   0  0  0  0  0
   46.8884  120.7950   20.2429 H   0  0  0  0  0
   49.4510  120.9537   21.3853 H   0  0  0  0  0
   48.9872  119.2630   20.8972 H   0  0  0  0  0
   47.4029  121.1078   22.7243 H   0  0  0  0  0
   46.9491  119.4535   22.2466 H   0  0  0  0  0
   48.3967  119.7258   23.2473 H   0  0  0  0  0
   48.9860  119.2631   19.1043 H   0  0  0  0  0
   48.4978  120.6162   18.0064 H   0  0  0  0  0
   46.6451  120.5734   16.7817 H   0  0  0  0  0
   44.6358  119.3273   15.9983 H   0  0  0  0  0
   47.3318  117.6396   19.8680 H   0  0  0  0  0
   45.3286  116.3792   19.0793 H   0  0  0  0  0
   42.9714  117.7871   16.7200 H   0  0  0  0  0
   43.2864  116.5548   17.9237 H   0  0  0  0  0
   44.6280  116.5875   15.2226 H   0  0  0  0  0
   45.9737  114.7321   10.0436 H   0  0  0  0  0
   45.7466  112.6036   11.2443 H   0  0  0  0  0
   44.1177  112.2846   16.2211 H   0  0  0  0  0
  1  2  1  0  0  0
  2  3  1  0  0  0
  3  4  1  0  0  0
  3  6  1  0  0  0
  4  5  1  0  0  0
  6  7  1  0  0  0
  7  8  4  0  0  0
  7 10  4  0  0  0
  8  9  4  0  0  0
  9 12  4  0  0  0
 10 11  4  0  0  0
 11 12  4  0  0  0
 12 13  1  0  0  0
 13 14  1  0  0  0
 14 15  1  0  0  0
 15 16  2  0  0  0
 15 17  1  0  0  0
 17 18  4  0  0  0
 17 26  4  0  0  0
 18 19  1  0  0  0
 18 24  4  0  0  0
 19 20  2  0  0  0
 19 21  1  0  0  0
 21 22  2  0  0  0
 22 23  1  0  0  0
 23 24  1  0  0  0
 24 25  4  0  0  0
 25 26  4  0  0  0
  1 27  1  0  0  0
  1 28  1  0  0  0
  1 29  1  0  0  0
  2 30  1  0  0  0
  2 31  1  0  0  0
  3 32  1  0  0  0
  4 33  1  0  0  0
  4 34  1  0  0  0
  5 35  1  0  0  0
  5 36  1  0  0  0
  5 37  1  0  0  0
  6 38  1  0  0  0
  6 39  1  0  0  0
  8 40  1  0  0  0
  9 41  1  0  0  0
 10 42  1  0  0  0
 11 43  1  0  0  0
 13 44  1  0  0  0
 13 45  1  0  0  0
 14 46  1  0  0  0
 22 47  1  0  0  0
 23 48  1  0  0  0
 26 49  1  0  0  0
M  END
$$$$
