5lyy_ligand
  -I-interpret- 

 41 43  0  0  0  0  0  0  0  0999 V2000
   22.5580    9.0260   -4.5260 C   0  0  0  0  0
   23.2160    7.9420   -5.0190 C   0  0  0  0  0
   24.1190    7.5620   -2.8270 C   0  0  0  0  0
   25.5680    5.7080   -2.3270 C   0  0  0  0  0
   26.2250    5.0710   -1.1380 C   0  0  0  0  0
   28.1890    3.5960   -1.7310 C   0  0  0  0  0
   27.1460    1.4920   -1.7320 C   0  0  0  0  0
   26.8160    0.7230   -3.0170 C   0  0  0  0  0
   27.7060   -0.4930   -3.2200 C   0  0  0  0  0
   27.6630   -1.4080   -2.0070 C   0  0  0  0  0
   26.1290    2.6070   -1.5070 C   0  0  0  0  0
   23.4360    8.6730   -2.3530 C   0  0  0  0  0
   22.6470    9.4100   -3.2170 C   0  0  0  0  0
   21.7800    9.7560   -5.3720 F   0  0  0  0  0
   24.0060    7.1980   -4.1680 C   0  0  0  0  0
   24.8770    6.8900   -1.8990 O   0  0  0  0  0
   26.8260    3.7840   -1.4620 N   0  0  0  0  0
   29.0180    4.4820   -1.8270 O   0  0  0  0  0
   28.3730    2.2740   -1.8540 N   0  0  0  0  0
   28.0650   -0.6600   -0.7460 C   0  0  0  0  0
   27.1740    0.5500   -0.5250 C   0  0  0  0  0
   24.9340    2.4850   -1.3890 O   0  0  0  0  0
   23.1203    7.6662   -6.0692 H   0  0  0  0  0
   24.8608    5.0099   -2.7749 H   0  0  0  0  0
   26.3229    5.9707   -3.0681 H   0  0  0  0  0
   25.4615    4.9059   -0.3778 H   0  0  0  0  0
   27.0161    5.7362   -0.7920 H   0  0  0  0  0
   26.9735    1.3967   -3.8593 H   0  0  0  0  0
   25.7859    0.3744   -2.9426 H   0  0  0  0  0
   28.7318   -0.1550   -3.3669 H   0  0  0  0  0
   27.3490   -1.0466   -4.0885 H   0  0  0  0  0
   28.3616   -2.2298   -2.1639 H   0  0  0  0  0
   26.6453   -1.7786   -1.8844 H   0  0  0  0  0
   23.5209    8.9631   -1.3057 H   0  0  0  0  0
   22.1037   10.2847   -2.8594 H   0  0  0  0  0
   24.5416    6.3261   -4.5435 H   0  0  0  0  0
   29.2873    1.8525   -2.0180 H   0  0  0  0  0
   29.0954   -0.3211   -0.8534 H   0  0  0  0  0
   27.9623   -1.3309    0.1069 H   0  0  0  0  0
   26.1585    0.1915   -0.3568 H   0  0  0  0  0
   27.5700    1.1064    0.3245 H   0  0  0  0  0
  2  1  4  0  0  0
  1 13  4  0  0  0
  1 14  1  0  0  0
 15  2  4  0  0  0
  3 12  4  0  0  0
  3 15  4  0  0  0
 16  3  1  0  0  0
  5  4  1  0  0  0
  4 16  1  0  0  0
 17  5  1  0  0  0
  6 17  1  0  0  0
  6 18  2  0  0  0
 19  6  1  0  0  0
  7  8  1  0  0  0
  7 11  1  0  0  0
  7 19  1  0  0  0
  7 21  1  0  0  0
  8  9  1  0  0  0
  9 10  1  0  0  0
 10 20  1  0  0  0
 11 17  1  0  0  0
 11 22  2  0  0  0
 12 13  4  0  0  0
 20 21  1  0  0  0
  2 23  1  0  0  0
  4 24  1  0  0  0
  4 25  1  0  0  0
  5 26  1  0  0  0
  5 27  1  0  0  0
  8 28  1  0  0  0
  8 29  1  0  0  0
  9 30  1  0  0  0
  9 31  1  0  0  0
 10 32  1  0  0  0
 10 33  1  0  0  0
 12 34  1  0  0  0
 13 35  1  0  0  0
 15 36  1  0  0  0
 19 37  1  0  0  0
 20 38  1  0  0  0
 20 39  1  0  0  0
 21 40  1  0  0  0
 21 41  1  0  0  0
M  END
$$$$
