5u7i_ligand
  -I-interpret- 

 52 55  0  0  0  0  0  0  0  0999 V2000
    9.5240   -6.1700   -7.2520 N   0  0  0  0  0
    7.8760   -4.7770   -4.3220 C   0  0  0  0  0
    8.4730   -5.4790   -9.0950 N   0  0  0  0  0
    6.4400   -4.3020   -7.7290 C   0  0  0  0  0
    7.4490   -4.8770   -6.9390 C   0  0  0  0  0
    8.4560   -5.4880   -7.7530 C   0  0  0  0  0
   10.7810   -9.8210   -5.6020 C   0  0  0  0  0
    4.3980   -2.9270   -7.2780 C   0  0  0  0  0
    7.4330   -4.8550   -9.6530 C   0  0  0  0  0
    5.9680   -3.8840   -5.5630 N   0  0  0  0  0
   10.8850  -11.1750   -5.8850 C   0  0  0  0  0
   10.9630  -11.6520   -3.5330 C   0  0  0  0  0
   10.9300  -12.3420   -1.2240 C   0  0  0  0  0
    8.8260   -2.4580   -4.1310 C   0  0  0  0  0
    9.1530   -3.9370   -4.1970 C   0  0  0  0  0
    9.9490   -4.3390   -2.9700 C   0  0  0  0  0
    7.0800   -4.5490   -5.5830 C   0  0  0  0  0
    6.3830   -4.2770   -9.0670 N   0  0  0  0  0
    9.8090   -6.8590   -5.9850 C   0  0  0  0  0
   10.9290   -7.6070   -6.7160 C   0  0  0  0  0
   10.4680   -6.9840   -8.0380 C   0  0  0  0  0
   10.5710   -9.0250   -6.7080 O   0  0  0  0  0
   10.8110   -9.3780   -4.2860 C   0  0  0  0  0
   10.8870  -10.2930   -3.2510 C   0  0  0  0  0
   10.9910  -12.0900   -4.8500 C   0  0  0  0  0
   10.9780  -12.6710   -2.6130 O   0  0  0  0  0
    5.5680   -3.7060   -6.8900 N   0  0  0  0  0
    7.2320   -4.4943   -3.4893 H   0  0  0  0  0
    8.1875   -5.8215   -4.3324 H   0  0  0  0  0
    4.7137   -2.0749   -7.8799 H   0  0  0  0  0
    3.7223   -3.5539   -7.8597 H   0  0  0  0  0
    3.8865   -2.5719   -6.3834 H   0  0  0  0  0
    7.4432   -4.8116  -10.7421 H   0  0  0  0  0
   10.8833  -11.5184   -6.9195 H   0  0  0  0  0
   11.7914  -11.7251   -0.9681 H   0  0  0  0  0
   10.0125  -11.7924   -1.0136 H   0  0  0  0  0
   10.9496  -13.2583   -0.6340 H   0  0  0  0  0
    8.2378   -2.2569   -3.2357 H   0  0  0  0  0
    9.7518   -1.8837   -4.0956 H   0  0  0  0  0
    8.2542   -2.1738   -5.0144 H   0  0  0  0  0
    9.7562   -4.1245   -5.0853 H   0  0  0  0  0
   10.8747   -3.7646   -2.9347 H   0  0  0  0  0
    9.3606   -4.1377   -2.0748 H   0  0  0  0  0
   10.1817   -5.4026   -3.0218 H   0  0  0  0  0
    9.0296   -7.3942   -5.4426 H   0  0  0  0  0
   10.0031   -6.3026   -5.0680 H   0  0  0  0  0
   11.9720   -7.5458   -6.4054 H   0  0  0  0  0
   11.1765   -6.5253   -8.7277 H   0  0  0  0  0
   10.1299   -7.6017   -8.8700 H   0  0  0  0  0
   10.7747   -8.3105   -4.0688 H   0  0  0  0  0
   10.8873   -9.9489   -2.2167 H   0  0  0  0  0
   11.0962  -13.1525   -5.0696 H   0  0  0  0  0
  1  6  1  0  0  0
 19  1  1  0  0  0
 21  1  1  0  0  0
  2 15  1  0  0  0
 17  2  1  0  0  0
  6  3  4  0  0  0
  3  9  4  0  0  0
  5  4  4  0  0  0
  4 18  4  0  0  0
  4 27  4  0  0  0
  6  5  4  0  0  0
  5 17  4  0  0  0
  7 11  4  0  0  0
 22  7  1  0  0  0
  7 23  4  0  0  0
 27  8  1  0  0  0
  9 18  4  0  0  0
 17 10  4  0  0  0
 10 27  4  0  0  0
 11 25  4  0  0  0
 12 24  4  0  0  0
 25 12  4  0  0  0
 12 26  1  0  0  0
 26 13  1  0  0  0
 15 14  1  0  0  0
 15 16  1  0  0  0
 20 19  1  0  0  0
 20 21  1  0  0  0
 20 22  1  0  0  0
 23 24  4  0  0  0
  2 28  1  0  0  0
  2 29  1  0  0  0
  8 30  1  0  0  0
  8 31  1  0  0  0
  8 32  1  0  0  0
  9 33  1  0  0  0
 11 34  1  0  0  0
 13 35  1  0  0  0
 13 36  1  0  0  0
 13 37  1  0  0  0
 14 38  1  0  0  0
 14 39  1  0  0  0
 14 40  1  0  0  0
 15 41  1  0  0  0
 16 42  1  0  0  0
 16 43  1  0  0  0
 16 44  1  0  0  0
 19 45  1  0  0  0
 19 46  1  0  0  0
 20 47  1  0  0  0
 21 48  1  0  0  0
 21 49  1  0  0  0
 23 50  1  0  0  0
 24 51  1  0  0  0
 25 52  1  0  0  0
M  END
$$$$
