1tc1_ligand
  -I-interpret- 

 13 14  0  0  0  0  0  0  0  0999 V2000
   -2.2560  -11.9370   20.1060 N   0  0  0  0  0
   -3.3590  -11.4540   20.7280 C   0  0  0  0  0
   -4.4420  -10.9300   20.1490 N   0  0  0  0  0
   -4.3350  -10.9220   18.7490 C   0  0  0  0  0
   -3.2150  -11.4050   18.0550 C   0  0  0  0  0
   -2.1360  -11.9390   18.7640 C   0  0  0  0  0
   -1.0780  -12.4010   18.1510 O   0  0  0  0  0
   -3.4380  -11.2470   16.7190 N   0  0  0  0  0
   -4.6650  -10.6730   16.5090 N   0  0  0  0  0
   -5.2360  -10.4630   17.7150 C   0  0  0  0  0
   -1.4934  -12.3104   20.6711 H   0  0  0  0  0
   -3.3623  -11.4980   21.8171 H   0  0  0  0  0
   -6.2175  -10.0192   17.8819 H   0  0  0  0  0
  1  2  1  0  0  0
  1  6  1  0  0  0
  2  3  2  0  0  0
  3  4  1  0  0  0
  4  5  4  0  0  0
  4 10  4  0  0  0
  5  6  1  0  0  0
  5  8  4  0  0  0
  6  7  2  0  0  0
  8  9  4  0  0  0
  9 10  4  0  0  0
  1 11  1  0  0  0
  2 12  1  0  0  0
 10 13  1  0  0  0
M  END
$$$$
