4fea_ligand
  -I-interpret- 

 33 36  0  0  0  0  0  0  0  0999 V2000
  -49.4630   32.0450   27.3510 Cl  0  0  0  0  0
  -49.8130   35.3420   27.3760 C   0  0  0  0  0
  -50.4740   34.9850   26.1990 N   0  0  0  0  0
  -50.9940   31.0980   24.4510 S   0  0  0  0  0
  -49.7770   36.6990   27.7460 C   0  0  0  0  0
  -52.9390   37.2990   23.2830 N   0  0  0  0  0
  -52.4790   30.7170   21.7920 S   0  0  0  0  0
  -50.3990   37.6360   26.8760 C   0  0  0  0  0
  -51.5560   33.8540   24.0600 N   0  3  0  0  0
  -51.0740   37.2580   25.6500 C   0  0  0  0  0
  -52.0920   33.0190   22.9770 N   0  0  0  0  0
  -51.0930   35.8740   25.2750 C   0  0  0  0  0
  -51.7460   35.2310   24.0720 C   0  0  0  0  0
  -52.4900   35.9900   22.9520 C   0  0  0  0  0
  -52.7590   35.4120   21.6490 C   0  0  0  0  0
  -53.4820   36.2610   20.7710 C   0  0  0  0  0
  -53.9390   37.5520   21.0670 C   0  0  0  0  0
  -53.6470   38.0780   22.3740 C   0  0  0  0  0
  -51.8550   31.8110   23.1130 C   0  0  0  0  0
  -53.2910   31.9020   20.6590 C   0  0  0  0  0
  -50.5800   32.9920   25.5500 Cu  0  0  0  0  0
  -49.3342   34.5842   27.9961 H   0  0  0  0  0
  -49.2898   37.0204   28.6665 H   0  0  0  0  0
  -50.3667   38.6919   27.1445 H   0  0  0  0  0
  -51.5570   38.0101   25.0262 H   0  0  0  0  0
  -52.6116   33.3990   22.1858 H   0  0  0  0  0
  -52.4334   34.4104   21.3680 H   0  0  0  0  0
  -53.7017   35.8735   19.7762 H   0  0  0  0  0
  -54.4953   38.1364   20.3341 H   0  0  0  0  0
  -53.9781   39.0793   22.6496 H   0  0  0  0  0
  -54.0865   32.4241   21.1906 H   0  0  0  0  0
  -52.5561   32.6237   20.3024 H   0  0  0  0  0
  -53.7125   31.3617   19.8113 H   0  0  0  0  0
  3  2  4  0  0  0
  2  5  4  0  0  0
  3 12  4  0  0  0
 19  4  2  0  0  0
  5  8  4  0  0  0
 14  6  4  0  0  0
  6 18  4  0  0  0
 19  7  1  0  0  0
  7 20  1  0  0  0
 10  8  4  0  0  0
  9 11  1  0  0  0
 13  9  2  0  0  0
 12 10  4  0  0  0
 11 19  1  0  0  0
 12 13  1  0  0  0
 13 14  1  0  0  0
 14 15  4  0  0  0
 15 16  4  0  0  0
 16 17  4  0  0  0
 18 17  4  0  0  0
 21  1  1  0  0  0
 21  3  1  0  0  0
 21  4  1  0  0  0
 21  9  1  0  0  0
  2 22  1  0  0  0
  5 23  1  0  0  0
  8 24  1  0  0  0
 10 25  1  0  0  0
 11 26  1  0  0  0
 15 27  1  0  0  0
 16 28  1  0  0  0
 17 29  1  0  0  0
 18 30  1  0  0  0
 20 31  1  0  0  0
 20 32  1  0  0  0
 20 33  1  0  0  0
M  END
$$$$
