### 
### Created by X-TOOL on Mon Sep 10 21:13:11 2018
### 

@<TRIPOS>MOLECULE
4fea_ligand
   33    36     1     0     0
SMALL
GAST_HUCK


@<TRIPOS>ATOM
      1 CL1       -49.4630   32.0450   27.3510 Cl        1 0TE         0.0000
      2 C1        -49.8130   35.3420   27.3760 C.ar      1 0TE         0.0626
      3 N1        -50.4740   34.9850   26.1990 N.ar      1 0TE        -0.2223
      4 S1        -50.9940   31.0980   24.4510 S.2       1 0TE         0.2855
      5 C2        -49.7770   36.6990   27.7460 C.ar      1 0TE         0.0125
      6 N2        -52.9390   37.2990   23.2830 N.ar      1 0TE        -0.2223
      7 S2        -52.4790   30.7170   21.7920 S.3       1 0TE         0.0753
      8 C3        -50.3990   37.6360   26.8760 C.ar      1 0TE         0.0055
      9 N3        -51.5560   33.8540   24.0600 N.2       1 0TE         0.1556
     10 C4        -51.0740   37.2580   25.6500 C.ar      1 0TE         0.0351
     11 N4        -52.0920   33.0190   22.9770 N.am      1 0TE         0.0537
     12 C5        -51.0930   35.8740   25.2750 C.ar      1 0TE         0.1957
     13 C6        -51.7460   35.2310   24.0720 C.2       1 0TE         0.3362
     14 C7        -52.4900   35.9900   22.9520 C.ar      1 0TE         0.1957
     15 C8        -52.7590   35.4120   21.6490 C.ar      1 0TE         0.0351
     16 C9        -53.4820   36.2610   20.7710 C.ar      1 0TE         0.0055
     17 C10       -53.9390   37.5520   21.0670 C.ar      1 0TE         0.0125
     18 C11       -53.6470   38.0780   22.3740 C.ar      1 0TE         0.0626
     19 C12       -51.8550   31.8110   23.1130 C.2       1 0TE         0.4808
     20 C13       -53.2910   31.9020   20.6590 C.3       1 0TE         0.0257
     21 CU1       -50.5800   32.9920   25.5500 Cu        1 0TE         2.0000
     22 H         -49.3342   34.5842   27.9961 H         1 0TE         0.1056
     23 H         -49.2898   37.0204   28.6665 H         1 0TE         0.1078
     24 H         -50.3667   38.6919   27.1445 H         1 0TE         0.0855
     25 H         -51.5570   38.0101   25.0262 H         1 0TE         0.1091
     26 H         -52.6116   33.3990   22.1858 H         1 0TE         0.4699
     27 H         -52.4334   34.4104   21.3680 H         1 0TE         0.1091
     28 H         -53.7017   35.8735   19.7762 H         1 0TE         0.0855
     29 H         -54.4953   38.1364   20.3341 H         1 0TE         0.1078
     30 H         -53.9781   39.0793   22.6496 H         1 0TE         0.1056
     31 H         -54.0865   32.4241   21.1906 H         1 0TE         0.0411
     32 H         -52.5561   32.6237   20.3024 H         1 0TE         0.0411
     33 H         -53.7125   31.3617   19.8113 H         1 0TE         0.0411
@<TRIPOS>BOND
     1    3    2 ar 
     2    2    5 ar 
     3    3   12 ar 
     4   19    4 2  
     5    5    8 ar 
     6   14    6 ar 
     7    6   18 ar 
     8   19    7 1  
     9    7   20 1  
    10   10    8 ar 
    11    9   11 1  
    12   13    9 2  
    13   12   10 ar 
    14   11   19 am 
    15   12   13 1  
    16   13   14 1  
    17   14   15 ar 
    18   15   16 ar 
    19   16   17 ar 
    20   18   17 ar 
    21   21    1 1  
    22   21    3 1  
    23   21    4 1  
    24   21    9 1  
    25    2   22 1  
    26    5   23 1  
    27    8   24 1  
    28   10   25 1  
    29   11   26 1  
    30   15   27 1  
    31   16   28 1  
    32   17   29 1  
    33   18   30 1  
    34   20   31 1  
    35   20   32 1  
    36   20   33 1  
@<TRIPOS>SUBSTRUCTURE
     1 0TE         1

