3fz1_ligand
  -I-interpret- 

 35 37  0  0  0  0  0  0  0  0999 V2000
   -0.3170   32.1980    8.3620 C   0  0  0  0  0
   -1.4400   32.0240    9.1380 C   0  0  0  0  0
    0.2550   29.8710    8.5670 C   0  0  0  0  0
   -0.8770   29.6740    9.3540 C   0  0  0  0  0
   -1.3760   28.4800    9.9670 C   0  0  0  0  0
    0.5100   31.1400    8.0800 C   0  0  0  0  0
   -1.6970   30.7630    9.6130 C   0  0  0  0  0
   -2.5480   28.6460   10.6870 C   0  0  0  0  0
   -3.4180   27.7780   11.4520 C   0  0  0  0  0
   -1.3190   26.0480   10.1610 C   0  0  0  0  0
   -1.7010   25.9580   11.6220 C   0  0  0  0  0
    2.0140   30.1650    6.7170 C   0  0  0  0  0
   -0.6630   26.3890   12.6340 C   0  0  0  0  0
   -0.6970   27.3120    9.8150 N   0  0  0  0  0
   -2.9580   26.5700   11.9090 N   0  0  0  0  0
   -1.3130   26.3280   13.9740 N   0  3  0  0  0
   -4.5780   28.0840   11.6970 O   0  0  0  0  0
    1.6230   31.4060    7.2860 O   0  0  0  0  0
   -3.0310   30.2880   10.5950 S   0  0  0  0  0
   -0.0820   33.1865    7.9673 H   0  0  0  0  0
   -2.1022   32.8589    9.3672 H   0  0  0  0  0
    0.9258   29.0425    8.3397 H   0  0  0  0  0
   -2.2318   25.9549    9.5726 H   0  0  0  0  0
   -0.5983   25.2562    9.9567 H   0  0  0  0  0
   -1.7821   24.8792   11.7553 H   0  0  0  0  0
    2.2604   29.4630    7.5137 H   0  0  0  0  0
    1.1939   29.7659    6.1201 H   0  0  0  0  0
    2.8868   30.3168    6.0820 H   0  0  0  0  0
   -0.3108   27.3982   12.4207 H   0  0  0  0  0
    0.2082   25.7350   12.5968 H   0  0  0  0  0
    0.2572   27.3246    9.4549 H   0  0  0  0  0
   -3.5847   26.0501   12.5233 H   0  0  0  0  0
   -0.6432   26.6126   14.6887 H   0  0  0  0  0
   -2.1164   26.9562   13.9898 H   0  0  0  0  0
   -1.6226   25.3735   14.1573 H   0  0  0  0  0
  2  1  4  0  0  0
  6  1  4  0  0  0
  7  2  4  0  0  0
  4  3  4  0  0  0
  3  6  4  0  0  0
  5  4  4  0  0  0
  4  7  4  0  0  0
  5  8  4  0  0  0
 14  5  1  0  0  0
  6 18  1  0  0  0
 19  7  4  0  0  0
  8  9  1  0  0  0
  8 19  4  0  0  0
  9 15  1  0  0  0
  9 17  2  0  0  0
 10 11  1  0  0  0
 10 14  1  0  0  0
 11 13  1  0  0  0
 11 15  1  0  0  0
 18 12  1  0  0  0
 13 16  1  0  0  0
  1 20  1  0  0  0
  2 21  1  0  0  0
  3 22  1  0  0  0
 10 23  1  0  0  0
 10 24  1  0  0  0
 11 25  1  0  0  0
 12 26  1  0  0  0
 12 27  1  0  0  0
 12 28  1  0  0  0
 13 29  1  0  0  0
 13 30  1  0  0  0
 14 31  1  0  0  0
 15 32  1  0  0  0
 16 33  1  0  0  0
 16 34  1  0  0  0
 16 35  1  0  0  0
M  END
$$$$
