2yjq_ligand
  -I-interpret- 

 64 66  0  0  0  0  0  0  0  0999 V2000
   12.3840  -24.1220   12.3620 C   0  0  0  0  0
   12.8440  -25.5200   11.9400 C   0  0  0  0  0
   14.3950  -25.7150   11.9840 C   0  0  0  0  0
   14.8370  -27.0570   11.4010 C   0  0  0  0  0
   14.2970  -27.2940    9.9620 C   0  0  0  0  0
   13.0750  -23.1640   11.5160 O   0  0  0  0  0
   12.4930  -25.6950   10.5610 O   0  0  0  0  0
   14.8410  -25.6310   13.3380 O   0  0  0  0  0
   16.2760  -27.2530   11.4410 O   0  0  0  0  0
   12.8670  -26.9110    9.9740 N   0  3  0  0  0
   16.0740  -24.2390   14.9090 C   0  0  0  0  0
   17.4230  -23.6090   15.2250 C   0  0  0  0  0
   18.4820  -24.7140   15.2030 C   0  0  0  0  0
   18.4210  -25.6250   13.9800 C   0  0  0  0  0
   19.3160  -26.8360   14.1700 C   0  0  0  0  0
   16.1340  -25.0090   13.5740 C   0  0  0  0  0
   15.0670  -23.2310   14.8120 O   0  0  0  0  0
   17.3630  -23.2110   16.5930 O   0  0  0  0  0
   19.7460  -24.1800   15.1250 O   0  0  0  0  0
   17.0810  -26.0790   13.7470 O   0  0  0  0  0
   19.2080  -27.5500   12.9320 O   0  0  0  0  0
   21.9130  -23.7940   15.8750 C   0  0  0  0  0
   22.8480  -23.7740   17.1070 C   0  0  0  0  0
   22.2100  -23.0390   18.2740 C   0  0  0  0  0
   20.8510  -23.6740   18.5120 C   0  0  0  0  0
   20.2820  -23.0830   19.7980 C   0  0  0  0  0
   20.5610  -24.3310   16.2790 C   0  0  0  0  0
   22.4420  -24.5910   14.8060 O   0  0  0  0  0
   24.0730  -23.1230   16.8200 O   0  0  0  0  0
   23.0090  -23.3270   19.4160 O   0  0  0  0  0
   20.1000  -23.4680   17.3040 O   0  0  0  0  0
   19.1000  -22.3200   19.5760 O   0  0  0  0  0
   12.6177  -23.9433   13.4116 H   0  0  0  0  0
   11.3045  -24.0241   12.2476 H   0  0  0  0  0
   12.3749  -26.2200   12.6314 H   0  0  0  0  0
   14.8374  -24.9278   11.3735 H   0  0  0  0  0
   14.3886  -27.8050   12.0549 H   0  0  0  0  0
   14.4166  -28.3373    9.6699 H   0  0  0  0  0
   14.8518  -26.6988    9.2367 H   0  0  0  0  0
   12.8068  -22.2742   11.7569 H   0  0  0  0  0
   16.5935  -27.1033   12.3345 H   0  0  0  0  0
   12.4086  -27.6265   10.5382 H   0  0  0  0  0
   12.6125  -26.8168    8.9908 H   0  0  0  0  0
   15.8292  -24.9292   15.7164 H   0  0  0  0  0
   17.6463  -22.8004   14.5290 H   0  0  0  0  0
   18.2783  -25.2707   16.1177 H   0  0  0  0  0
   18.7629  -25.0445   13.1231 H   0  0  0  0  0
   19.0118  -27.4428   15.0229 H   0  0  0  0  0
   20.3451  -26.5559   14.3951 H   0  0  0  0  0
   16.4025  -24.3411   12.7555 H   0  0  0  0  0
   14.2226  -23.6419   14.6126 H   0  0  0  0  0
   18.1959  -22.8049   16.8438 H   0  0  0  0  0
   19.7519  -28.3401   12.9711 H   0  0  0  0  0
   21.8244  -22.7702   15.5116 H   0  0  0  0  0
   23.0270  -24.8175   17.3663 H   0  0  0  0  0
   22.1261  -21.9682   18.0886 H   0  0  0  0  0
   20.8519  -24.7499   18.6868 H   0  0  0  0  0
   21.0345  -22.4186   20.2227 H   0  0  0  0  0
   20.0275  -23.9090   20.4621 H   0  0  0  0  0
   20.5643  -25.3652   16.6232 H   0  0  0  0  0
   21.8321  -24.5755   14.0648 H   0  0  0  0  0
   24.6280  -23.1282   17.6033 H   0  0  0  0  0
   22.6419  -22.8809   20.1827 H   0  0  0  0  0
   18.7834  -21.9717   20.4127 H   0  0  0  0  0
  2  1  1  0  0  0
  1  6  1  0  0  0
  3  2  1  0  0  0
  2  7  1  0  0  0
  3  4  1  0  0  0
  8  3  1  0  0  0
  4  5  1  0  0  0
  4  9  1  0  0  0
  5 10  1  0  0  0
  7 10  1  0  0  0
 16  8  1  0  0  0
 12 11  1  0  0  0
 11 16  1  0  0  0
 11 17  1  0  0  0
 13 12  1  0  0  0
 12 18  1  0  0  0
 13 14  1  0  0  0
 19 13  1  0  0  0
 14 15  1  0  0  0
 14 20  1  0  0  0
 15 21  1  0  0  0
 20 16  1  0  0  0
 27 19  1  0  0  0
 22 23  1  0  0  0
 22 27  1  0  0  0
 22 28  1  0  0  0
 23 24  1  0  0  0
 23 29  1  0  0  0
 24 25  1  0  0  0
 24 30  1  0  0  0
 25 26  1  0  0  0
 25 31  1  0  0  0
 26 32  1  0  0  0
 27 31  1  0  0  0
  1 33  1  0  0  0
  1 34  1  0  0  0
  2 35  1  0  0  0
  3 36  1  0  0  0
  4 37  1  0  0  0
  5 38  1  0  0  0
  5 39  1  0  0  0
  6 40  1  0  0  0
  9 41  1  0  0  0
 10 42  1  0  0  0
 10 43  1  0  0  0
 11 44  1  0  0  0
 12 45  1  0  0  0
 13 46  1  0  0  0
 14 47  1  0  0  0
 15 48  1  0  0  0
 15 49  1  0  0  0
 16 50  1  0  0  0
 17 51  1  0  0  0
 18 52  1  0  0  0
 21 53  1  0  0  0
 22 54  1  0  0  0
 23 55  1  0  0  0
 24 56  1  0  0  0
 25 57  1  0  0  0
 26 58  1  0  0  0
 26 59  1  0  0  0
 27 60  1  0  0  0
 28 61  1  0  0  0
 29 62  1  0  0  0
 30 63  1  0  0  0
 32 64  1  0  0  0
M  END
$$$$
