2xl2_ligand
  -I-interpret- 

142141  0  0  0  0  0  0  0  0999 V2000
   13.1240   14.9420  -20.7170 N   0  3  0  0  0
   13.6340   15.6210  -21.9100 C   0  0  0  0  0
   15.1660   15.5910  -21.9950 C   0  0  0  0  0
   15.7410   15.1290  -22.9880 O   0  0  0  0  0
   13.1300   17.0710  -21.9680 C   0  0  0  0  0
   11.7980   17.2080  -22.7020 C   0  0  0  0  0
   11.0640   16.2000  -22.8320 O   0  0  0  0  0
   11.4890   18.3370  -23.1490 O   0  0  0  0  0
   15.8180   16.0980  -20.9550 N   0  0  0  0  0
   17.2720   16.1290  -20.8950 C   0  0  0  0  0
   17.7580   15.3000  -19.7090 C   0  0  0  0  0
   17.0170   15.0900  -18.7470 O   0  0  0  0  0
   17.7740   17.5710  -20.7690 C   0  0  0  0  0
   19.0000   14.8310  -19.7840 N   0  0  0  0  0
   19.6130   14.0630  -18.7040 C   0  0  0  0  0
   19.3990   14.7260  -17.3410 C   0  0  0  0  0
   19.3890   15.9540  -17.2380 O   0  0  0  0  0
   21.1110   13.9310  -18.9570 C   0  0  0  0  0
   21.8230   12.9790  -18.0210 C   0  0  0  0  0
   22.0730   11.6280  -18.6620 C   0  0  0  0  0
   21.3830   11.3060  -19.6540 O   0  0  0  0  0
   22.9630   10.8920  -18.1790 O   0  0  0  0  0
   19.2390   13.9080  -16.3020 N   0  0  0  0  0
   19.0670   14.3920  -14.9310 C   0  0  0  0  0
   19.8900   13.5290  -13.9870 C   0  0  0  0  0
   19.6780   12.3250  -13.9010 O   0  0  0  0  0
   17.6280   14.1840  -14.4350 C   0  0  0  0  0
   17.3960   14.7890  -13.0740 C   0  0  0  0  0
   16.5720   14.4900  -15.4730 C   0  0  0  0  0
   20.8080   14.1410  -13.2600 N   0  0  0  0  0
   21.6410   13.4110  -12.3260 C   0  0  0  0  0
   21.0810   13.5360  -10.9150 C   0  0  0  0  0
   20.9830   14.6320  -10.3710 O   0  0  0  0  0
   23.0650   13.9480  -12.3660 C   0  0  0  0  0
   23.9760   13.2570  -11.3760 C   0  0  0  0  0
   25.0630   12.7980  -11.7970 O   0  0  0  0  0
   23.6010   13.1680  -10.1830 O   0  0  0  0  0
   20.7700   12.3920  -10.3180 N   0  0  0  0  0
   19.9730   12.3040   -9.1070 C   0  0  0  0  0
   20.8240   11.8560   -7.9150 C   0  0  0  0  0
   20.3930   11.9260   -6.7750 O   0  0  0  0  0
   18.8280   11.3120   -9.4330 C   0  0  0  0  0
   18.7990   10.0720   -8.5640 C   0  0  0  0  0
   17.4970   11.9990   -9.7300 C   0  0  0  0  0
   22.0530   11.4280   -8.1860 N   0  0  0  0  0
   22.9150   10.8740   -7.1500 C   0  0  0  0  0
   24.1020   11.7700   -6.8530 C   0  0  0  0  0
   24.6940   11.6840   -5.7770 O   0  0  0  0  0
   23.4720    9.4840   -7.5520 C   0  0  0  0  0
   24.2920    9.6120   -8.7230 O   0  0  0  0  0
   22.3310    8.4840   -7.8170 C   0  0  0  0  0
   24.4650   12.6110   -7.8170 N   0  0  0  0  0
   25.6390   13.4670   -7.6670 C   0  0  0  0  0
   25.3740   14.5910   -6.6900 C   0  0  0  0  0
   24.3670   15.2830   -6.7940 O   0  0  0  0  0
   26.0680   14.0570   -9.0140 C   0  0  0  0  0
   26.6450   13.0680   -9.8480 O   0  0  0  0  0
   26.2750   14.7670   -5.7360 N   0  0  0  0  0
   26.1870   15.9090   -4.8390 C   0  0  0  0  0
   27.4290   16.7780   -5.0150 C   0  0  0  0  0
   28.5150   16.4480   -4.5440 O   0  0  0  0  0
   25.9720   15.4790   -3.3710 C   0  0  0  0  0
   26.2430   13.9810   -3.2070 C   0  0  0  0  0
   26.8170   16.3270   -2.4110 C   0  0  0  0  0
   27.2610   17.8790   -5.7370 N   0  0  0  0  0
   28.3810   18.7410   -6.0860 C   0  0  0  0  0
   28.4830   19.9310   -5.1370 C   0  0  0  0  0
   27.6090   20.1550   -4.2940 O   0  0  0  0  0
   28.2590   19.2220   -7.5380 C   0  0  0  0  0
   27.0300   20.0930   -7.7680 C   0  0  0  0  0
   26.0750   20.0110   -6.9620 O   0  0  0  0  0
   27.0210   20.8590   -8.7600 O   0  0  0  0  0
   29.4490   20.6940   -5.1910 O   0  0  0  0  0
   13.4704   13.9828  -20.6990 H   0  0  0  0  0
   13.4433   15.4358  -19.8836 H   0  0  0  0  0
   12.1043   14.9361  -20.7404 H   0  0  0  0  0
   13.2503   15.0720  -22.7699 H   0  0  0  0  0
   13.8706   17.6596  -22.5094 H   0  0  0  0  0
   12.9826   17.4135  -20.9438 H   0  0  0  0  0
   11.4862   15.4428  -22.4196 H   0  0  0  0  0
   15.2831   16.4776  -20.1738 H   0  0  0  0  0
   17.6696   15.7044  -21.8168 H   0  0  0  0  0
   17.4426   18.1466  -21.6333 H   0  0  0  0  0
   17.3722   18.0160  -19.8587 H   0  0  0  0  0
   18.8631   17.5727  -20.7256 H   0  0  0  0  0
   19.5444   15.0145  -20.6268 H   0  0  0  0  0
   19.1378   13.0822  -18.6870 H   0  0  0  0  0
   21.5489   14.9172  -18.8032 H   0  0  0  0  0
   21.2309   13.5362  -19.9659 H   0  0  0  0  0
   21.1917   12.8279  -17.1453 H   0  0  0  0  0
   22.7875   13.4156  -17.7615 H   0  0  0  0  0
   23.3659   11.3309  -17.4262 H   0  0  0  0  0
   19.2362   12.9017  -16.4686 H   0  0  0  0  0
   19.3503   15.4445  -14.9382 H   0  0  0  0  0
   17.5056   13.1120  -14.2806 H   0  0  0  0  0
   18.0711   14.3280  -12.3530 H   0  0  0  0  0
   17.5860   15.8614  -13.1174 H   0  0  0  0  0
   16.3638   14.6135  -12.7710 H   0  0  0  0  0
   16.6598   15.5314  -15.7828 H   0  0  0  0  0
   16.7136   13.8396  -16.3362 H   0  0  0  0  0
   15.5840   14.3188  -15.0457 H   0  0  0  0  0
   20.9329   15.1485  -13.3584 H   0  0  0  0  0
   21.6491   12.3593  -12.6122 H   0  0  0  0  0
   23.0314   15.0065  -12.1082 H   0  0  0  0  0
   23.4616   13.7719  -13.3659 H   0  0  0  0  0
   22.7423   13.5863  -10.0866 H   0  0  0  0  0
   21.1103   11.5249  -10.7336 H   0  0  0  0  0
   19.5674   13.2717   -8.8119 H   0  0  0  0  0
   19.0764   10.8684  -10.3972 H   0  0  0  0  0
   19.7343    9.5249   -8.6825 H   0  0  0  0  0
   18.6768   10.3637   -7.5209 H   0  0  0  0  0
   17.9651    9.4381   -8.8654 H   0  0  0  0  0
   17.1889   12.5820   -8.8621 H   0  0  0  0  0
   17.6141   12.6589  -10.5896 H   0  0  0  0  0
   16.7413   11.2448   -9.9496 H   0  0  0  0  0
   22.4012   11.4889   -9.1428 H   0  0  0  0  0
   22.2855   10.7888   -6.2642 H   0  0  0  0  0
   24.0717    9.1025   -6.7256 H   0  0  0  0  0
   24.6346    8.7494   -8.9682 H   0  0  0  0  0
   21.7310    8.3716   -6.9139 H   0  0  0  0  0
   21.7041    8.8564   -8.6272 H   0  0  0  0  0
   22.7532    7.5188   -8.0967 H   0  0  0  0  0
   23.9150   12.6591   -8.6746 H   0  0  0  0  0
   26.4441   12.8425   -7.2798 H   0  0  0  0  0
   26.8104   14.8341   -8.8321 H   0  0  0  0  0
   25.1869   14.4608   -9.5127 H   0  0  0  0  0
   26.9034   13.4658  -10.6826 H   0  0  0  0  0
   27.0365   14.0969   -5.6291 H   0  0  0  0  0
   25.3085   16.4991   -5.1000 H   0  0  0  0  0
   24.9289   15.6563   -3.1091 H   0  0  0  0  0
   25.5622   13.4179   -3.8453 H   0  0  0  0  0
   27.2726   13.7659   -3.4929 H   0  0  0  0  0
   26.0865   13.6965   -2.1665 H   0  0  0  0  0
   27.8724   16.2082   -2.6563 H   0  0  0  0  0
   26.5353   17.3753   -2.5103 H   0  0  0  0  0
   26.6414   15.9977   -1.3869 H   0  0  0  0  0
   26.3242   18.1272   -6.0551 H   0  0  0  0  0
   29.2948   18.1551   -5.9873 H   0  0  0  0  0
   26.9214   19.4886   -4.3627 H   0  0  0  0  0
   28.1697   18.3424   -8.1755 H   0  0  0  0  0
   29.1408   19.8203   -7.7675 H   0  0  0  0  0
   27.8458   20.7658   -9.2423 H   0  0  0  0  0
  1  2  1  0  0  0
  2  3  1  0  0  0
  2  5  1  0  0  0
  3  4  2  0  0  0
  3  9  1  0  0  0
  5  6  1  0  0  0
  6  7  1  0  0  0
  6  8  2  0  0  0
  9 10  1  0  0  0
 10 11  1  0  0  0
 10 13  1  0  0  0
 11 12  2  0  0  0
 11 14  1  0  0  0
 14 15  1  0  0  0
 15 16  1  0  0  0
 15 18  1  0  0  0
 16 17  2  0  0  0
 16 23  1  0  0  0
 18 19  1  0  0  0
 19 20  1  0  0  0
 20 21  2  0  0  0
 20 22  1  0  0  0
 23 24  1  0  0  0
 24 25  1  0  0  0
 24 27  1  0  0  0
 25 26  2  0  0  0
 25 30  1  0  0  0
 27 28  1  0  0  0
 27 29  1  0  0  0
 30 31  1  0  0  0
 31 32  1  0  0  0
 31 34  1  0  0  0
 32 33  2  0  0  0
 32 38  1  0  0  0
 34 35  1  0  0  0
 35 36  2  0  0  0
 35 37  1  0  0  0
 38 39  1  0  0  0
 39 40  1  0  0  0
 39 42  1  0  0  0
 40 41  2  0  0  0
 40 45  1  0  0  0
 42 43  1  0  0  0
 42 44  1  0  0  0
 45 46  1  0  0  0
 46 47  1  0  0  0
 46 49  1  0  0  0
 47 48  2  0  0  0
 47 52  1  0  0  0
 49 50  1  0  0  0
 49 51  1  0  0  0
 52 53  1  0  0  0
 53 54  1  0  0  0
 53 56  1  0  0  0
 54 55  2  0  0  0
 54 58  1  0  0  0
 56 57  1  0  0  0
 58 59  1  0  0  0
 59 60  1  0  0  0
 59 62  1  0  0  0
 60 61  2  0  0  0
 60 65  1  0  0  0
 62 63  1  0  0  0
 62 64  1  0  0  0
 65 66  1  0  0  0
 66 67  1  0  0  0
 66 69  1  0  0  0
 67 68  1  0  0  0
 67 73  2  0  0  0
 69 70  1  0  0  0
 70 71  2  0  0  0
 70 72  1  0  0  0
  1 74  1  0  0  0
  1 75  1  0  0  0
  1 76  1  0  0  0
  2 77  1  0  0  0
  5 78  1  0  0  0
  5 79  1  0  0  0
  7 80  1  0  0  0
  9 81  1  0  0  0
 10 82  1  0  0  0
 13 83  1  0  0  0
 13 84  1  0  0  0
 13 85  1  0  0  0
 14 86  1  0  0  0
 15 87  1  0  0  0
 18 88  1  0  0  0
 18 89  1  0  0  0
 19 90  1  0  0  0
 19 91  1  0  0  0
 22 92  1  0  0  0
 23 93  1  0  0  0
 24 94  1  0  0  0
 27 95  1  0  0  0
 28 96  1  0  0  0
 28 97  1  0  0  0
 28 98  1  0  0  0
 29 99  1  0  0  0
 29100  1  0  0  0
 29101  1  0  0  0
 30102  1  0  0  0
 31103  1  0  0  0
 34104  1  0  0  0
 34105  1  0  0  0
 37106  1  0  0  0
 38107  1  0  0  0
 39108  1  0  0  0
 42109  1  0  0  0
 43110  1  0  0  0
 43111  1  0  0  0
 43112  1  0  0  0
 44113  1  0  0  0
 44114  1  0  0  0
 44115  1  0  0  0
 45116  1  0  0  0
 46117  1  0  0  0
 49118  1  0  0  0
 50119  1  0  0  0
 51120  1  0  0  0
 51121  1  0  0  0
 51122  1  0  0  0
 52123  1  0  0  0
 53124  1  0  0  0
 56125  1  0  0  0
 56126  1  0  0  0
 57127  1  0  0  0
 58128  1  0  0  0
 59129  1  0  0  0
 62130  1  0  0  0
 63131  1  0  0  0
 63132  1  0  0  0
 63133  1  0  0  0
 64134  1  0  0  0
 64135  1  0  0  0
 64136  1  0  0  0
 65137  1  0  0  0
 66138  1  0  0  0
 68139  1  0  0  0
 69140  1  0  0  0
 69141  1  0  0  0
 72142  1  0  0  0
M  END
$$$$
