### 
### Created by X-TOOL on Mon Sep 10 21:13:03 2018
### 

@<TRIPOS>MOLECULE
2xl2_ligand
  137   136     1     0     0
SMALL
GAST_HUCK


@<TRIPOS>ATOM
      1 N          13.1240   14.9420  -20.7170 N.4       1 ASP         0.2391
      2 CA         13.6340   15.6210  -21.9100 C.3       1 ASP         0.0764
      3 C          15.1660   15.5910  -21.9950 C.2       1 ASP         0.2284
      4 O          15.7410   15.1290  -22.9880 O.2       1 ASP        -0.3906
      5 CB         13.1300   17.0710  -21.9680 C.3       1 ASP         0.0607
      6 CG         11.7980   17.2080  -22.7020 C.2       1 ASP         0.0425
      7 OD1        11.0640   16.2000  -22.8320 O.co2     1 ASP        -0.5686
      8 OD2        11.4890   18.3370  -23.1490 O.co2     1 ASP        -0.5686
      9 N          15.8180   16.0980  -20.9550 N.am      1 GLU        -0.2612
     10 CA         17.2720   16.1290  -20.8950 C.3       1 GLU         0.1283
     11 C          17.7580   15.3000  -19.7090 C.2       1 GLU         0.2036
     12 O          17.0170   15.0900  -18.7470 O.2       1 GLU        -0.3944
     13 CB         17.7740   17.5710  -20.7690 C.3       1 GLU        -0.0244
     14 N          19.0000   14.8310  -19.7840 N.am      1 GLU        -0.2636
     15 CA         19.6130   14.0630  -18.7040 C.3       1 GLU         0.1325
     16 C          19.3990   14.7260  -17.3410 C.2       1 GLU         0.2040
     17 O          19.3890   15.9540  -17.2380 O.2       1 GLU        -0.3944
     18 CB         21.1110   13.9310  -18.9570 C.3       1 GLU        -0.0008
     19 CG         21.8230   12.9790  -18.0210 C.3       1 GLU         0.0044
     20 CD         22.0730   11.6280  -18.6620 C.2       1 GLU         0.0350
     21 OE1        21.3830   11.3060  -19.6540 O.co2     1 GLU        -0.5690
     22 OE2        22.9630   10.8920  -18.1790 O.co2     1 GLU        -0.5690
     23 N          19.2390   13.9080  -16.3020 N.am      1 VAL        -0.2635
     24 CA         19.0670   14.3920  -14.9310 C.3       1 VAL         0.1333
     25 C          19.8900   13.5290  -13.9870 C.2       1 VAL         0.2042
     26 O          19.6780   12.3250  -13.9010 O.2       1 VAL        -0.3944
     27 CB         17.6280   14.1840  -14.4350 C.3       1 VAL        -0.0063
     28 CG1        17.3960   14.7890  -13.0740 C.3       1 VAL        -0.0584
     29 CG2        16.5720   14.4900  -15.4730 C.3       1 VAL        -0.0584
     30 N          20.8080   14.1410  -13.2600 N.am      1 ASP        -0.2622
     31 CA         21.6410   13.4110  -12.3260 C.3       1 ASP         0.1423
     32 C          21.0810   13.5360  -10.9150 C.2       1 ASP         0.2056
     33 O          20.9830   14.6320  -10.3710 O.2       1 ASP        -0.3943
     34 CB         23.0650   13.9480  -12.3660 C.3       1 ASP         0.0406
     35 CG         23.9760   13.2570  -11.3760 C.2       1 ASP         0.0393
     36 OD1        25.0630   12.7980  -11.7970 O.co2     1 ASP        -0.5688
     37 OD2        23.6010   13.1680  -10.1830 O.co2     1 ASP        -0.5688
     38 N          20.7700   12.3920  -10.3180 N.am      1 VAL        -0.2634
     39 CA         19.9730   12.3040   -9.1070 C.3       1 VAL         0.1333
     40 C          20.8240   11.8560   -7.9150 C.2       1 VAL         0.2042
     41 O          20.3930   11.9260   -6.7750 O.2       1 VAL        -0.3944
     42 CB         18.8280   11.3120   -9.4330 C.3       1 VAL        -0.0063
     43 CG1        18.7990   10.0720   -8.5640 C.3       1 VAL        -0.0584
     44 CG2        17.4970   11.9990   -9.7300 C.3       1 VAL        -0.0584
     45 N          22.0530   11.4280   -8.1860 N.am      1 THR        -0.2613
     46 CA         22.9150   10.8740   -7.1500 C.3       1 THR         0.1565
     47 C          24.1020   11.7700   -6.8530 C.2       1 THR         0.2065
     48 O          24.6940   11.6840   -5.7770 O.2       1 THR        -0.3943
     49 CB         23.4720    9.4840   -7.5520 C.3       1 THR         0.0924
     50 OG1        24.2920    9.6120   -8.7230 O.3       1 THR        -0.3874
     51 CG2        22.3310    8.4840   -7.8170 C.3       1 THR        -0.0346
     52 N          24.4650   12.6110   -7.8170 N.am      1 SER        -0.2615
     53 CA         25.6390   13.4670   -7.6670 C.3       1 SER         0.1539
     54 C          25.3740   14.5910   -6.6900 C.2       1 SER         0.2062
     55 O          24.3670   15.2830   -6.7940 O.2       1 SER        -0.3943
     56 CB         26.0680   14.0570   -9.0140 C.3       1 SER         0.0843
     57 OG         26.6450   13.0680   -9.8480 O.3       1 SER        -0.3903
     58 N          26.2750   14.7670   -5.7360 N.am      1 VAL        -0.2634
     59 CA         26.1870   15.9090   -4.8390 C.3       1 VAL         0.1332
     60 C          27.4290   16.7780   -5.0150 C.2       1 VAL         0.2037
     61 O          28.5150   16.4480   -4.5440 O.2       1 VAL        -0.3944
     62 CB         25.9720   15.4790   -3.3710 C.3       1 VAL        -0.0063
     63 CG1        26.2430   13.9810   -3.2070 C.3       1 VAL        -0.0584
     64 CG2        26.8170   16.3270   -2.4110 C.3       1 VAL        -0.0584
     65 N          27.2610   17.8790   -5.7370 N.am      1 ASP        -0.2679
     66 CA         28.3810   18.7410   -6.0860 C.3       1 ASP         0.1057
     67 C          28.4830   19.9310   -5.1370 C.2       1 ASP         0.0618
     68 O          27.6090   20.1550   -4.2940 O.co2     1 ASP        -0.5665
     69 CB         28.2590   19.2220   -7.5380 C.3       1 ASP         0.0351
     70 CG         27.0300   20.0930   -7.7680 C.2       1 ASP         0.0387
     71 OD1        26.0750   20.0110   -6.9620 O.co2     1 ASP        -0.5688
     72 OD2        27.0210   20.8590   -8.7600 O.co2     1 ASP        -0.5688
     73 OXT        29.4490   20.6940   -5.1910 O.co2     1 ASP        -0.5665
     74 H          13.4704   13.9828  -20.6990 H         1 ASP         0.2016
     75 H          13.4433   15.4358  -19.8836 H         1 ASP         0.2016
     76 H          12.1043   14.9361  -20.7404 H         1 ASP         0.2016
     77 H          13.2503   15.0720  -22.7699 H         1 ASP         0.1117
     78 H          13.8706   17.6596  -22.5094 H         1 ASP         0.0512
     79 H          12.9826   17.4135  -20.9438 H         1 ASP         0.0512
     80 H          15.2831   16.4776  -20.1738 H         1 GLU         0.1884
     81 H          17.6696   15.7044  -21.8168 H         1 GLU         0.0797
     82 H          17.4426   18.1466  -21.6333 H         1 GLU         0.0277
     83 H          17.3722   18.0160  -19.8587 H         1 GLU         0.0277
     84 H          18.8631   17.5727  -20.7256 H         1 GLU         0.0277
     85 H          19.5444   15.0145  -20.6268 H         1 GLU         0.1883
     86 H          19.1378   13.0822  -18.6870 H         1 GLU         0.0801
     87 H          21.5489   14.9172  -18.8032 H         1 GLU         0.0330
     88 H          21.2309   13.5362  -19.9659 H         1 GLU         0.0330
     89 H          21.1917   12.8279  -17.1453 H         1 GLU         0.0433
     90 H          22.7875   13.4156  -17.7615 H         1 GLU         0.0433
     91 H          19.2362   12.9017  -16.4686 H         1 VAL         0.1883
     92 H          19.3503   15.4445  -14.9382 H         1 VAL         0.0802
     93 H          17.5056   13.1120  -14.2806 H         1 VAL         0.0343
     94 H          18.0711   14.3280  -12.3530 H         1 VAL         0.0234
     95 H          17.5860   15.8614  -13.1174 H         1 VAL         0.0234
     96 H          16.3638   14.6135  -12.7710 H         1 VAL         0.0234
     97 H          16.6598   15.5314  -15.7828 H         1 VAL         0.0234
     98 H          16.7136   13.8396  -16.3362 H         1 VAL         0.0234
     99 H          15.5840   14.3188  -15.0457 H         1 VAL         0.0234
    100 H          20.9329   15.1485  -13.3584 H         1 ASP         0.1884
    101 H          21.6491   12.3593  -12.6122 H         1 ASP         0.0819
    102 H          23.0314   15.0065  -12.1082 H         1 ASP         0.0478
    103 H          23.4616   13.7719  -13.3659 H         1 ASP         0.0478
    104 H          21.1103   11.5249  -10.7336 H         1 VAL         0.1883
    105 H          19.5674   13.2717   -8.8119 H         1 VAL         0.0802
    106 H          19.0764   10.8684  -10.3972 H         1 VAL         0.0343
    107 H          19.7343    9.5249   -8.6825 H         1 VAL         0.0234
    108 H          18.6768   10.3637   -7.5209 H         1 VAL         0.0234
    109 H          17.9651    9.4381   -8.8654 H         1 VAL         0.0234
    110 H          17.1889   12.5820   -8.8621 H         1 VAL         0.0234
    111 H          17.6141   12.6589  -10.5896 H         1 VAL         0.0234
    112 H          16.7413   11.2448   -9.9496 H         1 VAL         0.0234
    113 H          22.4012   11.4889   -9.1428 H         1 THR         0.1884
    114 H          22.2855   10.7888   -6.2642 H         1 THR         0.0826
    115 H          24.0717    9.1025   -6.7256 H         1 THR         0.0639
    116 H          24.6346    8.7494   -8.9682 H         1 THR         0.2101
    117 H          21.7310    8.3716   -6.9139 H         1 THR         0.0257
    118 H          21.7041    8.8564   -8.6272 H         1 THR         0.0257
    119 H          22.7532    7.5188   -8.0967 H         1 THR         0.0257
    120 H          23.9150   12.6591   -8.6746 H         1 SER         0.1884
    121 H          26.4441   12.8425   -7.2798 H         1 SER         0.0823
    122 H          26.8104   14.8341   -8.8321 H         1 SER         0.0606
    123 H          25.1869   14.4608   -9.5127 H         1 SER         0.0606
    124 H          26.0032   12.3725  -10.0089 H         1 SER         0.2097
    125 H          27.0365   14.0969   -5.6291 H         1 VAL         0.1883
    126 H          25.3085   16.4991   -5.1000 H         1 VAL         0.0802
    127 H          24.9289   15.6563   -3.1091 H         1 VAL         0.0343
    128 H          25.5622   13.4179   -3.8453 H         1 VAL         0.0234
    129 H          27.2726   13.7659   -3.4929 H         1 VAL         0.0234
    130 H          26.0865   13.6965   -2.1665 H         1 VAL         0.0234
    131 H          27.8724   16.2082   -2.6563 H         1 VAL         0.0234
    132 H          26.5353   17.3753   -2.5103 H         1 VAL         0.0234
    133 H          26.6414   15.9977   -1.3869 H         1 VAL         0.0234
    134 H          26.3242   18.1272   -6.0551 H         1 ASP         0.1876
    135 H          29.2948   18.1551   -5.9873 H         1 ASP         0.0745
    136 H          28.1697   18.3424   -8.1755 H         1 ASP         0.0471
    137 H          29.1408   19.8203   -7.7675 H         1 ASP         0.0471
@<TRIPOS>BOND
     1    1    2 1  
     2    2    3 1  
     3    2    5 1  
     4    3    4 2  
     5    3    9 am 
     6    5    6 1  
     7    6    7 ar 
     8    6    8 ar 
     9    9   10 1  
    10   10   11 1  
    11   10   13 1  
    12   11   12 2  
    13   11   14 am 
    14   14   15 1  
    15   15   16 1  
    16   15   18 1  
    17   16   17 2  
    18   16   23 am 
    19   18   19 1  
    20   19   20 1  
    21   20   21 ar 
    22   20   22 ar 
    23   23   24 1  
    24   24   25 1  
    25   24   27 1  
    26   25   26 2  
    27   25   30 am 
    28   27   28 1  
    29   27   29 1  
    30   30   31 1  
    31   31   32 1  
    32   31   34 1  
    33   32   33 2  
    34   32   38 am 
    35   34   35 1  
    36   35   36 ar 
    37   35   37 ar 
    38   38   39 1  
    39   39   40 1  
    40   39   42 1  
    41   40   41 2  
    42   40   45 am 
    43   42   43 1  
    44   42   44 1  
    45   45   46 1  
    46   46   47 1  
    47   46   49 1  
    48   47   48 2  
    49   47   52 am 
    50   49   50 1  
    51   49   51 1  
    52   52   53 1  
    53   53   54 1  
    54   53   56 1  
    55   54   55 2  
    56   54   58 am 
    57   56   57 1  
    58   58   59 1  
    59   59   60 1  
    60   59   62 1  
    61   60   61 2  
    62   60   65 am 
    63   62   63 1  
    64   62   64 1  
    65   65   66 1  
    66   66   67 1  
    67   66   69 1  
    68   67   68 ar 
    69   67   73 ar 
    70   69   70 1  
    71   70   71 ar 
    72   70   72 ar 
    73    1   74 1  
    74    1   75 1  
    75    1   76 1  
    76    2   77 1  
    77    5   78 1  
    78    5   79 1  
    79    9   80 1  
    80   10   81 1  
    81   13   82 1  
    82   13   83 1  
    83   13   84 1  
    84   14   85 1  
    85   15   86 1  
    86   18   87 1  
    87   18   88 1  
    88   19   89 1  
    89   19   90 1  
    90   23   91 1  
    91   24   92 1  
    92   27   93 1  
    93   28   94 1  
    94   28   95 1  
    95   28   96 1  
    96   29   97 1  
    97   29   98 1  
    98   29   99 1  
    99   30  100 1  
   100   31  101 1  
   101   34  102 1  
   102   34  103 1  
   103   38  104 1  
   104   39  105 1  
   105   42  106 1  
   106   43  107 1  
   107   43  108 1  
   108   43  109 1  
   109   44  110 1  
   110   44  111 1  
   111   44  112 1  
   112   45  113 1  
   113   46  114 1  
   114   49  115 1  
   115   50  116 1  
   116   51  117 1  
   117   51  118 1  
   118   51  119 1  
   119   52  120 1  
   120   53  121 1  
   121   56  122 1  
   122   56  123 1  
   123   57  124 1  
   124   58  125 1  
   125   59  126 1  
   126   62  127 1  
   127   63  128 1  
   128   63  129 1  
   129   63  130 1  
   130   64  131 1  
   131   64  132 1  
   132   64  133 1  
   133   65  134 1  
   134   66  135 1  
   135   69  136 1  
   136   69  137 1  
@<TRIPOS>SUBSTRUCTURE
     1 ASP         1

