5wpb_ligand
  -I-interpret- 

 38 40  0  0  0  0  0  0  0  0999 V2000
   -1.4850    4.6310    8.7320 C   0  0  0  0  0
    0.4810    2.7770    8.4940 C   0  0  0  0  0
    0.1410    3.4000    7.3980 N   0  0  0  0  0
   -2.8880    6.2290    7.6180 C   0  0  0  0  0
   -2.5150    5.5940    8.7650 C   0  0  0  0  0
    4.4060    3.9810    7.4560 O   0  0  0  0  0
    3.5460    3.5320    8.1360 C   0  0  0  0  0
    3.2070    4.0840    9.2830 O   0  0  0  0  0
    2.8090    2.3020    7.6510 C   0  0  0  0  0
    1.6400    1.8220    8.5030 C   0  0  0  0  0
   -0.8450    4.3490    7.4960 C   0  0  0  0  0
   -1.2400    5.0560    6.3390 C   0  0  0  0  0
   -2.2330    5.9810    6.4130 C   0  0  0  0  0
   -1.1480    3.9700    9.8830 N   0  0  0  0  0
   -0.2110    3.0800    9.7540 C   0  0  0  0  0
    0.1560    2.3280   10.8050 O   0  0  0  0  0
   -0.4830    2.6030   12.0700 C   0  0  0  0  0
   -0.0130    1.5590   13.0390 C   0  0  0  0  0
   -0.4160    0.3060   12.7690 N   0  0  0  0  0
    0.0370   -0.6740   13.5630 C   0  0  0  0  0
    0.8750   -0.4610   14.6320 C   0  0  0  0  0
    1.2860    0.8220   14.8850 C   0  0  0  0  0
    0.8430    1.8550   14.0850 C   0  0  0  0  0
   -3.7118    6.9423    7.6436 H   0  0  0  0  0
   -3.0118    5.8300    9.7060 H   0  0  0  0  0
    2.4959    3.5778    9.6826 H   0  0  0  0  0
    3.5388    1.4924    7.6602 H   0  0  0  0  0
    2.3846    2.5692    6.6832 H   0  0  0  0  0
    1.2941    0.8741    8.0907 H   0  0  0  0  0
    1.9910    1.7335    9.5311 H   0  0  0  0  0
   -0.7482    4.8597    5.3862 H   0  0  0  0  0
   -2.5205    6.5353    5.5196 H   0  0  0  0  0
   -1.5677    2.5717   11.9675 H   0  0  0  0  0
   -0.2223    3.6006   12.4234 H   0  0  0  0  0
   -0.2761   -1.6960   13.3496 H   0  0  0  0  0
    1.2032   -1.2889   15.2605 H   0  0  0  0  0
    1.9611    1.0256   15.7162 H   0  0  0  0  0
    1.1601    2.8808   14.2727 H   0  0  0  0  0
  1  5  4  0  0  0
 11  1  4  0  0  0
  1 14  4  0  0  0
  2  3  4  0  0  0
 10  2  1  0  0  0
  2 15  4  0  0  0
  3 11  4  0  0  0
  5  4  4  0  0  0
  4 13  4  0  0  0
  7  6  2  0  0  0
  7  8  1  0  0  0
  9  7  1  0  0  0
  9 10  1  0  0  0
 11 12  4  0  0  0
 12 13  4  0  0  0
 14 15  4  0  0  0
 15 16  1  0  0  0
 16 17  1  0  0  0
 17 18  1  0  0  0
 18 19  4  0  0  0
 18 23  4  0  0  0
 19 20  4  0  0  0
 20 21  4  0  0  0
 21 22  4  0  0  0
 22 23  4  0  0  0
  4 24  1  0  0  0
  5 25  1  0  0  0
  8 26  1  0  0  0
  9 27  1  0  0  0
  9 28  1  0  0  0
 10 29  1  0  0  0
 10 30  1  0  0  0
 12 31  1  0  0  0
 13 32  1  0  0  0
 17 33  1  0  0  0
 17 34  1  0  0  0
 20 35  1  0  0  0
 21 36  1  0  0  0
 22 37  1  0  0  0
 23 38  1  0  0  0
M  END
$$$$
