4oys_ligand
  -I-interpret- 

 53 56  0  0  0  0  0  0  0  0999 V2000
   17.3650  -17.5320  -23.2920 C   0  0  0  0  0
   16.7830  -16.2380  -22.9490 C   0  0  0  0  0
   17.5870  -15.0730  -22.8260 C   0  0  0  0  0
   21.5200  -17.4830  -24.3330 C   0  0  0  0  0
   20.9610  -18.7490  -23.6650 C   0  0  0  0  0
   19.4430  -18.8370  -23.8370 C   0  0  0  0  0
   21.3230  -17.4360  -25.8360 C   0  0  0  0  0
   15.2910  -12.3470  -21.8090 C   0  0  0  0  0
   15.6640  -13.4390  -22.7910 C   0  0  0  0  0
   21.6370  -14.9430  -23.7030 C   0  0  0  0  0
   21.6420  -13.0550  -22.0020 C   0  0  0  0  0
   15.3240  -13.0900  -24.2310 C   0  0  0  0  0
   18.9570  -15.1450  -23.1160 N   0  0  0  0  0
   18.8070  -17.5460  -23.5150 N   0  0  0  0  0
   19.5360  -16.3280  -23.3940 C   0  0  0  0  0
   20.9550  -16.2980  -23.6610 N   0  0  0  0  0
   17.1270  -13.8510  -22.6430 N   0  3  0  0  0
   16.7960  -18.6250  -23.4080 O   0  0  0  0  0
   20.1030  -17.0200  -26.1800 F   0  0  0  0  0
   22.1860  -16.5980  -26.4010 F   0  0  0  0  0
   21.5000  -18.6220  -26.4200 F   0  0  0  0  0
   18.0850  -12.7510  -22.4520 C   0  0  0  0  0
   17.5500  -11.7500  -21.4530 C   0  0  0  0  0
   16.2530  -11.2730  -21.8170 O   0  0  0  0  0
   21.8820  -14.4030  -22.3250 C   0  0  0  0  0
   21.8790  -12.6220  -20.6680 C   0  0  0  0  0
   22.3430  -13.5430  -19.6860 C   0  0  0  0  0
   22.5680  -14.8560  -19.9930 N   0  0  0  0  0
   22.3340  -15.2630  -21.2780 C   0  0  0  0  0
   21.5670  -10.9860  -20.2180 Cl  0  0  0  0  0
   16.3865  -16.3884  -21.9449 H   0  0  0  0  0
   16.1281  -16.0151  -23.7914 H   0  0  0  0  0
   22.6028  -17.4962  -24.2086 H   0  0  0  0  0
   21.1901  -18.7120  -22.6000 H   0  0  0  0  0
   21.4166  -19.6213  -24.1337 H   0  0  0  0  0
   19.0552  -19.5994  -23.1614 H   0  0  0  0  0
   19.2196  -19.0915  -24.8731 H   0  0  0  0  0
   15.2655  -12.7784  -20.8083 H   0  0  0  0  0
   14.3210  -11.9420  -22.0972 H   0  0  0  0  0
   15.0463  -14.2999  -22.5351 H   0  0  0  0  0
   20.9872  -14.2475  -24.2342 H   0  0  0  0  0
   22.5986  -15.0576  -24.2032 H   0  0  0  0  0
   21.2820  -12.3571  -22.7580 H   0  0  0  0  0
   14.2510  -12.9196  -24.3186 H   0  0  0  0  0
   15.8614  -12.1872  -24.5213 H   0  0  0  0  0
   15.6167  -13.9138  -24.8820 H   0  0  0  0  0
   19.5194  -14.2941  -23.1163 H   0  0  0  0  0
   18.2425  -12.2489  -23.4066 H   0  0  0  0  0
   19.0230  -13.1597  -22.0761 H   0  0  0  0  0
   18.2308  -10.8993  -21.4243 H   0  0  0  0  0
   17.4728  -12.2429  -20.4839 H   0  0  0  0  0
   22.5224  -13.1940  -18.6691 H   0  0  0  0  0
   22.5036  -16.3125  -21.5186 H   0  0  0  0  0
  2  1  1  0  0  0
  1 14  1  0  0  0
  1 18  2  0  0  0
  3  2  1  0  0  0
  3 13  1  0  0  0
 17  3  2  0  0  0
  5  4  1  0  0  0
  4  7  1  0  0  0
  4 16  1  0  0  0
  6  5  1  0  0  0
 14  6  1  0  0  0
  7 19  1  0  0  0
  7 20  1  0  0  0
  7 21  1  0  0  0
  9  8  1  0  0  0
  8 24  1  0  0  0
  9 12  1  0  0  0
  9 17  1  0  0  0
 16 10  1  0  0  0
 10 25  1  0  0  0
 25 11  4  0  0  0
 11 26  4  0  0  0
 13 15  1  0  0  0
 14 15  4  0  0  0
 15 16  1  0  0  0
 17 22  1  0  0  0
 22 23  1  0  0  0
 23 24  1  0  0  0
 25 29  4  0  0  0
 26 27  4  0  0  0
 26 30  1  0  0  0
 27 28  4  0  0  0
 28 29  4  0  0  0
  2 31  1  0  0  0
  2 32  1  0  0  0
  4 33  1  0  0  0
  5 34  1  0  0  0
  5 35  1  0  0  0
  6 36  1  0  0  0
  6 37  1  0  0  0
  8 38  1  0  0  0
  8 39  1  0  0  0
  9 40  1  0  0  0
 10 41  1  0  0  0
 10 42  1  0  0  0
 11 43  1  0  0  0
 12 44  1  0  0  0
 12 45  1  0  0  0
 12 46  1  0  0  0
 13 47  1  0  0  0
 22 48  1  0  0  0
 22 49  1  0  0  0
 23 50  1  0  0  0
 23 51  1  0  0  0
 27 52  1  0  0  0
 29 53  1  0  0  0
M  END
$$$$
