6nzt_ligand
  -I-interpret- 

112118  0  0  0  0  0  0  0  0999 V2000
   69.2920   71.2250   12.9640 C   0  0  0  0  0
   70.5550   70.3590   12.7940 C   0  0  0  0  0
   68.9500   69.2820   14.2740 C   0  0  0  0  0
   68.2220   70.1620   13.2700 C   0  0  0  0  0
   68.5320   67.7930   14.2810 C   0  0  0  0  0
   67.4840   66.0280   15.6990 C   0  0  0  0  0
   66.3340   65.3630   15.0570 C   0  0  0  0  0
   63.5940   66.4660   12.3080 C   0  0  0  0  0
   68.7000   65.1350   15.9530 C   0  0  0  0  0
   67.8450   65.5590   17.1020 C   0  0  0  0  0
   62.1950   66.0900   12.0000 C   0  0  0  0  0
   62.4630   67.2580   12.9000 C   0  0  0  0  0
   68.6670   73.1930   14.2530 C   0  0  0  0  0
   71.3270   68.4940   14.3370 C   0  0  0  0  0
   72.7720   68.6030   13.7890 C   0  0  0  0  0
   74.0440   69.8850   15.3430 C   0  0  0  0  0
   75.3510   71.0110   16.9440 C   0  0  0  0  0
   74.5280   71.6050   18.0650 C   0  0  0  0  0
   74.4390   73.1000   18.2240 C   0  0  0  0  0
   67.1020   74.6810   13.4640 C   0  0  0  0  0
   67.1940   75.4190   14.6600 C   0  0  0  0  0
   68.7650   73.9170   15.4200 C   0  0  0  0  0
   66.2340   75.0970   12.4670 C   0  0  0  0  0
   65.4520   76.2550   12.6570 C   0  0  0  0  0
   65.5520   76.9740   13.8390 C   0  0  0  0  0
   66.4200   76.5690   14.8460 C   0  0  0  0  0
   69.6860   73.5180   16.5350 C   0  0  0  0  0
   71.1590   73.7730   16.2210 C   0  0  0  0  0
   72.0560   73.4360   17.4200 C   0  0  0  0  0
   73.5250   73.7000   17.1420 C   0  0  0  0  0
   73.0760   67.4220   12.8330 C   0  0  0  0  0
   64.4310   76.0280   10.5080 C   0  0  0  0  0
   68.8170   63.6730   15.6670 C   0  0  0  0  0
   67.8060   69.3970   12.0000 C   0  0  0  0  0
   67.0330   70.3050   11.0160 C   0  0  0  0  0
   75.8280   70.8930   18.3610 C   0  0  0  0  0
   72.9910   66.0770   13.5830 C   0  0  0  0  0
   72.0800   67.3910   11.6500 C   0  0  0  0  0
   64.7200   66.8750   11.3480 C   0  0  0  0  0
   74.5010   67.5340   12.2480 C   0  0  0  0  0
   69.0190   63.5350   14.3370 F   0  0  0  0  0
   69.9370   63.1890   16.2710 F   0  0  0  0  0
   69.4820   72.2090   16.7760 F   0  0  0  0  0
   69.3580   74.2980   17.5910 F   0  0  0  0  0
   70.3680   69.3280   13.8150 N   0  0  0  0  0
   67.8980   67.3800   15.4320 N   0  0  0  0  0
   65.6190   66.1460   14.1750 N   0  0  0  0  0
   73.6950   68.6600   14.8880 N   0  0  0  0  0
   67.8400   73.5620   13.2570 N   0  0  0  0  0
   68.0280   75.0340   15.6350 N   0  0  0  0  0
   68.7540   67.0070   13.3620 O   0  0  0  0  0
   64.8940   64.2020   12.6860 O   0  0  0  0  0
   63.3470   64.8810   14.4520 O   0  0  0  0  0
   66.0380   64.2030   15.3250 O   0  0  0  0  0
   69.4720   72.0750   14.1250 O   0  0  0  0  0
   71.0590   67.6650   15.2130 O   0  0  0  0  0
   73.6610   70.9560   14.8730 O   0  0  0  0  0
   74.8860   69.7640   16.3930 O   0  0  0  0  0
   64.5750   76.7390   11.7370 O   0  0  0  0  0
   64.3670   65.3040   13.4880 S   0  0  0  0  0
   69.0541   71.8631   12.1129 H   0  0  0  0  0
   71.4801   70.9219   12.9183 H   0  0  0  0  0
   70.6627   69.9516   11.7888 H   0  0  0  0  0
   68.7396   69.6501   15.2781 H   0  0  0  0  0
   67.2814   70.5624   13.6481 H   0  0  0  0  0
   69.7348   65.2240   15.6224 H   0  0  0  0  0
   67.3470   65.0970   17.9545 H   0  0  0  0  0
   67.9774   65.9947   18.0923 H   0  0  0  0  0
   61.5767   65.1924   11.9953 H   0  0  0  0  0
   61.5888   65.8614   11.1234 H   0  0  0  0  0
   62.1561   68.2975   13.0153 H   0  0  0  0  0
   62.1442   67.6426   13.8688 H   0  0  0  0  0
   72.8805   69.5194   13.2089 H   0  0  0  0  0
   75.7452   71.4070   16.0081 H   0  0  0  0  0
   73.4962   71.5062   18.4024 H   0  0  0  0  0
   75.4365   73.5280   18.1239 H   0  0  0  0  0
   74.0248   73.3289   19.2059 H   0  0  0  0  0
   66.1560   74.5309   11.5388 H   0  0  0  0  0
   64.9428   77.8669   13.9796 H   0  0  0  0  0
   66.4967   77.1413   15.7705 H   0  0  0  0  0
   71.2835   74.8293   15.9827 H   0  0  0  0  0
   71.4486   73.1380   15.3838 H   0  0  0  0  0
   71.9411   72.3740   17.6370 H   0  0  0  0  0
   71.7532   74.0691   18.2540 H   0  0  0  0  0
   73.7782   73.2357   16.1889 H   0  0  0  0  0
   73.6788   74.7790   17.1288 H   0  0  0  0  0
   65.3916   75.9952    9.9940 H   0  0  0  0  0
   64.0932   75.0125   10.7147 H   0  0  0  0  0
   63.6985   76.5352    9.8800 H   0  0  0  0  0
   67.9245   63.1529   16.0150 H   0  0  0  0  0
   67.1550   68.5730   12.2921 H   0  0  0  0  0
   68.7076   69.0393   11.5027 H   0  0  0  0  0
   66.1329   70.6816   11.5018 H   0  0  0  0  0
   67.6662   71.1421   10.7222 H   0  0  0  0  0
   66.7568   69.7291   10.1327 H   0  0  0  0  0
   76.7409   71.0663   18.9309 H   0  0  0  0  0
   76.1993   70.1205   19.0344 H   0  0  0  0  0
   73.7175   66.0690   14.3956 H   0  0  0  0  0
   71.9875   65.9521   13.9899 H   0  0  0  0  0
   73.2081   65.2627   12.8918 H   0  0  0  0  0
   71.0660   67.2773   12.0333 H   0  0  0  0  0
   72.1554   68.3224   11.0888 H   0  0  0  0  0
   72.3192   66.5515   10.9972 H   0  0  0  0  0
   65.5218   67.3511   11.9123 H   0  0  0  0  0
   65.1055   65.9889   10.8437 H   0  0  0  0  0
   64.3294   67.5743   10.6088 H   0  0  0  0  0
   74.5915   68.4667   11.6912 H   0  0  0  0  0
   75.2278   67.5222   13.0602 H   0  0  0  0  0
   74.6858   66.6918   11.5811 H   0  0  0  0  0
   67.7084   68.0830   16.1463 H   0  0  0  0  0
   65.8339   67.1220   13.9708 H   0  0  0  0  0
   74.0722   67.8107   15.3085 H   0  0  0  0  0
  2  1  1  0  0  0
  4  1  1  0  0  0
  1 55  1  0  0  0
 45  2  1  0  0  0
  3  4  1  0  0  0
  5  3  1  0  0  0
  3 45  1  0  0  0
  4 34  1  0  0  0
 46  5  1  0  0  0
  5 51  2  0  0  0
  7  6  1  0  0  0
  6  9  1  0  0  0
  6 10  1  0  0  0
  6 46  1  0  0  0
 47  7  1  0  0  0
  7 54  2  0  0  0
  8 11  1  0  0  0
  8 12  1  0  0  0
  8 39  1  0  0  0
 60  8  1  0  0  0
 10  9  1  0  0  0
  9 33  1  0  0  0
 12 11  1  0  0  0
 13 22  4  0  0  0
 13 49  4  0  0  0
 55 13  1  0  0  0
 14 15  1  0  0  0
 45 14  1  0  0  0
 14 56  2  0  0  0
 15 31  1  0  0  0
 15 48  1  0  0  0
 48 16  1  0  0  0
 16 57  2  0  0  0
 16 58  1  0  0  0
 17 18  1  0  0  0
 17 36  1  0  0  0
 58 17  1  0  0  0
 18 19  1  0  0  0
 36 18  1  0  0  0
 19 30  1  0  0  0
 20 21  4  0  0  0
 20 23  4  0  0  0
 49 20  4  0  0  0
 21 26  4  0  0  0
 50 21  4  0  0  0
 22 27  1  0  0  0
 22 50  4  0  0  0
 23 24  4  0  0  0
 24 25  4  0  0  0
 24 59  1  0  0  0
 26 25  4  0  0  0
 27 28  1  0  0  0
 27 43  1  0  0  0
 27 44  1  0  0  0
 28 29  1  0  0  0
 29 30  1  0  0  0
 31 37  1  0  0  0
 31 38  1  0  0  0
 31 40  1  0  0  0
 59 32  1  0  0  0
 33 41  1  0  0  0
 33 42  1  0  0  0
 34 35  1  0  0  0
 47 60  1  0  0  0
 60 52  2  0  0  0
 60 53  2  0  0  0
  1 61  1  0  0  0
  2 62  1  0  0  0
  2 63  1  0  0  0
  3 64  1  0  0  0
  4 65  1  0  0  0
  9 66  1  0  0  0
 10 67  1  0  0  0
 10 68  1  0  0  0
 11 69  1  0  0  0
 11 70  1  0  0  0
 12 71  1  0  0  0
 12 72  1  0  0  0
 15 73  1  0  0  0
 17 74  1  0  0  0
 18 75  1  0  0  0
 19 76  1  0  0  0
 19 77  1  0  0  0
 23 78  1  0  0  0
 25 79  1  0  0  0
 26 80  1  0  0  0
 28 81  1  0  0  0
 28 82  1  0  0  0
 29 83  1  0  0  0
 29 84  1  0  0  0
 30 85  1  0  0  0
 30 86  1  0  0  0
 32 87  1  0  0  0
 32 88  1  0  0  0
 32 89  1  0  0  0
 33 90  1  0  0  0
 34 91  1  0  0  0
 34 92  1  0  0  0
 35 93  1  0  0  0
 35 94  1  0  0  0
 35 95  1  0  0  0
 36 96  1  0  0  0
 36 97  1  0  0  0
 37 98  1  0  0  0
 37 99  1  0  0  0
 37100  1  0  0  0
 38101  1  0  0  0
 38102  1  0  0  0
 38103  1  0  0  0
 39104  1  0  0  0
 39105  1  0  0  0
 39106  1  0  0  0
 40107  1  0  0  0
 40108  1  0  0  0
 40109  1  0  0  0
 46110  1  0  0  0
 47111  1  0  0  0
 48112  1  0  0  0
M  END
$$$$
