4iti_ligand
  -I-interpret- 

 49 52  0  0  0  0  0  0  0  0999 V2000
  -22.5000    6.3330  -23.4730 C   0  0  0  0  0
  -22.7090    7.4050  -22.6200 C   0  0  0  0  0
  -21.6460    7.7570  -21.6500 C   0  0  0  0  0
  -20.4750    7.0160  -21.6070 C   0  0  0  0  0
  -20.3140    5.9480  -22.4840 C   0  0  0  0  0
  -21.8990    8.9140  -20.7420 C   0  0  0  0  0
  -23.2520   10.5130  -19.6150 C   0  0  0  0  0
  -21.3090    5.6140  -23.4000 C   0  0  0  0  0
  -23.9920    8.2110  -22.6720 C   0  0  0  0  0
  -23.0690    9.8160  -20.9620 C   0  0  0  0  0
  -27.3090    5.6490  -16.3230 F   0  0  0  0  0
  -27.0140    6.8300  -15.8140 C   0  0  0  0  0
  -25.7270    6.8840  -15.5380 F   0  0  0  0  0
  -27.7090    7.0200  -14.7110 F   0  0  0  0  0
  -27.3350    7.8470  -16.7580 O   0  0  0  0  0
  -26.3410    8.4850  -17.4460 C   0  0  0  0  0
  -26.6470    9.7010  -18.2370 C   0  0  0  0  0
  -27.8990   10.1810  -18.2840 F   0  0  0  0  0
  -25.6230   10.3310  -18.9260 C   0  0  0  0  0
  -25.0350    8.0130  -17.4180 C   0  0  0  0  0
  -24.0420    8.6820  -18.1270 C   0  0  0  0  0
  -24.3290    9.8250  -18.8710 C   0  0  0  0  0
  -24.2520    8.9360  -21.3510 C   0  0  0  0  0
  -21.9570   10.2040  -19.0210 N   0  0  0  0  0
  -21.4850   10.7980  -17.9310 C   0  0  0  0  0
  -22.0720   11.7000  -17.3570 O   0  0  0  0  0
  -20.1540   10.3070  -17.4180 C   0  0  0  0  0
  -19.6310   11.2540  -16.4810 O   0  0  0  0  0
  -21.2360    9.2270  -19.7250 N   0  0  0  0  0
  -19.1600    5.2160  -22.4450 O   0  0  0  0  0
  -18.0940    5.6200  -21.5870 C   0  0  0  0  0
  -23.2644    6.0535  -24.1981 H   0  0  0  0  0
  -19.6895    7.2673  -20.8943 H   0  0  0  0  0
  -23.5131   11.5709  -19.6419 H   0  0  0  0  0
  -21.1523    4.7719  -24.0741 H   0  0  0  0  0
  -24.8210    7.5288  -22.8605 H   0  0  0  0  0
  -23.9001    8.9559  -23.4625 H   0  0  0  0  0
  -22.9542   10.5569  -21.7532 H   0  0  0  0  0
  -25.8324   11.2255  -19.5126 H   0  0  0  0  0
  -24.7886    7.1209  -16.8422 H   0  0  0  0  0
  -23.0197    8.3047  -18.1000 H   0  0  0  0  0
  -24.4031    8.1913  -20.5696 H   0  0  0  0  0
  -25.1319    9.5685  -21.4689 H   0  0  0  0  0
  -19.4599   10.1958  -18.2510 H   0  0  0  0  0
  -20.2847    9.3422  -16.9279 H   0  0  0  0  0
  -18.7838   10.9436  -16.1531 H   0  0  0  0  0
  -17.7653    6.6214  -21.8649 H   0  0  0  0  0
  -18.4423    5.6240  -20.5541 H   0  0  0  0  0
  -17.2629    4.9221  -21.6888 H   0  0  0  0  0
  2  1  4  0  0  0
  1  8  4  0  0  0
  3  2  4  0  0  0
  9  2  1  0  0  0
  3  4  4  0  0  0
  6  3  1  0  0  0
  4  5  4  0  0  0
  5  8  4  0  0  0
  5 30  1  0  0  0
 10  6  1  0  0  0
  6 29  2  0  0  0
  7 10  1  0  0  0
 22  7  1  0  0  0
  7 24  1  0  0  0
 23  9  1  0  0  0
 10 23  1  0  0  0
 12 11  1  0  0  0
 12 13  1  0  0  0
 12 14  1  0  0  0
 15 12  1  0  0  0
 16 15  1  0  0  0
 17 16  4  0  0  0
 16 20  4  0  0  0
 17 18  1  0  0  0
 19 17  4  0  0  0
 19 22  4  0  0  0
 20 21  4  0  0  0
 21 22  4  0  0  0
 24 25  1  0  0  0
 24 29  1  0  0  0
 25 26  2  0  0  0
 25 27  1  0  0  0
 27 28  1  0  0  0
 30 31  1  0  0  0
  1 32  1  0  0  0
  4 33  1  0  0  0
  7 34  1  0  0  0
  8 35  1  0  0  0
  9 36  1  0  0  0
  9 37  1  0  0  0
 10 38  1  0  0  0
 19 39  1  0  0  0
 20 40  1  0  0  0
 21 41  1  0  0  0
 23 42  1  0  0  0
 23 43  1  0  0  0
 27 44  1  0  0  0
 27 45  1  0  0  0
 28 46  1  0  0  0
 31 47  1  0  0  0
 31 48  1  0  0  0
 31 49  1  0  0  0
M  END
$$$$
