2v25_ligand
  -I-interpret- 

 17 16  0  0  0  0  0  0  0  0999 V2000
    8.0530   33.3800   60.2420 N   0  3  0  0  0
    9.0090   34.3110   60.8800 C   0  0  0  0  0
    8.3090   35.4180   61.6190 C   0  0  0  0  0
    8.9810   36.2350   62.2620 O   0  0  0  0  0
   10.0090   34.8740   59.8490 C   0  0  0  0  0
    9.3400   35.6100   58.6880 C   0  0  0  0  0
    8.1290   35.4850   58.5120 O   0  0  0  0  0
   10.0320   36.3260   57.9200 O   0  0  0  0  0
    7.0660   35.4740   61.5960 O   0  0  0  0  0
    7.4057   33.0243   60.9455 H   0  0  0  0  0
    7.5318   33.8735   59.5173 H   0  0  0  0  0
    8.5645   32.6024   59.8248 H   0  0  0  0  0
    9.5714   33.7389   61.6179 H   0  0  0  0  0
   10.5564   34.0300   59.4294 H   0  0  0  0  0
   10.6451   35.5911   60.3679 H   0  0  0  0  0
   10.9482   36.3072   58.2059 H   0  0  0  0  0
    6.7248   34.7627   61.0489 H   0  0  0  0  0
  1  2  1  0  0  0
  2  3  1  0  0  0
  2  5  1  0  0  0
  3  4  2  0  0  0
  3  9  1  0  0  0
  5  6  1  0  0  0
  6  7  2  0  0  0
  6  8  1  0  0  0
  1 10  1  0  0  0
  1 11  1  0  0  0
  1 12  1  0  0  0
  2 13  1  0  0  0
  5 14  1  0  0  0
  5 15  1  0  0  0
  8 16  1  0  0  0
  9 17  1  0  0  0
M  END
$$$$
