2bj4_ligand
  -I-interpret- 

176179  0  0  0  0  0  0  0  0999 V2000
   27.8240   52.7220   41.5290 N   0  3  0  0  0
   27.9500   52.5490   40.0550 C   0  0  0  0  0
   26.5820   52.3000   39.4490 C   0  0  0  0  0
   25.9050   51.3450   39.8450 O   0  0  0  0  0
   28.8610   51.3640   39.7720 C   0  0  0  0  0
   29.4450   51.2190   38.3690 C   0  0  0  0  0
   30.7090   52.0370   38.2040 C   0  0  0  0  0
   29.7460   49.7320   38.1240 C   0  0  0  0  0
   26.1620   53.1780   38.5250 N   0  0  0  0  0
   24.9360   52.9770   37.7390 C   0  0  0  0  0
   25.1930   53.3430   36.2860 C   0  0  0  0  0
   26.2980   53.7630   35.9140 O   0  0  0  0  0
   23.7660   53.8900   38.2260 C   0  0  0  0  0
   24.0930   55.2680   37.9630 O   0  0  0  0  0
   23.5650   53.8140   39.7080 C   0  0  0  0  0
   24.1360   53.2390   35.4910 N   0  0  0  0  0
   24.1550   53.6540   34.0840 C   0  0  0  0  0
   24.7130   55.0830   33.9020 C   0  0  0  0  0
   25.3470   55.4010   32.8870 O   0  0  0  0  0
   22.7300   53.5850   33.5270 C   0  0  0  0  0
   21.9070   54.5250   34.1940 O   0  0  0  0  0
   24.4560   55.9290   34.8880 N   0  0  0  0  0
   24.9750   57.3100   34.9170 C   0  0  0  0  0
   26.4940   57.4070   34.7640 C   0  0  0  0  0
   27.0140   58.3820   34.1980 O   0  0  0  0  0
   24.5210   58.0260   36.2000 C   0  0  0  0  0
   23.3660   58.9970   35.9800 C   0  0  0  0  0
   23.8170   60.2220   35.1920 C   0  0  0  0  0
   22.8490   61.3160   35.1180 N   0  0  0  0  0
   23.1750   62.5790   34.8250 C   0  0  0  0  0
   24.4430   62.9120   34.5900 N   0  0  0  0  0
   22.2370   63.5240   34.7750 N   0  0  0  0  0
   27.1970   56.3850   35.2440 N   0  0  0  0  0
   28.6490   56.3290   35.1360 C   0  0  0  0  0
   29.1190   55.8910   33.7450 C   0  0  0  0  0
   30.3050   55.8170   33.5030 O   0  0  0  0  0
   29.2100   55.3850   36.1940 C   0  0  0  0  0
   28.8880   55.8420   37.6030 C   0  0  0  0  0
   29.4120   56.9050   38.0130 O   0  0  0  0  0
   28.1140   55.2130   38.3620 O   0  0  0  0  0
   28.1900   55.6110   32.8350 N   0  0  0  0  0
   28.5370   55.1580   31.4880 C   0  0  0  0  0
   27.9380   56.0680   30.4390 C   0  0  0  0  0
   26.9120   56.6830   30.6720 O   0  0  0  0  0
   28.0150   53.7330   31.2630 C   0  0  0  0  0
   28.7480   52.6930   32.0620 C   0  0  0  0  0
   28.3730   52.4170   33.3830 C   0  0  0  0  0
   29.8200   52.0040   31.5040 C   0  0  0  0  0
   29.0290   51.4610   34.1210 C   0  0  0  0  0
   30.4970   51.0480   32.2320 C   0  0  0  0  0
   30.0900   50.7590   33.5570 C   0  0  0  0  0
   28.5940   56.1410   29.2830 N   0  0  0  0  0
   28.0540   56.8200   28.1130 C   0  0  0  0  0
   27.9090   58.3150   28.2530 C   0  0  0  0  0
   28.4070   58.9220   29.1990 O   0  0  0  0  0
   27.1980   58.8990   27.3000 N   0  0  0  0  0
   26.9900   60.3390   27.2600 C   0  0  0  0  0
   25.5980   60.6620   27.7800 C   0  0  0  0  0
   24.6660   59.8810   27.5850 O   0  0  0  0  0
   27.1420   60.8530   25.8230 C   0  0  0  0  0
   26.9130   62.2490   25.7600 O   0  0  0  0  0
   25.4680   61.8060   28.4530 N   0  0  0  0  0
   24.1650   62.2650   28.9630 C   0  0  0  0  0
   23.9570   63.6840   28.4380 C   0  0  0  0  0
   24.9210   64.4260   28.2620 O   0  0  0  0  0
   24.1210   62.1790   30.5050 C   0  0  0  0  0
   24.2390   60.7460   30.9510 C   0  0  0  0  0
   25.3520   59.9600   30.8840 C   0  0  0  0  0
   23.1890   59.9050   31.4340 C   0  0  0  0  0
   25.0640   58.6930   31.3220 N   0  0  0  0  0
   23.7390   58.6280   31.6570 C   0  0  0  0  0
   21.8450   60.1100   31.7400 C   0  0  0  0  0
   22.9870   57.5560   32.1490 C   0  0  0  0  0
   21.0950   59.0330   32.2200 C   0  0  0  0  0
   21.6690   57.7780   32.4160 C   0  0  0  0  0
   22.7110   64.0360   28.1250 N   0  0  0  0  0
   22.3960   65.4180   27.7490 C   0  0  0  0  0
   22.8130   66.3940   28.8640 C   0  0  0  0  0
   23.2900   67.4950   28.5770 O   0  0  0  0  0
   20.9060   65.5950   27.4580 C   0  0  0  0  0
   20.4540   65.1240   26.0940 C   0  0  0  0  0
   20.9950   65.6630   24.9330 C   0  0  0  0  0
   19.4670   64.1780   25.9620 C   0  0  0  0  0
   20.5530   65.2480   23.6750 C   0  0  0  0  0
   19.0280   63.7550   24.7070 C   0  0  0  0  0
   19.5800   64.2970   23.5650 C   0  0  0  0  0
   19.1460   63.8830   22.3120 O   0  0  0  0  0
   22.6380   65.9840   30.1190 N   0  0  0  0  0
   22.9600   66.8420   31.2590 C   0  0  0  0  0
   23.9600   66.1830   32.1900 C   0  0  0  0  0
   23.9180   64.9760   32.4770 O   0  0  0  0  0
   21.6980   67.1960   32.0250 C   0  0  0  0  0
   24.8380   66.8780   32.6900 O   0  0  0  0  0
   27.2141   53.5154   41.7261 H   0  0  0  0  0
   27.4258   51.8760   41.9366 H   0  0  0  0  0
   28.7462   52.8926   41.9302 H   0  0  0  0  0
   28.3731   53.4516   39.6140 H   0  0  0  0  0
   28.2368   50.4820   39.9152 H   0  0  0  0  0
   29.7209   51.5005   40.4277 H   0  0  0  0  0
   28.7219   51.5902   37.6427 H   0  0  0  0  0
   31.4557   51.6984   38.9222 H   0  0  0  0  0
   31.0928   51.9101   37.1918 H   0  0  0  0  0
   30.4849   53.0891   38.3797 H   0  0  0  0  0
   30.1286   49.6021   37.1117 H   0  0  0  0  0
   30.4914   49.3904   38.8421 H   0  0  0  0  0
   28.8307   49.1526   38.2451 H   0  0  0  0  0
   26.7158   54.0188   38.3614 H   0  0  0  0  0
   24.6595   51.9294   37.8580 H   0  0  0  0  0
   22.8736   53.5494   37.7010 H   0  0  0  0  0
   23.3739   55.8291   38.2623 H   0  0  0  0  0
   23.3324   52.7870   39.9896 H   0  0  0  0  0
   24.4762   54.1333   40.2138 H   0  0  0  0  0
   22.7406   54.4666   39.9955 H   0  0  0  0  0
   23.2729   52.8539   35.8746 H   0  0  0  0  0
   24.8153   52.9768   33.5423 H   0  0  0  0  0
   22.3308   52.5827   33.6826 H   0  0  0  0  0
   22.7484   53.8147   32.4616 H   0  0  0  0  0
   21.0159   54.4764   33.8401 H   0  0  0  0  0
   23.8729   55.6116   35.6624 H   0  0  0  0  0
   24.5523   57.8071   34.0439 H   0  0  0  0  0
   25.3682   58.6037   36.5695 H   0  0  0  0  0
   24.1776   57.2617   36.8971 H   0  0  0  0  0
   22.9977   59.3251   36.9520 H   0  0  0  0  0
   22.5863   58.4873   35.4140 H   0  0  0  0  0
   23.9854   59.8874   34.1684 H   0  0  0  0  0
   24.6924   60.6171   35.7074 H   0  0  0  0  0
   21.8683   61.1029   35.3005 H   0  0  0  0  0
   25.1733   62.2012   34.6329 H   0  0  0  0  0
   22.4943   64.4871   34.5591 H   0  0  0  0  0
   21.2616   63.2843   34.9527 H   0  0  0  0  0
   26.7049   55.6175   35.7014 H   0  0  0  0  0
   29.0243   57.3393   35.2991 H   0  0  0  0  0
   30.2944   55.3624   36.0857 H   0  0  0  0  0
   28.7582   54.4042   36.0454 H   0  0  0  0  0
   29.9748   57.2689   37.3256 H   0  0  0  0  0
   27.2063   55.7153   33.0839 H   0  0  0  0  0
   29.6231   55.1775   31.3982 H   0  0  0  0  0
   28.1557   53.4953   30.2086 H   0  0  0  0  0
   26.9717   53.7128   31.5779 H   0  0  0  0  0
   27.5478   52.9691   33.8328 H   0  0  0  0  0
   30.1280   52.2218   30.4813 H   0  0  0  0  0
   28.7191   51.2532   35.1452 H   0  0  0  0  0
   31.3406   50.5179   31.7898 H   0  0  0  0  0
   30.6054   49.9902   34.1326 H   0  0  0  0  0
   29.5127   55.7034   29.2137 H   0  0  0  0  0
   27.0526   56.4207   27.9520 H   0  0  0  0  0
   28.7560   56.6472   27.2973 H   0  0  0  0  0
   26.7825   58.3203   26.5700 H   0  0  0  0  0
   27.7350   60.8278   27.8878 H   0  0  0  0  0
   26.4113   60.3486   25.1907 H   0  0  0  0  0
   28.1570   60.6481   25.4825 H   0  0  0  0  0
   27.0133   62.5480   24.8533 H   0  0  0  0  0
   26.2949   62.3796   28.6193 H   0  0  0  0  0
   23.3506   61.6297   28.6147 H   0  0  0  0  0
   23.1727   62.5848   30.8575 H   0  0  0  0  0
   24.9528   62.7501   30.9175 H   0  0  0  0  0
   26.3293   60.2914   30.5329 H   0  0  0  0  0
   21.3880   61.0907   31.6076 H   0  0  0  0  0
   23.4390   56.5778   32.3130 H   0  0  0  0  0
   20.0385   59.1774   32.4460 H   0  0  0  0  0
   21.0531   56.9599   32.7893 H   0  0  0  0  0
   21.9684   63.3371   28.1471 H   0  0  0  0  0
   22.9577   65.6391   26.8414 H   0  0  0  0  0
   20.7044   66.6653   27.5014 H   0  0  0  0  0
   20.3709   64.9904   28.1903 H   0  0  0  0  0
   21.7754   66.4205   25.0053 H   0  0  0  0  0
   19.0170   63.7484   26.8570 H   0  0  0  0  0
   20.9873   65.6858   22.7762 H   0  0  0  0  0
   18.2491   62.9965   24.6290 H   0  0  0  0  0
   18.4642   63.2151   22.4153 H   0  0  0  0  0
   22.2701   65.0480   30.2895 H   0  0  0  0  0
   23.4133   67.7526   30.8673 H   0  0  0  0  0
   23.1846   64.5637   32.0148 H   0  0  0  0  0
   21.0098   67.7238   31.3648 H   0  0  0  0  0
   21.2267   66.2827   32.3881 H   0  0  0  0  0
   21.9546   67.8348   32.8701 H   0  0  0  0  0
  1  2  1  0  0  0
  2  3  1  0  0  0
  2  5  1  0  0  0
  3  4  2  0  0  0
  3  9  1  0  0  0
  5  6  1  0  0  0
  6  7  1  0  0  0
  6  8  1  0  0  0
  9 10  1  0  0  0
 10 11  1  0  0  0
 10 13  1  0  0  0
 11 12  2  0  0  0
 11 16  1  0  0  0
 13 14  1  0  0  0
 13 15  1  0  0  0
 16 17  1  0  0  0
 17 18  1  0  0  0
 17 20  1  0  0  0
 18 19  2  0  0  0
 18 22  1  0  0  0
 20 21  1  0  0  0
 22 23  1  0  0  0
 23 24  1  0  0  0
 23 26  1  0  0  0
 24 25  2  0  0  0
 24 33  1  0  0  0
 26 27  1  0  0  0
 27 28  1  0  0  0
 28 29  1  0  0  0
 29 30  1  0  0  0
 30 31  2  0  0  0
 30 32  1  0  0  0
 33 34  1  0  0  0
 34 35  1  0  0  0
 34 37  1  0  0  0
 35 36  2  0  0  0
 35 41  1  0  0  0
 37 38  1  0  0  0
 38 39  1  0  0  0
 38 40  2  0  0  0
 41 42  1  0  0  0
 42 43  1  0  0  0
 42 45  1  0  0  0
 43 44  2  0  0  0
 43 52  1  0  0  0
 45 46  1  0  0  0
 46 47  4  0  0  0
 46 48  4  0  0  0
 47 49  4  0  0  0
 48 50  4  0  0  0
 49 51  4  0  0  0
 50 51  4  0  0  0
 52 53  1  0  0  0
 53 54  1  0  0  0
 54 55  2  0  0  0
 54 56  1  0  0  0
 56 57  1  0  0  0
 57 58  1  0  0  0
 57 60  1  0  0  0
 58 59  2  0  0  0
 58 62  1  0  0  0
 60 61  1  0  0  0
 62 63  1  0  0  0
 63 64  1  0  0  0
 63 66  1  0  0  0
 64 65  2  0  0  0
 64 76  1  0  0  0
 66 67  1  0  0  0
 67 68  4  0  0  0
 67 69  4  0  0  0
 68 70  4  0  0  0
 69 71  4  0  0  0
 69 72  4  0  0  0
 70 71  4  0  0  0
 71 73  4  0  0  0
 72 74  4  0  0  0
 73 75  4  0  0  0
 74 75  4  0  0  0
 76 77  1  0  0  0
 77 78  1  0  0  0
 77 80  1  0  0  0
 78 79  2  0  0  0
 78 88  1  0  0  0
 80 81  1  0  0  0
 81 82  4  0  0  0
 81 83  4  0  0  0
 82 84  4  0  0  0
 83 85  4  0  0  0
 84 86  4  0  0  0
 85 86  4  0  0  0
 86 87  1  0  0  0
 88 89  1  0  0  0
 89 90  1  0  0  0
 89 92  1  0  0  0
 90 91  1  0  0  0
 90 93  2  0  0  0
  1 94  1  0  0  0
  1 95  1  0  0  0
  1 96  1  0  0  0
  2 97  1  0  0  0
  5 98  1  0  0  0
  5 99  1  0  0  0
  6100  1  0  0  0
  7101  1  0  0  0
  7102  1  0  0  0
  7103  1  0  0  0
  8104  1  0  0  0
  8105  1  0  0  0
  8106  1  0  0  0
  9107  1  0  0  0
 10108  1  0  0  0
 13109  1  0  0  0
 14110  1  0  0  0
 15111  1  0  0  0
 15112  1  0  0  0
 15113  1  0  0  0
 16114  1  0  0  0
 17115  1  0  0  0
 20116  1  0  0  0
 20117  1  0  0  0
 21118  1  0  0  0
 22119  1  0  0  0
 23120  1  0  0  0
 26121  1  0  0  0
 26122  1  0  0  0
 27123  1  0  0  0
 27124  1  0  0  0
 28125  1  0  0  0
 28126  1  0  0  0
 29127  1  0  0  0
 31128  1  0  0  0
 32129  1  0  0  0
 32130  1  0  0  0
 33131  1  0  0  0
 34132  1  0  0  0
 37133  1  0  0  0
 37134  1  0  0  0
 39135  1  0  0  0
 41136  1  0  0  0
 42137  1  0  0  0
 45138  1  0  0  0
 45139  1  0  0  0
 47140  1  0  0  0
 48141  1  0  0  0
 49142  1  0  0  0
 50143  1  0  0  0
 51144  1  0  0  0
 52145  1  0  0  0
 53146  1  0  0  0
 53147  1  0  0  0
 56148  1  0  0  0
 57149  1  0  0  0
 60150  1  0  0  0
 60151  1  0  0  0
 61152  1  0  0  0
 62153  1  0  0  0
 63154  1  0  0  0
 66155  1  0  0  0
 66156  1  0  0  0
 68157  1  0  0  0
 72158  1  0  0  0
 73159  1  0  0  0
 74160  1  0  0  0
 75161  1  0  0  0
 76162  1  0  0  0
 77163  1  0  0  0
 80164  1  0  0  0
 80165  1  0  0  0
 82166  1  0  0  0
 83167  1  0  0  0
 84168  1  0  0  0
 85169  1  0  0  0
 87170  1  0  0  0
 88171  1  0  0  0
 89172  1  0  0  0
 91173  1  0  0  0
 92174  1  0  0  0
 92175  1  0  0  0
 92176  1  0  0  0
M  END
$$$$
