### 
### Created by X-TOOL on Tue Oct 16 15:17:23 2018
### 

@<TRIPOS>MOLECULE
2bj4_ligand
  176   179     1     0     0
SMALL
GAST_HUCK


@<TRIPOS>ATOM
      1 N          27.8240   52.7220   41.5290 N.4       1 LEU         0.2379
      2 CA         27.9500   52.5490   40.0550 C.3       1 LEU         0.0652
      3 C          26.5820   52.3000   39.4490 C.2       1 LEU         0.2268
      4 O          25.9050   51.3450   39.8450 O.2       1 LEU        -0.3907
      5 CB         28.8610   51.3640   39.7720 C.3       1 LEU         0.0102
      6 CG         29.4450   51.2190   38.3690 C.3       1 LEU        -0.0394
      7 CD1        30.7090   52.0370   38.2040 C.3       1 LEU        -0.0623
      8 CD2        29.7460   49.7320   38.1240 C.3       1 LEU        -0.0623
      9 N          26.1620   53.1780   38.5250 N.am      1 LEU        -0.2586
     10 CA         24.9360   52.9770   37.7390 C.3       1 LEU         0.1566
     11 C          25.1930   53.3430   36.2860 C.2       1 LEU         0.2065
     12 O          26.2980   53.7630   35.9140 O.2       1 LEU        -0.3943
     13 CB         23.7660   53.8900   38.2260 C.3       1 LEU         0.0924
     14 OG1        24.0930   55.2680   37.9630 O.3       1 LEU        -0.3874
     15 CG2        23.5650   53.8140   39.7080 C.3       1 LEU        -0.0346
     16 N          24.1360   53.2390   35.4910 N.am      1 LEU        -0.2615
     17 CA         24.1550   53.6540   34.0840 C.3       1 LEU         0.1539
     18 C          24.7130   55.0830   33.9020 C.2       1 LEU         0.2062
     19 O          25.3470   55.4010   32.8870 O.2       1 LEU        -0.3943
     20 CB         22.7300   53.5850   33.5270 C.3       1 LEU         0.0843
     21 OG         21.9070   54.5250   34.1940 O.3       1 LEU        -0.3903
     22 N          24.4560   55.9290   34.8880 N.am      1 LEU        -0.2637
     23 CA         24.9750   57.3100   34.9170 C.3       1 LEU         0.1311
     24 C          26.4940   57.4070   34.7640 C.2       1 LEU         0.2040
     25 O          27.0140   58.3820   34.1980 O.2       1 LEU        -0.3944
     26 CB         24.5210   58.0260   36.2000 C.3       1 LEU        -0.0092
     27 CG         23.3660   58.9970   35.9800 C.3       1 LEU        -0.0156
     28 CD         23.8170   60.2220   35.1920 C.3       1 LEU         0.0627
     29 NE         22.8490   61.3160   35.1180 N.pl3     1 LEU        -0.2723
     30 CZ         23.1750   62.5790   34.8250 C.cat     1 LEU         0.2882
     31 NH1        24.4430   62.9120   34.5900 N.pl3     1 LEU        -0.2849
     32 NH2        22.2370   63.5240   34.7750 N.pl3     1 LEU        -0.2849
     33 N          27.1970   56.3850   35.2440 N.am      1 LEU        -0.2622
     34 CA         28.6490   56.3290   35.1360 C.3       1 LEU         0.1423
     35 C          29.1190   55.8910   33.7450 C.2       1 LEU         0.2057
     36 O          30.3050   55.8170   33.5030 O.2       1 LEU        -0.3943
     37 CB         29.2100   55.3850   36.1940 C.3       1 LEU         0.0406
     38 CG         28.8880   55.8420   37.6030 C.2       1 LEU         0.0393
     39 OD1        29.4120   56.9050   38.0130 O.co2     1 LEU        -0.5688
     40 OD2        28.1140   55.2130   38.3620 O.co2     1 LEU        -0.5688
     41 N          28.1900   55.6110   32.8350 N.am      1 LEU        -0.2618
     42 CA         28.5370   55.1580   31.4880 C.3       1 LEU         0.1404
     43 C          27.9380   56.0680   30.4390 C.2       1 LEU         0.2058
     44 O          26.9120   56.6830   30.6720 O.2       1 LEU        -0.3942
     45 CB         28.0150   53.7330   31.2630 C.3       1 LEU         0.0214
     46 CG         28.7480   52.6930   32.0620 C.ar      1 LEU        -0.0386
     47 CD1        28.3730   52.4170   33.3830 C.ar      1 LEU        -0.0601
     48 CD2        29.8200   52.0040   31.5040 C.ar      1 LEU        -0.0601
     49 CE1        29.0290   51.4610   34.1210 C.ar      1 LEU        -0.0686
     50 CE2        30.4970   51.0480   32.2320 C.ar      1 LEU        -0.0686
     51 CZ         30.0900   50.7590   33.5570 C.ar      1 LEU        -0.0687
     52 N          28.5940   56.1410   29.2830 N.am      1 LEU        -0.2663
     53 CA         28.0540   56.8200   28.1130 C.3       1 LEU         0.1201
     54 C          27.9090   58.3150   28.2530 C.2       1 LEU         0.2008
     55 O          28.4070   58.9220   29.1990 O.2       1 LEU        -0.3947
     56 N          27.1980   58.8990   27.3000 N.am      1 LEU        -0.2618
     57 CA         26.9900   60.3390   27.2600 C.3       1 LEU         0.1539
     58 C          25.5980   60.6620   27.7800 C.2       1 LEU         0.2063
     59 O          24.6660   59.8810   27.5850 O.2       1 LEU        -0.3943
     60 CB         27.1420   60.8530   25.8230 C.3       1 LEU         0.0843
     61 OG         26.9130   62.2490   25.7600 O.3       1 LEU        -0.3903
     62 N          25.4680   61.8060   28.4530 N.am      1 LEU        -0.2626
     63 CA         24.1650   62.2650   28.9630 C.3       1 LEU         0.1352
     64 C          23.9570   63.6840   28.4380 C.2       1 LEU         0.2053
     65 O          24.9210   64.4260   28.2620 O.2       1 LEU        -0.3942
     66 CB         24.1210   62.1790   30.5050 C.3       1 LEU         0.0042
     67 CG         24.2390   60.7460   30.9510 C.2       1 LEU        -0.0418
     68 CD1        25.3520   59.9600   30.8840 C.2       1 LEU         0.0167
     69 CD2        23.1890   59.9050   31.4340 C.ar      1 LEU        -0.0214
     70 NE1        25.0640   58.6930   31.3220 N.pl3     1 LEU        -0.2890
     71 CE2        23.7390   58.6280   31.6570 C.ar      1 LEU         0.0603
     72 CE3        21.8450   60.1100   31.7400 C.ar      1 LEU        -0.0747
     73 CZ2        22.9870   57.5560   32.1490 C.ar      1 LEU        -0.0443
     74 CZ3        21.0950   59.0330   32.2200 C.ar      1 LEU        -0.0792
     75 CH2        21.6690   57.7780   32.4160 C.ar      1 LEU        -0.0768
     76 N          22.7110   64.0360   28.1250 N.am      1 LEU        -0.2620
     77 CA         22.3960   65.4180   27.7490 C.3       1 LEU         0.1390
     78 C          22.8130   66.3940   28.8640 C.2       1 LEU         0.2052
     79 O          23.2900   67.4950   28.5770 O.2       1 LEU        -0.3943
     80 CB         20.9060   65.5950   27.4580 C.3       1 LEU         0.0163
     81 CG         20.4540   65.1240   26.0940 C.ar      1 LEU        -0.0493
     82 CD1        20.9950   65.6630   24.9330 C.ar      1 LEU        -0.0685
     83 CD2        19.4670   64.1780   25.9620 C.ar      1 LEU        -0.0685
     84 CE1        20.5530   65.2480   23.6750 C.ar      1 LEU        -0.0398
     85 CE2        19.0280   63.7550   24.7070 C.ar      1 LEU        -0.0398
     86 CZ         19.5800   64.2970   23.5650 C.ar      1 LEU         0.0805
     87 OH         19.1460   63.8830   22.3120 O.3       1 LEU        -0.3376
     88 N          22.6380   65.9840   30.1190 N.am      1 LEU        -0.2696
     89 CA         22.9600   66.8420   31.2590 C.3       1 LEU         0.0916
     90 C          23.9600   66.1830   32.1900 C.2       1 LEU         0.0598
     91 O          23.9180   64.9760   32.4770 O.co2     1 LEU        -0.5666
     92 CB         21.6980   67.1960   32.0250 C.3       1 LEU        -0.0300
     93 OXT        24.8380   66.8780   32.6900 O.co2     1 LEU        -0.5666
     94 H1         28.7353   52.8871   41.9270 H         1 LEU         0.2015
     95 H2         27.4273   51.8878   41.9325 H         1 LEU         0.2015
     96 H3         27.2243   53.5081   41.7250 H         1 LEU         0.2015
     97 H4         28.3836   53.4588   39.6143 H         1 LEU         0.1098
     98 H5         28.2827   50.4517   39.9799 H         1 LEU         0.0348
     99 H6         29.7072   51.4293   40.4718 H         1 LEU         0.0348
    100 H7         28.7030   51.5659   37.6347 H         1 LEU         0.0299
    101 H8         31.0990   51.9073   37.1837 H         1 LEU         0.0232
    102 H9         31.4624   51.6982   38.9303 H         1 LEU         0.0232
    103 H10        30.4835   53.0995   38.3780 H         1 LEU         0.0232
    104 H11        28.8230   49.1462   38.2459 H         1 LEU         0.0232
    105 H12        30.4982   49.3860   38.8482 H         1 LEU         0.0232
    106 H13        30.1322   49.5995   37.1026 H         1 LEU         0.0232
    107 H14        26.7050   54.0023   38.3647 H         1 LEU         0.1885
    108 H15        24.6341   51.9219   37.8139 H         1 LEU         0.0826
    109 H16        22.8411   53.6035   37.7040 H         1 LEU         0.0639
    110 H17        23.3813   55.8233   38.2592 H         1 LEU         0.2101
    111 H18        22.7332   54.4722   39.9994 H         1 LEU         0.0257
    112 H19        24.4839   54.1360   40.2197 H         1 LEU         0.0257
    113 H20        23.3301   52.7780   39.9935 H         1 LEU         0.0257
    114 H21        23.2898   52.8614   35.8671 H         1 LEU         0.1884
    115 H22        24.7947   52.9572   33.5225 H         1 LEU         0.0823
    116 H23        22.3267   52.5732   33.6805 H         1 LEU         0.0606
    117 H24        22.7472   53.8136   32.4512 H         1 LEU         0.0606
    118 H25        21.0252   54.4769   33.8439 H         1 LEU         0.2097
    119 H26        23.8844   55.6178   35.6472 H         1 LEU         0.1883
    120 H27        24.5301   57.8396   34.0617 H         1 LEU         0.0800
    121 H28        25.3752   58.5877   36.6058 H         1 LEU         0.0313
    122 H29        24.2025   57.2659   36.9285 H         1 LEU         0.0313
    123 H30        22.9792   59.3216   36.9572 H         1 LEU         0.0301
    124 H31        22.5684   58.4851   35.4216 H         1 LEU         0.0301
    125 H32        24.0429   59.8997   34.1648 H         1 LEU         0.0689
    126 H33        24.7315   60.6104   35.6639 H         1 LEU         0.0689
    127 H34        21.8587   61.1009   35.3023 H         1 LEU         0.2642
    128 H35        24.6861   63.8873   34.3649 H         1 LEU         0.2615
    129 H36        25.1805   62.1943   34.6334 H         1 LEU         0.2615
    130 H37        21.2520   63.2820   34.9544 H         1 LEU         0.2615
    131 H38        22.4969   64.4965   34.5569 H         1 LEU         0.2615
    132 H39        26.7146   55.6325   35.6924 H         1 LEU         0.1884
    133 H40        29.0427   57.3386   35.3248 H         1 LEU         0.0819
    134 H41        30.3029   55.3351   36.0796 H         1 LEU         0.0478
    135 H42        28.7791   54.3848   36.0396 H         1 LEU         0.0478
    136 H43        27.2256   55.7132   33.0790 H         1 LEU         0.1885
    137 H44        29.6320   55.1630   31.3838 H         1 LEU         0.0823
    138 H45        28.1186   53.4888   30.1955 H         1 LEU         0.0474
    139 H46        26.9521   53.7031   31.5446 H         1 LEU         0.0474
    140 H47        27.5524   52.9661   33.8304 H         1 LEU         0.0557
    141 H48        30.1263   52.2206   30.4870 H         1 LEU         0.0557
    142 H49        28.7208   51.2544   35.1395 H         1 LEU         0.0599
    143 H50        31.3359   50.5209   31.7923 H         1 LEU         0.0599
    144 H51        30.6025   49.9944   34.1295 H         1 LEU         0.0559
    145 H52        29.4947   55.7120   29.2150 H         1 LEU         0.1881
    146 H53        27.0597   56.3991   27.9030 H         1 LEU         0.0763
    147 H54        28.7236   56.6204   27.2634 H         1 LEU         0.0763
    148 H55        26.7907   58.3317   26.5843 H         1 LEU         0.1884
    149 H56        27.7385   60.8304   27.8989 H         1 LEU         0.0823
    150 H57        26.4145   60.3390   25.1776 H         1 LEU         0.0606
    151 H58        28.1614   60.6388   25.4696 H         1 LEU         0.0606
    152 H59        27.0122   62.5449   24.8627 H         1 LEU         0.2097
    153 H60        26.2787   62.3683   28.6160 H         1 LEU         0.1884
    154 H61        23.3701   61.6187   28.5625 H         1 LEU         0.0815
    155 H62        23.1678   62.5938   30.8647 H         1 LEU         0.0397
    156 H63        24.9554   62.7598   30.9250 H         1 LEU         0.0397
    157 H64        26.3284   60.2911   30.5332 H         1 LEU         0.0795
    158 H65        25.7365   57.9157   31.3882 H         1 LEU         0.2216
    159 H66        21.3905   61.0853   31.6083 H         1 LEU         0.0540
    160 H67        23.4366   56.5832   32.3121 H         1 LEU         0.0541
    161 H68        20.0443   59.1766   32.4447 H         1 LEU         0.0510
    162 H69        21.0565   56.9644   32.7873 H         1 LEU         0.0530
    163 H70        21.9829   63.3508   28.1466 H         1 LEU         0.1885
    164 H71        22.9608   65.6631   26.8375 H         1 LEU         0.0821
    165 H72        20.6676   66.6654   27.5442 H         1 LEU         0.0453
    166 H73        20.3423   65.0316   28.2161 H         1 LEU         0.0453
    167 H74        21.7712   66.4163   25.0049 H         1 LEU         0.0530
    168 H75        19.0194   63.7508   26.8521 H         1 LEU         0.0530
    169 H76        20.9849   65.6834   22.7811 H         1 LEU         0.0525
    170 H77        18.2534   63.0007   24.6294 H         1 LEU         0.0525
    171 H78        19.2983   62.9501   22.2177 H         1 LEU         0.2458
    172 H79        22.2774   65.0664   30.2861 H         1 LEU         0.1875
    173 H80        23.4072   67.7704   30.8742 H         1 LEU         0.0723
    174 H81        21.9557   67.8407   32.8782 H         1 LEU         0.0270
    175 H82        21.2214   66.2751   32.3921 H         1 LEU         0.0270
    176 H83        21.0026   67.7288   31.3598 H         1 LEU         0.0270
@<TRIPOS>BOND
     1    1    2 1  
     2    2    3 1  
     3    2    5 1  
     4    3    4 2  
     5    3    9 am 
     6    5    6 1  
     7    6    7 1  
     8    6    8 1  
     9    9   10 1  
    10   10   11 1  
    11   10   13 1  
    12   11   12 2  
    13   11   16 am 
    14   13   14 1  
    15   13   15 1  
    16   16   17 1  
    17   17   18 1  
    18   17   20 1  
    19   18   19 2  
    20   18   22 am 
    21   20   21 1  
    22   22   23 1  
    23   23   24 1  
    24   23   26 1  
    25   24   25 2  
    26   24   33 am 
    27   26   27 1  
    28   27   28 1  
    29   28   29 1  
    30   29   30 ar 
    31   30   31 ar 
    32   30   32 ar 
    33   33   34 1  
    34   34   35 1  
    35   34   37 1  
    36   35   36 2  
    37   35   41 am 
    38   37   38 1  
    39   38   39 ar 
    40   38   40 ar 
    41   41   42 1  
    42   42   43 1  
    43   42   45 1  
    44   43   44 2  
    45   43   52 am 
    46   45   46 1  
    47   46   47 ar 
    48   46   48 ar 
    49   47   49 ar 
    50   48   50 ar 
    51   49   51 ar 
    52   50   51 ar 
    53   52   53 1  
    54   53   54 1  
    55   54   55 2  
    56   54   56 am 
    57   56   57 1  
    58   57   58 1  
    59   57   60 1  
    60   58   59 2  
    61   58   62 am 
    62   60   61 1  
    63   62   63 1  
    64   63   64 1  
    65   63   66 1  
    66   64   65 2  
    67   64   76 am 
    68   66   67 1  
    69   67   68 2  
    70   67   69 1  
    71   68   70 1  
    72   69   71 ar 
    73   69   72 ar 
    74   70   71 1  
    75   71   73 ar 
    76   72   74 ar 
    77   73   75 ar 
    78   74   75 ar 
    79   76   77 1  
    80   77   78 1  
    81   77   80 1  
    82   78   79 2  
    83   78   88 am 
    84   80   81 1  
    85   81   82 ar 
    86   81   83 ar 
    87   82   84 ar 
    88   83   85 ar 
    89   84   86 ar 
    90   85   86 ar 
    91   86   87 1  
    92   88   89 1  
    93   89   90 1  
    94   89   92 1  
    95   90   91 ar 
    96   90   93 ar 
    97    1   94 1  
    98    1   95 1  
    99    1   96 1  
   100    2   97 1  
   101    5   98 1  
   102    5   99 1  
   103    6  100 1  
   104    7  101 1  
   105    7  102 1  
   106    7  103 1  
   107    8  104 1  
   108    8  105 1  
   109    8  106 1  
   110    9  107 1  
   111   10  108 1  
   112   13  109 1  
   113   14  110 1  
   114   15  111 1  
   115   15  112 1  
   116   15  113 1  
   117   16  114 1  
   118   17  115 1  
   119   20  116 1  
   120   20  117 1  
   121   21  118 1  
   122   22  119 1  
   123   23  120 1  
   124   26  121 1  
   125   26  122 1  
   126   27  123 1  
   127   27  124 1  
   128   28  125 1  
   129   28  126 1  
   130   29  127 1  
   131   31  128 1  
   132   31  129 1  
   133   32  130 1  
   134   32  131 1  
   135   33  132 1  
   136   34  133 1  
   137   37  134 1  
   138   37  135 1  
   139   41  136 1  
   140   42  137 1  
   141   45  138 1  
   142   45  139 1  
   143   47  140 1  
   144   48  141 1  
   145   49  142 1  
   146   50  143 1  
   147   51  144 1  
   148   52  145 1  
   149   53  146 1  
   150   53  147 1  
   151   56  148 1  
   152   57  149 1  
   153   60  150 1  
   154   60  151 1  
   155   61  152 1  
   156   62  153 1  
   157   63  154 1  
   158   66  155 1  
   159   66  156 1  
   160   68  157 1  
   161   70  158 1  
   162   72  159 1  
   163   73  160 1  
   164   74  161 1  
   165   75  162 1  
   166   76  163 1  
   167   77  164 1  
   168   80  165 1  
   169   80  166 1  
   170   82  167 1  
   171   83  168 1  
   172   84  169 1  
   173   85  170 1  
   174   87  171 1  
   175   88  172 1  
   176   89  173 1  
   177   92  174 1  
   178   92  175 1  
   179   92  176 1  
@<TRIPOS>SUBSTRUCTURE
     1 LEU         1

