3coh_ligand
  -I-interpret- 

 48 52  0  0  0  0  0  0  0  0999 V2000
   -0.5950   63.5780   42.2620 C   0  0  0  0  0
   -1.1180   62.7280   43.3710 C   0  0  0  0  0
   -1.6480   61.4640   43.1590 C   0  0  0  0  0
   -1.3200   63.0690   46.0400 C   0  0  0  0  0
   -0.3130   64.6990   44.1170 C   0  0  0  0  0
   -0.9680   63.4840   44.6300 C   0  0  0  0  0
   -0.0030   65.8920   44.9570 C   0  0  0  0  0
   -0.3000   66.0730   46.3990 C   0  0  0  0  0
   -0.7870   65.0960   47.4410 C   0  0  0  0  0
    0.0740   67.4960   46.6070 C   0  0  0  0  0
   -2.3200   58.8290   39.3150 O   0  0  0  0  0
   -1.9510   59.8350   40.0160 C   0  0  0  0  0
   -2.1380   59.8050   41.3340 N   0  0  0  0  0
   -2.7380   58.6740   42.0440 C   0  0  0  0  0
   -4.0330   59.1220   42.6910 C   0  0  0  0  0
   -1.3430   61.0830   39.4450 C   0  0  0  0  0
   -0.0430   60.8050   38.7050 C   0  0  0  0  0
   -2.3640   61.8170   38.5830 C   0  0  0  0  0
   -1.1720   61.8110   40.7340 C   0  0  0  0  0
   -0.6390   63.0940   40.9560 C   0  0  0  0  0
   -1.6930   60.9710   41.8630 C   0  0  0  0  0
   -0.1650   64.7350   42.7810 N   0  0  0  0  0
   -1.8900   64.2270   46.8540 C   0  0  0  0  0
    0.0560   68.2780   47.9010 C   0  0  0  0  0
    0.4400   67.9670   45.4040 N   0  0  0  0  0
    0.3790   67.0320   44.3690 N   0  0  0  0  0
   -2.0214   60.8703   43.9933 H   0  0  0  0  0
   -0.4095   62.7246   46.5303 H   0  0  0  0  0
   -2.0772   62.2869   45.9851 H   0  0  0  0  0
   -1.1775   65.6459   48.2973 H   0  0  0  0  0
    0.0417   64.4628   47.7578 H   0  0  0  0  0
   -2.0504   58.3171   42.8108 H   0  0  0  0  0
   -2.9409   57.8665   41.3405 H   0  0  0  0  0
   -3.8261   59.9283   43.3947 H   0  0  0  0  0
   -4.7185   59.4767   41.9213 H   0  0  0  0  0
   -4.4826   58.2821   43.2207 H   0  0  0  0  0
    0.6773   60.3617   39.3925 H   0  0  0  0  0
   -0.2347   60.1153   37.8830 H   0  0  0  0  0
    0.3564   61.7396   38.3112 H   0  0  0  0  0
   -2.6823   61.1681   37.7671 H   0  0  0  0  0
   -3.2265   62.0856   39.1930 H   0  0  0  0  0
   -1.9106   62.7203   38.1748 H   0  0  0  0  0
   -0.2690   63.6955   40.1257 H   0  0  0  0  0
   -2.4770   63.8148   47.6747 H   0  0  0  0  0
   -2.5001   64.8440   46.1943 H   0  0  0  0  0
   -0.9579   68.2929   48.3010 H   0  0  0  0  0
    0.7246   67.8041   48.6197 H   0  0  0  0  0
    0.3884   69.2987   47.7118 H   0  0  0  0  0
  2  1  4  0  0  0
  1 20  4  0  0  0
  1 22  4  0  0  0
  3  2  4  0  0  0
  2  6  4  0  0  0
 21  3  4  0  0  0
  6  4  1  0  0  0
  4 23  1  0  0  0
  6  5  4  0  0  0
  5  7  1  0  0  0
  5 22  4  0  0  0
  7  8  4  0  0  0
  7 26  4  0  0  0
  8  9  1  0  0  0
  8 10  4  0  0  0
 23  9  1  0  0  0
 10 24  1  0  0  0
 10 25  4  0  0  0
 12 11  2  0  0  0
 13 12  1  0  0  0
 12 16  1  0  0  0
 13 14  1  0  0  0
 13 21  1  0  0  0
 14 15  1  0  0  0
 16 17  1  0  0  0
 16 18  1  0  0  0
 16 19  1  0  0  0
 19 20  4  0  0  0
 19 21  4  0  0  0
 25 26  4  0  0  0
  3 27  1  0  0  0
  4 28  1  0  0  0
  4 29  1  0  0  0
  9 30  1  0  0  0
  9 31  1  0  0  0
 14 32  1  0  0  0
 14 33  1  0  0  0
 15 34  1  0  0  0
 15 35  1  0  0  0
 15 36  1  0  0  0
 17 37  1  0  0  0
 17 38  1  0  0  0
 17 39  1  0  0  0
 18 40  1  0  0  0
 18 41  1  0  0  0
 18 42  1  0  0  0
 20 43  1  0  0  0
 23 44  1  0  0  0
 23 45  1  0  0  0
 24 46  1  0  0  0
 24 47  1  0  0  0
 24 48  1  0  0  0
M  END
$$$$
