4mha_ligand
  -I-interpret- 

 65 67  0  0  0  0  0  0  0  0999 V2000
    4.5530    3.3050   23.6140 C   0  0  0  0  0
    4.6420    2.3130   22.4500 C   0  0  0  0  0
    3.2800    1.9870   21.8650 C   0  0  0  0  0
    3.0840    0.4770   21.5820 C   0  0  0  0  0
    3.5970    0.0680   20.3020 N   0  0  0  0  0
    3.3510    0.8570   19.0920 C   0  0  0  0  0
    2.2910    0.5560   18.3070 N   0  0  0  0  0
    2.0500    1.2880   17.1770 C   0  0  0  0  0
    2.8920    2.3550   16.8240 C   0  0  0  0  0
    2.6100    3.1750   15.5480 C   0  0  0  0  0
    3.1710    4.2370   15.3690 O   0  0  0  0  0
    1.6650    2.6490   14.5680 N   0  0  0  0  0
    1.3490    3.3550   13.3590 C   0  0  0  0  0
    1.7920    2.5220   12.1330 C   0  0  0  0  0
    3.0990    2.1130   12.0250 C   0  0  0  0  0
    3.5070    1.3630   10.9210 C   0  0  0  0  0
    2.5890    1.0260    9.9360 C   0  0  0  0  0
    1.2770    1.4350   10.0440 C   0  0  0  0  0
    0.8710    2.1880   11.1460 C   0  0  0  0  0
    3.1100    0.0690    8.5350 S   0  0  0  0  0
    4.5080    0.2460    8.2780 O   0  0  0  0  0
    2.5370    0.5670    7.3230 O   0  0  0  0  0
    2.7410   -1.5260    8.7680 N   0  0  0  0  0
    4.0000    2.6480   17.6740 C   0  0  0  0  0
    4.9110    3.7390   17.3610 N   0  0  0  0  0
    4.7740    5.0210   17.9780 C   0  0  0  0  0
    6.0810    5.7710   17.7770 C   0  0  0  0  0
    6.1450    7.0570   18.5700 C   0  0  0  0  0
    5.8340    6.8340   20.0430 C   0  0  0  0  0
    5.8000    8.0890   20.7080 O   0  0  0  0  0
    4.5000    6.1380   20.2310 C   0  0  0  0  0
    4.4170    4.8410   19.4510 C   0  0  0  0  0
    4.1990    1.8970   18.7750 N   0  0  0  0  0
    4.1042    4.2346   23.2640 H   0  0  0  0  0
    3.9379    2.8789   24.4066 H   0  0  0  0  0
    5.5538    3.5048   23.9967 H   0  0  0  0  0
    5.0782    1.3879   22.8269 H   0  0  0  0  0
    5.2473    2.7664   21.6650 H   0  0  0  0  0
    3.1930    2.5153   20.9156 H   0  0  0  0  0
    2.5268    2.2873   22.5935 H   0  0  0  0  0
    2.0126    0.2767   21.5873 H   0  0  0  0  0
    3.6287   -0.0755   22.3476 H   0  0  0  0  0
    4.1441   -0.7902   20.2351 H   0  0  0  0  0
    1.1970    1.0410   16.5450 H   0  0  0  0  0
    1.2150    1.7515   14.7480 H   0  0  0  0  0
    1.8729    4.3108   13.3530 H   0  0  0  0  0
    0.2730    3.5223   13.3107 H   0  0  0  0  0
    3.8176    2.3743   12.8018 H   0  0  0  0  0
    4.5450    1.0424   10.8324 H   0  0  0  0  0
    0.5575    1.1703    9.2692 H   0  0  0  0  0
   -0.1655    2.5137   11.2332 H   0  0  0  0  0
    3.4755   -2.2320    8.7182 H   0  0  0  0  0
    1.7789   -1.8039    8.9615 H   0  0  0  0  0
    5.6620    3.5857   16.6881 H   0  0  0  0  0
    3.9685    5.6031   17.5302 H   0  0  0  0  0
    6.1612    6.0256   16.7202 H   0  0  0  0  0
    6.8917    5.1272   18.1181 H   0  0  0  0  0
    5.4026    7.7447   18.1650 H   0  0  0  0  0
    7.1563    7.4560   18.4916 H   0  0  0  0  0
    6.6135    6.1976   20.4619 H   0  0  0  0  0
    5.6040    7.9520   21.6377 H   0  0  0  0  0
    3.7161    6.8029   19.8684 H   0  0  0  0  0
    4.3847    5.9054   21.2896 H   0  0  0  0  0
    5.1295    4.1404   19.8865 H   0  0  0  0  0
    3.3899    4.4803   19.5065 H   0  0  0  0  0
  1  2  1  0  0  0
  2  3  1  0  0  0
  3  4  1  0  0  0
  4  5  1  0  0  0
  5  6  1  0  0  0
  6  7  4  0  0  0
  6 33  4  0  0  0
  7  8  4  0  0  0
  8  9  4  0  0  0
  9 10  1  0  0  0
  9 24  4  0  0  0
 10 11  2  0  0  0
 10 12  1  0  0  0
 12 13  1  0  0  0
 13 14  1  0  0  0
 14 15  4  0  0  0
 14 19  4  0  0  0
 15 16  4  0  0  0
 16 17  4  0  0  0
 17 18  4  0  0  0
 17 20  1  0  0  0
 18 19  4  0  0  0
 20 21  2  0  0  0
 20 22  2  0  0  0
 20 23  1  0  0  0
 24 25  1  0  0  0
 24 33  4  0  0  0
 25 26  1  0  0  0
 26 27  1  0  0  0
 26 32  1  0  0  0
 27 28  1  0  0  0
 28 29  1  0  0  0
 29 30  1  0  0  0
 29 31  1  0  0  0
 31 32  1  0  0  0
  1 34  1  0  0  0
  1 35  1  0  0  0
  1 36  1  0  0  0
  2 37  1  0  0  0
  2 38  1  0  0  0
  3 39  1  0  0  0
  3 40  1  0  0  0
  4 41  1  0  0  0
  4 42  1  0  0  0
  5 43  1  0  0  0
  8 44  1  0  0  0
 12 45  1  0  0  0
 13 46  1  0  0  0
 13 47  1  0  0  0
 15 48  1  0  0  0
 16 49  1  0  0  0
 18 50  1  0  0  0
 19 51  1  0  0  0
 23 52  1  0  0  0
 23 53  1  0  0  0
 25 54  1  0  0  0
 26 55  1  0  0  0
 27 56  1  0  0  0
 27 57  1  0  0  0
 28 58  1  0  0  0
 28 59  1  0  0  0
 29 60  1  0  0  0
 30 61  1  0  0  0
 31 62  1  0  0  0
 31 63  1  0  0  0
 32 64  1  0  0  0
 32 65  1  0  0  0
M  END
$$$$
