5dv4_ligand
  -I-interpret- 

 94 97  0  0  0  0  0  0  0  0999 V2000
  -29.6200   13.5530   11.1810 C   0  0  0  0  0
  -29.4620   14.2940   12.4020 O   0  0  0  0  0
  -30.9310   12.8060   11.2190 C   0  0  0  0  0
  -30.7710   11.5490   10.5520 N   0  3  0  0  0
  -32.1300   13.5470   10.6170 C   0  0  0  0  0
  -33.2320   13.5190   11.4880 O   0  0  0  0  0
  -31.7160   14.9720   10.2490 C   0  0  0  0  0
  -32.7740   15.6180    9.6010 O   0  0  0  0  0
  -30.5480   14.9000    9.3080 C   0  0  0  0  0
  -29.4750   14.3720   10.0210 O   0  0  0  0  0
  -30.1880   16.2950    8.7200 C   0  0  0  0  0
  -27.3040   13.5430   15.9870 C   0  0  0  0  0
  -27.4800   14.8170   16.5310 N   0  3  0  0  0
  -28.6600   12.8540   15.7500 C   0  0  0  0  0
  -29.4380   13.6350   14.7100 C   0  0  0  0  0
  -29.4600   14.9790   15.1040 O   0  0  0  0  0
  -28.7210   13.5570   13.3650 C   0  0  0  0  0
  -27.3670   14.1910   13.5120 C   0  0  0  0  0
  -27.5000   15.5930   13.6940 N   0  3  0  0  0
  -26.5420   13.6140   14.6660 C   0  0  0  0  0
  -30.7910   15.4580   15.2840 C   0  0  0  0  0
  -31.6890   14.4160   15.7810 C   0  0  0  0  0
  -32.2300   14.9020   17.0280 C   0  0  0  0  0
  -31.2580   15.8460   17.5240 C   0  0  0  0  0
  -30.7610   16.5280   16.3080 O   0  0  0  0  0
  -30.1920   15.0830   18.2400 C   0  0  0  0  0
  -35.2970   18.5330   18.6740 C   0  0  0  0  0
  -36.1400   17.6060   17.8400 C   0  0  0  0  0
  -35.2910   16.8510   16.8940 C   0  0  0  0  0
  -34.1380   16.2090   17.6170 C   0  0  0  0  0
  -33.3660   15.6680   16.5810 O   0  0  0  0  0
  -34.2450   17.7300   19.3620 C   0  0  0  0  0
  -33.4620   17.1950   18.3540 O   0  0  0  0  0
  -33.5100   18.4790   20.4680 C   0  0  0  0  0
  -31.2990   17.0080    8.1370 N   0  3  0  0  0
  -32.8330   14.2780   14.8830 O   0  0  0  0  0
  -36.7250   16.7040   18.7240 O   0  0  0  0  0
  -34.6680   19.4420   17.8400 O   0  0  0  0  0
  -30.6760   13.7740   18.4820 O   0  0  0  0  0
  -28.4570   11.5520   15.3370 O   0  0  0  0  0
  -33.1110   17.5680   21.5180 N   0  3  0  0  0
  -34.7610   17.7560   15.9140 N   0  3  0  0  0
  -28.8138   12.8234   11.1047 H   0  0  0  0  0
  -31.1679   12.6857   12.2761 H   0  0  0  0  0
  -29.9736   11.0531   10.9504 H   0  0  0  0  0
  -31.6158   10.9906   10.6743 H   0  0  0  0  0
  -30.6100   11.7110    9.5579 H   0  0  0  0  0
  -32.4473   13.0408    9.7053 H   0  0  0  0  0
  -33.4553   12.6076   11.6906 H   0  0  0  0  0
  -31.4510   15.5227   11.1515 H   0  0  0  0  0
  -33.5272   15.6698   10.1940 H   0  0  0  0  0
  -30.7989   14.2675    8.4565 H   0  0  0  0  0
  -29.4651   16.1262    7.9218 H   0  0  0  0  0
  -29.8195   16.9025    9.5466 H   0  0  0  0  0
  -26.7256   12.9607   16.7042 H   0  0  0  0  0
  -26.5689   15.2514   16.6782 H   0  0  0  0  0
  -28.0298   15.3869   15.8881 H   0  0  0  0  0
  -27.9693   14.7400   17.4226 H   0  0  0  0  0
  -29.2335   12.8316   16.6766 H   0  0  0  0  0
  -30.4444   13.2261   14.6203 H   0  0  0  0  0
  -28.6268   12.5180   13.0491 H   0  0  0  0  0
  -26.8302   13.9692   12.5897 H   0  0  0  0  0
  -26.5749   16.0111   13.7924 H   0  0  0  0  0
  -27.9724   15.9964   12.8850 H   0  0  0  0  0
  -28.0479   15.7750   14.5349 H   0  0  0  0  0
  -26.2661   12.5955   14.3929 H   0  0  0  0  0
  -25.6867   14.2725   14.8173 H   0  0  0  0  0
  -31.1540   15.8064   14.3171 H   0  0  0  0  0
  -31.1513   13.4721   15.8706 H   0  0  0  0  0
  -32.4633   14.1407   17.7724 H   0  0  0  0  0
  -31.6472   16.5754   18.2344 H   0  0  0  0  0
  -29.9469   15.5734   19.1821 H   0  0  0  0  0
  -29.2868   15.0431   17.6342 H   0  0  0  0  0
  -35.9228   19.0526   19.3996 H   0  0  0  0  0
  -36.8800   18.1686   17.2707 H   0  0  0  0  0
  -35.8976   16.0787   16.4210 H   0  0  0  0  0
  -34.4140   15.4393   18.3378 H   0  0  0  0  0
  -34.6772   16.9186   19.9476 H   0  0  0  0  0
  -34.1756   19.2333   20.8876 H   0  0  0  0  0
  -32.6197   18.9467   20.0477 H   0  0  0  0  0
  -30.9746   17.9062    7.7786 H   0  0  0  0  0
  -31.6916   16.4576    7.3732 H   0  0  0  0  0
  -32.0133   17.1624    8.8485 H   0  0  0  0  0
  -33.4180   13.5930   15.2148 H   0  0  0  0  0
  -37.2756   16.0889   18.2340 H   0  0  0  0  0
  -34.1282   20.0367   18.3659 H   0  0  0  0  0
  -30.0043   13.2657   18.9426 H   0  0  0  0  0
  -29.3057   11.1278   15.1909 H   0  0  0  0  0
  -32.6216   18.0858   22.2479 H   0  0  0  0  0
  -33.9392   17.1223   21.9127 H   0  0  0  0  0
  -32.4918   16.8557   21.1313 H   0  0  0  0  0
  -34.1742   17.2399   15.2585 H   0  0  0  0  0
  -35.5298   18.1971   15.4093 H   0  0  0  0  0
  -34.2037   18.4718   16.3802 H   0  0  0  0  0
  2  1  1  0  0  0
  1  3  1  0  0  0
  1 10  1  0  0  0
 17  2  1  0  0  0
  3  4  1  0  0  0
  3  5  1  0  0  0
  5  6  1  0  0  0
  5  7  1  0  0  0
  7  8  1  0  0  0
  9  7  1  0  0  0
 10  9  1  0  0  0
  9 11  1  0  0  0
 11 35  1  0  0  0
 12 13  1  0  0  0
 14 12  1  0  0  0
 12 20  1  0  0  0
 15 14  1  0  0  0
 14 40  1  0  0  0
 16 15  1  0  0  0
 15 17  1  0  0  0
 21 16  1  0  0  0
 17 18  1  0  0  0
 18 19  1  0  0  0
 18 20  1  0  0  0
 22 21  1  0  0  0
 25 21  1  0  0  0
 23 22  1  0  0  0
 22 36  1  0  0  0
 23 24  1  0  0  0
 31 23  1  0  0  0
 24 25  1  0  0  0
 24 26  1  0  0  0
 26 39  1  0  0  0
 28 27  1  0  0  0
 27 32  1  0  0  0
 27 38  1  0  0  0
 29 28  1  0  0  0
 28 37  1  0  0  0
 30 29  1  0  0  0
 29 42  1  0  0  0
 30 31  1  0  0  0
 30 33  1  0  0  0
 32 33  1  0  0  0
 32 34  1  0  0  0
 34 41  1  0  0  0
  1 43  1  0  0  0
  3 44  1  0  0  0
  4 45  1  0  0  0
  4 46  1  0  0  0
  4 47  1  0  0  0
  5 48  1  0  0  0
  6 49  1  0  0  0
  7 50  1  0  0  0
  8 51  1  0  0  0
  9 52  1  0  0  0
 11 53  1  0  0  0
 11 54  1  0  0  0
 12 55  1  0  0  0
 13 56  1  0  0  0
 13 57  1  0  0  0
 13 58  1  0  0  0
 14 59  1  0  0  0
 15 60  1  0  0  0
 17 61  1  0  0  0
 18 62  1  0  0  0
 19 63  1  0  0  0
 19 64  1  0  0  0
 19 65  1  0  0  0
 20 66  1  0  0  0
 20 67  1  0  0  0
 21 68  1  0  0  0
 22 69  1  0  0  0
 23 70  1  0  0  0
 24 71  1  0  0  0
 26 72  1  0  0  0
 26 73  1  0  0  0
 27 74  1  0  0  0
 28 75  1  0  0  0
 29 76  1  0  0  0
 30 77  1  0  0  0
 32 78  1  0  0  0
 34 79  1  0  0  0
 34 80  1  0  0  0
 35 81  1  0  0  0
 35 82  1  0  0  0
 35 83  1  0  0  0
 36 84  1  0  0  0
 37 85  1  0  0  0
 38 86  1  0  0  0
 39 87  1  0  0  0
 40 88  1  0  0  0
 41 89  1  0  0  0
 41 90  1  0  0  0
 41 91  1  0  0  0
 42 92  1  0  0  0
 42 93  1  0  0  0
 42 94  1  0  0  0
M  END
$$$$
