### 
### Created by X-TOOL on Sun Sep  9 21:50:46 2018
### 

@<TRIPOS>MOLECULE
2q2n_ligand
   72    76     1     0     0
SMALL
GAST_HUCK


@<TRIPOS>ATOM
      1 N1         26.8370   -3.0190    1.9250 N.ar      1 NON        -0.2629
      2 C11        27.5450   -1.8800    1.7580 C.2       1 NON         0.0606
      3 C12        27.1620   -0.9820    2.7510 C.2       1 NON         0.0615
      4 O1         27.6930    1.3980    1.6550 O.co2     1 NON        -0.4824
      5 O2         29.2260    0.6380    3.3860 O.co2     1 NON        -0.4824
      6 C13        26.1980   -1.6100    3.5210 C.2       1 NON        -0.0080
      7 C15        25.1570   -3.8570    3.4550 C.2       1 NON        -0.0139
      8 C14        26.0070   -2.8730    2.9810 C.2       1 NON         0.0625
      9 C16        22.4650   -7.9650    2.4860 C.3       1 NON        -0.0421
     10 O3         26.9800    1.3790    3.9940 O.co2     1 NON        -0.4824
     11 O4         23.3620   -4.5130    5.6450 O.co2     1 NON        -0.4838
     12 C21        24.6670   -4.9970    2.8350 C.2       1 NON         0.0746
     13 C22        23.6550   -5.8180    3.2980 C.2       1 NON         0.0533
     14 C23        23.4870   -6.8230    2.3860 C.2       1 NON        -0.0249
     15 C24        24.4190   -6.6150    1.3720 C.2       1 NON         0.0549
     16 C25        24.6300   -7.3690    0.2230 C.2       1 NON        -0.0272
     17 C26        25.4480   -1.0430    4.7470 C.3       1 NON        -0.0296
     18 O41        29.3600  -10.4910   -4.8480 O.co2     1 NON        -0.5688
     19 C49        29.8060   -9.4780   -4.2700 C.2       1 NON         0.0366
     20 O42        30.8840   -8.8660   -4.5130 O.co2     1 NON        -0.5688
     21 C48        28.9640   -8.9510   -3.1380 C.3       1 NON         0.0082
     22 C47        27.7340   -8.2050   -3.6420 C.3       1 NON        -0.0129
     23 C33        27.0460   -7.5880   -2.4190 C.2       1 NON        -0.0275
     24 C32        25.9580   -8.0910   -1.7570 C.2       1 NON        -0.0318
     25 C46        25.1910   -9.3710   -2.1520 C.3       1 NON        -0.0376
     26 C31        25.6590   -7.2460   -0.6990 C.2       1 NON         0.0472
     27 N3         26.5620   -6.2460   -0.6940 N.ar      1 NON        -0.2685
     28 C34        27.4230   -6.4350   -1.7220 C.2       1 NON         0.0481
     29 C35        28.4930   -5.5950   -2.0280 C.2       1 NON        -0.0286
     30 C41        28.9110   -4.3640   -1.5140 C.2       1 NON         0.0492
     31 N4         28.2700   -3.7430   -0.5110 N.pl3     1 NON        -0.2915
     32 C42        30.0060   -3.5720   -1.9060 C.2       1 NON        -0.0386
     33 C37        31.0800   -3.8320   -3.0010 C.3       1 NON        -0.0209
     34 C38        30.5650   -4.6080   -4.2230 C.3       1 NON         0.0059
     35 C39        30.0820   -3.6910   -5.3540 C.2       1 NON         0.0363
     36 O32        29.3600   -2.7160   -5.0450 O.co2     1 NON        -0.5689
     37 O31        30.4310   -4.0020   -6.5100 O.co2     1 NON        -0.5689
     38 C43        29.9640   -2.4620   -1.0810 C.2       1 NON        -0.0432
     39 C36        30.9410   -1.2690   -1.0840 C.3       1 NON        -0.0451
     40 C44        28.8890   -2.5840   -0.2300 C.2       1 NON         0.0474
     41 C45        28.4770   -1.6870    0.7510 C.2       1 NON        -0.0291
     42 S1         27.7910    0.6560    2.9520 S.o2      1 NON        -0.1711
     43 N2         25.1200   -5.5010    1.6730 N.pl3     1 NON        -0.2831
     44 S2         22.7300   -5.5770    4.7880 S.o2      1 NON        -0.1768
     45 O5         22.6610   -6.8570    5.5760 O.co2     1 NON        -0.4838
     46 O6         21.3540   -5.1490    4.4190 O.co2     1 NON        -0.4838
     47 H1         24.8198   -3.7137    4.4752 H         1 NON         0.0636
     48 H2         21.8732   -7.8479    3.4058 H         1 NON         0.0343
     49 H3         22.9938   -8.9292    2.5106 H         1 NON         0.0343
     50 H4         21.7960   -7.9358    1.6134 H         1 NON         0.0343
     51 H5         23.9022   -8.1472    0.0236 H         1 NON         0.0532
     52 H6         25.7999   -0.0211    4.9517 H         1 NON         0.0398
     53 H7         25.6423   -1.6799    5.6225 H         1 NON         0.0398
     54 H8         24.3679   -1.0242    4.5397 H         1 NON         0.0398
     55 H9         29.5729   -8.2638   -2.5323 H         1 NON         0.0451
     56 H10        28.6363   -9.7965   -2.5153 H         1 NON         0.0451
     57 H11        27.0502   -8.9032   -4.1468 H         1 NON         0.0424
     58 H12        28.0346   -7.4137   -4.3445 H         1 NON         0.0424
     59 H13        25.6666   -9.8262   -3.0333 H         1 NON         0.0363
     60 H14        24.1480   -9.1149   -2.3896 H         1 NON         0.0363
     61 H15        25.2119  -10.0841   -1.3148 H         1 NON         0.0363
     62 H16        29.1269   -5.9714   -2.8227 H         1 NON         0.0554
     63 H17        27.4320   -4.1004   -0.0305 H         1 NON         0.2195
     64 H18        31.9005   -4.4081   -2.5484 H         1 NON         0.0390
     65 H19        31.4615   -2.8599   -3.3465 H         1 NON         0.0390
     66 H20        29.7264   -5.2453   -3.9059 H         1 NON         0.0447
     67 H21        31.3802   -5.2389   -4.6070 H         1 NON         0.0447
     68 H22        31.7051   -1.4228   -1.8602 H         1 NON         0.0334
     69 H23        31.4278   -1.1912   -0.1006 H         1 NON         0.0334
     70 H24        30.3871   -0.3420   -1.2934 H         1 NON         0.0334
     71 H25        28.9463   -0.7102    0.7238 H         1 NON         0.0521
     72 H26        25.8798   -5.1012    1.1041 H         1 NON         0.2242
@<TRIPOS>BOND
     1    1    2 ar 
     2    8    1 ar 
     3    3    2 1  
     4    2   41 2  
     5    6    3 2  
     6    3   42 1  
     7   42    4 ar 
     8   42    5 ar 
     9    8    6 1  
    10    6   17 1  
    11    7    8 2  
    12   12    7 1  
    13   14    9 1  
    14   42   10 ar 
    15   44   11 ar 
    16   12   13 2  
    17   43   12 1  
    18   14   13 1  
    19   13   44 1  
    20   15   14 2  
    21   16   15 1  
    22   15   43 1  
    23   26   16 2  
    24   19   18 ar 
    25   19   20 ar 
    26   21   19 1  
    27   22   21 1  
    28   23   22 1  
    29   24   23 2  
    30   23   28 1  
    31   24   25 1  
    32   24   26 1  
    33   26   27 ar 
    34   27   28 ar 
    35   28   29 2  
    36   29   30 1  
    37   30   31 1  
    38   30   32 2  
    39   31   40 1  
    40   32   33 1  
    41   32   38 1  
    42   33   34 1  
    43   34   35 1  
    44   35   36 ar 
    45   35   37 ar 
    46   38   39 1  
    47   38   40 2  
    48   40   41 1  
    49   44   45 ar 
    50   44   46 ar 
    51    7   47 1  
    52    9   48 1  
    53    9   49 1  
    54    9   50 1  
    55   16   51 1  
    56   17   52 1  
    57   17   53 1  
    58   17   54 1  
    59   21   55 1  
    60   21   56 1  
    61   22   57 1  
    62   22   58 1  
    63   25   59 1  
    64   25   60 1  
    65   25   61 1  
    66   29   62 1  
    67   31   63 1  
    68   33   64 1  
    69   33   65 1  
    70   34   66 1  
    71   34   67 1  
    72   39   68 1  
    73   39   69 1  
    74   39   70 1  
    75   41   71 1  
    76   43   72 1  
@<TRIPOS>SUBSTRUCTURE
     1 NON         1

