2q2n_ligand
  -I-interpret- 

 74 78  0  0  0  0  0  0  0  0999 V2000
   26.8370   -3.0190    1.9250 N   0  0  0  0  0
   27.5450   -1.8800    1.7580 C   0  0  0  0  0
   27.1620   -0.9820    2.7510 C   0  0  0  0  0
   27.6930    1.3980    1.6550 O   0  0  0  0  0
   29.2260    0.6380    3.3860 O   0  0  0  0  0
   26.1980   -1.6100    3.5210 C   0  0  0  0  0
   25.1570   -3.8570    3.4550 C   0  0  0  0  0
   26.0070   -2.8730    2.9810 C   0  0  0  0  0
   22.4650   -7.9650    2.4860 C   0  0  0  0  0
   26.9800    1.3790    3.9940 O   0  0  0  0  0
   23.3620   -4.5130    5.6450 O   0  0  0  0  0
   24.6670   -4.9970    2.8350 C   0  0  0  0  0
   23.6550   -5.8180    3.2980 C   0  0  0  0  0
   23.4870   -6.8230    2.3860 C   0  0  0  0  0
   24.4190   -6.6150    1.3720 C   0  0  0  0  0
   24.6300   -7.3690    0.2230 C   0  0  0  0  0
   25.4480   -1.0430    4.7470 C   0  0  0  0  0
   29.3600  -10.4910   -4.8480 O   0  0  0  0  0
   29.8060   -9.4780   -4.2700 C   0  0  0  0  0
   30.8840   -8.8660   -4.5130 O   0  0  0  0  0
   28.9640   -8.9510   -3.1380 C   0  0  0  0  0
   27.7340   -8.2050   -3.6420 C   0  0  0  0  0
   27.0460   -7.5880   -2.4190 C   0  0  0  0  0
   25.9580   -8.0910   -1.7570 C   0  0  0  0  0
   25.1910   -9.3710   -2.1520 C   0  0  0  0  0
   25.6590   -7.2460   -0.6990 C   0  0  0  0  0
   26.5620   -6.2460   -0.6940 N   0  0  0  0  0
   27.4230   -6.4350   -1.7220 C   0  0  0  0  0
   28.4930   -5.5950   -2.0280 C   0  0  0  0  0
   28.9110   -4.3640   -1.5140 C   0  0  0  0  0
   28.2700   -3.7430   -0.5110 N   0  0  0  0  0
   30.0060   -3.5720   -1.9060 C   0  0  0  0  0
   31.0800   -3.8320   -3.0010 C   0  0  0  0  0
   30.5650   -4.6080   -4.2230 C   0  0  0  0  0
   30.0820   -3.6910   -5.3540 C   0  0  0  0  0
   29.3600   -2.7160   -5.0450 O   0  0  0  0  0
   30.4310   -4.0020   -6.5100 O   0  0  0  0  0
   29.9640   -2.4620   -1.0810 C   0  0  0  0  0
   30.9410   -1.2690   -1.0840 C   0  0  0  0  0
   28.8890   -2.5840   -0.2300 C   0  0  0  0  0
   28.4770   -1.6870    0.7510 C   0  0  0  0  0
   27.7910    0.6560    2.9520 S   0  0  0  0  0
   25.1200   -5.5010    1.6730 N   0  0  0  0  0
   22.7300   -5.5770    4.7880 S   0  0  0  0  0
   22.6610   -6.8570    5.5760 O   0  0  0  0  0
   21.3540   -5.1490    4.4190 O   0  0  0  0  0
   24.8180   -3.7129    4.4809 H   0  0  0  0  0
   22.6522   -8.5400    3.3929 H   0  0  0  0  0
   21.4584   -7.5481    2.5198 H   0  0  0  0  0
   22.5616   -8.6145    1.6160 H   0  0  0  0  0
   27.0393    0.9074    4.8281 H   0  0  0  0  0
   23.4103   -3.6919    5.1500 H   0  0  0  0  0
   23.8982   -8.1515    0.0225 H   0  0  0  0  0
   26.1673   -0.7871    5.5249 H   0  0  0  0  0
   24.8961   -0.1503    4.4528 H   0  0  0  0  0
   24.7533   -1.7930    5.1252 H   0  0  0  0  0
   30.9708   -8.1222   -3.9123 H   0  0  0  0  0
   29.5701   -8.2562   -2.5567 H   0  0  0  0  0
   28.6281   -9.7979   -2.5396 H   0  0  0  0  0
   27.0581   -8.8850   -4.1605 H   0  0  0  0  0
   28.0195   -7.4302   -4.3536 H   0  0  0  0  0
   24.7919   -9.2574   -3.1599 H   0  0  0  0  0
   25.8697  -10.2234   -2.1225 H   0  0  0  0  0
   24.3717   -9.5329   -1.4515 H   0  0  0  0  0
   29.1304   -5.9735   -2.8271 H   0  0  0  0  0
   31.8628   -4.4374   -2.5441 H   0  0  0  0  0
   31.4151   -2.8582   -3.3582 H   0  0  0  0  0
   29.7173   -5.2123   -3.9000 H   0  0  0  0  0
   31.3905   -5.2058   -4.6093 H   0  0  0  0  0
   29.2399   -2.6973   -4.0927 H   0  0  0  0  0
   31.9496   -1.6265   -0.8767 H   0  0  0  0  0
   30.9191   -0.7855   -2.0607 H   0  0  0  0  0
   30.6425   -0.5546   -0.3168 H   0  0  0  0  0
   28.9489   -0.7048    0.7236 H   0  0  0  0  0
  1  2  4  0  0  0
  8  1  4  0  0  0
  3  2  1  0  0  0
  2 41  4  0  0  0
  6  3  2  0  0  0
  3 42  1  0  0  0
 42  4  2  0  0  0
 42  5  2  0  0  0
  8  6  1  0  0  0
  6 17  1  0  0  0
  7  8  4  0  0  0
 12  7  4  0  0  0
 14  9  1  0  0  0
 42 10  1  0  0  0
 44 11  1  0  0  0
 12 13  4  0  0  0
 43 12  4  0  0  0
 14 13  4  0  0  0
 13 44  1  0  0  0
 15 14  4  0  0  0
 16 15  4  0  0  0
 15 43  4  0  0  0
 26 16  4  0  0  0
 19 18  2  0  0  0
 19 20  1  0  0  0
 21 19  1  0  0  0
 22 21  1  0  0  0
 23 22  1  0  0  0
 24 23  2  0  0  0
 23 28  1  0  0  0
 24 25  1  0  0  0
 24 26  1  0  0  0
 26 27  4  0  0  0
 27 28  4  0  0  0
 28 29  4  0  0  0
 29 30  4  0  0  0
 30 31  4  0  0  0
 30 32  4  0  0  0
 31 40  4  0  0  0
 32 33  1  0  0  0
 32 38  4  0  0  0
 33 34  1  0  0  0
 34 35  1  0  0  0
 35 36  1  0  0  0
 35 37  2  0  0  0
 38 39  1  0  0  0
 38 40  4  0  0  0
 40 41  4  0  0  0
 44 45  2  0  0  0
 44 46  2  0  0  0
  7 47  1  0  0  0
  9 48  1  0  0  0
  9 49  1  0  0  0
  9 50  1  0  0  0
 10 51  1  0  0  0
 11 52  1  0  0  0
 16 53  1  0  0  0
 17 54  1  0  0  0
 17 55  1  0  0  0
 17 56  1  0  0  0
 20 57  1  0  0  0
 21 58  1  0  0  0
 21 59  1  0  0  0
 22 60  1  0  0  0
 22 61  1  0  0  0
 25 62  1  0  0  0
 25 63  1  0  0  0
 25 64  1  0  0  0
 29 65  1  0  0  0
 33 66  1  0  0  0
 33 67  1  0  0  0
 34 68  1  0  0  0
 34 69  1  0  0  0
 36 70  1  0  0  0
 39 71  1  0  0  0
 39 72  1  0  0  0
 39 73  1  0  0  0
 41 74  1  0  0  0
M  END
$$$$
