5j8m_ligand
  -I-interpret- 

 31 33  0  0  0  0  0  0  0  0999 V2000
  -37.9100   -0.3220    9.0270 C   0  0  0  0  0
  -38.4830   -1.6090    9.0300 C   0  0  0  0  0
  -39.8620   -1.7100    8.8150 C   0  0  0  0  0
  -42.1200   -0.6480    8.4570 C   0  0  0  0  0
  -44.2560   -0.3640    8.9110 C   0  0  0  0  0
  -42.7240    0.7500   10.4630 C   0  0  0  0  0
  -42.7410    2.1500   10.3550 C   0  0  0  0  0
  -42.4280    2.9520   11.4540 C   0  0  0  0  0
  -42.4060    0.1580   11.6870 C   0  0  0  0  0
  -40.6550   -0.5620    8.6030 C   0  0  0  0  0
  -40.0760    0.7060    8.6420 C   0  0  0  0  0
  -38.7230    0.8010    8.8480 C   0  0  0  0  0
  -36.6010   -0.1140    9.3080 O   0  0  0  0  0
  -40.4530   -2.9160    8.7600 O   0  0  0  0  0
  -42.7760   -1.3040    7.5380 N   0  0  0  0  0
  -44.1350   -1.1300    7.8070 N   0  0  0  0  0
  -43.0220   -0.0540    9.3360 N   0  0  0  0  0
  -42.0940    2.3580   12.6640 C   0  0  0  0  0
  -42.0910    0.9700   12.7760 C   0  0  0  0  0
  -45.2870   -0.0030    9.4460 O   0  0  0  0  0
  -43.1010    2.7250    9.1880 F   0  0  0  0  0
  -37.9870    2.5180    8.7780 Br  0  0  0  0  0
  -37.8723   -2.4968    9.1944 H   0  0  0  0  0
  -42.4457    4.0380   11.3629 H   0  0  0  0  0
  -42.4040   -0.9271   11.7901 H   0  0  0  0  0
  -40.6844    1.6010    8.5118 H   0  0  0  0  0
  -36.4085    0.8249    9.2536 H   0  0  0  0  0
  -41.3941   -2.8033    8.6075 H   0  0  0  0  0
  -44.9054   -1.5164    7.2615 H   0  0  0  0  0
  -41.8350    2.9763   13.5234 H   0  0  0  0  0
  -41.8381    0.5103   13.7314 H   0  0  0  0  0
  2  1  4  0  0  0
  1 12  4  0  0  0
  1 13  1  0  0  0
  3  2  4  0  0  0
 10  3  4  0  0  0
  3 14  1  0  0  0
  4 10  1  0  0  0
  4 15  2  0  0  0
 17  4  1  0  0  0
  5 16  1  0  0  0
 17  5  1  0  0  0
  5 20  2  0  0  0
  6  7  4  0  0  0
  6  9  4  0  0  0
  6 17  1  0  0  0
  7  8  4  0  0  0
  7 21  1  0  0  0
  8 18  4  0  0  0
  9 19  4  0  0  0
 10 11  4  0  0  0
 11 12  4  0  0  0
 12 22  1  0  0  0
 15 16  1  0  0  0
 18 19  4  0  0  0
  2 23  1  0  0  0
  8 24  1  0  0  0
  9 25  1  0  0  0
 11 26  1  0  0  0
 13 27  1  0  0  0
 14 28  1  0  0  0
 16 29  1  0  0  0
 18 30  1  0  0  0
 19 31  1  0  0  0
M  END
$$$$
