3psd_ligand
  -I-interpret- 

 51 56  0  0  0  0  0  0  0  0999 V2000
   41.8150   29.0500   33.2430 C   0  0  0  0  0
   40.4790   29.2450   32.8820 C   0  0  0  0  0
   40.1900   30.5280   32.7430 N   0  0  0  0  0
   41.3410   31.1900   33.0130 N   0  0  0  0  0
   42.3690   30.3190   33.3300 C   0  0  0  0  0
   42.5570   27.8130   33.5080 C   0  0  0  0  0
   39.4660   28.2150   32.6700 C   0  0  0  0  0
   39.1970   27.2300   33.6450 C   0  0  0  0  0
   38.1900   26.2770   33.3750 C   0  0  0  0  0
   37.4720   26.2850   32.2280 N   0  0  0  0  0
   37.7170   27.2350   31.2980 C   0  0  0  0  0
   38.7060   28.2250   31.4790 C   0  0  0  0  0
   41.3490   32.6510   32.9490 C   0  0  0  0  0
   42.7060   33.2740   33.3630 C   0  0  0  0  0
   42.6530   34.8160   33.4580 C   0  0  0  0  0
   41.5030   35.2810   34.2760 N   0  3  0  0  0
   40.1810   34.7840   33.8210 C   0  0  0  0  0
   40.1490   33.2420   33.7330 C   0  0  0  0  0
   43.3600   27.7610   34.6770 C   0  0  0  0  0
   44.1120   26.6110   35.0110 C   0  0  0  0  0
   44.0230   25.5220   34.1230 C   0  0  0  0  0
   43.2370   25.5430   32.9550 C   0  0  0  0  0
   42.4900   26.6990   32.6340 C   0  0  0  0  0
   44.6550   24.2330   34.1800 C   0  0  0  0  0
   44.2410   23.5460   33.0800 C   0  0  0  0  0
   43.2880   24.2290   32.1200 C   0  0  0  0  0
   45.4850   23.5970   34.9870 N   0  0  0  0  0
   45.6070   22.3980   34.3410 N   0  0  0  0  0
   44.8650   22.3120   33.1630 C   0  0  0  0  0
   43.3954   30.5755   33.5922 H   0  0  0  0  0
   39.7524   27.2055   34.5825 H   0  0  0  0  0
   37.9836   25.5067   34.1180 H   0  0  0  0  0
   37.1316   27.2363   30.3785 H   0  0  0  0  0
   38.8802   28.9826   30.7150 H   0  0  0  0  0
   41.2255   32.9277   31.9020 H   0  0  0  0  0
   43.4401   33.0115   32.6012 H   0  0  0  0  0
   42.9638   32.8875   34.3490 H   0  0  0  0  0
   42.5405   35.2170   32.4507 H   0  0  0  0  0
   43.5717   35.1612   33.9322 H   0  0  0  0  0
   41.4792   36.2983   34.2054 H   0  0  0  0  0
   41.6461   34.9246   35.2209 H   0  0  0  0  0
   39.9855   35.1886   32.8279 H   0  0  0  0  0
   39.4280   35.1023   34.5419 H   0  0  0  0  0
   40.1938   32.8518   34.7498 H   0  0  0  0  0
   39.2380   32.9597   33.2053 H   0  0  0  0  0
   43.3981   28.6297   35.3342 H   0  0  0  0  0
   44.7284   26.5698   35.9090 H   0  0  0  0  0
   41.8759   26.7332   31.7341 H   0  0  0  0  0
   43.5804   24.2996   31.0723 H   0  0  0  0  0
   42.3458   23.7302   31.8929 H   0  0  0  0  0
   44.7932   21.4725   32.4715 H   0  0  0  0  0
  1  2  4  0  0  0
  1  5  4  0  0  0
  1  6  1  0  0  0
  2  3  4  0  0  0
  2  7  1  0  0  0
  3  4  4  0  0  0
  4  5  4  0  0  0
  4 13  1  0  0  0
  6 19  4  0  0  0
  6 23  4  0  0  0
  7  8  4  0  0  0
  7 12  4  0  0  0
  8  9  4  0  0  0
  9 10  4  0  0  0
 10 11  4  0  0  0
 11 12  4  0  0  0
 13 14  1  0  0  0
 13 18  1  0  0  0
 14 15  1  0  0  0
 15 16  1  0  0  0
 16 17  1  0  0  0
 17 18  1  0  0  0
 19 20  4  0  0  0
 20 21  4  0  0  0
 21 22  4  0  0  0
 21 24  1  0  0  0
 22 23  4  0  0  0
 22 26  1  0  0  0
 24 25  4  0  0  0
 24 27  4  0  0  0
 25 26  1  0  0  0
 25 29  4  0  0  0
 27 28  4  0  0  0
 28 29  4  0  0  0
  5 30  1  0  0  0
  8 31  1  0  0  0
  9 32  1  0  0  0
 11 33  1  0  0  0
 12 34  1  0  0  0
 13 35  1  0  0  0
 14 36  1  0  0  0
 14 37  1  0  0  0
 15 38  1  0  0  0
 15 39  1  0  0  0
 16 40  1  0  0  0
 16 41  1  0  0  0
 17 42  1  0  0  0
 17 43  1  0  0  0
 18 44  1  0  0  0
 18 45  1  0  0  0
 19 46  1  0  0  0
 20 47  1  0  0  0
 23 48  1  0  0  0
 26 49  1  0  0  0
 26 50  1  0  0  0
 29 51  1  0  0  0
M  END
$$$$
