3spk_ligand
  -I-interpret- 

 75 78  0  0  0  0  0  0  0  0999 V2000
   -7.7450   16.0400   -0.7950 O   0  0  0  0  0
   -8.5840   15.3980    0.1920 C   0  0  0  0  0
   -9.6250   16.1940    0.8240 C   0  0  0  0  0
   -9.8320   17.4510    0.3960 C   0  0  0  0  0
   -8.8550   18.1480   -0.5180 C   0  0  0  0  0
   -8.2150   17.1830   -1.5000 C   0  0  0  0  0
   -8.4010   14.2180    0.4830 O   0  0  0  0  0
  -10.8520   18.1660    0.8210 O   0  0  0  0  0
   -9.2520   16.7470   -2.5300 C   0  0  0  0  0
   -8.5950   16.0650   -3.7180 C   0  0  0  0  0
   -8.9820   16.7720   -5.0000 C   0  0  0  0  0
   -7.0160   17.8680   -2.1410 C   0  0  0  0  0
   -5.9150   18.1110   -1.1130 C   0  0  0  0  0
   -4.7670   18.8620   -1.7660 C   0  0  0  0  0
   -3.5820   18.2030   -2.0860 C   0  0  0  0  0
   -2.5470   18.8770   -2.7330 C   0  0  0  0  0
   -2.6860   20.2260   -3.0350 C   0  0  0  0  0
   -3.8680   20.8900   -2.7150 C   0  0  0  0  0
   -4.9110   20.2070   -2.1000 C   0  0  0  0  0
  -10.4270   15.5510    1.9240 C   0  0  0  0  0
  -11.9310   15.7580    1.7690 C   0  0  0  0  0
  -12.4500   15.1860    0.4620 C   0  0  0  0  0
   -9.9650   15.9060    3.2940 C   0  0  0  0  0
   -9.1460   17.0030    3.5170 C   0  0  0  0  0
   -8.6860   17.2700    4.8020 C   0  0  0  0  0
   -9.0210   16.4410    5.8710 C   0  0  0  0  0
   -9.8600   15.3460    5.6740 C   0  0  0  0  0
  -10.1480   14.4970    6.7170 N   0  0  0  0  0
  -10.2510   15.0550    4.3660 C   0  0  0  0  0
  -11.4570   14.7530    7.6290 S   0  0  0  0  0
  -11.4470   13.8010    8.7120 O   0  0  0  0  0
  -11.4130   16.1270    8.1070 O   0  0  0  0  0
  -12.7300   14.5650    6.6600 C   0  0  0  0  0
  -13.3940   15.6570    6.1900 N   0  0  0  0  0
  -14.3400   15.5150    5.2350 C   0  0  0  0  0
  -14.7430   14.2590    4.7710 C   0  0  0  0  0
  -14.1020   13.1370    5.2820 C   0  0  0  0  0
  -13.1300   13.2870    6.2640 C   0  0  0  0  0
  -15.7560   14.1600    3.6420 C   0  0  0  0  0
  -16.6670   15.1080    3.7300 F   0  0  0  0  0
  -16.3570   12.9800    3.6330 F   0  0  0  0  0
  -15.1600   14.2950    2.4670 F   0  0  0  0  0
  -10.2144   16.9899    1.2793 H   0  0  0  0  0
   -8.0670   18.5873    0.0937 H   0  0  0  0  0
   -9.3965   18.9051   -1.0851 H   0  0  0  0  0
   -9.7814   17.6309   -2.8858 H   0  0  0  0  0
   -9.9351   16.0408   -2.0580 H   0  0  0  0  0
   -8.9280   15.0282   -3.7656 H   0  0  0  0  0
   -7.5121   16.1036   -3.6000 H   0  0  0  0  0
  -10.0649   16.7377   -5.1197 H   0  0  0  0  0
   -8.6529   17.8101   -4.9545 H   0  0  0  0  0
   -8.5058   16.2753   -5.8453 H   0  0  0  0  0
   -7.3357   18.8280   -2.5463 H   0  0  0  0  0
   -6.6244   17.2248   -2.9291 H   0  0  0  0  0
   -5.5542   17.1545   -0.7348 H   0  0  0  0  0
   -6.3128   18.7023   -0.2883 H   0  0  0  0  0
   -3.4629   17.1507   -1.8282 H   0  0  0  0  0
   -1.6325   18.3477   -3.0008 H   0  0  0  0  0
   -1.8719   20.7636   -3.5212 H   0  0  0  0  0
   -3.9755   21.9494   -2.9478 H   0  0  0  0  0
   -5.8440   20.7251   -1.8785 H   0  0  0  0  0
  -10.2372   14.4841    1.8068 H   0  0  0  0  0
  -12.1309   16.8295    1.7762 H   0  0  0  0  0
  -12.4327   15.2450    2.5895 H   0  0  0  0  0
  -11.9496   15.6775   -0.3723 H   0  0  0  0  0
  -12.2472   14.1155    0.4294 H   0  0  0  0  0
  -13.5245   15.3558    0.3939 H   0  0  0  0  0
   -8.8641   17.6530    2.6887 H   0  0  0  0  0
   -8.0539   18.1408    4.9757 H   0  0  0  0  0
   -8.6253   16.6499    6.8649 H   0  0  0  0  0
   -9.5353   13.7058    6.9148 H   0  0  0  0  0
  -10.7983   14.1322    4.1736 H   0  0  0  0  0
  -14.8030   16.4072    4.8135 H   0  0  0  0  0
  -14.3603   12.1439    4.9144 H   0  0  0  0  0
  -12.6801   12.4076    6.7248 H   0  0  0  0  0
  1  2  1  0  0  0
  1  6  1  0  0  0
  2  3  1  0  0  0
  2  7  2  0  0  0
  3  4  1  0  0  0
  3 20  1  0  0  0
  4  5  1  0  0  0
  4  8  2  0  0  0
  5  6  1  0  0  0
  6  9  1  0  0  0
  6 12  1  0  0  0
  9 10  1  0  0  0
 10 11  1  0  0  0
 12 13  1  0  0  0
 13 14  1  0  0  0
 14 15  4  0  0  0
 14 19  4  0  0  0
 15 16  4  0  0  0
 16 17  4  0  0  0
 17 18  4  0  0  0
 18 19  4  0  0  0
 20 21  1  0  0  0
 20 23  1  0  0  0
 21 22  1  0  0  0
 23 24  4  0  0  0
 23 29  4  0  0  0
 24 25  4  0  0  0
 25 26  4  0  0  0
 26 27  4  0  0  0
 27 28  1  0  0  0
 27 29  4  0  0  0
 28 30  1  0  0  0
 30 31  2  0  0  0
 30 32  2  0  0  0
 30 33  1  0  0  0
 33 34  4  0  0  0
 33 38  4  0  0  0
 34 35  4  0  0  0
 35 36  4  0  0  0
 36 37  4  0  0  0
 36 39  1  0  0  0
 37 38  4  0  0  0
 39 40  1  0  0  0
 39 41  1  0  0  0
 39 42  1  0  0  0
  3 43  1  0  0  0
  5 44  1  0  0  0
  5 45  1  0  0  0
  9 46  1  0  0  0
  9 47  1  0  0  0
 10 48  1  0  0  0
 10 49  1  0  0  0
 11 50  1  0  0  0
 11 51  1  0  0  0
 11 52  1  0  0  0
 12 53  1  0  0  0
 12 54  1  0  0  0
 13 55  1  0  0  0
 13 56  1  0  0  0
 15 57  1  0  0  0
 16 58  1  0  0  0
 17 59  1  0  0  0
 18 60  1  0  0  0
 19 61  1  0  0  0
 20 62  1  0  0  0
 21 63  1  0  0  0
 21 64  1  0  0  0
 22 65  1  0  0  0
 22 66  1  0  0  0
 22 67  1  0  0  0
 24 68  1  0  0  0
 25 69  1  0  0  0
 26 70  1  0  0  0
 28 71  1  0  0  0
 29 72  1  0  0  0
 35 73  1  0  0  0
 37 74  1  0  0  0
 38 75  1  0  0  0
M  END
$$$$
