2jg0_ligand
  -I-interpret- 

 47 49  0  0  0  0  0  0  0  0999 V2000
   18.2810   51.2980   13.3990 O   0  0  0  0  0
   19.2280   51.0070   14.3830 C   0  0  0  0  0
   19.8100   49.6160   14.2360 C   0  0  0  0  0
   20.7330   49.5590   15.2990 O   0  0  0  0  0
   18.8280   48.4500   14.4000 C   0  0  0  0  0
   17.4540   48.8410   14.3800 O   0  0  0  0  0
   19.1000   47.4780   13.2400 C   0  0  0  0  0
   18.9300   46.0980   13.5740 O   0  0  0  0  0
   20.4990   47.8260   12.7000 C   0  0  0  0  0
   20.6080   47.6470   10.9290 S   0  0  0  0  0
   20.5830   49.3300   12.9420 C   0  0  0  0  0
   19.9540   49.9060   11.7260 N   0  0  0  0  0
   19.8170   49.1480   10.7310 C   0  0  0  0  0
   19.0360   49.5190    9.6890 N   0  0  0  0  0
   18.2200   50.7120    9.6220 C   0  0  0  0  0
   16.7190   50.3610    9.5390 C   0  0  0  0  0
   16.3560   49.4790   10.6000 O   0  0  0  0  0
   18.5970   51.5120    8.4720 O   0  0  0  0  0
   18.2480   51.0000    7.1790 C   0  0  0  0  0
   18.6170   52.0520    6.1390 C   0  0  0  0  0
   20.0460   52.1800    6.0660 O   0  0  0  0  0
   16.7520   50.7220    7.1120 C   0  0  0  0  0
   16.3740   50.2980    5.8060 O   0  0  0  0  0
   16.3440   49.7330    8.2020 C   0  0  0  0  0
   14.9610   49.5050    8.1330 O   0  0  0  0  0
   17.9431   52.1863   13.5344 H   0  0  0  0  0
   18.7333   51.0635   15.3526 H   0  0  0  0  0
   20.0432   51.7242   14.2873 H   0  0  0  0  0
   20.2782   49.7344   16.1260 H   0  0  0  0  0
   18.9895   48.0001   15.3796 H   0  0  0  0  0
   17.2846   49.4478   15.1043 H   0  0  0  0  0
   18.3498   47.6088   12.4602 H   0  0  0  0  0
   18.0388   45.9567   13.9018 H   0  0  0  0  0
   21.2576   47.1949   13.1629 H   0  0  0  0  0
   21.5805   49.7479   13.0779 H   0  0  0  0  0
   19.0216   48.9013    8.8774 H   0  0  0  0  0
   18.3894   51.2829   10.5349 H   0  0  0  0  0
   16.1688   51.2973    9.6321 H   0  0  0  0  0
   15.4213   49.2700   10.5353 H   0  0  0  0  0
   18.7828   50.0692    6.9899 H   0  0  0  0  0
   18.1824   53.0101    6.4242 H   0  0  0  0  0
   18.2311   51.7489    5.1657 H   0  0  0  0  0
   20.2737   52.8431    5.4102 H   0  0  0  0  0
   16.2072   51.6461    7.3051 H   0  0  0  0  0
   15.4292   50.1287    5.7867 H   0  0  0  0  0
   16.8485   48.7746    8.0797 H   0  0  0  0  0
   14.7449   49.1099    7.2852 H   0  0  0  0  0
  1  2  1  0  0  0
  2  3  1  0  0  0
  3  4  1  0  0  0
  3  5  1  0  0  0
  3 11  1  0  0  0
  5  6  1  0  0  0
  5  7  1  0  0  0
  7  8  1  0  0  0
  7  9  1  0  0  0
  9 10  1  0  0  0
  9 11  1  0  0  0
 10 13  1  0  0  0
 11 12  1  0  0  0
 12 13  2  0  0  0
 13 14  1  0  0  0
 14 15  1  0  0  0
 15 16  1  0  0  0
 15 18  1  0  0  0
 16 17  1  0  0  0
 16 24  1  0  0  0
 18 19  1  0  0  0
 19 20  1  0  0  0
 19 22  1  0  0  0
 20 21  1  0  0  0
 22 23  1  0  0  0
 22 24  1  0  0  0
 24 25  1  0  0  0
  1 26  1  0  0  0
  2 27  1  0  0  0
  2 28  1  0  0  0
  4 29  1  0  0  0
  5 30  1  0  0  0
  6 31  1  0  0  0
  7 32  1  0  0  0
  8 33  1  0  0  0
  9 34  1  0  0  0
 11 35  1  0  0  0
 14 36  1  0  0  0
 15 37  1  0  0  0
 16 38  1  0  0  0
 17 39  1  0  0  0
 19 40  1  0  0  0
 20 41  1  0  0  0
 20 42  1  0  0  0
 21 43  1  0  0  0
 22 44  1  0  0  0
 23 45  1  0  0  0
 24 46  1  0  0  0
 25 47  1  0  0  0
M  END
$$$$
