3wk6_ligand
  -I-interpret- 

 31 32  0  0  0  0  0  0  0  0999 V2000
  -17.7760  -13.6400   68.9160 C   0  0  0  0  0
  -18.9120  -12.8660   69.0940 C   0  0  0  0  0
  -16.7370  -13.0990   68.2200 C   0  0  0  0  0
  -19.0390  -11.5810   68.6150 C   0  0  0  0  0
  -16.8720  -11.8050   67.7360 C   0  0  0  0  0
  -18.0040  -11.0390   67.9150 C   0  0  0  0  0
  -17.8300   -7.9850   64.1450 C   0  0  0  0  0
  -17.4190   -7.9760   61.9090 C   0  0  0  0  0
  -17.4240   -6.5120   62.1620 C   0  0  0  0  0
  -17.9720   -5.8550   60.9440 C   0  0  0  0  0
  -18.1150   -9.6390   67.3890 C   0  0  0  0  0
  -18.2530   -9.5980   65.8860 C   0  0  0  0  0
  -17.2340   -8.6550   63.2300 N   0  0  0  0  0
  -17.8990   -8.2650   65.4760 N   0  0  0  0  0
  -18.6120   -6.5550   63.5300 S   0  0  0  0  0
  -17.7157  -14.6504   69.3204 H   0  0  0  0  0
  -19.7495  -13.2973   69.6423 H   0  0  0  0  0
  -15.8232  -13.6677   68.0477 H   0  0  0  0  0
  -19.9498  -11.0091   68.7926 H   0  0  0  0  0
  -16.0378  -11.3712   67.1846 H   0  0  0  0  0
  -16.6140   -8.2437   61.2246 H   0  0  0  0  0
  -18.3551   -8.2879   61.4458 H   0  0  0  0  0
  -16.4901   -5.9923   62.3760 H   0  0  0  0  0
  -18.8530   -6.3995   60.6043 H   0  0  0  0  0
  -18.2471   -4.8270   61.1799 H   0  0  0  0  0
  -17.2157   -5.8591   60.1591 H   0  0  0  0  0
  -17.2043   -9.1042   67.6587 H   0  0  0  0  0
  -19.0068   -9.1858   67.8220 H   0  0  0  0  0
  -19.2712   -9.8409   65.5821 H   0  0  0  0  0
  -17.6026  -10.3353   65.4154 H   0  0  0  0  0
  -17.7033   -7.5430   66.1695 H   0  0  0  0  0
  2  1  4  0  0  0
  3  1  4  0  0  0
  4  2  4  0  0  0
  5  3  4  0  0  0
  6  4  4  0  0  0
  6  5  4  0  0  0
 11  6  1  0  0  0
  7 13  2  0  0  0
 14  7  1  0  0  0
  7 15  1  0  0  0
  9  8  1  0  0  0
 13  8  1  0  0  0
  9 10  1  0  0  0
 15  9  1  0  0  0
 12 11  1  0  0  0
 12 14  1  0  0  0
  1 16  1  0  0  0
  2 17  1  0  0  0
  3 18  1  0  0  0
  4 19  1  0  0  0
  5 20  1  0  0  0
  8 21  1  0  0  0
  8 22  1  0  0  0
  9 23  1  0  0  0
 10 24  1  0  0  0
 10 25  1  0  0  0
 10 26  1  0  0  0
 11 27  1  0  0  0
 11 28  1  0  0  0
 12 29  1  0  0  0
 12 30  1  0  0  0
 14 31  1  0  0  0
M  END
$$$$
