### 
### Created by X-TOOL on Mon Sep 10 21:12:49 2018
### 

@<TRIPOS>MOLECULE
1mwn_ligand
  217   218     1     0     0
SMALL
GAST_HUCK


@<TRIPOS>ATOM
      1 N          49.8260  -12.2780   23.1830 N.4       1 THR         0.2398
      2 CA         50.7320  -12.9360   22.1980 C.3       1 THR         0.0910
      3 C          51.5730  -11.8770   21.4730 C.2       1 THR         0.2293
      4 O          51.2830  -11.5110   20.3500 O.2       1 THR        -0.3906
      5 CB         49.8970  -13.7000   21.1680 C.3       1 THR         0.1120
      6 OG1        48.9580  -14.5300   21.8390 O.3       1 THR        -0.3840
      7 CG2        50.8160  -14.5630   20.3010 C.3       1 THR        -0.0314
      8 H1         50.3760  -11.7748   23.8614 H         1 THR         0.2016
      9 H2         49.2734  -12.9788   23.6516 H         1 THR         0.2016
     10 H3         49.2162  -11.6356   22.7018 H         1 THR         0.2016
     11 H4         51.3976  -13.6356   22.7247 H         1 THR         0.1125
     12 H5         49.3600  -12.9833   20.5293 H         1 THR         0.0674
     13 H6         48.4407  -15.0034   21.1981 H         1 THR         0.2102
     14 H7         50.2139  -15.1112   19.5614 H         1 THR         0.0258
     15 H8         51.3551  -15.2793   20.9383 H         1 THR         0.0258
     16 H9         51.5396  -13.9190   19.7798 H         1 THR         0.0258
     17 N          52.6170  -11.3920   22.1000 N.am      1 ARG        -0.2609
     18 CA         53.4940  -10.3630   21.4470 C.3       1 ARG         0.1312
     19 C          54.9580  -10.7110   21.7190 C.2       1 ARG         0.2040
     20 O          55.3490  -10.9680   22.8420 O.2       1 ARG        -0.3944
     21 CB         53.1800   -8.9750   22.0210 C.3       1 ARG        -0.0092
     22 CG         54.0720   -7.9050   21.3630 C.3       1 ARG        -0.0156
     23 CD         53.7960   -7.8210   19.8550 C.3       1 ARG         0.0627
     24 NE         54.1840   -6.4690   19.3630 N.pl3     1 ARG        -0.2723
     25 CZ         54.3510   -6.2560   18.0850 C.cat     1 ARG         0.2882
     26 NH1        54.2120   -7.2310   17.2300 N.pl3     1 ARG        -0.2849
     27 NH2        54.6660   -5.0620   17.6650 N.pl3     1 ARG        -0.2849
     28 H10        52.8317  -11.7108   23.0232 H         1 ARG         0.1884
     29 H11        53.3118  -10.3597   20.3622 H         1 ARG         0.0800
     30 H12        53.3631   -8.9818   23.1056 H         1 ARG         0.0313
     31 H13        52.1241   -8.7341   21.8288 H         1 ARG         0.0313
     32 H14        55.1282   -8.1674   21.5227 H         1 ARG         0.0301
     33 H15        53.8632   -6.9280   21.8232 H         1 ARG         0.0301
     34 H16        52.7253   -7.9882   19.6666 H         1 ARG         0.0689
     35 H17        54.3849   -8.5872   19.3295 H         1 ARG         0.0689
     36 H18        54.3211   -5.6992   20.0334 H         1 ARG         0.2642
     37 H19        54.3450   -7.0564   16.2237 H         1 ARG         0.2615
     38 H20        53.9692   -8.1756   17.5611 H         1 ARG         0.2615
     39 H21        54.7760   -4.2912   18.3393 H         1 ARG         0.2615
     40 H22        54.8047   -4.8899   16.6590 H         1 ARG         0.2615
     41 N          55.7680  -10.7180   20.6950 N.am      1 THR        -0.2613
     42 CA         57.2170  -11.0480   20.8670 C.3       1 THR         0.1565
     43 C          58.0570  -10.1190   19.9910 C.2       1 THR         0.2065
     44 O          57.5630   -9.5120   19.0590 O.2       1 THR        -0.3943
     45 CB         57.4660  -12.4970   20.4490 C.3       1 THR         0.0924
     46 OG1        56.9900  -12.6900   19.1280 O.3       1 THR        -0.3874
     47 CG2        56.7410  -13.4430   21.4060 C.3       1 THR        -0.0346
     48 H23        55.4156  -10.5002   19.7849 H         1 THR         0.1884
     49 H24        57.5008  -10.9159   21.9215 H         1 THR         0.0826
     50 H25        58.5455  -12.7058   20.4816 H         1 THR         0.0639
     51 H26        57.1436  -13.5900   18.8656 H         1 THR         0.2101
     52 H27        56.9234  -14.4839   21.1008 H         1 THR         0.0257
     53 H28        55.6609  -13.2365   21.3776 H         1 THR         0.0257
     54 H29        57.1169  -13.2894   22.4283 H         1 THR         0.0257
     55 N          59.3250  -10.0030   20.2920 N.am      1 LYS        -0.2637
     56 CA         60.2330   -9.1120   19.5010 C.3       1 LYS         0.1310
     57 C          61.2650   -9.9650   18.7610 C.2       1 LYS         0.2039
     58 O          61.7660  -10.9410   19.2820 O.2       1 LYS        -0.3944
     59 CB         60.9470   -8.1490   20.4590 C.3       1 LYS        -0.0122
     60 CG         61.8890   -7.2300   19.6710 C.3       1 LYS        -0.0440
     61 CD         62.5040   -6.1700   20.6120 C.3       1 LYS        -0.0124
     62 CE         61.5840   -4.9440   20.7130 C.3       1 LYS        -0.0354
     63 NZ         61.8810   -4.2000   21.9780 N.4       1 LYS         0.2185
     64 H30        59.6950  -10.5189   21.0647 H         1 LYS         0.1883
     65 H31        59.6430   -8.5364   18.7726 H         1 LYS         0.0800
     66 H32        61.5300   -8.7279   21.1904 H         1 LYS         0.0312
     67 H33        60.1993   -7.5386   20.9866 H         1 LYS         0.0312
     68 H34        61.3229   -6.7251   18.8744 H         1 LYS         0.0269
     69 H35        62.6945   -7.8311   19.2240 H         1 LYS         0.0269
     70 H36        63.4816   -5.8576   20.2161 H         1 LYS         0.0317
     71 H37        62.6363   -6.6070   21.6127 H         1 LYS         0.0317
     72 H38        60.5343   -5.2727   20.7188 H         1 LYS         0.0813
     73 H39        61.7567   -4.2839   19.8502 H         1 LYS         0.0813
     74 H40        61.2773   -3.3955   22.0443 H         1 LYS         0.1994
     75 H41        62.8429   -3.8987   21.9727 H         1 LYS         0.1994
     76 H42        61.7227   -4.8049   22.7687 H         1 LYS         0.1994
     77 N          61.5810   -9.6050   17.5450 N.am      1 ILE        -0.2635
     78 CA         62.5810  -10.3890   16.7640 C.3       1 ILE         0.1335
     79 C          63.9250  -10.3550   17.5070 C.2       1 ILE         0.2042
     80 O          63.9800  -10.5430   18.7060 O.2       1 ILE        -0.3944
     81 CB         62.7440   -9.7430   15.3830 C.3       1 ILE        -0.0037
     82 CG1        63.0300   -8.2210   15.5580 C.3       1 ILE        -0.0491
     83 CG2        61.4560   -9.9560   14.5770 C.3       1 ILE        -0.0582
     84 CD1        64.2810   -7.8250   14.7730 C.3       1 ILE        -0.0648
     85 H43        61.1504   -8.8003   17.1364 H         1 ILE         0.1883
     86 H44        62.2409  -11.4292   16.6529 H         1 ILE         0.0803
     87 H45        63.5864  -10.2124   14.8539 H         1 ILE         0.0345
     88 H46        63.1855   -8.0008   16.6244 H         1 ILE         0.0267
     89 H47        62.1701   -7.6446   15.1861 H         1 ILE         0.0267
     90 H48        61.2690  -11.0340   14.4628 H         1 ILE         0.0235
     91 H49        61.5645   -9.4955   13.5840 H         1 ILE         0.0235
     92 H50        60.6111   -9.4914   15.1064 H         1 ILE         0.0235
     93 H51        64.4715   -6.7497   14.9048 H         1 ILE         0.0230
     94 H52        64.1281   -8.0421   13.7055 H         1 ILE         0.0230
     95 H53        65.1434   -8.3983   15.1439 H         1 ILE         0.0230
     96 N          65.0150  -10.1140   16.8140 N.am      1 ASP        -0.2622
     97 CA         66.3410  -10.0670   17.5030 C.3       1 ASP         0.1423
     98 C          67.2380   -8.9750   16.9020 C.2       1 ASP         0.2057
     99 O          67.5740   -8.9980   15.7320 O.2       1 ASP        -0.3943
    100 CB         67.0300  -11.4230   17.3640 C.3       1 ASP         0.0406
    101 CG         68.3090  -11.4270   18.2030 C.2       1 ASP         0.0393
    102 OD1        68.7220  -10.3580   18.6210 O.co2     1 ASP        -0.5688
    103 OD2        68.8560  -12.4980   18.4110 O.co2     1 ASP        -0.5688
    104 H54        64.9577   -9.9623   15.8272 H         1 ASP         0.1884
    105 H55        66.1810   -9.8493   18.5693 H         1 ASP         0.0819
    106 H56        67.2823  -11.6007   16.3082 H         1 ASP         0.0478
    107 H57        66.3554  -12.2163   17.7184 H         1 ASP         0.0478
    108 N          67.6490   -8.0310   17.7130 N.am      1 TRP        -0.2626
    109 CA         68.5520   -6.9460   17.2250 C.3       1 TRP         0.1352
    110 C          69.8960   -7.5880   16.8440 C.2       1 TRP         0.2053
    111 O          70.5090   -7.2410   15.8610 O.2       1 TRP        -0.3942
    112 CB         68.7690   -5.9190   18.3710 C.3       1 TRP         0.0042
    113 CG         68.4570   -4.5010   17.9540 C.2       1 TRP        -0.0418
    114 CD1        67.7610   -3.6270   18.7140 C.2       1 TRP         0.0167
    115 CD2        68.8130   -3.7730   16.7340 C.ar      1 TRP        -0.0214
    116 NE1        67.6730   -2.4180   18.0520 N.pl3     1 TRP        -0.2890
    117 CE2        68.3010   -2.4600   16.8280 C.ar      1 TRP         0.0603
    118 CE3        69.5160   -4.1100   15.5690 C.ar      1 TRP        -0.0747
    119 CZ2        68.4840   -1.5310   15.8050 C.ar      1 TRP        -0.0443
    120 CZ3        69.6970   -3.1780   14.5430 C.ar      1 TRP        -0.0792
    121 CH2        69.1800   -1.8940   14.6640 C.ar      1 TRP        -0.0768
    122 H58        67.3549   -8.0373   18.6687 H         1 TRP         0.1884
    123 H59        68.1098   -6.4452   16.3511 H         1 TRP         0.0815
    124 H60        69.8200   -5.9676   18.6920 H         1 TRP         0.0397
    125 H61        68.1154   -6.1893   19.2135 H         1 TRP         0.0397
    126 H62        67.3366   -3.8419   19.6936 H         1 TRP         0.0795
    127 H63        67.1957   -1.5865   18.4284 H         1 TRP         0.2216
    128 H64        69.9253   -5.1081   15.4622 H         1 TRP         0.0540
    129 H65        68.0832   -0.5285   15.9021 H         1 TRP         0.0541
    130 H66        70.2429   -3.4581   13.6494 H         1 TRP         0.0510
    131 H67        69.3216   -1.1757   13.8646 H         1 TRP         0.0530
    132 N          70.3560   -8.5290   17.6290 N.am      1 ASN        -0.2615
    133 CA         71.6650   -9.1700   17.3280 C.3       1 ASN         0.1476
    134 C          71.6360   -9.8470   15.9590 C.2       1 ASN         0.2063
    135 O          72.5840   -9.7660   15.2050 O.2       1 ASN        -0.3942
    136 CB         71.9660  -10.2170   18.4010 C.3       1 ASN         0.0773
    137 CG         73.2670  -10.9360   18.0490 C.2       1 ASN         0.1780
    138 OD1        74.2570  -10.8070   18.7430 O.2       1 ASN        -0.3970
    139 ND2        73.3010  -11.6930   16.9840 N.am      1 ASN        -0.3007
    140 H68        69.8292   -8.8165   18.4289 H         1 ASN         0.1885
    141 H69        72.4527   -8.4022   17.3336 H         1 ASN         0.0826
    142 H70        71.1432  -10.9457   18.4453 H         1 ASN         0.0551
    143 H71        72.0713   -9.7229   19.3781 H         1 ASN         0.0551
    144 H72        74.1437  -12.1717   16.7375 H         1 ASN         0.1814
    145 H73        72.4843  -11.7935   16.4157 H         1 ASN         0.1814
    146 N          70.5720  -10.5100   15.6230 N.am      1 LYS        -0.2636
    147 CA         70.5180  -11.1720   14.2920 C.3       1 LYS         0.1310
    148 C          70.6670  -10.1060   13.2060 C.2       1 LYS         0.2039
    149 O          71.3260  -10.3050   12.2050 O.2       1 LYS        -0.3944
    150 CB         69.1800  -11.8940   14.1310 C.3       1 LYS        -0.0122
    151 CG         69.1900  -12.7270   12.8470 C.3       1 LYS        -0.0440
    152 CD         67.8680  -13.4890   12.7350 C.3       1 LYS        -0.0124
    153 CE         67.8750  -14.3580   11.4810 C.3       1 LYS        -0.0354
    154 NZ         66.5470  -15.0170   11.3340 N.4       1 LYS         0.2185
    155 H74        69.7972  -10.5751   16.2519 H         1 LYS         0.1883
    156 H75        71.3382  -11.9002   14.2084 H         1 LYS         0.0800
    157 H76        68.3692  -11.1525   14.0786 H         1 LYS         0.0312
    158 H77        69.0163  -12.5560   14.9941 H         1 LYS         0.0312
    159 H78        70.0257  -13.4416   12.8779 H         1 LYS         0.0269
    160 H79        69.3073  -12.0630   11.9779 H         1 LYS         0.0269
    161 H80        67.0368  -12.7709   12.6766 H         1 LYS         0.0317
    162 H81        67.7390  -14.1280   13.6210 H         1 LYS         0.0317
    163 H82        68.6585  -15.1250   11.5693 H         1 LYS         0.0813
    164 H83        68.0738  -13.7305   10.5997 H         1 LYS         0.0813
    165 H84        66.5472  -15.5924   10.5064 H         1 LYS         0.1994
    166 H85        65.8297  -14.3133   11.2538 H         1 LYS         0.1994
    167 H86        66.3655  -15.5912   12.1423 H         1 LYS         0.1994
    168 N          70.0470   -8.9740   13.3990 N.am      1 ILE        -0.2635
    169 CA         70.1320   -7.8910   12.3790 C.3       1 ILE         0.1335
    170 C          71.5430   -7.2860   12.3410 C.2       1 ILE         0.2042
    171 O          72.0680   -6.9900   11.2850 O.2       1 ILE        -0.3944
    172 CB         69.1280   -6.7990   12.7350 C.3       1 ILE        -0.0037
    173 CG1        67.7110   -7.3690   12.6620 C.3       1 ILE        -0.0491
    174 CG2        69.2660   -5.6360   11.7550 C.3       1 ILE        -0.0582
    175 CD1        66.7200   -6.3610   13.2540 C.3       1 ILE        -0.0648
    176 H87        69.5137   -8.8331   14.2331 H         1 ILE         0.1883
    177 H88        69.8899   -8.3055   11.3893 H         1 ILE         0.0803
    178 H89        69.3251   -6.4402   13.7560 H         1 ILE         0.0345
    179 H90        67.6640   -8.3075   13.2339 H         1 ILE         0.0267
    180 H91        67.4493   -7.5660   11.6119 H         1 ILE         0.0267
    181 H92        70.2864   -5.2289   11.8105 H         1 ILE         0.0235
    182 H93        68.5427   -4.8492   12.0154 H         1 ILE         0.0235
    183 H94        69.0685   -5.9921   10.7332 H         1 ILE         0.0235
    184 H95        65.7016   -6.7733   13.2003 H         1 ILE         0.0230
    185 H96        66.7661   -5.4224   12.6823 H         1 ILE         0.0230
    186 H97        66.9808   -6.1639   14.3043 H         1 ILE         0.0230
    187 N          72.1610   -7.0900   13.4750 N.am      1 LEU        -0.2637
    188 CA         73.5310   -6.4940   13.4750 C.3       1 LEU         0.1312
    189 C          74.4780   -7.3960   12.6860 C.2       1 LEU         0.2034
    190 O          75.3300   -6.9350   11.9540 O.2       1 LEU        -0.3944
    191 CB         74.0510   -6.3660   14.9070 C.3       1 LEU        -0.0101
    192 CG         73.2120   -5.3560   15.6950 C.3       1 LEU        -0.0425
    193 CD1        73.6670   -5.3720   17.1570 C.3       1 LEU        -0.0625
    194 CD2        73.3720   -3.9420   15.1060 C.3       1 LEU        -0.0625
    195 H98        71.7199   -7.3373   14.3377 H         1 LEU         0.1883
    196 H99        73.4949   -5.4986   13.0082 H         1 LEU         0.0800
    197 H100       75.0971   -6.0269   14.8831 H         1 LEU         0.0315
    198 H101       73.9947   -7.3470   15.4014 H         1 LEU         0.0315
    199 H102       72.1524   -5.6466   15.6413 H         1 LEU         0.0298
    200 H103       73.0712   -4.6497   17.7343 H         1 LEU         0.0232
    201 H104       74.7307   -5.0976   17.2130 H         1 LEU         0.0232
    202 H105       73.5259   -6.3801   17.5740 H         1 LEU         0.0232
    203 H106       73.0424   -3.9425   14.0565 H         1 LEU         0.0232
    204 H107       74.4285   -3.6403   15.1584 H         1 LEU         0.0232
    205 H108       72.7593   -3.2332   15.6823 H         1 LEU         0.0232
    206 N          74.3390   -8.6820   12.8420 N.am      1 SER        -0.2672
    207 CA         75.2310   -9.6280   12.1090 C.3       1 SER         0.1173
    208 C          74.6120  -11.0280   12.1330 C.2       1 SER         0.0623
    209 O          74.1670  -11.4780   11.0900 O.co2     1 SER        -0.5665
    210 CB         76.6060   -9.6710   12.7830 C.3       1 SER         0.0789
    211 OG         76.4410   -9.8980   14.1760 O.3       1 SER        -0.3910
    212 OXT        74.5950  -11.6270   13.1950 O.co2     1 SER        -0.5665
    213 H109       73.6326   -9.0363   13.4547 H         1 SER         0.1876
    214 H110       75.3438   -9.2930   11.0674 H         1 SER         0.0749
    215 H111       77.1221   -8.7124   12.6259 H         1 SER         0.0599
    216 H112       77.2035  -10.4850   12.3467 H         1 SER         0.0599
    217 H113       75.9950  -10.7260   14.3101 H         1 SER         0.2096
@<TRIPOS>BOND
     1    1    2 1  
     2    1    8 1  
     3    1    9 1  
     4    1   10 1  
     5    2    3 1  
     6    2    5 1  
     7    2   11 1  
     8    3    4 2  
     9    3   17 am 
    10    5    6 1  
    11    5    7 1  
    12    5   12 1  
    13    6   13 1  
    14    7   14 1  
    15    7   15 1  
    16    7   16 1  
    17   17   18 1  
    18   17   28 1  
    19   18   19 1  
    20   18   21 1  
    21   18   29 1  
    22   19   20 2  
    23   19   41 am 
    24   21   22 1  
    25   21   30 1  
    26   21   31 1  
    27   22   23 1  
    28   22   32 1  
    29   22   33 1  
    30   23   24 1  
    31   23   34 1  
    32   23   35 1  
    33   24   25 ar 
    34   24   36 1  
    35   25   26 ar 
    36   25   27 ar 
    37   26   37 1  
    38   26   38 1  
    39   27   39 1  
    40   27   40 1  
    41   41   42 1  
    42   41   48 1  
    43   42   43 1  
    44   42   45 1  
    45   42   49 1  
    46   43   44 2  
    47   43   55 am 
    48   45   46 1  
    49   45   47 1  
    50   45   50 1  
    51   46   51 1  
    52   47   52 1  
    53   47   53 1  
    54   47   54 1  
    55   55   56 1  
    56   55   64 1  
    57   56   57 1  
    58   56   59 1  
    59   56   65 1  
    60   57   58 2  
    61   57   77 am 
    62   59   60 1  
    63   59   66 1  
    64   59   67 1  
    65   60   61 1  
    66   60   68 1  
    67   60   69 1  
    68   61   62 1  
    69   61   70 1  
    70   61   71 1  
    71   62   63 1  
    72   62   72 1  
    73   62   73 1  
    74   63   74 1  
    75   63   75 1  
    76   63   76 1  
    77   77   78 1  
    78   77   85 1  
    79   78   79 1  
    80   78   81 1  
    81   78   86 1  
    82   79   80 2  
    83   79   96 am 
    84   81   82 1  
    85   81   83 1  
    86   81   87 1  
    87   82   84 1  
    88   82   88 1  
    89   82   89 1  
    90   83   90 1  
    91   83   91 1  
    92   83   92 1  
    93   84   93 1  
    94   84   94 1  
    95   84   95 1  
    96   96   97 1  
    97   96  104 1  
    98   97   98 1  
    99   97  100 1  
   100   97  105 1  
   101   98   99 2  
   102   98  108 am 
   103  100  101 1  
   104  100  106 1  
   105  100  107 1  
   106  101  102 ar 
   107  101  103 ar 
   108  108  109 1  
   109  108  122 1  
   110  109  110 1  
   111  109  112 1  
   112  109  123 1  
   113  110  111 2  
   114  110  132 am 
   115  112  113 1  
   116  112  124 1  
   117  112  125 1  
   118  113  114 2  
   119  113  115 1  
   120  114  116 1  
   121  114  126 1  
   122  115  117 ar 
   123  115  118 ar 
   124  116  117 1  
   125  116  127 1  
   126  117  119 ar 
   127  118  120 ar 
   128  118  128 1  
   129  119  121 ar 
   130  119  129 1  
   131  120  121 ar 
   132  120  130 1  
   133  121  131 1  
   134  132  133 1  
   135  132  140 1  
   136  133  134 1  
   137  133  136 1  
   138  133  141 1  
   139  134  135 2  
   140  134  146 am 
   141  136  137 1  
   142  136  142 1  
   143  136  143 1  
   144  137  138 2  
   145  137  139 am 
   146  139  144 1  
   147  139  145 1  
   148  146  147 1  
   149  146  155 1  
   150  147  148 1  
   151  147  150 1  
   152  147  156 1  
   153  148  149 2  
   154  148  168 am 
   155  150  151 1  
   156  150  157 1  
   157  150  158 1  
   158  151  152 1  
   159  151  159 1  
   160  151  160 1  
   161  152  153 1  
   162  152  161 1  
   163  152  162 1  
   164  153  154 1  
   165  153  163 1  
   166  153  164 1  
   167  154  165 1  
   168  154  166 1  
   169  154  167 1  
   170  168  169 1  
   171  168  176 1  
   172  169  170 1  
   173  169  172 1  
   174  169  177 1  
   175  170  171 2  
   176  170  187 am 
   177  172  173 1  
   178  172  174 1  
   179  172  178 1  
   180  173  175 1  
   181  173  179 1  
   182  173  180 1  
   183  174  181 1  
   184  174  182 1  
   185  174  183 1  
   186  175  184 1  
   187  175  185 1  
   188  175  186 1  
   189  187  188 1  
   190  187  195 1  
   191  188  189 1  
   192  188  191 1  
   193  188  196 1  
   194  189  190 2  
   195  189  206 am 
   196  191  192 1  
   197  191  197 1  
   198  191  198 1  
   199  192  193 1  
   200  192  194 1  
   201  192  199 1  
   202  193  200 1  
   203  193  201 1  
   204  193  202 1  
   205  194  203 1  
   206  194  204 1  
   207  194  205 1  
   208  206  207 1  
   209  206  213 1  
   210  207  208 1  
   211  207  210 1  
   212  207  214 1  
   213  208  209 ar 
   214  208  212 ar 
   215  210  211 1  
   216  210  215 1  
   217  210  216 1  
   218  211  217 1  
@<TRIPOS>SUBSTRUCTURE
     1 THR         1

