1mwn_ligand
  -I-interpret- 

217218  0  0  0  0  0  0  0  0999 V2000
   49.8260  -12.2780   23.1830 N   0  3  0  0  0
   50.7320  -12.9360   22.1980 C   0  0  0  0  0
   51.5730  -11.8770   21.4730 C   0  0  0  0  0
   51.2830  -11.5110   20.3500 O   0  0  0  0  0
   49.8970  -13.7000   21.1680 C   0  0  0  0  0
   48.9580  -14.5300   21.8390 O   0  0  0  0  0
   50.8160  -14.5630   20.3010 C   0  0  0  0  0
   52.6170  -11.3920   22.1000 N   0  0  0  0  0
   53.4940  -10.3630   21.4470 C   0  0  0  0  0
   54.9580  -10.7110   21.7190 C   0  0  0  0  0
   55.3490  -10.9680   22.8420 O   0  0  0  0  0
   53.1800   -8.9750   22.0210 C   0  0  0  0  0
   54.0720   -7.9050   21.3630 C   0  0  0  0  0
   53.7960   -7.8210   19.8550 C   0  0  0  0  0
   54.1840   -6.4690   19.3630 N   0  0  0  0  0
   54.3510   -6.2560   18.0850 C   0  0  0  0  0
   54.2120   -7.2310   17.2300 N   0  0  0  0  0
   54.6660   -5.0620   17.6650 N   0  0  0  0  0
   55.7680  -10.7180   20.6950 N   0  0  0  0  0
   57.2170  -11.0480   20.8670 C   0  0  0  0  0
   58.0570  -10.1190   19.9910 C   0  0  0  0  0
   57.5630   -9.5120   19.0590 O   0  0  0  0  0
   57.4660  -12.4970   20.4490 C   0  0  0  0  0
   56.9900  -12.6900   19.1280 O   0  0  0  0  0
   56.7410  -13.4430   21.4060 C   0  0  0  0  0
   59.3250  -10.0030   20.2920 N   0  0  0  0  0
   60.2330   -9.1120   19.5010 C   0  0  0  0  0
   61.2650   -9.9650   18.7610 C   0  0  0  0  0
   61.7660  -10.9410   19.2820 O   0  0  0  0  0
   60.9470   -8.1490   20.4590 C   0  0  0  0  0
   61.8890   -7.2300   19.6710 C   0  0  0  0  0
   62.5040   -6.1700   20.6120 C   0  0  0  0  0
   61.5840   -4.9440   20.7130 C   0  0  0  0  0
   61.8810   -4.2000   21.9780 N   0  3  0  0  0
   61.5810   -9.6050   17.5450 N   0  0  0  0  0
   62.5810  -10.3890   16.7640 C   0  0  0  0  0
   63.9250  -10.3550   17.5070 C   0  0  0  0  0
   63.9800  -10.5430   18.7060 O   0  0  0  0  0
   62.7440   -9.7430   15.3830 C   0  0  0  0  0
   63.0300   -8.2210   15.5580 C   0  0  0  0  0
   61.4560   -9.9560   14.5770 C   0  0  0  0  0
   64.2810   -7.8250   14.7730 C   0  0  0  0  0
   65.0150  -10.1140   16.8140 N   0  0  0  0  0
   66.3410  -10.0670   17.5030 C   0  0  0  0  0
   67.2380   -8.9750   16.9020 C   0  0  0  0  0
   67.5740   -8.9980   15.7320 O   0  0  0  0  0
   67.0300  -11.4230   17.3640 C   0  0  0  0  0
   68.3090  -11.4270   18.2030 C   0  0  0  0  0
   68.7220  -10.3580   18.6210 O   0  0  0  0  0
   68.8560  -12.4980   18.4110 O   0  0  0  0  0
   67.6490   -8.0310   17.7130 N   0  0  0  0  0
   68.5520   -6.9460   17.2250 C   0  0  0  0  0
   69.8960   -7.5880   16.8440 C   0  0  0  0  0
   70.5090   -7.2410   15.8610 O   0  0  0  0  0
   68.7690   -5.9190   18.3710 C   0  0  0  0  0
   68.4570   -4.5010   17.9540 C   0  0  0  0  0
   67.7610   -3.6270   18.7140 C   0  0  0  0  0
   68.8130   -3.7730   16.7340 C   0  0  0  0  0
   67.6730   -2.4180   18.0520 N   0  0  0  0  0
   68.3010   -2.4600   16.8280 C   0  0  0  0  0
   69.5160   -4.1100   15.5690 C   0  0  0  0  0
   68.4840   -1.5310   15.8050 C   0  0  0  0  0
   69.6970   -3.1780   14.5430 C   0  0  0  0  0
   69.1800   -1.8940   14.6640 C   0  0  0  0  0
   70.3560   -8.5290   17.6290 N   0  0  0  0  0
   71.6650   -9.1700   17.3280 C   0  0  0  0  0
   71.6360   -9.8470   15.9590 C   0  0  0  0  0
   72.5840   -9.7660   15.2050 O   0  0  0  0  0
   71.9660  -10.2170   18.4010 C   0  0  0  0  0
   73.2670  -10.9360   18.0490 C   0  0  0  0  0
   74.2570  -10.8070   18.7430 O   0  0  0  0  0
   73.3010  -11.6930   16.9840 N   0  0  0  0  0
   70.5720  -10.5100   15.6230 N   0  0  0  0  0
   70.5180  -11.1720   14.2920 C   0  0  0  0  0
   70.6670  -10.1060   13.2060 C   0  0  0  0  0
   71.3260  -10.3050   12.2050 O   0  0  0  0  0
   69.1800  -11.8940   14.1310 C   0  0  0  0  0
   69.1900  -12.7270   12.8470 C   0  0  0  0  0
   67.8680  -13.4890   12.7350 C   0  0  0  0  0
   67.8750  -14.3580   11.4810 C   0  0  0  0  0
   66.5470  -15.0170   11.3340 N   0  3  0  0  0
   70.0470   -8.9740   13.3990 N   0  0  0  0  0
   70.1320   -7.8910   12.3790 C   0  0  0  0  0
   71.5430   -7.2860   12.3410 C   0  0  0  0  0
   72.0680   -6.9900   11.2850 O   0  0  0  0  0
   69.1280   -6.7990   12.7350 C   0  0  0  0  0
   67.7110   -7.3690   12.6620 C   0  0  0  0  0
   69.2660   -5.6360   11.7550 C   0  0  0  0  0
   66.7200   -6.3610   13.2540 C   0  0  0  0  0
   72.1610   -7.0900   13.4750 N   0  0  0  0  0
   73.5310   -6.4940   13.4750 C   0  0  0  0  0
   74.4780   -7.3960   12.6860 C   0  0  0  0  0
   75.3300   -6.9350   11.9540 O   0  0  0  0  0
   74.0510   -6.3660   14.9070 C   0  0  0  0  0
   73.2120   -5.3560   15.6950 C   0  0  0  0  0
   73.6670   -5.3720   17.1570 C   0  0  0  0  0
   73.3720   -3.9420   15.1060 C   0  0  0  0  0
   74.3390   -8.6820   12.8420 N   0  0  0  0  0
   75.2310   -9.6280   12.1090 C   0  0  0  0  0
   74.6120  -11.0280   12.1330 C   0  0  0  0  0
   74.1670  -11.4780   11.0900 O   0  0  0  0  0
   76.6060   -9.6710   12.7830 C   0  0  0  0  0
   76.4410   -9.8980   14.1760 O   0  0  0  0  0
   74.5950  -11.6270   13.1950 O   0  0  0  0  0
   50.3836  -11.7691   23.8689 H   0  0  0  0  0
   49.2095  -11.6283   22.6949 H   0  0  0  0  0
   49.2674  -12.9881   23.6565 H   0  0  0  0  0
   51.3912  -13.6247   22.7265 H   0  0  0  0  0
   49.3652  -12.9899   20.5347 H   0  0  0  0  0
   48.3827  -13.9862   22.3822 H   0  0  0  0  0
   51.3470  -15.2746   20.9333 H   0  0  0  0  0
   50.2186  -15.1030   19.5664 H   0  0  0  0  0
   51.5347  -13.9240   19.7879 H   0  0  0  0  0
   52.8360  -11.7172   23.0417 H   0  0  0  0  0
   53.3104  -10.3539   20.3726 H   0  0  0  0  0
   53.3706   -8.9840   23.0942 H   0  0  0  0  0
   52.1352   -8.7370   21.8211 H   0  0  0  0  0
   55.1170   -8.1750   21.5155 H   0  0  0  0  0
   53.8541   -6.9376   21.8156 H   0  0  0  0  0
   52.7358   -7.9896   19.6663 H   0  0  0  0  0
   54.3765   -8.5817   19.3330 H   0  0  0  0  0
   54.3198   -5.7066   20.0269 H   0  0  0  0  0
   53.9715   -8.1665   17.5579 H   0  0  0  0  0
   54.8034   -4.8915   16.6688 H   0  0  0  0  0
   54.7750   -4.2987   18.3328 H   0  0  0  0  0
   55.4085  -10.4958   19.7667 H   0  0  0  0  0
   57.4955  -10.9180   21.9128 H   0  0  0  0  0
   58.5346  -12.7089   20.4846 H   0  0  0  0  0
   57.1452  -13.5995   18.8628 H   0  0  0  0  0
   57.1143  -13.2898   22.4185 H   0  0  0  0  0
   55.6710  -13.2374   21.3769 H   0  0  0  0  0
   56.9225  -14.4741   21.1026 H   0  0  0  0  0
   59.7024  -10.5292   21.0801 H   0  0  0  0  0
   59.6533   -8.5420   18.7749 H   0  0  0  0  0
   61.5271   -8.7245   21.1804 H   0  0  0  0  0
   60.2047   -7.5426   20.9780 H   0  0  0  0  0
   61.3249   -6.7275   18.8853 H   0  0  0  0  0
   62.6886   -7.8273   19.2329 H   0  0  0  0  0
   63.4686   -5.8576   20.2120 H   0  0  0  0  0
   62.6260   -6.6046   21.6041 H   0  0  0  0  0
   60.5438   -5.2698   20.7187 H   0  0  0  0  0
   61.7551   -4.2899   19.8580 H   0  0  0  0  0
   61.2696   -3.3862   22.0440 H   0  0  0  0  0
   61.7205   -4.8130   22.7773 H   0  0  0  0  0
   62.8545   -3.8957   21.9715 H   0  0  0  0  0
   61.1418   -8.7842   17.1282 H   0  0  0  0  0
   62.2499  -11.4213   16.6504 H   0  0  0  0  0
   63.5781  -10.1987   14.8494 H   0  0  0  0  0
   63.1894   -8.0072   16.6149 H   0  0  0  0  0
   62.1788   -7.6526   15.1831 H   0  0  0  0  0
   61.2719  -11.0244   14.4644 H   0  0  0  0  0
   60.6196   -9.4953   15.1026 H   0  0  0  0  0
   61.5647   -9.4991   13.5934 H   0  0  0  0  0
   65.1348   -8.3937   15.1414 H   0  0  0  0  0
   64.1282   -8.0406   13.7155 H   0  0  0  0  0
   64.4687   -6.7593   14.9044 H   0  0  0  0  0
   64.9566   -9.9592   15.8075 H   0  0  0  0  0
   66.1756   -9.8348   18.5551 H   0  0  0  0  0
   67.2788  -11.6009   16.3178 H   0  0  0  0  0
   66.3615  -12.2100   17.7132 H   0  0  0  0  0
   68.3557  -13.1992   17.9872 H   0  0  0  0  0
   67.3490   -8.0374   18.6879 H   0  0  0  0  0
   68.1202   -6.4362   16.3637 H   0  0  0  0  0
   69.8193   -5.9584   18.6597 H   0  0  0  0  0
   68.0960   -6.1825   19.1869 H   0  0  0  0  0
   67.3362   -3.8421   19.6945 H   0  0  0  0  0
   69.9276   -5.1136   15.4616 H   0  0  0  0  0
   68.0810   -0.5230   15.9027 H   0  0  0  0  0
   70.2459   -3.4597   13.6444 H   0  0  0  0  0
   69.3223   -1.1717   13.8602 H   0  0  0  0  0
   69.8187   -8.8222   18.4449 H   0  0  0  0  0
   72.4382   -8.4017   17.3195 H   0  0  0  0  0
   71.1501  -10.9383   18.4478 H   0  0  0  0  0
   72.0681   -9.7290   19.3703 H   0  0  0  0  0
   74.1612  -12.1794   16.7312 H   0  0  0  0  0
   72.4673  -11.7974   16.4057 H   0  0  0  0  0
   69.7817  -10.5764   16.2644 H   0  0  0  0  0
   71.3242  -11.9005   14.2059 H   0  0  0  0  0
   68.3781  -11.1578   14.0761 H   0  0  0  0  0
   69.0209  -12.5517   14.9855 H   0  0  0  0  0
   70.0195  -13.4336   12.8745 H   0  0  0  0  0
   69.3094  -12.0708   11.9849 H   0  0  0  0  0
   67.0458  -12.7760   12.6740 H   0  0  0  0  0
   67.7434  -14.1240   13.6121 H   0  0  0  0  0
   68.6525  -15.1171   11.5664 H   0  0  0  0  0
   68.0741  -13.7376   10.6072 H   0  0  0  0  0
   66.5484  -15.5989   10.4963 H   0  0  0  0  0
   66.3645  -15.5977   12.1525 H   0  0  0  0  0
   65.8221  -14.3040   11.2530 H   0  0  0  0  0
   69.5031   -8.8302   14.2498 H   0  0  0  0  0
   69.9085   -8.3115   11.3985 H   0  0  0  0  0
   69.3232   -6.4408   13.7458 H   0  0  0  0  0
   67.6648   -8.2983   13.2297 H   0  0  0  0  0
   67.4519   -7.5629   11.6212 H   0  0  0  0  0
   70.2767   -5.2320   11.8126 H   0  0  0  0  0
   69.0722   -5.9906   10.7427 H   0  0  0  0  0
   68.5472   -4.8582   12.0127 H   0  0  0  0  0
   66.9796   -6.1665   14.2946 H   0  0  0  0  0
   66.7667   -5.4314   12.6867 H   0  0  0  0  0
   65.7113   -6.7706   13.2003 H   0  0  0  0  0
   71.7111   -7.3423   14.3550 H   0  0  0  0  0
   73.4839   -5.5061   13.0168 H   0  0  0  0  0
   75.0847   -6.0215   14.8785 H   0  0  0  0  0
   73.9852   -7.3382   15.3955 H   0  0  0  0  0
   72.1593   -5.6313   15.6309 H   0  0  0  0  0
   73.5267   -6.3714   17.5689 H   0  0  0  0  0
   74.7211   -5.1000   17.2111 H   0  0  0  0  0
   73.0759   -4.6560   17.7280 H   0  0  0  0  0
   74.4199   -3.6459   15.1547 H   0  0  0  0  0
   73.0412   -3.9429   14.0674 H   0  0  0  0  0
   72.7677   -3.2400   15.6805 H   0  0  0  0  0
   73.6184   -9.0434   13.4669 H   0  0  0  0  0
   75.3446   -9.2919   11.0784 H   0  0  0  0  0
   74.2882  -10.8347   10.3878 H   0  0  0  0  0
   77.1181   -8.7216   12.6268 H   0  0  0  0  0
   77.1988  -10.4769   12.3503 H   0  0  0  0  0
   77.3024   -9.9250   14.5989 H   0  0  0  0  0
  1  2  1  0  0  0
  2  3  1  0  0  0
  2  5  1  0  0  0
  3  4  2  0  0  0
  3  8  1  0  0  0
  5  6  1  0  0  0
  5  7  1  0  0  0
  8  9  1  0  0  0
  9 10  1  0  0  0
  9 12  1  0  0  0
 10 11  2  0  0  0
 10 19  1  0  0  0
 12 13  1  0  0  0
 13 14  1  0  0  0
 14 15  1  0  0  0
 15 16  1  0  0  0
 16 17  2  0  0  0
 16 18  1  0  0  0
 19 20  1  0  0  0
 20 21  1  0  0  0
 20 23  1  0  0  0
 21 22  2  0  0  0
 21 26  1  0  0  0
 23 24  1  0  0  0
 23 25  1  0  0  0
 26 27  1  0  0  0
 27 28  1  0  0  0
 27 30  1  0  0  0
 28 29  2  0  0  0
 28 35  1  0  0  0
 30 31  1  0  0  0
 31 32  1  0  0  0
 32 33  1  0  0  0
 33 34  1  0  0  0
 35 36  1  0  0  0
 36 37  1  0  0  0
 36 39  1  0  0  0
 37 38  2  0  0  0
 37 43  1  0  0  0
 39 40  1  0  0  0
 39 41  1  0  0  0
 40 42  1  0  0  0
 43 44  1  0  0  0
 44 45  1  0  0  0
 44 47  1  0  0  0
 45 46  2  0  0  0
 45 51  1  0  0  0
 47 48  1  0  0  0
 48 49  2  0  0  0
 48 50  1  0  0  0
 51 52  1  0  0  0
 52 53  1  0  0  0
 52 55  1  0  0  0
 53 54  2  0  0  0
 53 65  1  0  0  0
 55 56  1  0  0  0
 56 57  4  0  0  0
 56 58  4  0  0  0
 57 59  4  0  0  0
 58 60  4  0  0  0
 58 61  4  0  0  0
 59 60  4  0  0  0
 60 62  4  0  0  0
 61 63  4  0  0  0
 62 64  4  0  0  0
 63 64  4  0  0  0
 65 66  1  0  0  0
 66 67  1  0  0  0
 66 69  1  0  0  0
 67 68  2  0  0  0
 67 73  1  0  0  0
 69 70  1  0  0  0
 70 71  2  0  0  0
 70 72  1  0  0  0
 73 74  1  0  0  0
 74 75  1  0  0  0
 74 77  1  0  0  0
 75 76  2  0  0  0
 75 82  1  0  0  0
 77 78  1  0  0  0
 78 79  1  0  0  0
 79 80  1  0  0  0
 80 81  1  0  0  0
 82 83  1  0  0  0
 83 84  1  0  0  0
 83 86  1  0  0  0
 84 85  2  0  0  0
 84 90  1  0  0  0
 86 87  1  0  0  0
 86 88  1  0  0  0
 87 89  1  0  0  0
 90 91  1  0  0  0
 91 92  1  0  0  0
 91 94  1  0  0  0
 92 93  2  0  0  0
 92 98  1  0  0  0
 94 95  1  0  0  0
 95 96  1  0  0  0
 95 97  1  0  0  0
 98 99  1  0  0  0
 99100  1  0  0  0
 99102  1  0  0  0
100101  1  0  0  0
100104  2  0  0  0
102103  1  0  0  0
  1105  1  0  0  0
  1106  1  0  0  0
  1107  1  0  0  0
  2108  1  0  0  0
  5109  1  0  0  0
  6110  1  0  0  0
  7111  1  0  0  0
  7112  1  0  0  0
  7113  1  0  0  0
  8114  1  0  0  0
  9115  1  0  0  0
 12116  1  0  0  0
 12117  1  0  0  0
 13118  1  0  0  0
 13119  1  0  0  0
 14120  1  0  0  0
 14121  1  0  0  0
 15122  1  0  0  0
 17123  1  0  0  0
 18124  1  0  0  0
 18125  1  0  0  0
 19126  1  0  0  0
 20127  1  0  0  0
 23128  1  0  0  0
 24129  1  0  0  0
 25130  1  0  0  0
 25131  1  0  0  0
 25132  1  0  0  0
 26133  1  0  0  0
 27134  1  0  0  0
 30135  1  0  0  0
 30136  1  0  0  0
 31137  1  0  0  0
 31138  1  0  0  0
 32139  1  0  0  0
 32140  1  0  0  0
 33141  1  0  0  0
 33142  1  0  0  0
 34143  1  0  0  0
 34144  1  0  0  0
 34145  1  0  0  0
 35146  1  0  0  0
 36147  1  0  0  0
 39148  1  0  0  0
 40149  1  0  0  0
 40150  1  0  0  0
 41151  1  0  0  0
 41152  1  0  0  0
 41153  1  0  0  0
 42154  1  0  0  0
 42155  1  0  0  0
 42156  1  0  0  0
 43157  1  0  0  0
 44158  1  0  0  0
 47159  1  0  0  0
 47160  1  0  0  0
 50161  1  0  0  0
 51162  1  0  0  0
 52163  1  0  0  0
 55164  1  0  0  0
 55165  1  0  0  0
 57166  1  0  0  0
 61167  1  0  0  0
 62168  1  0  0  0
 63169  1  0  0  0
 64170  1  0  0  0
 65171  1  0  0  0
 66172  1  0  0  0
 69173  1  0  0  0
 69174  1  0  0  0
 72175  1  0  0  0
 72176  1  0  0  0
 73177  1  0  0  0
 74178  1  0  0  0
 77179  1  0  0  0
 77180  1  0  0  0
 78181  1  0  0  0
 78182  1  0  0  0
 79183  1  0  0  0
 79184  1  0  0  0
 80185  1  0  0  0
 80186  1  0  0  0
 81187  1  0  0  0
 81188  1  0  0  0
 81189  1  0  0  0
 82190  1  0  0  0
 83191  1  0  0  0
 86192  1  0  0  0
 87193  1  0  0  0
 87194  1  0  0  0
 88195  1  0  0  0
 88196  1  0  0  0
 88197  1  0  0  0
 89198  1  0  0  0
 89199  1  0  0  0
 89200  1  0  0  0
 90201  1  0  0  0
 91202  1  0  0  0
 94203  1  0  0  0
 94204  1  0  0  0
 95205  1  0  0  0
 96206  1  0  0  0
 96207  1  0  0  0
 96208  1  0  0  0
 97209  1  0  0  0
 97210  1  0  0  0
 97211  1  0  0  0
 98212  1  0  0  0
 99213  1  0  0  0
101214  1  0  0  0
102215  1  0  0  0
102216  1  0  0  0
103217  1  0  0  0
M  END
$$$$
