3q4b_ligand
  -I-interpret- 

 78 80  0  0  0  0  0  0  0  0999 V2000
   25.3160   -9.1970   -6.3710 C   0  0  0  0  0
   25.5350   -8.0720   -7.2880 N   0  3  0  0  0
   25.4310  -11.2350  -11.1690 O   0  0  0  0  0
   26.2920   -8.4090   -8.5250 C   0  0  0  0  0
   26.0060   -9.1650  -10.8360 N   0  0  0  0  0
   29.2030   -7.1570  -13.4380 O   0  0  0  0  0
   25.5220   -9.3270   -9.4650 C   0  0  0  0  0
   26.3380  -10.1480  -12.9240 N   0  0  0  0  0
   27.8540   -2.6940  -13.6150 O   0  0  0  0  0
   25.9080  -10.2030  -11.6500 C   0  0  0  0  0
   27.8940   -4.7900  -12.5890 N   0  0  0  0  0
   25.8550   -3.6220  -12.8980 O   0  0  0  0  0
   26.9440   -8.9620  -13.5810 C   0  0  0  0  0
   28.4120   -9.3260  -13.8840 C   0  0  0  0  0
   28.4600  -10.5760  -14.8020 C   0  0  0  0  0
   27.6300  -11.7620  -14.2580 C   0  0  0  0  0
   26.2140  -11.3350  -13.7920 C   0  0  0  0  0
   29.1870   -8.1430  -14.4660 C   0  0  0  0  0
   27.6450   -8.9850   -8.1350 C   0  0  0  0  0
   28.7560   -8.7410   -9.1500 C   0  0  0  0  0
   29.8010   -9.8440   -8.9650 C   0  0  0  0  0
   30.8880   -9.6470   -9.8890 O   0  0  0  0  0
   31.6330   -8.4820   -9.5280 C   0  0  0  0  0
   30.7260   -7.2610   -9.6420 C   0  0  0  0  0
   29.4490   -7.4190   -8.8580 C   0  0  0  0  0
   29.5600   -5.8650  -13.9650 C   0  0  0  0  0
   29.3540   -4.8960  -12.7960 C   0  0  0  0  0
   27.2840   -3.6700  -13.0510 C   0  0  0  0  0
   30.6190   -8.4440  -14.7940 C   0  0  0  0  0
   31.5410   -8.7370  -13.7920 C   0  0  0  0  0
   32.8580   -9.0120  -14.1170 C   0  0  0  0  0
   33.3250   -8.9860  -15.4220 C   0  0  0  0  0
   32.3940   -8.6870  -16.4120 C   0  0  0  0  0
   31.0580   -8.4410  -16.1090 C   0  0  0  0  0
   25.1110   -2.6210  -13.6230 C   0  0  0  0  0
   33.9910   -9.4230  -12.8060 Cl  0  0  0  0  0
   24.7505   -9.9760   -6.8823 H   0  0  0  0  0
   26.2786   -9.5957   -6.0508 H   0  0  0  0  0
   24.7569   -8.8517   -5.5014 H   0  0  0  0  0
   26.0897   -7.3820   -6.7814 H   0  0  0  0  0
   24.6139   -7.7493   -7.5844 H   0  0  0  0  0
   26.4434   -7.4926   -9.0954 H   0  0  0  0  0
   26.4054   -8.2817  -11.1534 H   0  0  0  0  0
   24.4633   -9.0704   -9.4272 H   0  0  0  0  0
   25.6690  -10.3613   -9.1541 H   0  0  0  0  0
   27.3682   -5.5271  -12.1192 H   0  0  0  0  0
   26.8862   -8.0871  -12.9335 H   0  0  0  0  0
   26.4093   -8.7092  -14.4966 H   0  0  0  0  0
   28.9119   -9.5722  -12.9472 H   0  0  0  0  0
   29.4987  -10.9005  -14.8649 H   0  0  0  0  0
   28.0401  -10.2937  -15.7674 H   0  0  0  0  0
   28.1568  -12.1729  -13.3968 H   0  0  0  0  0
   27.5135  -12.4872  -15.0634 H   0  0  0  0  0
   25.5959  -11.0971  -14.6577 H   0  0  0  0  0
   25.7452  -12.1495  -13.2398 H   0  0  0  0  0
   28.7032   -7.8459  -15.3965 H   0  0  0  0  0
   27.5195  -10.0648   -8.0546 H   0  0  0  0  0
   27.9455   -8.4924   -7.2103 H   0  0  0  0  0
   28.3352   -8.7292  -10.1554 H   0  0  0  0  0
   29.3391  -10.8131   -9.1537 H   0  0  0  0  0
   30.1844   -9.8095   -7.9452 H   0  0  0  0  0
   32.4878   -8.3698  -10.1950 H   0  0  0  0  0
   31.9946   -8.5783   -8.5042 H   0  0  0  0  0
   30.4634   -7.1328  -10.6921 H   0  0  0  0  0
   31.2642   -6.4024   -9.2405 H   0  0  0  0  0
   29.6969   -7.3930   -7.7969 H   0  0  0  0  0
   28.7740   -6.6119   -9.1427 H   0  0  0  0  0
   28.9507   -5.5958  -14.8278 H   0  0  0  0  0
   30.5860   -5.8457  -14.3326 H   0  0  0  0  0
   29.8498   -5.2600  -11.8961 H   0  0  0  0  0
   29.7881   -3.9209  -13.0170 H   0  0  0  0  0
   31.2245   -8.7498  -12.7490 H   0  0  0  0  0
   34.3689   -9.1895  -15.6606 H   0  0  0  0  0
   32.7193   -8.6443  -17.4514 H   0  0  0  0  0
   30.3497   -8.2440  -16.9138 H   0  0  0  0  0
   25.4536   -1.6297  -13.3263 H   0  0  0  0  0
   25.2694   -2.7564  -14.6929 H   0  0  0  0  0
   24.0499   -2.7233  -13.3957 H   0  0  0  0  0
  2  1  1  0  0  0
  4  2  1  0  0  0
 10  3  2  0  0  0
  7  4  1  0  0  0
  4 19  1  0  0  0
  5  7  1  0  0  0
 10  5  1  0  0  0
  6 18  1  0  0  0
 26  6  1  0  0  0
  8 10  1  0  0  0
 13  8  1  0  0  0
  8 17  1  0  0  0
 28  9  2  0  0  0
 27 11  1  0  0  0
 11 28  1  0  0  0
 28 12  1  0  0  0
 12 35  1  0  0  0
 14 13  1  0  0  0
 14 15  1  0  0  0
 18 14  1  0  0  0
 15 16  1  0  0  0
 16 17  1  0  0  0
 18 29  1  0  0  0
 19 20  1  0  0  0
 20 21  1  0  0  0
 20 25  1  0  0  0
 21 22  1  0  0  0
 22 23  1  0  0  0
 24 23  1  0  0  0
 25 24  1  0  0  0
 26 27  1  0  0  0
 29 30  4  0  0  0
 29 34  4  0  0  0
 30 31  4  0  0  0
 31 32  4  0  0  0
 31 36  1  0  0  0
 32 33  4  0  0  0
 33 34  4  0  0  0
  1 37  1  0  0  0
  1 38  1  0  0  0
  1 39  1  0  0  0
  2 40  1  0  0  0
  2 41  1  0  0  0
  4 42  1  0  0  0
  5 43  1  0  0  0
  7 44  1  0  0  0
  7 45  1  0  0  0
 11 46  1  0  0  0
 13 47  1  0  0  0
 13 48  1  0  0  0
 14 49  1  0  0  0
 15 50  1  0  0  0
 15 51  1  0  0  0
 16 52  1  0  0  0
 16 53  1  0  0  0
 17 54  1  0  0  0
 17 55  1  0  0  0
 18 56  1  0  0  0
 19 57  1  0  0  0
 19 58  1  0  0  0
 20 59  1  0  0  0
 21 60  1  0  0  0
 21 61  1  0  0  0
 23 62  1  0  0  0
 23 63  1  0  0  0
 24 64  1  0  0  0
 24 65  1  0  0  0
 25 66  1  0  0  0
 25 67  1  0  0  0
 26 68  1  0  0  0
 26 69  1  0  0  0
 27 70  1  0  0  0
 27 71  1  0  0  0
 30 72  1  0  0  0
 32 73  1  0  0  0
 33 74  1  0  0  0
 34 75  1  0  0  0
 35 76  1  0  0  0
 35 77  1  0  0  0
 35 78  1  0  0  0
M  END
$$$$
