### 
### Created by X-TOOL on Wed Jan  1 15:39:35 2020
### 

@<TRIPOS>MOLECULE
5y20_ligand
  123   122     1     0     0
SMALL
GAST_HUCK


@<TRIPOS>ATOM
      1 N          14.2130    4.0860   15.9150 N.4       1 ALA         0.2377
      2 CA         14.3760    3.0670   14.8910 C.3       1 ALA         0.0621
      3 C          15.8280    2.6350   14.8180 C.2       1 ALA         0.2264
      4 O          16.7090    3.3170   15.3410 O.2       1 ALA        -0.3907
      5 CB         13.9020    3.5820   13.5320 C.3       1 ALA        -0.0040
      6 N          16.0780    1.4970   14.1790 N.am      1 ARG        -0.2610
      7 CA         17.4430    1.0350   13.9820 C.3       1 ARG         0.1312
      8 C          18.0820    1.7630   12.8030 C.2       1 ARG         0.2040
      9 O          17.4930    1.8560   11.7250 O.2       1 ARG        -0.3944
     10 CB         17.4730   -0.4750   13.7640 C.3       1 ARG        -0.0092
     11 CG         17.1730   -1.2550   15.0170 C.3       1 ARG        -0.0156
     12 CD         16.9840   -2.7250   14.7220 C.3       1 ARG         0.0627
     13 NE         15.7010   -2.9950   14.0760 N.pl3     1 ARG        -0.2723
     14 CZ         15.3020   -4.2070   13.7130 C.cat     1 ARG         0.2882
     15 NH1        16.0890   -5.2500   13.9280 N.pl3     1 ARG        -0.2849
     16 NH2        14.1250   -4.3770   13.1350 N.pl3     1 ARG        -0.2849
     17 N          19.2780    2.2980   13.0220 N.am      1 THR        -0.2613
     18 CA         19.9530    3.0740   11.9970 C.3       1 THR         0.1565
     19 C          21.4430    2.8100   11.9060 C.2       1 THR         0.2065
     20 O          22.0710    2.3360   12.8450 O.2       1 THR        -0.3943
     21 CB         19.7730    4.5960   12.2070 C.3       1 THR         0.0924
     22 OG1        20.3940    4.9940   13.4370 O.3       1 THR        -0.3874
     23 CG2        18.2990    4.9860   12.2060 C.3       1 THR        -0.0346
     24 N          21.9880    3.1140   10.7370 N.am      1 M3L        -0.2637
     25 CA         23.4040    3.2130   10.5400 C.3       1 M3L         0.1310
     26 CB         23.9570    2.2840    9.4440 C.3       1 M3L        -0.0122
     27 CG         23.6620    0.8400    9.7730 C.3       1 M3L        -0.0440
     28 CD         23.9760   -0.0720    8.5920 C.3       1 M3L        -0.0123
     29 CE         23.2920   -1.4230    8.8030 C.3       1 M3L        -0.0309
     30 NZ         23.7310   -2.5970    7.9440 N.4       1 M3L         0.2369
     31 C          23.7030    4.6620   10.1720 C.2       1 M3L         0.2039
     32 O          23.3120    5.2170    9.1400 O.2       1 M3L        -0.3944
     33 CM1        23.0190   -3.8530    8.3460 C.3       1 M3L        -0.0418
     34 CM2        25.2020   -2.8200    8.0260 C.3       1 M3L        -0.0418
     35 CM3        23.3990   -2.2790    6.5140 C.3       1 M3L        -0.0418
     36 N          24.4040    5.3120   11.0850 N.am      1 GLN        -0.2636
     37 CA         24.7130    6.7210   10.9400 C.3       1 GLN         0.1330
     38 C          25.9090    6.9160   10.0160 C.2       1 GLN         0.2041
     39 O          26.6870    5.9900    9.7930 O.2       1 GLN        -0.3944
     40 CB         24.9830    7.3420   12.3090 C.3       1 GLN         0.0045
     41 CG         23.7790    7.3000   13.2300 C.3       1 GLN         0.0412
     42 CD         22.6510    8.1960   12.7440 C.2       1 GLN         0.1737
     43 OE1        22.8950    9.2560   12.1640 O.2       1 GLN        -0.3973
     44 NE2        21.4080    7.7700   12.9690 N.am      1 GLN        -0.3009
     45 N          26.0450    8.1160    9.4660 N.am      1 THR        -0.2613
     46 CA         27.1940    8.4470    8.6370 C.3       1 THR         0.1564
     47 C          28.4580    8.5860    9.4810 C.2       1 THR         0.2059
     48 O          28.4360    9.2000   10.5400 O.2       1 THR        -0.3943
     49 CB         26.9420    9.7420    7.8460 C.3       1 THR         0.0924
     50 OG1        26.3410    9.4040    6.5860 O.3       1 THR        -0.3874
     51 CG2        28.2430   10.4860    7.5840 C.3       1 THR        -0.0346
     52 N          29.5490    7.9810    9.0250 N.am      1 ALA        -0.2697
     53 CA         30.8410    8.1580    9.6790 C.3       1 ALA         0.0916
     54 C          31.2860    9.6070    9.5660 C.2       1 ALA         0.0598
     55 O          31.8020   10.1720   10.5240 O.co2     1 ALA        -0.5666
     56 CB         31.8770    7.2420    9.0700 C.3       1 ALA        -0.0300
     57 OXT        31.1320   10.2210    8.5160 O.co2     1 ALA        -0.5666
     58 H1         13.2462    4.3679   15.9576 H         1 ALA         0.2015
     59 H2         14.7860    4.8840   15.6892 H         1 ALA         0.2015
     60 H3         14.4938    3.7127   16.8082 H         1 ALA         0.2015
     61 H4         13.7640    2.1950   15.1649 H         1 ALA         0.1095
     62 H5         14.0349    2.7950   12.7750 H         1 ALA         0.0310
     63 H6         14.4917    4.4664   13.2490 H         1 ALA         0.0310
     64 H7         12.8383    3.8551   13.5940 H         1 ALA         0.0310
     65 H8         15.3171    0.9507   13.8287 H         1 ARG         0.1884
     66 H9         18.0224    1.2655   14.8881 H         1 ARG         0.0800
     67 H10        18.4738   -0.7580   13.4058 H         1 ARG         0.0313
     68 H11        16.7238   -0.7344   13.0015 H         1 ARG         0.0313
     69 H12        16.2525   -0.8605   15.4719 H         1 ARG         0.0301
     70 H13        18.0099   -1.1364   15.7209 H         1 ARG         0.0301
     71 H14        17.0301   -3.2854   15.6674 H         1 ARG         0.0689
     72 H15        17.7935   -3.0604   14.0571 H         1 ARG         0.0689
     73 H16        15.0719   -2.2004   13.8925 H         1 ARG         0.2642
     74 H17        15.7829   -6.1926   13.6476 H         1 ARG         0.2615
     75 H18        17.0073   -5.1187   14.3756 H         1 ARG         0.2615
     76 H19        13.5118   -3.5666   12.9672 H         1 ARG         0.2615
     77 H20        13.8213   -5.3198   12.8526 H         1 ARG         0.2615
     78 H21        19.7213    2.1640   13.9083 H         1 THR         0.1884
     79 H22        19.4991    2.8001   11.0332 H         1 THR         0.0826
     80 H23        20.2692    5.1216   11.3779 H         1 THR         0.0639
     81 H24        19.9910    4.5270   14.1595 H         1 THR         0.2101
     82 H25        18.2069    6.0717   12.3572 H         1 THR         0.0257
     83 H26        17.7792    4.4573   13.0186 H         1 THR         0.0257
     84 H27        17.8475    4.7105   11.2415 H         1 THR         0.0257
     85 H28        21.3843    3.2818    9.9576 H         1 M3L         0.1883
     86 H29        23.9069    2.9625   11.4857 H         1 M3L         0.0800
     87 H30        25.0456    2.4224    9.3681 H         1 M3L         0.0312
     88 H31        23.4870    2.5391    8.4827 H         1 M3L         0.0312
     89 H32        22.5968    0.7411   10.0289 H         1 M3L         0.0269
     90 H33        24.2757    0.5359   10.6337 H         1 M3L         0.0269
     91 H34        25.0638   -0.2180    8.5192 H         1 M3L         0.0317
     92 H35        23.6047    0.3871    7.6639 H         1 M3L         0.0317
     93 H36        22.2166   -1.2744    8.6255 H         1 M3L         0.0815
     94 H37        23.4543   -1.7094    9.8526 H         1 M3L         0.0815
     95 H38        23.3551   -4.6847    7.7094 H         1 M3L         0.0778
     96 H39        21.9345   -3.7143    8.2257 H         1 M3L         0.0778
     97 H40        23.2449   -4.0819    9.3979 H         1 M3L         0.0778
     98 H41        25.7292   -1.9005    7.7317 H         1 M3L         0.0778
     99 H42        25.4871   -3.6387    7.3489 H         1 M3L         0.0778
    100 H43        25.4757   -3.0853    9.0578 H         1 M3L         0.0778
    101 H44        22.3166   -2.1082    6.4182 H         1 M3L         0.0778
    102 H45        23.6953   -3.1220    5.8726 H         1 M3L         0.0778
    103 H46        23.9419   -1.3739    6.2041 H         1 M3L         0.0778
    104 H47        24.7283    4.8210   11.8935 H         1 GLN         0.1883
    105 H48        23.8434    7.2252   10.4933 H         1 GLN         0.0801
    106 H49        25.2770    8.3922   12.1651 H         1 GLN         0.0337
    107 H50        25.8078    6.7924   12.7861 H         1 GLN         0.0337
    108 H51        24.0881    7.6321   14.2321 H         1 GLN         0.0504
    109 H52        23.4106    6.2650   13.2841 H         1 GLN         0.0504
    110 H53        20.6288    8.3209   12.6699 H         1 GLN         0.1814
    111 H54        21.2548    6.8996   13.4369 H         1 GLN         0.1814
    112 H55        25.3416    8.8088    9.6250 H         1 THR         0.1884
    113 H56        27.3464    7.6272    7.9195 H         1 THR         0.0826
    114 H57        26.2628   10.3904    8.4189 H         1 THR         0.0639
    115 H58        26.1812   10.1980    6.0895 H         1 THR         0.2101
    116 H59        28.0320   11.4054    7.0182 H         1 THR         0.0257
    117 H60        28.9213    9.8448    7.0020 H         1 THR         0.0257
    118 H61        28.7163   10.7458    8.5424 H         1 THR         0.0257
    119 H62        29.4836    7.3934    8.2185 H         1 ALA         0.1875
    120 H63        30.7330    7.9047   10.7440 H         1 ALA         0.0723
    121 H64        32.8418    7.3914    9.5768 H         1 ALA         0.0270
    122 H65        31.9857    7.4716    7.9997 H         1 ALA         0.0270
    123 H66        31.5578    6.1962    9.1902 H         1 ALA         0.0270
@<TRIPOS>BOND
     1    1    2 1  
     2    2    3 1  
     3    2    5 1  
     4    3    4 2  
     5    3    6 am 
     6    6    7 1  
     7    7    8 1  
     8    7   10 1  
     9    8    9 2  
    10    8   17 am 
    11   10   11 1  
    12   11   12 1  
    13   12   13 1  
    14   13   14 ar 
    15   14   15 ar 
    16   14   16 ar 
    17   17   18 1  
    18   18   19 1  
    19   18   21 1  
    20   19   20 2  
    21   19   24 am 
    22   21   22 1  
    23   21   23 1  
    24   24   25 1  
    25   25   26 1  
    26   25   31 1  
    27   26   27 1  
    28   27   28 1  
    29   28   29 1  
    30   29   30 1  
    31   30   33 1  
    32   30   34 1  
    33   30   35 1  
    34   31   32 2  
    35   31   36 am 
    36   36   37 1  
    37   37   38 1  
    38   37   40 1  
    39   38   39 2  
    40   38   45 am 
    41   40   41 1  
    42   41   42 1  
    43   42   43 2  
    44   42   44 am 
    45   45   46 1  
    46   46   47 1  
    47   46   49 1  
    48   47   48 2  
    49   47   52 am 
    50   49   50 1  
    51   49   51 1  
    52   52   53 1  
    53   53   54 1  
    54   53   56 1  
    55   54   55 ar 
    56   54   57 ar 
    57    1   58 1  
    58    1   59 1  
    59    1   60 1  
    60    2   61 1  
    61    5   62 1  
    62    5   63 1  
    63    5   64 1  
    64    6   65 1  
    65    7   66 1  
    66   10   67 1  
    67   10   68 1  
    68   11   69 1  
    69   11   70 1  
    70   12   71 1  
    71   12   72 1  
    72   13   73 1  
    73   15   74 1  
    74   15   75 1  
    75   16   76 1  
    76   16   77 1  
    77   17   78 1  
    78   18   79 1  
    79   21   80 1  
    80   22   81 1  
    81   23   82 1  
    82   23   83 1  
    83   23   84 1  
    84   24   85 1  
    85   25   86 1  
    86   26   87 1  
    87   26   88 1  
    88   27   89 1  
    89   27   90 1  
    90   28   91 1  
    91   28   92 1  
    92   29   93 1  
    93   29   94 1  
    94   33   95 1  
    95   33   96 1  
    96   33   97 1  
    97   34   98 1  
    98   34   99 1  
    99   34  100 1  
   100   35  101 1  
   101   35  102 1  
   102   35  103 1  
   103   36  104 1  
   104   37  105 1  
   105   40  106 1  
   106   40  107 1  
   107   41  108 1  
   108   41  109 1  
   109   44  110 1  
   110   44  111 1  
   111   45  112 1  
   112   46  113 1  
   113   49  114 1  
   114   50  115 1  
   115   51  116 1  
   116   51  117 1  
   117   51  118 1  
   118   52  119 1  
   119   53  120 1  
   120   56  121 1  
   121   56  122 1  
   122   56  123 1  
@<TRIPOS>SUBSTRUCTURE
     1 ALA         1

