5y20_ligand
  -I-interpret- 

123122  0  0  0  0  0  0  0  0999 V2000
   14.2130    4.0860   15.9150 N   0  3  0  0  0
   14.3760    3.0670   14.8910 C   0  0  0  0  0
   15.8280    2.6350   14.8180 C   0  0  0  0  0
   16.7090    3.3170   15.3410 O   0  0  0  0  0
   13.9020    3.5820   13.5320 C   0  0  0  0  0
   16.0780    1.4970   14.1790 N   0  0  0  0  0
   17.4430    1.0350   13.9820 C   0  0  0  0  0
   18.0820    1.7630   12.8030 C   0  0  0  0  0
   17.4930    1.8560   11.7250 O   0  0  0  0  0
   17.4730   -0.4750   13.7640 C   0  0  0  0  0
   17.1730   -1.2550   15.0170 C   0  0  0  0  0
   16.9840   -2.7250   14.7220 C   0  0  0  0  0
   15.7010   -2.9950   14.0760 N   0  0  0  0  0
   15.3020   -4.2070   13.7130 C   0  0  0  0  0
   16.0890   -5.2500   13.9280 N   0  0  0  0  0
   14.1250   -4.3770   13.1350 N   0  0  0  0  0
   19.2780    2.2980   13.0220 N   0  0  0  0  0
   19.9530    3.0740   11.9970 C   0  0  0  0  0
   21.4430    2.8100   11.9060 C   0  0  0  0  0
   22.0710    2.3360   12.8450 O   0  0  0  0  0
   19.7730    4.5960   12.2070 C   0  0  0  0  0
   20.3940    4.9940   13.4370 O   0  0  0  0  0
   18.2990    4.9860   12.2060 C   0  0  0  0  0
   21.9880    3.1140   10.7370 N   0  0  0  0  0
   23.4040    3.2130   10.5400 C   0  0  0  0  0
   23.9570    2.2840    9.4440 C   0  0  0  0  0
   23.6620    0.8400    9.7730 C   0  0  0  0  0
   23.9760   -0.0720    8.5920 C   0  0  0  0  0
   23.2920   -1.4230    8.8030 C   0  0  0  0  0
   23.7310   -2.5970    7.9440 N   0  3  0  0  0
   23.7030    4.6620   10.1720 C   0  0  0  0  0
   23.3120    5.2170    9.1400 O   0  0  0  0  0
   23.0190   -3.8530    8.3460 C   0  0  0  0  0
   25.2020   -2.8200    8.0260 C   0  0  0  0  0
   23.3990   -2.2790    6.5140 C   0  0  0  0  0
   24.4040    5.3120   11.0850 N   0  0  0  0  0
   24.7130    6.7210   10.9400 C   0  0  0  0  0
   25.9090    6.9160   10.0160 C   0  0  0  0  0
   26.6870    5.9900    9.7930 O   0  0  0  0  0
   24.9830    7.3420   12.3090 C   0  0  0  0  0
   23.7790    7.3000   13.2300 C   0  0  0  0  0
   22.6510    8.1960   12.7440 C   0  0  0  0  0
   22.8950    9.2560   12.1640 O   0  0  0  0  0
   21.4080    7.7700   12.9690 N   0  0  0  0  0
   26.0450    8.1160    9.4660 N   0  0  0  0  0
   27.1940    8.4470    8.6370 C   0  0  0  0  0
   28.4580    8.5860    9.4810 C   0  0  0  0  0
   28.4360    9.2000   10.5400 O   0  0  0  0  0
   26.9420    9.7420    7.8460 C   0  0  0  0  0
   26.3410    9.4040    6.5860 O   0  0  0  0  0
   28.2430   10.4860    7.5840 C   0  0  0  0  0
   29.5490    7.9810    9.0250 N   0  0  0  0  0
   30.8410    8.1580    9.6790 C   0  0  0  0  0
   31.2860    9.6070    9.5660 C   0  0  0  0  0
   31.8020   10.1720   10.5240 O   0  0  0  0  0
   31.8770    7.2420    9.0700 C   0  0  0  0  0
   31.1320   10.2210    8.5160 O   0  0  0  0  0
   14.5352    3.7204   16.8111 H   0  0  0  0  0
   14.7619    4.9085   15.6649 H   0  0  0  0  0
   13.2280    4.3415   15.9850 H   0  0  0  0  0
   13.7637    2.2055   15.1573 H   0  0  0  0  0
   14.5117    4.4356   13.2356 H   0  0  0  0  0
   13.9994    2.7892   12.7903 H   0  0  0  0  0
   12.8581    3.8872   13.6045 H   0  0  0  0  0
   15.3019    0.9398   13.8217 H   0  0  0  0  0
   18.0187    1.2593   14.8800 H   0  0  0  0  0
   18.4775   -0.7440   13.4372 H   0  0  0  0  0
   16.7071   -0.7201   13.0282 H   0  0  0  0  0
   16.2512   -0.8687   15.4519 H   0  0  0  0  0
   18.0140   -1.1455   15.7017 H   0  0  0  0  0
   17.0100   -3.2677   15.6669 H   0  0  0  0  0
   17.7785   -3.0412   14.0460 H   0  0  0  0  0
   15.0780   -2.2081   13.8942 H   0  0  0  0  0
   15.7870   -6.1831   13.6478 H   0  0  0  0  0
   16.9972   -5.1203   14.3738 H   0  0  0  0  0
   13.5190   -3.5741   12.9663 H   0  0  0  0  0
   19.7301    2.1613   13.9260 H   0  0  0  0  0
   19.4776    2.7481   11.0719 H   0  0  0  0  0
   20.2533    5.1145   11.3772 H   0  0  0  0  0
   20.2788    5.9389   13.5612 H   0  0  0  0  0
   17.8528    4.7125   11.2499 H   0  0  0  0  0
   17.7851    4.4614   13.0115 H   0  0  0  0  0
   18.2091    6.0619   12.3559 H   0  0  0  0  0
   21.3723    3.2851    9.9420 H   0  0  0  0  0
   23.8931    2.8989   11.4621 H   0  0  0  0  0
   25.0368    2.4181    9.3789 H   0  0  0  0  0
   23.4817    2.5345    8.4956 H   0  0  0  0  0
   22.6023    0.7476   10.0109 H   0  0  0  0  0
   24.2843    0.5420   10.6168 H   0  0  0  0  0
   25.0539   -0.2158    8.5178 H   0  0  0  0  0
   23.6102    0.3830    7.6715 H   0  0  0  0  0
   22.2457   -1.2568    8.5468 H   0  0  0  0  0
   23.5358   -1.7102    9.8258 H   0  0  0  0  0
   23.2436   -4.0787    9.3884 H   0  0  0  0  0
   21.9445   -3.7142    8.2264 H   0  0  0  0  0
   23.3528   -4.6764    7.7145 H   0  0  0  0  0
   25.7233   -1.9273    7.6805 H   0  0  0  0  0
   25.4797   -3.0274    9.0594 H   0  0  0  0  0
   25.4752   -3.6679    7.3979 H   0  0  0  0  0
   22.3244   -2.1236    6.4177 H   0  0  0  0  0
   23.9267   -1.3742    6.2124 H   0  0  0  0  0
   23.7058   -3.1092    5.8778 H   0  0  0  0  0
   24.7348    4.8112   11.9097 H   0  0  0  0  0
   23.8547    7.2225   10.4928 H   0  0  0  0  0
   25.2433    8.3888   12.1521 H   0  0  0  0  0
   25.7809    6.7686   12.7810 H   0  0  0  0  0
   24.0920    7.6525   14.2128 H   0  0  0  0  0
   23.4093    6.2750   13.2576 H   0  0  0  0  0
   20.6133    8.3281   12.6571 H   0  0  0  0  0
   21.2517    6.8859   13.4531 H   0  0  0  0  0
   25.3275    8.8226    9.6281 H   0  0  0  0  0
   27.3393    7.6290    7.9314 H   0  0  0  0  0
   26.2852   10.3854    8.4314 H   0  0  0  0  0
   26.1796   10.2064    6.0843 H   0  0  0  0  0
   28.7109   10.7428    8.5344 H   0  0  0  0  0
   28.9142    9.8496    7.0073 H   0  0  0  0  0
   28.0327   11.3968    7.0233 H   0  0  0  0  0
   29.4823    7.3816    8.2024 H   0  0  0  0  0
   30.7354    7.9009   10.7330 H   0  0  0  0  0
   31.8519    9.5630   11.2644 H   0  0  0  0  0
   31.5595    6.2061    9.1897 H   0  0  0  0  0
   31.9837    7.4705    8.0096 H   0  0  0  0  0
   32.8325    7.3910    9.5730 H   0  0  0  0  0
  1  2  1  0  0  0
  2  3  1  0  0  0
  2  5  1  0  0  0
  3  4  2  0  0  0
  3  6  1  0  0  0
  6  7  1  0  0  0
  7  8  1  0  0  0
  7 10  1  0  0  0
  8  9  2  0  0  0
  8 17  1  0  0  0
 10 11  1  0  0  0
 11 12  1  0  0  0
 12 13  1  0  0  0
 13 14  1  0  0  0
 14 15  1  0  0  0
 14 16  2  0  0  0
 17 18  1  0  0  0
 18 19  1  0  0  0
 18 21  1  0  0  0
 19 20  2  0  0  0
 19 24  1  0  0  0
 21 22  1  0  0  0
 21 23  1  0  0  0
 24 25  1  0  0  0
 25 26  1  0  0  0
 25 31  1  0  0  0
 26 27  1  0  0  0
 27 28  1  0  0  0
 28 29  1  0  0  0
 29 30  1  0  0  0
 30 33  1  0  0  0
 30 34  1  0  0  0
 30 35  1  0  0  0
 31 32  2  0  0  0
 31 36  1  0  0  0
 36 37  1  0  0  0
 37 38  1  0  0  0
 37 40  1  0  0  0
 38 39  2  0  0  0
 38 45  1  0  0  0
 40 41  1  0  0  0
 41 42  1  0  0  0
 42 43  2  0  0  0
 42 44  1  0  0  0
 45 46  1  0  0  0
 46 47  1  0  0  0
 46 49  1  0  0  0
 47 48  2  0  0  0
 47 52  1  0  0  0
 49 50  1  0  0  0
 49 51  1  0  0  0
 52 53  1  0  0  0
 53 54  1  0  0  0
 53 56  1  0  0  0
 54 55  1  0  0  0
 54 57  2  0  0  0
  1 58  1  0  0  0
  1 59  1  0  0  0
  1 60  1  0  0  0
  2 61  1  0  0  0
  5 62  1  0  0  0
  5 63  1  0  0  0
  5 64  1  0  0  0
  6 65  1  0  0  0
  7 66  1  0  0  0
 10 67  1  0  0  0
 10 68  1  0  0  0
 11 69  1  0  0  0
 11 70  1  0  0  0
 12 71  1  0  0  0
 12 72  1  0  0  0
 13 73  1  0  0  0
 15 74  1  0  0  0
 15 75  1  0  0  0
 16 76  1  0  0  0
 17 77  1  0  0  0
 18 78  1  0  0  0
 21 79  1  0  0  0
 22 80  1  0  0  0
 23 81  1  0  0  0
 23 82  1  0  0  0
 23 83  1  0  0  0
 24 84  1  0  0  0
 25 85  1  0  0  0
 26 86  1  0  0  0
 26 87  1  0  0  0
 27 88  1  0  0  0
 27 89  1  0  0  0
 28 90  1  0  0  0
 28 91  1  0  0  0
 29 92  1  0  0  0
 29 93  1  0  0  0
 33 94  1  0  0  0
 33 95  1  0  0  0
 33 96  1  0  0  0
 34 97  1  0  0  0
 34 98  1  0  0  0
 34 99  1  0  0  0
 35100  1  0  0  0
 35101  1  0  0  0
 35102  1  0  0  0
 36103  1  0  0  0
 37104  1  0  0  0
 40105  1  0  0  0
 40106  1  0  0  0
 41107  1  0  0  0
 41108  1  0  0  0
 44109  1  0  0  0
 44110  1  0  0  0
 45111  1  0  0  0
 46112  1  0  0  0
 49113  1  0  0  0
 50114  1  0  0  0
 51115  1  0  0  0
 51116  1  0  0  0
 51117  1  0  0  0
 52118  1  0  0  0
 53119  1  0  0  0
 55120  1  0  0  0
 56121  1  0  0  0
 56122  1  0  0  0
 56123  1  0  0  0
M  END
$$$$
