6n9p_ligand
  -I-interpret- 

 55 58  0  0  0  0  0  0  0  0999 V2000
   18.1610    5.1510    0.7000 N   0  0  0  0  0
   18.0750    5.2870    2.0360 C   0  0  0  0  0
   19.1530    5.7720    2.7700 C   0  0  0  0  0
   20.3160    6.1370    2.0980 C   0  0  0  0  0
   18.9590    5.8950    4.2490 C   0  0  0  0  0
   18.5090    4.8610    6.3930 C   0  0  0  0  0
   18.9580    7.1500    4.8690 C   0  0  0  0  0
   17.1660    6.8730    8.8130 C   0  0  0  0  0
   14.9630    7.7900    8.4340 C   0  0  0  0  0
   17.0900    7.2740   10.1380 C   0  0  0  0  0
   22.4980    7.1700    2.1450 C   0  0  0  0  0
   24.5610    6.9960    0.8890 C   0  0  0  0  0
   23.7460    9.1670    1.5740 C   0  0  0  0  0
   25.3810   10.7360    0.0490 O   0  0  0  0  0
   24.6710   11.2610    0.8890 C   0  0  0  0  0
   24.6910   12.7590    1.1220 C   0  0  0  0  0
   23.8660   13.5020    0.1020 C   0  0  0  0  0
   23.8510   10.5650    1.6580 N   0  0  0  0  0
   22.6590    8.5550    2.1880 C   0  0  0  0  0
   23.4580    6.3820    1.5040 C   0  0  0  0  0
   24.7090    8.3860    0.9290 C   0  0  0  0  0
   21.4000    6.6260    2.7690 O   0  0  0  0  0
   16.9130    4.9370    2.6470 N   0  0  0  0  0
   19.2730    5.4950    0.0350 C   0  0  0  0  0
   20.3780    5.9930    0.7150 C   0  0  0  0  0
   18.7220    4.7560    5.0180 C   0  0  0  0  0
   18.5170    6.1150    7.0060 C   0  0  0  0  0
   18.7430    7.2600    6.2420 C   0  0  0  0  0
   18.2960    6.2250    8.3540 O   0  0  0  0  0
   16.0920    7.1360    7.9630 C   0  0  0  0  0
   14.8940    8.1880    9.7640 C   0  0  0  0  0
   15.9600    7.9310   10.6140 C   0  0  0  0  0
   18.3365    3.9642    6.9881 H   0  0  0  0  0
   19.1265    8.0476    4.2740 H   0  0  0  0  0
   14.1297    7.9919    7.7609 H   0  0  0  0  0
   17.9225    7.0728   10.8122 H   0  0  0  0  0
   25.3057    6.3860    0.3778 H   0  0  0  0  0
   25.7224   13.1022    1.0407 H   0  0  0  0  0
   24.2705   12.9556    2.1082 H   0  0  0  0  0
   24.2615   13.3073   -0.8949 H   0  0  0  0  0
   22.8315   13.1629    0.1565 H   0  0  0  0  0
   23.9106   14.5711    0.3095 H   0  0  0  0  0
   23.2738   11.0614    2.3368 H   0  0  0  0  0
   21.9225    9.1658    2.7101 H   0  0  0  0  0
   23.3512    5.2975    1.4816 H   0  0  0  0  0
   25.5717    8.8583    0.4592 H   0  0  0  0  0
   16.1331    4.5813    2.0941 H   0  0  0  0  0
   16.8206    5.0299    3.6585 H   0  0  0  0  0
   19.3108    5.3831   -1.0486 H   0  0  0  0  0
   21.2823    6.2675    0.1718 H   0  0  0  0  0
   18.7030    3.7760    4.5412 H   0  0  0  0  0
   18.7515    8.2404    6.7184 H   0  0  0  0  0
   16.1402    6.8249    6.9194 H   0  0  0  0  0
   14.0068    8.6995   10.1373 H   0  0  0  0  0
   15.9120    8.2445   11.6568 H   0  0  0  0  0
  2  1  4  0  0  0
  1 24  4  0  0  0
  3  2  4  0  0  0
  2 23  1  0  0  0
  3  4  4  0  0  0
  5  3  1  0  0  0
  4 22  1  0  0  0
  4 25  4  0  0  0
  7  5  4  0  0  0
 26  5  4  0  0  0
  6 26  4  0  0  0
 27  6  4  0  0  0
 28  7  4  0  0  0
  8 10  4  0  0  0
 29  8  1  0  0  0
  8 30  4  0  0  0
 30  9  4  0  0  0
  9 31  4  0  0  0
 10 32  4  0  0  0
 11 19  4  0  0  0
 11 20  4  0  0  0
 22 11  1  0  0  0
 20 12  4  0  0  0
 12 21  4  0  0  0
 13 18  1  0  0  0
 19 13  4  0  0  0
 13 21  4  0  0  0
 15 14  2  0  0  0
 15 16  1  0  0  0
 18 15  1  0  0  0
 16 17  1  0  0  0
 25 24  4  0  0  0
 27 28  4  0  0  0
 27 29  1  0  0  0
 31 32  4  0  0  0
  6 33  1  0  0  0
  7 34  1  0  0  0
  9 35  1  0  0  0
 10 36  1  0  0  0
 12 37  1  0  0  0
 16 38  1  0  0  0
 16 39  1  0  0  0
 17 40  1  0  0  0
 17 41  1  0  0  0
 17 42  1  0  0  0
 18 43  1  0  0  0
 19 44  1  0  0  0
 20 45  1  0  0  0
 21 46  1  0  0  0
 23 47  1  0  0  0
 23 48  1  0  0  0
 24 49  1  0  0  0
 25 50  1  0  0  0
 26 51  1  0  0  0
 28 52  1  0  0  0
 30 53  1  0  0  0
 31 54  1  0  0  0
 32 55  1  0  0  0
M  END
$$$$
