1ony_ligand
  -I-interpret- 

 75 76  0  0  0  0  0  0  0  0999 V2000
   35.6710   29.8200   23.1440 O   0  0  0  0  0
   34.7590   29.1810   23.5790 C   0  0  0  0  0
   33.9560   29.6860   24.5490 O   0  0  0  0  0
   34.4170   27.7530   23.0400 C   0  0  0  0  0
   34.5910   26.8000   23.8100 O   0  0  0  0  0
   33.9380   27.5670   21.7210 N   0  0  0  0  0
   33.4330   28.6840   21.0240 C   0  0  0  0  0
   32.0940   29.0880   21.3370 C   0  0  0  0  0
   31.4900   30.1770   20.7050 C   0  0  0  0  0
   32.1920   30.9170   19.7280 C   0  0  0  0  0
   33.5260   30.5440   19.4040 C   0  0  0  0  0
   34.1720   29.4380   20.0350 C   0  0  0  0  0
   35.5990   29.0990   19.6500 C   0  0  0  0  0
   35.7820   28.4400   18.2810 C   0  0  0  0  0
   37.2900   28.3820   17.9450 C   0  0  0  0  0
   37.7490   28.9720   16.9830 O   0  0  0  0  0
   38.0360   27.6410   18.7820 N   0  0  0  0  0
   31.5120   32.0760   19.0380 C   0  0  0  0  0
   30.9930   31.7420   17.5980 C   0  0  0  0  0
   30.3710   32.9350   17.0340 N   0  0  0  0  0
   30.4780   33.2110   15.3140 S   0  0  0  0  0
   29.3820   32.4670   14.7820 O   0  0  0  0  0
   31.8110   32.8000   14.9720 O   0  0  0  0  0
   30.2970   34.9470   15.0040 C   0  0  0  0  0
   30.0070   30.5400   17.6000 C   0  0  0  0  0
   30.4060   29.3810   17.5270 O   0  0  0  0  0
   28.7050   30.9010   17.7040 N   0  0  0  0  0
   27.6170   29.9150   17.7340 C   0  0  0  0  0
   26.4960   30.4050   18.6600 C   0  0  0  0  0
   26.9050   30.3720   20.1420 C   0  0  0  0  0
   26.2100   31.4580   20.9630 C   0  0  0  0  0
   26.0020   31.0420   22.4230 C   0  0  0  0  0
   33.9160   26.2600   21.0860 C   0  0  0  0  0
   32.6720   25.8320   20.4640 C   0  0  0  0  0
   32.5230   24.5920   19.8160 C   0  0  0  0  0
   33.6050   23.7000   19.7520 C   0  0  0  0  0
   34.8370   24.0550   20.3350 C   0  0  0  0  0
   35.0350   25.3020   21.0030 C   0  0  0  0  0
   36.4070   25.5070   21.5620 C   0  0  0  0  0
   36.9110   24.6060   22.1860 O   0  0  0  0  0
   37.0490   26.5370   21.4530 O   0  0  0  0  0
   33.2828   29.0397   24.7741 H   0  0  0  0  0
   31.5328   28.5311   22.0874 H   0  0  0  0  0
   30.4700   30.4578   20.9674 H   0  0  0  0  0
   34.0697   31.1181   18.6537 H   0  0  0  0  0
   35.9537   28.3791   20.3876 H   0  0  0  0  0
   36.1397   30.0446   19.6107 H   0  0  0  0  0
   35.2592   29.0212   17.5214 H   0  0  0  0  0
   35.3720   27.4303   18.3024 H   0  0  0  0  0
   39.0401   27.5514   18.6266 H   0  0  0  0  0
   37.5981   27.1682   19.5726 H   0  0  0  0  0
   32.2494   32.8727   18.9400 H   0  0  0  0  0
   30.6450   32.3480   19.6400 H   0  0  0  0  0
   31.8388   31.4430   16.9789 H   0  0  0  0  0
   29.8813   33.5974   17.6354 H   0  0  0  0  0
   30.2516   35.1200   13.9288 H   0  0  0  0  0
   29.3786   35.3041   15.4698 H   0  0  0  0  0
   31.1499   35.4805   15.4234 H   0  0  0  0  0
   28.4725   31.8924   17.7635 H   0  0  0  0  0
   28.0018   28.9653   18.1056 H   0  0  0  0  0
   27.2211   29.7848   16.7268 H   0  0  0  0  0
   25.6388   29.7441   18.5315 H   0  0  0  0  0
   26.2669   31.4374   18.3959 H   0  0  0  0  0
   27.9801   30.5425   20.1989 H   0  0  0  0  0
   26.6154   29.4037   20.5501 H   0  0  0  0  0
   25.2304   31.6403   20.5211 H   0  0  0  0  0
   26.8419   32.3460   20.9518 H   0  0  0  0  0
   25.3847   30.1444   22.4593 H   0  0  0  0  0
   26.9691   30.8382   22.8827 H   0  0  0  0  0
   25.5048   31.8485   22.9619 H   0  0  0  0  0
   31.8147   26.5041   20.5019 H   0  0  0  0  0
   31.5680   24.3242   19.3640 H   0  0  0  0  0
   33.4923   22.7372   19.2535 H   0  0  0  0  0
   35.6689   23.3533   20.2743 H   0  0  0  0  0
   36.5461   27.1733   20.9394 H   0  0  0  0  0
  1  2  2  0  0  0
  2  3  1  0  0  0
  2  4  1  0  0  0
  4  5  2  0  0  0
  4  6  1  0  0  0
  6  7  1  0  0  0
  6 33  1  0  0  0
  7  8  4  0  0  0
  7 12  4  0  0  0
  8  9  4  0  0  0
  9 10  4  0  0  0
 10 11  4  0  0  0
 10 18  1  0  0  0
 11 12  4  0  0  0
 12 13  1  0  0  0
 13 14  1  0  0  0
 14 15  1  0  0  0
 15 16  2  0  0  0
 15 17  1  0  0  0
 18 19  1  0  0  0
 19 20  1  0  0  0
 19 25  1  0  0  0
 20 21  1  0  0  0
 21 22  2  0  0  0
 21 23  2  0  0  0
 21 24  1  0  0  0
 25 26  2  0  0  0
 25 27  1  0  0  0
 27 28  1  0  0  0
 28 29  1  0  0  0
 29 30  1  0  0  0
 30 31  1  0  0  0
 31 32  1  0  0  0
 33 34  4  0  0  0
 33 38  4  0  0  0
 34 35  4  0  0  0
 35 36  4  0  0  0
 36 37  4  0  0  0
 37 38  4  0  0  0
 38 39  1  0  0  0
 39 40  2  0  0  0
 39 41  1  0  0  0
  3 42  1  0  0  0
  8 43  1  0  0  0
  9 44  1  0  0  0
 11 45  1  0  0  0
 13 46  1  0  0  0
 13 47  1  0  0  0
 14 48  1  0  0  0
 14 49  1  0  0  0
 17 50  1  0  0  0
 17 51  1  0  0  0
 18 52  1  0  0  0
 18 53  1  0  0  0
 19 54  1  0  0  0
 20 55  1  0  0  0
 24 56  1  0  0  0
 24 57  1  0  0  0
 24 58  1  0  0  0
 27 59  1  0  0  0
 28 60  1  0  0  0
 28 61  1  0  0  0
 29 62  1  0  0  0
 29 63  1  0  0  0
 30 64  1  0  0  0
 30 65  1  0  0  0
 31 66  1  0  0  0
 31 67  1  0  0  0
 32 68  1  0  0  0
 32 69  1  0  0  0
 32 70  1  0  0  0
 34 71  1  0  0  0
 35 72  1  0  0  0
 36 73  1  0  0  0
 37 74  1  0  0  0
 41 75  1  0  0  0
M  END
$$$$
