6huc_ligand
  -I-interpret- 

 84 85  0  0  0  0  0  0  0  0999 V2000
   55.6780 -132.9270   35.1370 C   0  0  0  0  0
   54.4000 -132.5090   34.7680 C   0  0  0  0  0
   53.7410 -133.1050   33.6920 C   0  0  0  0  0
   57.5890 -134.3760   34.8030 C   0  0  0  0  0
   58.6410 -134.2440   33.6890 C   0  0  0  0  0
   61.9360 -133.9160   35.4780 C   0  0  0  0  0
   63.6700 -132.8660   33.9990 C   0  0  0  0  0
   61.4620 -135.2040   38.9970 C   0  0  0  0  0
   64.8090 -132.5560   40.8320 C   0  0  0  0  0
   65.3600 -131.4300   40.2460 C   0  0  0  0  0
   65.4010 -130.2250   40.9290 C   0  0  0  0  0
   65.9910 -129.1320   40.2990 C   0  0  0  0  0
   65.1800 -127.9310   40.3490 N   0  3  0  0  0
   64.8820 -130.1560   42.2270 C   0  0  0  0  0
   64.3160 -131.2900   42.8140 C   0  0  0  0  0
   64.2690 -132.5170   42.1350 C   0  0  0  0  0
   63.6910 -133.5950   42.8120 C   0  0  0  0  0
   63.7200 -134.9080   41.9570 C   0  0  0  0  0
   63.4860 -136.2290   42.7310 C   0  0  0  0  0
   61.9900 -136.3890   43.1220 C   0  0  0  0  0
   61.4320 -138.1120   43.3490 S   0  0  0  0  0
   59.9480 -138.1030   43.6900 O   0  0  0  0  0
   62.1400 -138.7110   44.5380 O   0  0  0  0  0
   61.6880 -139.1370   41.9120 C   0  0  0  0  0
   62.6670 -134.7950   40.9540 N   0  0  0  0  0
   62.7060 -135.4280   39.7900 C   0  0  0  0  0
   63.6400 -136.1200   39.3810 O   0  0  0  0  0
   61.9080 -134.9670   37.6300 N   0  0  0  0  0
   61.3960 -133.9870   36.8940 C   0  0  0  0  0
   60.4930 -133.2300   37.2640 O   0  0  0  0  0
   62.9900 -132.8170   35.3730 C   0  0  0  0  0
   64.5000 -134.1520   33.8450 C   0  0  0  0  0
   64.5640 -131.6380   33.8230 C   0  0  0  0  0
   60.7400 -133.6350   34.6950 N   0  0  0  0  0
   59.9270 -134.6390   34.3600 C   0  0  0  0  0
   60.1390 -135.8220   34.6230 O   0  0  0  0  0
   58.4080 -135.1890   32.5930 N   0  0  0  0  0
   58.6180 -134.7210   31.3490 N   0  0  0  0  0
   58.8340 -134.2260   30.1150 N   0  0  0  0  0
   56.3140 -133.9470   34.4240 C   0  0  0  0  0
   54.3630 -134.1300   32.9790 C   0  0  0  0  0
   55.6400 -134.5510   33.3550 C   0  0  0  0  0
   56.1815 -132.4578   35.9823 H   0  0  0  0  0
   53.9113 -131.7096   35.3250 H   0  0  0  0  0
   52.7428 -132.7705   33.4094 H   0  0  0  0  0
   57.9117 -133.7471   35.6327 H   0  0  0  0  0
   57.5151 -135.4331   35.0584 H   0  0  0  0  0
   58.6285 -133.2412   33.2620 H   0  0  0  0  0
   62.4429 -134.8187   35.1371 H   0  0  0  0  0
   62.8991 -132.8649   33.2284 H   0  0  0  0  0
   60.8898 -134.3599   39.3821 H   0  0  0  0  0
   60.7919 -136.0617   39.0551 H   0  0  0  0  0
   64.7918 -133.4929   40.2752 H   0  0  0  0  0
   65.7661 -131.4916   39.2364 H   0  0  0  0  0
   66.1278 -129.3924   39.2494 H   0  0  0  0  0
   66.9256 -128.9190   40.8179 H   0  0  0  0  0
   65.6678 -127.1727   39.8720 H   0  0  0  0  0
   64.2871 -128.1057   39.8879 H   0  0  0  0  0
   65.0167 -127.6728   41.3222 H   0  0  0  0  0
   64.9195 -129.2173   42.7798 H   0  0  0  0  0
   63.9024 -131.2204   43.8201 H   0  0  0  0  0
   62.6504 -133.3476   43.0219 H   0  0  0  0  0
   64.2608 -133.7697   43.7247 H   0  0  0  0  0
   64.7295 -134.9787   41.5520 H   0  0  0  0  0
   64.0851 -136.2114   43.6414 H   0  0  0  0  0
   63.7712 -137.0641   42.0911 H   0  0  0  0  0
   61.4043 -135.9740   42.3017 H   0  0  0  0  0
   61.8600 -135.8872   44.0809 H   0  0  0  0  0
   61.3523 -140.1516   42.1265 H   0  0  0  0  0
   61.1191 -138.7343   41.0740 H   0  0  0  0  0
   62.7485 -139.1493   41.6604 H   0  0  0  0  0
   61.8631 -134.2012   41.1578 H   0  0  0  0  0
   62.6292 -135.5669   37.2296 H   0  0  0  0  0
   63.7409 -132.9671   36.1487 H   0  0  0  0  0
   62.5085 -131.8472   35.4988 H   0  0  0  0  0
   65.2674 -134.1824   34.6185 H   0  0  0  0  0
   63.8467 -135.0187   33.9452 H   0  0  0  0  0
   64.9720 -134.1628   32.8625 H   0  0  0  0  0
   63.9574 -130.7352   33.8949 H   0  0  0  0  0
   65.3248 -131.6292   34.6035 H   0  0  0  0  0
   65.0448 -131.6773   32.8456 H   0  0  0  0  0
   60.5261 -132.6805   34.4057 H   0  0  0  0  0
   53.8562 -134.5984   32.1353 H   0  0  0  0  0
   56.1200 -135.3625   32.8080 H   0  0  0  0  0
  1  2  4  0  0  0
 40  1  4  0  0  0
  2  3  4  0  0  0
  3 41  4  0  0  0
  5  4  1  0  0  0
  4 40  1  0  0  0
 35  5  1  0  0  0
  5 37  1  0  0  0
  6 29  1  0  0  0
  6 31  1  0  0  0
 34  6  1  0  0  0
 31  7  1  0  0  0
  7 32  1  0  0  0
  7 33  1  0  0  0
  8 26  1  0  0  0
 28  8  1  0  0  0
  9 10  4  0  0  0
 16  9  4  0  0  0
 10 11  4  0  0  0
 11 12  1  0  0  0
 14 11  4  0  0  0
 12 13  1  0  0  0
 15 14  4  0  0  0
 16 15  4  0  0  0
 17 16  1  0  0  0
 18 17  1  0  0  0
 18 19  1  0  0  0
 25 18  1  0  0  0
 19 20  1  0  0  0
 20 21  1  0  0  0
 21 22  2  0  0  0
 21 23  2  0  0  0
 21 24  1  0  0  0
 26 25  1  0  0  0
 26 27  2  0  0  0
 29 28  1  0  0  0
 29 30  2  0  0  0
 34 35  1  0  0  0
 35 36  2  0  0  0
 37 38  2  0  0  0
 38 39  3  0  0  0
 40 42  4  0  0  0
 41 42  4  0  0  0
  1 43  1  0  0  0
  2 44  1  0  0  0
  3 45  1  0  0  0
  4 46  1  0  0  0
  4 47  1  0  0  0
  5 48  1  0  0  0
  6 49  1  0  0  0
  7 50  1  0  0  0
  8 51  1  0  0  0
  8 52  1  0  0  0
  9 53  1  0  0  0
 10 54  1  0  0  0
 12 55  1  0  0  0
 12 56  1  0  0  0
 13 57  1  0  0  0
 13 58  1  0  0  0
 13 59  1  0  0  0
 14 60  1  0  0  0
 15 61  1  0  0  0
 17 62  1  0  0  0
 17 63  1  0  0  0
 18 64  1  0  0  0
 19 65  1  0  0  0
 19 66  1  0  0  0
 20 67  1  0  0  0
 20 68  1  0  0  0
 24 69  1  0  0  0
 24 70  1  0  0  0
 24 71  1  0  0  0
 25 72  1  0  0  0
 28 73  1  0  0  0
 31 74  1  0  0  0
 31 75  1  0  0  0
 32 76  1  0  0  0
 32 77  1  0  0  0
 32 78  1  0  0  0
 33 79  1  0  0  0
 33 80  1  0  0  0
 33 81  1  0  0  0
 34 82  1  0  0  0
 41 83  1  0  0  0
 42 84  1  0  0  0
M  END
$$$$
