6n3n_ligand
  -I-interpret- 

 43 45  0  0  0  0  0  0  0  0999 V2000
   -4.3600  -18.8720   22.9050 N   0  0  0  0  0
   -2.9410  -18.9500   21.0380 N   0  0  0  0  0
   -2.5440  -18.4680   19.8720 C   0  0  0  0  0
   -3.2180  -17.3610   19.3330 C   0  0  0  0  0
   -4.2810  -16.7990   20.0590 C   0  0  0  0  0
   -2.8730  -16.7720   18.0730 C   0  0  0  0  0
   -2.2830  -15.6700   15.8030 C   0  0  0  0  0
   -1.0940  -14.0800   14.4560 C   0  0  0  0  0
   -2.6160  -15.6370   13.4290 C   0  0  0  0  0
   -4.1880  -14.4220   10.5050 C   0  0  0  0  0
   -3.5330  -13.2890   10.0960 C   0  0  0  0  0
   -4.2450  -12.1350    9.9070 C   0  0  0  0  0
   -5.6060  -12.0840   10.0970 C   0  0  0  0  0
   -7.7770  -13.1320   10.7060 C   0  0  0  0  0
   -5.5610  -14.3940   10.7190 C   0  0  0  0  0
   -3.9580  -18.3810   21.6840 C   0  0  0  0  0
   -4.6210  -17.3330   21.2100 N   0  0  0  0  0
   -2.6070  -16.2680   17.0460 C   0  0  0  0  0
   -1.3690  -14.6150   15.7070 C   0  0  0  0  0
   -0.7760  -14.1110   16.8160 F   0  0  0  0  0
   -1.7130  -14.5880   13.3190 C   0  0  0  0  0
   -3.3030  -16.2290   12.3690 N   0  0  0  0  0
   -3.2060  -15.8590   10.7590 S   0  0  0  0  0
   -1.8070  -15.5810   10.4880 O   0  0  0  0  0
   -3.9370  -16.9180   10.1580 O   0  0  0  0  0
   -3.4060  -10.7230    9.4140 Cl  0  0  0  0  0
   -6.2770  -13.2160   10.5020 C   0  0  0  0  0
   -8.2730  -11.8140   10.4270 O   0  0  0  0  0
   -6.4190  -15.8130   11.2450 Cl  0  0  0  0  0
   -2.8840  -16.1700   14.6600 C   0  0  0  0  0
   -3.7470  -17.1880   14.7270 F   0  0  0  0  0
   -3.8794  -19.6722   23.3162 H   0  0  0  0  0
   -5.1386  -18.4358   23.3988 H   0  0  0  0  0
   -1.7085  -18.9222   19.3393 H   0  0  0  0  0
   -4.8164  -15.9317   19.6726 H   0  0  0  0  0
   -0.3873  -13.2552   14.3641 H   0  0  0  0  0
   -2.4569  -13.3069    9.9232 H   0  0  0  0  0
   -6.1495  -11.1544    9.9282 H   0  0  0  0  0
   -7.9979  -13.3709   11.7463 H   0  0  0  0  0
   -8.2580  -13.8334   10.0242 H   0  0  0  0  0
   -1.4891  -14.1624   12.3408 H   0  0  0  0  0
   -3.9440  -16.9827   12.6168 H   0  0  0  0  0
   -9.2228  -11.7948   10.5653 H   0  0  0  0  0
 16  1  1  0  0  0
  3  2  4  0  0  0
  2 16  4  0  0  0
  4  3  4  0  0  0
  4  5  4  0  0  0
  6  4  1  0  0  0
  5 17  4  0  0  0
 18  6  3  0  0  0
  7 18  1  0  0  0
  7 19  4  0  0  0
 30  7  4  0  0  0
  8 19  4  0  0  0
 21  8  4  0  0  0
  9 21  4  0  0  0
 22  9  1  0  0  0
  9 30  4  0  0  0
 10 11  4  0  0  0
 10 15  4  0  0  0
 23 10  1  0  0  0
 11 12  4  0  0  0
 12 13  4  0  0  0
 12 26  1  0  0  0
 27 13  4  0  0  0
 27 14  1  0  0  0
 14 28  1  0  0  0
 15 27  4  0  0  0
 15 29  1  0  0  0
 17 16  4  0  0  0
 19 20  1  0  0  0
 22 23  1  0  0  0
 23 24  2  0  0  0
 23 25  2  0  0  0
 30 31  1  0  0  0
  1 32  1  0  0  0
  1 33  1  0  0  0
  3 34  1  0  0  0
  5 35  1  0  0  0
  8 36  1  0  0  0
 11 37  1  0  0  0
 13 38  1  0  0  0
 14 39  1  0  0  0
 14 40  1  0  0  0
 21 41  1  0  0  0
 22 42  1  0  0  0
 28 43  1  0  0  0
M  END
$$$$
