5uit_ligand
  -I-interpret- 

 46 48  0  0  0  0  0  0  0  0999 V2000
  -26.5530  -39.1360    5.5850 N   0  0  0  0  0
  -25.6120  -39.4230    8.4230 C   0  0  0  0  0
  -26.0610  -38.0930   13.8490 N   0  0  0  0  0
  -22.8720  -39.0360    8.8090 C   0  0  0  0  0
  -23.7360  -39.1630    9.9040 C   0  0  0  0  0
  -21.0410  -38.6830   10.3390 C   0  0  0  0  0
  -25.4380  -40.3360   14.3780 C   0  0  0  0  0
  -21.4900  -38.7890    9.0460 C   0  0  0  0  0
  -25.2220  -39.3070    5.8740 C   0  0  0  0  0
  -23.4060  -39.1250    7.4980 C   0  0  0  0  0
  -24.4240  -39.4380    4.9410 O   0  0  0  0  0
  -24.7580  -39.2880    7.2890 C   0  0  0  0  0
  -26.9370  -39.5480    8.1490 O   0  0  0  0  0
  -27.8380  -39.7450    9.2300 C   0  0  0  0  0
  -29.1890  -39.2480    8.7080 C   0  0  0  0  0
  -27.8830  -41.2450    9.5350 C   0  0  0  0  0
  -21.8550  -38.7740   11.4530 N   0  0  0  0  0
  -23.1480  -39.0040   11.2080 C   0  0  0  0  0
  -25.1130  -39.3810    9.7060 C   0  0  0  0  0
  -24.0410  -39.1050   12.2260 O   0  0  0  0  0
  -23.6530  -38.6820   13.5160 C   0  0  0  0  0
  -24.9330  -38.8690   14.3710 C   0  0  0  0  0
  -27.0590  -38.8880   13.3000 C   0  0  0  0  0
  -28.0290  -38.4340   12.7050 O   0  0  0  0  0
  -26.7480  -40.3410   13.5740 C   0  0  0  0  0
  -26.8660  -39.1190    4.6144 H   0  0  0  0  0
  -27.2290  -39.0259    6.3409 H   0  0  0  0  0
  -26.1084  -37.0747   13.8850 H   0  0  0  0  0
  -19.9755  -38.5166   10.4974 H   0  0  0  0  0
  -25.5996  -40.6916   15.3956 H   0  0  0  0  0
  -24.7022  -41.0075   13.9355 H   0  0  0  0  0
  -20.7970  -38.6853    8.2111 H   0  0  0  0  0
  -22.7352  -39.0634    6.6411 H   0  0  0  0  0
  -27.5568  -39.2220   10.1441 H   0  0  0  0  0
  -29.1071  -38.1957    8.4360 H   0  0  0  0  0
  -29.4748  -39.8299    7.8317 H   0  0  0  0  0
  -29.9433  -39.3659    9.4859 H   0  0  0  0  0
  -28.2272  -41.7838    8.6522 H   0  0  0  0  0
  -26.8851  -41.5894    9.8063 H   0  0  0  0  0
  -28.5687  -41.4257   10.3628 H   0  0  0  0  0
  -25.7774  -39.5152   10.5596 H   0  0  0  0  0
  -23.2969  -37.6518   13.5240 H   0  0  0  0  0
  -22.8098  -39.2542   13.9029 H   0  0  0  0  0
  -24.6352  -38.5431   15.3676 H   0  0  0  0  0
  -27.5537  -40.8247   14.1263 H   0  0  0  0  0
  -26.6469  -40.9091   12.6492 H   0  0  0  0  0
  9  1  1  0  0  0
  2 12  4  0  0  0
  2 13  1  0  0  0
 19  2  4  0  0  0
 22  3  1  0  0  0
  3 23  1  0  0  0
  5  4  4  0  0  0
  4  8  4  0  0  0
  4 10  4  0  0  0
 18  5  4  0  0  0
  5 19  4  0  0  0
  6  8  4  0  0  0
 17  6  4  0  0  0
 22  7  1  0  0  0
  7 25  1  0  0  0
  9 11  2  0  0  0
 12  9  1  0  0  0
 10 12  4  0  0  0
 13 14  1  0  0  0
 14 15  1  0  0  0
 14 16  1  0  0  0
 18 17  4  0  0  0
 20 18  1  0  0  0
 21 20  1  0  0  0
 21 22  1  0  0  0
 23 24  2  0  0  0
 23 25  1  0  0  0
  1 26  1  0  0  0
  1 27  1  0  0  0
  3 28  1  0  0  0
  6 29  1  0  0  0
  7 30  1  0  0  0
  7 31  1  0  0  0
  8 32  1  0  0  0
 10 33  1  0  0  0
 14 34  1  0  0  0
 15 35  1  0  0  0
 15 36  1  0  0  0
 15 37  1  0  0  0
 16 38  1  0  0  0
 16 39  1  0  0  0
 16 40  1  0  0  0
 19 41  1  0  0  0
 21 42  1  0  0  0
 21 43  1  0  0  0
 22 44  1  0  0  0
 25 45  1  0  0  0
 25 46  1  0  0  0
M  END
$$$$
