5fou_ligand
  -I-interpret- 

 69 71  0  0  0  0  0  0  0  0999 V2000
   28.3530    1.8380   40.0450 C   0  0  0  0  0
   27.9820    3.0000   40.1960 O   0  0  0  0  0
   29.6590    1.4990   39.3810 C   0  0  0  0  0
   27.6190    0.7870   40.3950 N   0  0  0  0  0
   26.3510    0.9440   41.0970 C   0  0  0  0  0
   26.5730    1.2820   42.5730 C   0  0  0  0  0
   27.4890    0.7460   43.2110 O   0  0  0  0  0
   25.5080   -0.3260   40.9710 C   0  0  0  0  0
   25.0380   -0.6080   39.5730 C   0  0  0  0  0
   25.8230   -1.3430   38.6870 C   0  0  0  0  0
   23.8110   -0.1320   39.1380 C   0  0  0  0  0
   25.3890   -1.5980   37.3800 C   0  0  0  0  0
   23.3690   -0.3790   37.8370 C   0  0  0  0  0
   24.1560   -1.1190   36.9570 C   0  0  0  0  0
   25.7510    2.1850   43.1020 N   0  0  0  0  0
   25.7910    2.5460   44.5270 C   0  0  0  0  0
   24.3700    2.6650   45.0730 C   0  0  0  0  0
   23.4750    3.0090   44.3210 O   0  0  0  0  0
   26.5200    3.8740   44.7380 C   0  0  0  0  0
   27.8950    3.9220   44.1490 C   0  0  0  0  0
   28.9830    3.3210   44.7470 N   0  0  0  0  0
   28.3630    4.5200   43.0280 C   0  0  0  0  0
   30.0600    3.5370   44.0140 C   0  0  0  0  0
   29.7130    4.2620   42.9650 N   0  0  0  0  0
   24.1590    2.4140   46.3840 N   0  0  0  0  0
   22.8110    2.6060   46.9500 C   0  0  0  0  0
   22.2800    4.0270   46.7350 C   0  0  0  0  0
   23.0590    4.9800   46.8010 O   0  0  0  0  0
   23.0080    2.3290   48.4460 C   0  0  0  0  0
   24.2360    1.4880   48.5270 C   0  0  0  0  0
   25.1260    1.9470   47.3970 C   0  0  0  0  0
   20.9710    4.1570   46.5170 N   0  0  0  0  0
   20.3540    5.4210   46.1130 C   0  0  0  0  0
   20.1920    6.4460   47.2280 C   0  0  0  0  0
   19.9410    7.6190   46.9540 O   0  0  0  0  0
   18.9960    5.1520   45.4840 C   0  0  0  0  0
   20.3070    6.0020   48.4730 N   0  0  0  0  0
   29.6601    1.8900   38.3636 H   0  0  0  0  0
   30.4783    1.9459   39.9442 H   0  0  0  0  0
   29.7819    0.4163   39.3556 H   0  0  0  0  0
   27.9502   -0.1505   40.1674 H   0  0  0  0  0
   25.8152    1.7727   40.6342 H   0  0  0  0  0
   24.6212   -0.1892   41.5898 H   0  0  0  0  0
   26.1353   -1.1632   41.2772 H   0  0  0  0  0
   26.7893   -1.7252   39.0160 H   0  0  0  0  0
   23.1837    0.4421   39.8199 H   0  0  0  0  0
   26.0168   -2.1704   36.6972 H   0  0  0  0  0
   22.4046    0.0085   37.5084 H   0  0  0  0  0
   23.8066   -1.3204   35.9444 H   0  0  0  0  0
   25.0689    2.6430   42.4975 H   0  0  0  0  0
   26.3301    1.7611   45.0574 H   0  0  0  0  0
   26.6268    4.0139   45.8137 H   0  0  0  0  0
   25.9313    4.6455   44.2416 H   0  0  0  0  0
   27.7799    5.0972   42.3104 H   0  0  0  0  0
   31.0649    3.1781   44.2365 H   0  0  0  0  0
   22.0769    1.9556   46.4744 H   0  0  0  0  0
   22.1446    1.8242   48.8794 H   0  0  0  0  0
   23.1134    3.2519   49.0162 H   0  0  0  0  0
   23.9969    0.4283   48.4373 H   0  0  0  0  0
   24.7306    1.6013   49.4917 H   0  0  0  0  0
   25.8289    2.7229   47.7004 H   0  0  0  0  0
   25.7796    1.1576   47.0258 H   0  0  0  0  0
   20.3733    3.3393   46.6371 H   0  0  0  0  0
   21.0485    5.8630   45.3985 H   0  0  0  0  0
   19.1223    4.5153   44.6084 H   0  0  0  0  0
   18.3539    4.6518   46.2090 H   0  0  0  0  0
   18.5418    6.0968   45.1854 H   0  0  0  0  0
   20.1860    6.6437   49.2565 H   0  0  0  0  0
   20.5164    5.0189   48.6466 H   0  0  0  0  0
  1  2  2  0  0  0
  1  3  1  0  0  0
  1  4  1  0  0  0
  4  5  1  0  0  0
  5  6  1  0  0  0
  5  8  1  0  0  0
  6  7  2  0  0  0
  6 15  1  0  0  0
  8  9  1  0  0  0
  9 10  4  0  0  0
  9 11  4  0  0  0
 10 12  4  0  0  0
 11 13  4  0  0  0
 12 14  4  0  0  0
 13 14  4  0  0  0
 15 16  1  0  0  0
 16 17  1  0  0  0
 16 19  1  0  0  0
 17 18  2  0  0  0
 17 25  1  0  0  0
 19 20  1  0  0  0
 20 21  4  0  0  0
 20 22  4  0  0  0
 21 23  4  0  0  0
 22 24  4  0  0  0
 23 24  4  0  0  0
 25 26  1  0  0  0
 25 31  1  0  0  0
 26 27  1  0  0  0
 26 29  1  0  0  0
 27 28  2  0  0  0
 27 32  1  0  0  0
 29 30  1  0  0  0
 30 31  1  0  0  0
 32 33  1  0  0  0
 33 34  1  0  0  0
 33 36  1  0  0  0
 34 35  2  0  0  0
 34 37  1  0  0  0
  3 38  1  0  0  0
  3 39  1  0  0  0
  3 40  1  0  0  0
  4 41  1  0  0  0
  5 42  1  0  0  0
  8 43  1  0  0  0
  8 44  1  0  0  0
 10 45  1  0  0  0
 11 46  1  0  0  0
 12 47  1  0  0  0
 13 48  1  0  0  0
 14 49  1  0  0  0
 15 50  1  0  0  0
 16 51  1  0  0  0
 19 52  1  0  0  0
 19 53  1  0  0  0
 22 54  1  0  0  0
 23 55  1  0  0  0
 26 56  1  0  0  0
 29 57  1  0  0  0
 29 58  1  0  0  0
 30 59  1  0  0  0
 30 60  1  0  0  0
 31 61  1  0  0  0
 31 62  1  0  0  0
 32 63  1  0  0  0
 33 64  1  0  0  0
 36 65  1  0  0  0
 36 66  1  0  0  0
 36 67  1  0  0  0
 37 68  1  0  0  0
 37 69  1  0  0  0
M  END
$$$$
