4c2v_ligand
  -I-interpret- 

 67 70  0  0  0  0  0  0  0  0999 V2000
    2.0950  -19.2810    6.6240 C   0  0  0  0  0
    1.0200  -18.4600    6.4090 C   0  0  0  0  0
    0.1820  -18.7520    5.2160 F   0  0  0  0  0
    0.7410  -17.4060    7.2780 C   0  0  0  0  0
    1.5450  -17.1750    8.3790 C   0  0  0  0  0
    2.6510  -17.9820    8.5770 C   0  0  0  0  0
    2.9760  -19.0160    7.6700 C   0  0  0  0  0
    4.0820  -19.8050    8.0100 N   0  0  0  0  0
    4.5330  -20.8590    7.2960 C   0  0  0  0  0
    4.3160  -21.1360    6.1040 O   0  0  0  0  0
    5.6520  -21.6350    8.0970 C   0  0  0  0  0
    6.1230  -22.8550    7.2470 C   0  0  0  0  0
    7.3890  -23.1300    6.7770 C   0  0  0  0  0
    5.3080  -23.8220    6.8850 N   0  0  0  0  0
    6.0040  -24.6920    6.2280 N   0  0  0  0  0
    7.2920  -24.3060    6.1110 C   0  0  0  0  0
    8.1900  -25.1380    5.4380 N   0  0  0  0  0
    9.5710  -25.0590    5.5450 C   0  0  0  0  0
   10.1710  -23.9850    6.1660 N   0  0  0  0  0
   11.4770  -24.0100    6.3210 C   0  0  0  0  0
   12.3670  -24.9050    5.8850 N   0  0  0  0  0
   11.8440  -26.0060    5.2400 C   0  0  0  0  0
   12.7480  -27.0320    4.8570 C   0  0  0  0  0
   10.4290  -26.1030    5.0630 C   0  0  0  0  0
   10.0260  -27.2810    4.3970 C   0  0  0  0  0
   10.9250  -28.2890    3.9740 C   0  0  0  0  0
   12.3240  -28.1530    4.1650 C   0  0  0  0  0
   13.2020  -29.1010    3.6970 O   0  0  0  0  0
   14.6120  -28.8410    3.8680 C   0  0  0  0  0
   15.3910  -29.9410    3.1840 C   0  0  0  0  0
   14.8710  -31.2850    3.6500 C   0  0  0  0  0
   15.5330  -32.4540    2.9970 N   0  3  0  0  0
   16.9510  -32.5680    3.4030 C   0  0  0  0  0
   17.0400  -33.6360    4.5130 C   0  0  0  0  0
   15.4510  -32.6490    1.5270 C   0  0  0  0  0
   14.3040  -31.8430    0.8580 C   0  0  0  0  0
   14.4640  -32.2600   -0.5080 O   0  0  0  0  0
    2.2612  -20.1419    5.9765 H   0  0  0  0  0
   -0.1162  -16.7601    7.0883 H   0  0  0  0  0
    1.3116  -16.3719    9.0780 H   0  0  0  0  0
    3.2838  -17.8173    9.4491 H   0  0  0  0  0
    4.5863  -19.5649    8.8635 H   0  0  0  0  0
    5.2518  -21.9809    9.0500 H   0  0  0  0  0
    6.4951  -20.9719    8.2906 H   0  0  0  0  0
    8.2854  -22.5250    6.9132 H   0  0  0  0  0
    7.8027  -25.8547    4.8242 H   0  0  0  0  0
   11.8939  -23.1781    6.8886 H   0  0  0  0  0
   13.8026  -26.9341    5.1146 H   0  0  0  0  0
    8.9637  -27.4219    4.1976 H   0  0  0  0  0
   10.5353  -29.1860    3.4928 H   0  0  0  0  0
   14.8589  -28.8158    4.9294 H   0  0  0  0  0
   14.8677  -27.8767    3.4290 H   0  0  0  0  0
   16.4478  -29.8510    3.4354 H   0  0  0  0  0
   15.2702  -29.8570    2.1040 H   0  0  0  0  0
   13.8126  -31.3284    3.3929 H   0  0  0  0  0
   15.0721  -31.3559    4.7190 H   0  0  0  0  0
   14.9364  -33.1986    3.3577 H   0  0  0  0  0
   17.3175  -31.6094    3.7702 H   0  0  0  0  0
   17.5664  -32.8561    2.5507 H   0  0  0  0  0
   16.4270  -33.3293    5.3605 H   0  0  0  0  0
   16.6787  -34.5895    4.1278 H   0  0  0  0  0
   18.0770  -33.7410    4.8321 H   0  0  0  0  0
   15.2565  -33.7063    1.3472 H   0  0  0  0  0
   16.3902  -32.3004    1.0974 H   0  0  0  0  0
   14.3659  -30.7652    1.0084 H   0  0  0  0  0
   13.3158  -32.0389    1.2742 H   0  0  0  0  0
   13.8021  -31.8280   -1.0529 H   0  0  0  0  0
  1  2  4  0  0  0
  1  7  4  0  0  0
  2  3  1  0  0  0
  2  4  4  0  0  0
  4  5  4  0  0  0
  5  6  4  0  0  0
  6  7  4  0  0  0
  7  8  1  0  0  0
  8  9  1  0  0  0
  9 10  2  0  0  0
  9 11  1  0  0  0
 11 12  1  0  0  0
 12 13  4  0  0  0
 12 14  4  0  0  0
 13 16  4  0  0  0
 14 15  4  0  0  0
 15 16  4  0  0  0
 16 17  1  0  0  0
 17 18  1  0  0  0
 18 19  4  0  0  0
 18 24  4  0  0  0
 19 20  4  0  0  0
 20 21  4  0  0  0
 21 22  4  0  0  0
 22 23  4  0  0  0
 22 24  4  0  0  0
 23 27  4  0  0  0
 24 25  4  0  0  0
 25 26  4  0  0  0
 26 27  4  0  0  0
 27 28  1  0  0  0
 28 29  1  0  0  0
 29 30  1  0  0  0
 30 31  1  0  0  0
 31 32  1  0  0  0
 32 33  1  0  0  0
 32 35  1  0  0  0
 33 34  1  0  0  0
 35 36  1  0  0  0
 36 37  1  0  0  0
  1 38  1  0  0  0
  4 39  1  0  0  0
  5 40  1  0  0  0
  6 41  1  0  0  0
  8 42  1  0  0  0
 11 43  1  0  0  0
 11 44  1  0  0  0
 13 45  1  0  0  0
 17 46  1  0  0  0
 20 47  1  0  0  0
 23 48  1  0  0  0
 25 49  1  0  0  0
 26 50  1  0  0  0
 29 51  1  0  0  0
 29 52  1  0  0  0
 30 53  1  0  0  0
 30 54  1  0  0  0
 31 55  1  0  0  0
 31 56  1  0  0  0
 32 57  1  0  0  0
 33 58  1  0  0  0
 33 59  1  0  0  0
 34 60  1  0  0  0
 34 61  1  0  0  0
 34 62  1  0  0  0
 35 63  1  0  0  0
 35 64  1  0  0  0
 36 65  1  0  0  0
 36 66  1  0  0  0
 37 67  1  0  0  0
M  END
$$$$
