5j6a_ligand
  -I-interpret- 

 65 68  0  0  0  0  0  0  0  0999 V2000
  -58.4970   11.1990    9.1860 C   0  0  0  0  0
  -59.0660   10.7830   10.3960 C   0  0  0  0  0
  -61.2210   10.3880    9.2360 C   0  0  0  0  0
  -60.5800   10.8370    8.0730 C   0  0  0  0  0
  -63.3050   10.1050    7.8710 O   0  0  0  0  0
  -65.1180   10.8430   10.4930 C   0  0  0  0  0
  -65.7360   12.2230   10.7270 C   0  0  0  0  0
  -64.8130   13.1970   10.3520 C   0  0  0  0  0
  -63.5400   12.5440    9.8590 C   0  0  0  0  0
  -65.1460   14.5520   10.4720 C   0  0  0  0  0
  -60.4190   10.4090   10.3900 C   0  0  0  0  0
  -59.2550   11.2330    8.0230 C   0  0  0  0  0
  -62.8390    9.9520    9.2030 S   0  0  0  0  0
  -62.9890    8.7080    9.8740 O   0  0  0  0  0
  -63.7120   11.0510   10.0660 N   0  0  0  0  0
  -66.4130   14.9260   10.9720 C   0  0  0  0  0
  -67.3510   13.9670   11.3550 C   0  0  0  0  0
  -66.9770   12.5790   11.2130 C   0  0  0  0  0
  -68.6400   14.2730   11.8540 N   0  0  0  0  0
  -69.7080   13.3230   12.1220 C   0  0  0  0  0
  -71.1500   13.9300   12.1910 C   0  0  0  0  0
  -72.2350   12.9420   12.5970 C   0  0  0  0  0
  -71.9390   12.2750   13.8790 N   0  0  0  0  0
  -70.6500   11.5690   13.8060 C   0  0  0  0  0
  -69.5210   12.5310   13.4490 C   0  0  0  0  0
  -72.7870   12.3400   14.9920 C   0  0  0  0  0
  -74.1690   13.1060   15.0340 C   0  0  0  0  0
  -73.9820   14.6540   15.2480 C   0  0  0  0  0
  -74.2300   15.4170   13.9640 C   0  0  0  0  0
  -73.3280   15.9690   13.3380 O   0  0  0  0  0
  -75.5280   15.4780   13.4650 N   0  0  0  0  0
  -74.9760   12.5340   16.1020 N   0  3  0  0  0
  -72.4280   11.7400   16.0140 O   0  0  0  0  0
  -61.0220    9.9920   11.5720 O   0  0  0  0  0
  -57.2010   11.5820    9.1470 O   0  0  0  0  0
  -58.4774   10.7506   11.3128 H   0  0  0  0  0
  -61.1609   10.8766    7.1515 H   0  0  0  0  0
  -65.6731   10.3015    9.7270 H   0  0  0  0  0
  -65.1554   10.2486   11.4059 H   0  0  0  0  0
  -62.6739   12.9161   10.4062 H   0  0  0  0  0
  -63.3656   12.7742    8.8080 H   0  0  0  0  0
  -64.4276   15.3178   10.1796 H   0  0  0  0  0
  -58.8127   11.5668    7.0843 H   0  0  0  0  0
  -66.6624   15.9834   11.0602 H   0  0  0  0  0
  -67.6865   11.8008   11.4943 H   0  0  0  0  0
  -68.8390   15.2552   12.0440 H   0  0  0  0  0
  -69.6270   12.6725   11.2512 H   0  0  0  0  0
  -71.3966   14.2789   11.1882 H   0  0  0  0  0
  -71.1303   14.7109   12.9512 H   0  0  0  0  0
  -72.2980   12.1750   11.8251 H   0  0  0  0  0
  -73.1675   13.4945   12.7123 H   0  0  0  0  0
  -70.7139   10.8021   13.0341 H   0  0  0  0  0
  -70.4379   11.1256   14.7789 H   0  0  0  0  0
  -69.4800   13.2709   14.2483 H   0  0  0  0  0
  -68.6245   11.9238   13.3238 H   0  0  0  0  0
  -74.6691   12.9852   14.0731 H   0  0  0  0  0
  -72.9577   14.8397   15.5712 H   0  0  0  0  0
  -74.6982   14.9911   15.9973 H   0  0  0  0  0
  -75.7168   15.9746   12.5943 H   0  0  0  0  0
  -76.2903   15.0261   13.9701 H   0  0  0  0  0
  -75.8735   13.0168   16.1442 H   0  0  0  0  0
  -75.1301   11.5429   15.9165 H   0  0  0  0  0
  -74.4878   12.6429   16.9910 H   0  0  0  0  0
  -61.9410    9.7732   11.4012 H   0  0  0  0  0
  -56.9701   11.8351    8.2502 H   0  0  0  0  0
  2  1  4  0  0  0
 12  1  4  0  0  0
  1 35  1  0  0  0
 11  2  4  0  0  0
  3  4  4  0  0  0
  3 11  4  0  0  0
 13  3  1  0  0  0
  4 12  4  0  0  0
 13  5  2  0  0  0
  6  7  1  0  0  0
 15  6  1  0  0  0
  8  7  4  0  0  0
  7 18  4  0  0  0
  9  8  1  0  0  0
  8 10  4  0  0  0
 15  9  1  0  0  0
 10 16  4  0  0  0
 11 34  1  0  0  0
 13 14  2  0  0  0
 13 15  1  0  0  0
 16 17  4  0  0  0
 17 18  4  0  0  0
 17 19  1  0  0  0
 19 20  1  0  0  0
 20 21  1  0  0  0
 20 25  1  0  0  0
 21 22  1  0  0  0
 22 23  1  0  0  0
 23 24  1  0  0  0
 23 26  1  0  0  0
 24 25  1  0  0  0
 26 27  1  0  0  0
 26 33  2  0  0  0
 27 28  1  0  0  0
 27 32  1  0  0  0
 28 29  1  0  0  0
 29 30  2  0  0  0
 29 31  1  0  0  0
  2 36  1  0  0  0
  4 37  1  0  0  0
  6 38  1  0  0  0
  6 39  1  0  0  0
  9 40  1  0  0  0
  9 41  1  0  0  0
 10 42  1  0  0  0
 12 43  1  0  0  0
 16 44  1  0  0  0
 18 45  1  0  0  0
 19 46  1  0  0  0
 20 47  1  0  0  0
 21 48  1  0  0  0
 21 49  1  0  0  0
 22 50  1  0  0  0
 22 51  1  0  0  0
 24 52  1  0  0  0
 24 53  1  0  0  0
 25 54  1  0  0  0
 25 55  1  0  0  0
 27 56  1  0  0  0
 28 57  1  0  0  0
 28 58  1  0  0  0
 31 59  1  0  0  0
 31 60  1  0  0  0
 32 61  1  0  0  0
 32 62  1  0  0  0
 32 63  1  0  0  0
 34 64  1  0  0  0
 35 65  1  0  0  0
M  END
$$$$
