6f29_ligand
  -I-interpret- 

 27 28  0  0  0  0  0  0  0  0999 V2000
   -4.3330   30.2510  -12.8070 N   0  3  0  0  0
   -3.1530   29.7900  -13.5330 C   0  0  0  0  0
   -2.1170   30.8680  -13.3680 C   0  0  0  0  0
   -2.5430   31.9270  -12.8490 O   0  0  0  0  0
   -3.4060   29.5390  -15.0280 C   0  0  0  0  0
   -0.9640   30.6030  -13.7540 O   0  0  0  0  0
   -7.8690   27.8470  -15.8100 C   0  0  0  0  0
   -6.2990   29.8570  -15.6180 C   0  0  0  0  0
   -6.5360   27.5320  -15.5270 C   0  0  0  0  0
   -5.6700   28.6030  -15.4210 C   0  0  0  0  0
   -6.0540   26.2880  -15.3710 C   0  0  0  0  0
   -3.8410   27.1470  -14.9900 C   0  0  0  0  0
   -4.6920   26.0450  -15.0900 N   0  0  0  0  0
   -4.3410   28.3950  -15.1620 N   0  0  0  0  0
   -6.7990   25.3080  -15.4510 O   0  0  0  0  0
   -2.6530   26.9510  -14.7550 O   0  0  0  0  0
   -8.0730   29.5860  -15.3950 S   0  0  0  0  0
   -4.0923   30.3962  -11.8265 H   0  0  0  0  0
   -4.6585   31.1288  -13.2120 H   0  0  0  0  0
   -5.0697   29.5490  -12.8772 H   0  0  0  0  0
   -2.8386   28.8281  -13.1281 H   0  0  0  0  0
   -3.4789   31.8337  -12.6565 H   0  0  0  0  0
   -2.4662   29.3121  -15.5313 H   0  0  0  0  0
   -3.8383   30.4284  -15.4865 H   0  0  0  0  0
   -8.6312   27.1742  -16.2030 H   0  0  0  0  0
   -5.8093   30.8009  -15.8573 H   0  0  0  0  0
   -4.3413   25.0955  -14.9642 H   0  0  0  0  0
  2  1  1  0  0  0
  2  3  1  0  0  0
  5  2  1  0  0  0
  3  4  1  0  0  0
  3  6  2  0  0  0
 14  5  1  0  0  0
  9  7  4  0  0  0
  7 17  4  0  0  0
 10  8  4  0  0  0
  8 17  4  0  0  0
 10  9  4  0  0  0
  9 11  1  0  0  0
 10 14  1  0  0  0
 11 13  1  0  0  0
 11 15  2  0  0  0
 13 12  1  0  0  0
 12 14  1  0  0  0
 12 16  2  0  0  0
  1 18  1  0  0  0
  1 19  1  0  0  0
  1 20  1  0  0  0
  2 21  1  0  0  0
  4 22  1  0  0  0
  5 23  1  0  0  0
  5 24  1  0  0  0
  7 25  1  0  0  0
  8 26  1  0  0  0
 13 27  1  0  0  0
M  END
$$$$
