2y8l_ligand
  -I-interpret- 

 42 44  0  0  0  0  0  0  0  0999 V2000
   -2.5640   -7.7480  -37.6150 P   0  0  0  0  0
   -1.7110   -6.5300  -37.3160 O   0  0  0  0  0
   -4.0330   -7.4630  -37.5130 O   0  0  0  0  0
   -2.1150   -8.6650  -38.7020 O   0  0  0  0  0
   -2.6900  -10.1150  -35.9790 P   0  0  0  0  0
   -1.5450  -10.5190  -35.0980 O   0  0  0  0  0
   -2.9300  -10.9290  -37.2140 O   0  0  0  0  0
   -2.3580   -8.5860  -36.2750 O   0  0  0  0  0
   -4.0140  -10.0150  -35.0950 O   0  0  0  0  0
   -4.8790  -11.1330  -34.9320 C   0  0  0  0  0
   -5.7480  -11.0510  -33.6650 C   0  0  0  0  0
   -5.0140  -11.5060  -32.5250 O   0  0  0  0  0
   -6.2470   -9.6590  -33.2960 C   0  0  0  0  0
   -7.5650   -9.7710  -32.7160 O   0  0  0  0  0
   -5.2580   -9.1820  -32.2550 C   0  0  0  0  0
   -5.8120   -8.2420  -31.3290 O   0  0  0  0  0
   -4.8320  -10.4610  -31.5590 C   0  0  0  0  0
   -3.4030  -10.3670  -31.1530 N   0  0  0  0  0
   -2.3950   -9.8350  -31.8790 C   0  0  0  0  0
   -1.2210   -9.9140  -31.2150 N   0  0  0  0  0
   -1.4720  -10.5140  -30.0300 C   0  0  0  0  0
   -0.6900  -10.9150  -28.8270 C   0  0  0  0  0
    0.6300  -10.6790  -28.7610 N   0  0  0  0  0
   -1.3470  -11.5130  -27.7890 N   0  0  0  0  0
   -2.6750  -11.7560  -27.8400 C   0  0  0  0  0
   -3.4350  -11.4200  -28.9000 N   0  0  0  0  0
   -2.9110  -10.8090  -29.9970 C   0  0  0  0  0
   -2.1100   -6.0291  -36.6008 H   0  0  0  0  0
   -4.1915   -6.8643  -36.7795 H   0  0  0  0  0
   -1.4963   -9.9246  -34.3457 H   0  0  0  0  0
   -4.2549  -12.0225  -34.8462 H   0  0  0  0  0
   -5.5501  -11.1580  -35.7905 H   0  0  0  0  0
   -6.6087  -11.6724  -33.9124 H   0  0  0  0  0
   -6.3158   -8.9809  -34.1466 H   0  0  0  0  0
   -7.8854   -8.8970  -32.4812 H   0  0  0  0  0
   -4.4311   -8.6364  -32.7096 H   0  0  0  0  0
   -5.1373   -7.9802  -30.6983 H   0  0  0  0  0
   -5.4127  -10.6479  -30.6557 H   0  0  0  0  0
   -2.5136   -9.3990  -32.8709 H   0  0  0  0  0
    1.1058  -10.2215  -29.5386 H   0  0  0  0  0
    1.1571  -10.9572  -27.9332 H   0  0  0  0  0
   -3.1506  -12.2436  -26.9890 H   0  0  0  0  0
  1  2  1  0  0  0
  1  3  1  0  0  0
  1  4  2  0  0  0
  8  1  1  0  0  0
  5  6  1  0  0  0
  5  7  2  0  0  0
  5  8  1  0  0  0
  5  9  1  0  0  0
  9 10  1  0  0  0
 10 11  1  0  0  0
 11 12  1  0  0  0
 11 13  1  0  0  0
 12 17  1  0  0  0
 13 14  1  0  0  0
 13 15  1  0  0  0
 15 16  1  0  0  0
 15 17  1  0  0  0
 17 18  1  0  0  0
 18 19  4  0  0  0
 18 27  4  0  0  0
 19 20  4  0  0  0
 20 21  4  0  0  0
 21 22  4  0  0  0
 21 27  4  0  0  0
 22 23  1  0  0  0
 22 24  4  0  0  0
 24 25  4  0  0  0
 25 26  4  0  0  0
 26 27  4  0  0  0
  2 28  1  0  0  0
  3 29  1  0  0  0
  6 30  1  0  0  0
 10 31  1  0  0  0
 10 32  1  0  0  0
 11 33  1  0  0  0
 13 34  1  0  0  0
 14 35  1  0  0  0
 15 36  1  0  0  0
 16 37  1  0  0  0
 17 38  1  0  0  0
 19 39  1  0  0  0
 23 40  1  0  0  0
 23 41  1  0  0  0
 25 42  1  0  0  0
M  END
$$$$
