### 
### Created by X-TOOL on Mon Sep 10 21:13:07 2018
### 

@<TRIPOS>MOLECULE
2y8l_ligand
   39    41     1     0     0
SMALL
GAST_HUCK


@<TRIPOS>ATOM
      1 PB         -2.5640   -7.7480  -37.6150 P.3       1 ADP         0.2069
      2 O1B        -1.7110   -6.5300  -37.3160 O.co2     1 ADP        -0.5891
      3 O2B        -4.0330   -7.4630  -37.5130 O.co2     1 ADP        -0.5891
      4 O3B        -2.1150   -8.6650  -38.7020 O.co2     1 ADP        -0.5891
      5 PA         -2.6900  -10.1150  -35.9790 P.3       1 ADP         0.3276
      6 O1A        -1.5450  -10.5190  -35.0980 O.co2     1 ADP        -0.5556
      7 O2A        -2.9300  -10.9290  -37.2140 O.co2     1 ADP        -0.5556
      8 O3A        -2.3580   -8.5860  -36.2750 O.3       1 ADP        -0.1548
      9 O5'        -4.0140  -10.0150  -35.0950 O.3       1 ADP        -0.2436
     10 C5'        -4.8790  -11.1330  -34.9320 C.3       1 ADP         0.1132
     11 C4'        -5.7480  -11.0510  -33.6650 C.3       1 ADP         0.1189
     12 O4'        -5.0140  -11.5060  -32.5250 O.3       1 ADP        -0.3364
     13 C3'        -6.2470   -9.6590  -33.2960 C.3       1 ADP         0.1149
     14 O3'        -7.5650   -9.7710  -32.7160 O.3       1 ADP        -0.3864
     15 C2'        -5.2580   -9.1820  -32.2550 C.3       1 ADP         0.1385
     16 O2'        -5.8120   -8.2420  -31.3290 O.3       1 ADP        -0.3836
     17 C1'        -4.8320  -10.4610  -31.5590 C.3       1 ADP         0.2010
     18 N9         -3.4030  -10.3670  -31.1530 N.pl3     1 ADP        -0.1919
     19 C8         -2.3950   -9.8350  -31.8790 C.2       1 ADP         0.1123
     20 N7         -1.2210   -9.9140  -31.2150 N.2       1 ADP        -0.2958
     21 C5         -1.4720  -10.5140  -30.0300 C.ar      1 ADP         0.1045
     22 C6         -0.6900  -10.9150  -28.8270 C.ar      1 ADP         0.1298
     23 N6          0.6300  -10.6790  -28.7610 N.pl3     1 ADP        -0.3152
     24 N1         -1.3470  -11.5130  -27.7890 N.ar      1 ADP        -0.2698
     25 C2         -2.6750  -11.7560  -27.8400 C.ar      1 ADP         0.0533
     26 N3         -3.4350  -11.4200  -28.9000 N.ar      1 ADP        -0.2714
     27 C4         -2.9110  -10.8090  -29.9970 C.ar      1 ADP         0.1613
     28 H          -4.2549  -12.0225  -34.8462 H         1 ADP         0.0648
     29 H          -5.5501  -11.1580  -35.7905 H         1 ADP         0.0648
     30 H          -6.6087  -11.6724  -33.9124 H         1 ADP         0.0651
     31 H          -6.3158   -8.9809  -34.1466 H         1 ADP         0.0648
     32 H          -7.8854   -8.8970  -32.4811 H         1 ADP         0.2100
     33 H          -4.4311   -8.6364  -32.7096 H         1 ADP         0.0676
     34 H          -6.1225   -7.4692  -31.8064 H         1 ADP         0.2101
     35 H          -5.4127  -10.6479  -30.6557 H         1 ADP         0.0996
     36 H          -2.5136   -9.3990  -32.8709 H         1 ADP         0.1349
     37 H           1.1058  -10.2215  -29.5386 H         1 ADP         0.1820
     38 H           1.1571  -10.9572  -27.9332 H         1 ADP         0.1820
     39 H          -3.1506  -12.2436  -26.9890 H         1 ADP         0.0996
@<TRIPOS>BOND
     1    1    2 ar 
     2    1    3 ar 
     3    1    4 ar 
     4    8    1 1  
     5    5    6 ar 
     6    5    7 ar 
     7    5    8 1  
     8    5    9 1  
     9    9   10 1  
    10   10   11 1  
    11   11   12 1  
    12   11   13 1  
    13   12   17 1  
    14   13   14 1  
    15   13   15 1  
    16   15   16 1  
    17   15   17 1  
    18   17   18 1  
    19   18   19 1  
    20   18   27 1  
    21   19   20 2  
    22   20   21 1  
    23   21   22 ar 
    24   21   27 ar 
    25   22   23 1  
    26   22   24 ar 
    27   24   25 ar 
    28   25   26 ar 
    29   26   27 ar 
    30   10   28 1  
    31   10   29 1  
    32   11   30 1  
    33   13   31 1  
    34   14   32 1  
    35   15   33 1  
    36   16   34 1  
    37   17   35 1  
    38   19   36 1  
    39   23   37 1  
    40   23   38 1  
    41   25   39 1  
@<TRIPOS>SUBSTRUCTURE
     1 ADP         1

