5gub_ligand
  -I-interpret- 

 47 48  0  0  0  0  0  0  0  0999 V2000
  -17.6390  -17.8290    8.7580 C   0  0  0  0  0
  -17.8460  -17.9030    7.2420 C   0  0  0  0  0
  -17.4700  -16.5900    6.5760 C   0  0  0  0  0
  -18.2200  -15.4450    7.2550 C   0  0  0  0  0
  -18.0100  -15.5130    8.7650 C   0  0  0  0  0
  -18.7750  -14.4110    9.4950 C   0  0  0  0  0
  -17.6970  -20.0140    6.0650 C   0  0  0  0  0
  -16.7700  -21.1150    5.6330 C   0  0  0  0  0
  -17.0900  -18.9970    6.6620 N   0  0  0  0  0
  -18.0830  -19.0370    9.3330 O   0  0  0  0  0
  -17.8560  -16.7020    5.2210 O   0  0  0  0  0
  -19.6070  -15.4910    6.9530 O   0  0  0  0  0
  -18.4100  -16.7780    9.2890 O   0  0  0  0  0
  -18.4580  -14.5160   10.8740 O   0  0  0  0  0
  -18.9260  -20.0410    5.8730 O   0  0  0  0  0
  -16.9680  -15.9740    4.3820 C   0  0  0  0  0
  -16.9430  -16.6260    3.0050 C   0  0  0  0  0
  -16.0250  -15.8480    2.0750 C   0  0  0  0  0
  -16.3480  -14.3690    2.1640 C   0  0  0  0  0
  -17.0300  -13.8480    3.1930 C   0  0  0  0  0
  -17.3850  -12.4290    3.2600 C   0  0  0  0  0
  -16.4660  -17.9810    3.1260 O   0  0  0  0  0
  -16.2360  -16.2850    0.7190 O   0  0  0  0  0
  -17.4720  -14.6520    4.3040 O   0  0  0  0  0
  -16.9070  -11.6290    2.4310 O   0  0  0  0  0
  -18.1850  -12.0680    4.1600 O   0  0  0  0  0
  -16.5839  -17.6614    8.9742 H   0  0  0  0  0
  -18.9053  -18.0886    7.0643 H   0  0  0  0  0
  -16.4024  -16.3853    6.6562 H   0  0  0  0  0
  -17.8232  -14.5032    6.8761 H   0  0  0  0  0
  -16.9421  -15.3727    8.9325 H   0  0  0  0  0
  -19.8480  -14.5240    9.3401 H   0  0  0  0  0
  -18.4915  -13.4309    9.1115 H   0  0  0  0  0
  -17.0597  -22.0450    6.1222 H   0  0  0  0  0
  -16.8321  -21.2371    4.5516 H   0  0  0  0  0
  -15.7482  -20.8587    5.9129 H   0  0  0  0  0
  -16.0714  -18.9838    6.7144 H   0  0  0  0  0
  -17.5669  -19.7661    8.9814 H   0  0  0  0  0
  -19.7278  -15.4476    6.0016 H   0  0  0  0  0
  -18.9255  -13.8338   11.3615 H   0  0  0  0  0
  -15.9500  -15.9668    4.7715 H   0  0  0  0  0
  -17.9516  -16.6255    2.5918 H   0  0  0  0  0
  -14.9890  -16.0204    2.3668 H   0  0  0  0  0
  -16.0143  -13.7078    1.3643 H   0  0  0  0  0
  -16.4501  -18.3921    2.2586 H   0  0  0  0  0
  -15.6565  -15.7939    0.1319 H   0  0  0  0  0
  -18.4334  -12.8290    4.6898 H   0  0  0  0  0
  2  1  1  0  0  0
  1 10  1  0  0  0
  1 13  1  0  0  0
  2  3  1  0  0  0
  9  2  1  0  0  0
  3  4  1  0  0  0
  3 11  1  0  0  0
  4  5  1  0  0  0
  4 12  1  0  0  0
  5  6  1  0  0  0
 13  5  1  0  0  0
  6 14  1  0  0  0
  7  8  1  0  0  0
  7  9  1  0  0  0
  7 15  2  0  0  0
 11 16  1  0  0  0
 16 17  1  0  0  0
 16 24  1  0  0  0
 17 18  1  0  0  0
 17 22  1  0  0  0
 18 19  1  0  0  0
 18 23  1  0  0  0
 19 20  2  0  0  0
 20 21  1  0  0  0
 20 24  1  0  0  0
 21 25  2  0  0  0
 21 26  1  0  0  0
  1 27  1  0  0  0
  2 28  1  0  0  0
  3 29  1  0  0  0
  4 30  1  0  0  0
  5 31  1  0  0  0
  6 32  1  0  0  0
  6 33  1  0  0  0
  8 34  1  0  0  0
  8 35  1  0  0  0
  8 36  1  0  0  0
  9 37  1  0  0  0
 10 38  1  0  0  0
 12 39  1  0  0  0
 14 40  1  0  0  0
 16 41  1  0  0  0
 17 42  1  0  0  0
 18 43  1  0  0  0
 19 44  1  0  0  0
 22 45  1  0  0  0
 23 46  1  0  0  0
 26 47  1  0  0  0
M  END
$$$$
