6q8k_ligand
  -I-interpret- 

 48 51  0  0  0  0  0  0  0  0999 V2000
  -13.4000   13.3300   18.0410 N   0  0  0  0  0
  -14.2940   12.3490   17.9160 C   0  0  0  0  0
  -14.0580   11.3200   17.0320 C   0  0  0  0  0
  -14.9810   10.2640   16.8500 C   0  0  0  0  0
  -16.1300   10.2700   17.6390 C   0  0  0  0  0
  -16.3980   11.3000   18.5380 C   0  0  0  0  0
  -17.5380   11.3370   19.3630 C   0  0  0  0  0
  -17.7950   12.2980   20.2390 N   0  0  0  0  0
  -16.9200   13.3040   20.3270 C   0  0  0  0  0
  -15.7840   13.3910   19.5890 C   0  0  0  0  0
  -15.4770   12.3710   18.6630 C   0  0  0  0  0
  -12.9130   11.4310   16.3530 N   0  0  0  0  0
  -12.6520   10.4920   15.4600 C   0  0  0  0  0
  -13.4260    9.4320   15.1670 N   0  0  0  0  0
  -14.5500    9.3380   15.8460 C   0  0  0  0  0
  -11.4720   10.6580   14.8330 N   0  0  0  0  0
  -10.7670    9.8510   13.8640 C   0  0  0  0  0
   -9.3080   10.1560   14.0420 C   0  0  0  0  0
   -9.0740   11.4900   14.7180 C   0  0  0  0  0
   -8.1560   11.3870   15.8540 N   0  3  0  0  0
   -6.7890   11.0320   15.4250 C   0  0  0  0  0
   -6.0800   12.2370   14.8690 C   0  0  0  0  0
   -6.0020   13.2680   15.8290 O   0  0  0  0  0
   -7.3230   13.7020   16.0950 C   0  0  0  0  0
   -8.1620   12.5990   16.7040 C   0  0  0  0  0
  -12.5461   13.3160   17.4833 H   0  0  0  0  0
  -13.5699   14.0946   18.6944 H   0  0  0  0  0
  -16.8383    9.4463   17.5502 H   0  0  0  0  0
  -18.2565   10.5220   19.2757 H   0  0  0  0  0
  -17.1316   14.1048   21.0356 H   0  0  0  0  0
  -15.1140   14.2421   19.7106 H   0  0  0  0  0
  -15.2015    8.4919   15.6277 H   0  0  0  0  0
  -10.9836   11.5155   15.0909 H   0  0  0  0  0
  -11.0944   10.0811   12.8501 H   0  0  0  0  0
  -10.9671    8.7906   14.0175 H   0  0  0  0  0
   -8.8490   10.1941   13.0541 H   0  0  0  0  0
   -8.8760    9.3788   14.6724 H   0  0  0  0  0
  -10.0323   11.8518   15.0907 H   0  0  0  0  0
   -8.6306   12.1655   13.9864 H   0  0  0  0  0
   -8.5035   10.6232   16.4338 H   0  0  0  0  0
   -6.8488   10.2680   14.6498 H   0  0  0  0  0
   -6.2333   10.6609   16.2861 H   0  0  0  0  0
   -6.6384   12.6038   14.0077 H   0  0  0  0  0
   -5.0683   11.9467   14.5858 H   0  0  0  0  0
   -7.7821   14.0029   15.1533 H   0  0  0  0  0
   -7.2769   14.5295   16.8030 H   0  0  0  0  0
   -7.7440   12.3423   17.6774 H   0  0  0  0  0
   -9.1886   12.9539   16.7950 H   0  0  0  0  0
  1  2  1  0  0  0
  2  3  4  0  0  0
  2 11  4  0  0  0
  3  4  4  0  0  0
  3 12  4  0  0  0
  4  5  4  0  0  0
  4 15  4  0  0  0
  5  6  4  0  0  0
  6  7  4  0  0  0
  6 11  4  0  0  0
  7  8  4  0  0  0
  8  9  4  0  0  0
  9 10  4  0  0  0
 10 11  4  0  0  0
 12 13  4  0  0  0
 13 14  4  0  0  0
 13 16  1  0  0  0
 14 15  4  0  0  0
 16 17  1  0  0  0
 17 18  1  0  0  0
 18 19  1  0  0  0
 19 20  1  0  0  0
 20 21  1  0  0  0
 20 25  1  0  0  0
 21 22  1  0  0  0
 22 23  1  0  0  0
 23 24  1  0  0  0
 24 25  1  0  0  0
  1 26  1  0  0  0
  1 27  1  0  0  0
  5 28  1  0  0  0
  7 29  1  0  0  0
  9 30  1  0  0  0
 10 31  1  0  0  0
 15 32  1  0  0  0
 16 33  1  0  0  0
 17 34  1  0  0  0
 17 35  1  0  0  0
 18 36  1  0  0  0
 18 37  1  0  0  0
 19 38  1  0  0  0
 19 39  1  0  0  0
 20 40  1  0  0  0
 21 41  1  0  0  0
 21 42  1  0  0  0
 22 43  1  0  0  0
 22 44  1  0  0  0
 24 45  1  0  0  0
 24 46  1  0  0  0
 25 47  1  0  0  0
 25 48  1  0  0  0
M  END
$$$$
