5h4j_ligand
  -I-interpret- 

 60 62  0  0  0  0  0  0  0  0999 V2000
    4.6070    3.9200   27.0360 O   0  0  0  0  0
    4.9940    3.8410   25.6590 S   0  0  0  0  0
    4.3160    4.7280   24.7460 O   0  0  0  0  0
    6.6560    4.2880   25.7110 C   0  0  0  0  0
    7.5220    3.2950   26.5630 C   0  0  0  0  0
    9.0110    3.4910   26.2620 C   0  0  0  0  0
    9.4200    4.8490   26.5000 O   0  0  0  0  0
   10.7460    5.1100   26.1800 C   0  0  0  0  0
   10.8460    5.1910   24.7000 N   0  0  0  0  0
   11.5740    4.1950   24.0320 C   0  0  0  0  0
   12.1340    3.2710   24.6790 O   0  0  0  0  0
   11.7160    4.2580   22.7050 N   0  0  0  0  0
   10.2920    6.2060   23.9850 C   0  0  0  0  0
   10.4140    6.2640   22.6020 C   0  0  0  0  0
   11.1260    5.2400   21.9600 C   0  0  0  0  0
   11.2130    5.2110   20.7570 O   0  0  0  0  0
    4.8280    2.3770   25.0960 N   0  0  0  0  0
    4.8870    1.9950   23.6770 C   0  0  0  0  0
    4.1780    0.6760   23.4310 C   0  0  0  0  0
    6.3050    1.9860   23.2020 C   0  0  0  0  0
    6.7690    2.9590   22.3010 C   0  0  0  0  0
    8.0910    2.9440   21.9050 C   0  0  0  0  0
    9.0470    2.0570   22.4090 C   0  0  0  0  0
    8.5950    1.0610   23.2920 C   0  0  0  0  0
    7.2490    1.0400   23.6900 C   0  0  0  0  0
    9.5250    0.1680   23.7600 O   0  0  0  0  0
    9.1230   -0.8810   24.6410 C   0  0  0  0  0
   10.2410   -1.9170   24.6580 C   0  0  0  0  0
   10.3660   -2.3940   26.0940 C   0  0  0  0  0
    9.7750   -1.3260   27.0160 C   0  0  0  0  0
    9.0540   -0.3700   26.0780 C   0  0  0  0  0
    6.7239    5.2731   26.1726 H   0  0  0  0  0
    7.0386    4.2757   24.6904 H   0  0  0  0  0
    7.2406    2.2726   26.3110 H   0  0  0  0  0
    7.3454    3.4881   27.6211 H   0  0  0  0  0
    9.1859    3.2557   25.2122 H   0  0  0  0  0
    9.5857    2.8365   26.9172 H   0  0  0  0  0
   11.3910    4.3182   26.5610 H   0  0  0  0  0
   11.0683    6.0472   26.6338 H   0  0  0  0  0
   12.2817    3.5520   22.2339 H   0  0  0  0  0
    9.7417    6.9891   24.5065 H   0  0  0  0  0
    9.9697    7.0807   22.0331 H   0  0  0  0  0
    4.6660    1.6320   25.7736 H   0  0  0  0  0
    4.3525    2.7411   23.0889 H   0  0  0  0  0
    4.6543   -0.1067   24.0215 H   0  0  0  0  0
    3.1318    0.7674   23.7229 H   0  0  0  0  0
    4.2405    0.4233   22.3726 H   0  0  0  0  0
    6.0897    3.7203   21.9175 H   0  0  0  0  0
    8.4089    3.6673   21.1541 H   0  0  0  0  0
   10.0976    2.1345   22.1293 H   0  0  0  0  0
    6.9173    0.2765   24.3936 H   0  0  0  0  0
    8.1600   -1.2681   24.3081 H   0  0  0  0  0
   11.1784   -1.4850   24.3076 H   0  0  0  0  0
   10.0134   -2.7474   23.9897 H   0  0  0  0  0
   11.4150   -2.5581   26.3406 H   0  0  0  0  0
    9.8279   -3.3333   26.2213 H   0  0  0  0  0
   10.5432   -0.8216   27.6021 H   0  0  0  0  0
    9.1023   -1.7544   27.7590 H   0  0  0  0  0
    8.0090   -0.2977   26.3793 H   0  0  0  0  0
    9.5331    0.6077   26.1305 H   0  0  0  0  0
  1  2  2  0  0  0
  2  3  2  0  0  0
  2  4  1  0  0  0
  2 17  1  0  0  0
  4  5  1  0  0  0
  5  6  1  0  0  0
  6  7  1  0  0  0
  7  8  1  0  0  0
  8  9  1  0  0  0
  9 10  1  0  0  0
  9 13  1  0  0  0
 10 11  2  0  0  0
 10 12  1  0  0  0
 12 15  1  0  0  0
 13 14  2  0  0  0
 14 15  1  0  0  0
 15 16  2  0  0  0
 17 18  1  0  0  0
 18 19  1  0  0  0
 18 20  1  0  0  0
 20 21  4  0  0  0
 20 25  4  0  0  0
 21 22  4  0  0  0
 22 23  4  0  0  0
 23 24  4  0  0  0
 24 25  4  0  0  0
 24 26  1  0  0  0
 26 27  1  0  0  0
 27 28  1  0  0  0
 27 31  1  0  0  0
 28 29  1  0  0  0
 29 30  1  0  0  0
 30 31  1  0  0  0
  4 32  1  0  0  0
  4 33  1  0  0  0
  5 34  1  0  0  0
  5 35  1  0  0  0
  6 36  1  0  0  0
  6 37  1  0  0  0
  8 38  1  0  0  0
  8 39  1  0  0  0
 12 40  1  0  0  0
 13 41  1  0  0  0
 14 42  1  0  0  0
 17 43  1  0  0  0
 18 44  1  0  0  0
 19 45  1  0  0  0
 19 46  1  0  0  0
 19 47  1  0  0  0
 21 48  1  0  0  0
 22 49  1  0  0  0
 23 50  1  0  0  0
 25 51  1  0  0  0
 27 52  1  0  0  0
 28 53  1  0  0  0
 28 54  1  0  0  0
 29 55  1  0  0  0
 29 56  1  0  0  0
 30 57  1  0  0  0
 30 58  1  0  0  0
 31 59  1  0  0  0
 31 60  1  0  0  0
M  END
$$$$
