2xbp_ligand
  -I-interpret- 

 47 49  0  0  0  0  0  0  0  0999 V2000
   47.5150  -18.9310   58.8850 P   0  0  0  0  0
   47.5810  -19.9710   57.8100 O   0  0  0  0  0
   48.0950  -19.3750   60.1840 O   0  0  0  0  0
   47.9800  -17.5680   58.4340 O   0  0  0  0  0
   45.1140  -17.4420   59.6570 P   0  0  0  0  0
   46.0610  -16.4100   60.1810 O   0  0  0  0  0
   44.0290  -17.8890   60.5570 O   0  0  0  0  0
   45.8940  -18.7500   59.1770 O   0  0  0  0  0
   45.1880  -16.2620   57.0200 P   0  0  0  0  0
   46.2940  -15.3740   57.5120 O   0  0  0  0  0
   45.5110  -17.2770   56.0280 O   0  0  0  0  0
   44.4570  -16.8920   58.3160 O   0  0  0  0  0
   43.9820  -15.3270   56.5450 O   0  0  0  0  0
   43.8560  -15.0490   55.1210 C   0  0  0  0  0
   42.8570  -13.9270   54.9590 C   0  0  0  0  0
   41.5550  -14.3860   55.3620 O   0  0  0  0  0
   43.0720  -12.6490   55.7260 C   0  0  0  0  0
   44.0470  -11.8040   55.1740 O   0  0  0  0  0
   41.7030  -12.0590   55.7580 C   0  0  0  0  0
   41.4040  -11.4730   54.4930 O   0  0  0  0  0
   40.8470  -13.2980   55.9610 C   0  0  0  0  0
   40.5480  -13.6320   57.3600 N   0  0  0  0  0
   41.2830  -14.4650   58.1730 C   0  0  0  0  0
   40.7010  -14.6240   59.3540 N   0  0  0  0  0
   39.5390  -13.8680   59.2720 C   0  0  0  0  0
   38.4240  -13.6800   60.1420 C   0  0  0  0  0
   38.3500  -14.2640   61.3540 N   0  0  0  0  0
   37.4180  -12.8730   59.7410 N   0  0  0  0  0
   37.4640  -12.3380   58.5120 C   0  0  0  0  0
   38.4520  -12.4560   57.6010 N   0  0  0  0  0
   39.4600  -13.2550   58.0340 C   0  0  0  0  0
   47.1927  -19.6220   57.0044 H   0  0  0  0  0
   47.5666  -17.3515   57.5950 H   0  0  0  0  0
   46.7141  -16.2054   59.5078 H   0  0  0  0  0
   45.9435  -14.7560   58.1576 H   0  0  0  0  0
   43.5174  -15.9382   54.5893 H   0  0  0  0  0
   44.8209  -14.7611   54.7038 H   0  0  0  0  0
   42.9762  -13.6766   53.9049 H   0  0  0  0  0
   43.4852  -12.8174   56.7205 H   0  0  0  0  0
   44.1276  -11.0145   55.7142 H   0  0  0  0  0
   41.5622  -11.2827   56.5101 H   0  0  0  0  0
   40.5222  -11.0943   54.5174 H   0  0  0  0  0
   39.8758  -13.1015   55.5069 H   0  0  0  0  0
   42.2233  -14.9340   57.8831 H   0  0  0  0  0
   39.1080  -14.8648   61.6778 H   0  0  0  0  0
   37.5359  -14.1053   61.9477 H   0  0  0  0  0
   36.6035  -11.7385   58.2148 H   0  0  0  0  0
  1  2  1  0  0  0
  1  3  2  0  0  0
  1  4  1  0  0  0
  8  1  1  0  0  0
  5  6  1  0  0  0
  5  7  2  0  0  0
  5  8  1  0  0  0
 12  5  1  0  0  0
  9 10  1  0  0  0
  9 11  2  0  0  0
  9 12  1  0  0  0
  9 13  1  0  0  0
 13 14  1  0  0  0
 14 15  1  0  0  0
 15 16  1  0  0  0
 15 17  1  0  0  0
 16 21  1  0  0  0
 17 18  1  0  0  0
 17 19  1  0  0  0
 19 20  1  0  0  0
 19 21  1  0  0  0
 21 22  1  0  0  0
 22 23  4  0  0  0
 22 31  4  0  0  0
 23 24  4  0  0  0
 24 25  4  0  0  0
 25 26  4  0  0  0
 25 31  4  0  0  0
 26 27  1  0  0  0
 26 28  4  0  0  0
 28 29  4  0  0  0
 29 30  4  0  0  0
 30 31  4  0  0  0
  2 32  1  0  0  0
  4 33  1  0  0  0
  6 34  1  0  0  0
 10 35  1  0  0  0
 14 36  1  0  0  0
 14 37  1  0  0  0
 15 38  1  0  0  0
 17 39  1  0  0  0
 18 40  1  0  0  0
 19 41  1  0  0  0
 20 42  1  0  0  0
 21 43  1  0  0  0
 23 44  1  0  0  0
 27 45  1  0  0  0
 27 46  1  0  0  0
 29 47  1  0  0  0
M  END
$$$$
