5mi6_ligand
  -I-interpret- 

 32 33  0  0  0  0  0  0  0  0999 V2000
   32.0580    5.7520   12.4270 C   0  0  0  0  0
   31.2740    7.0600   12.6120 C   0  0  0  0  0
   29.8420    6.8260   13.0640 C   0  0  0  0  0
   29.1700    5.8990   12.0820 C   0  0  0  0  0
   29.9370    4.5870   12.0920 C   0  0  0  0  0
   29.3890    3.5010   11.1840 C   0  0  0  0  0
   32.5530    6.7840   14.5050 C   0  0  0  0  0
   34.4380    7.0010   17.6950 C   0  0  0  0  0
   31.9780    7.6180   13.7410 N   0  0  0  0  0
   29.1890    8.0930   13.1580 O   0  0  0  0  0
   27.8130    5.6980   12.4700 O   0  0  0  0  0
   31.3090    4.7930   11.7120 O   0  0  0  0  0
   33.0910    7.1830   15.6540 N   0  0  0  0  0
   28.9770    4.0020    9.9140 O   0  0  0  0  0
   32.5810    5.1640   14.0180 S   0  0  0  0  0
   33.7700    6.2620   16.5540 C   0  0  0  0  0
   32.9442    5.9411   11.8213 H   0  0  0  0  0
   31.2205    7.6500   11.6970 H   0  0  0  0  0
   29.7980    6.3523   14.0447 H   0  0  0  0  0
   29.1718    6.3204   11.0767 H   0  0  0  0  0
   29.8327    4.2424   13.1208 H   0  0  0  0  0
   28.5165    3.0658   11.6713 H   0  0  0  0  0
   30.1829    2.7734   11.0154 H   0  0  0  0  0
   35.1722    7.6995   17.2934 H   0  0  0  0  0
   33.6851    7.5491   18.2614 H   0  0  0  0  0
   34.9358    6.2844   18.3483 H   0  0  0  0  0
   29.6525    8.6443   13.7927 H   0  0  0  0  0
   27.3496    6.5386   12.4563 H   0  0  0  0  0
   33.0257    8.1673   15.9133 H   0  0  0  0  0
   28.6399    3.2789    9.3800 H   0  0  0  0  0
   33.0325    5.5753   16.9695 H   0  0  0  0  0
   34.5352    5.7273   15.9913 H   0  0  0  0  0
  1  2  1  0  0  0
  1 12  1  0  0  0
 15  1  1  0  0  0
  2  3  1  0  0  0
  9  2  1  0  0  0
  3  4  1  0  0  0
  3 10  1  0  0  0
  5  4  1  0  0  0
  4 11  1  0  0  0
  5  6  1  0  0  0
 12  5  1  0  0  0
  6 14  1  0  0  0
  7  9  2  0  0  0
 13  7  1  0  0  0
  7 15  1  0  0  0
 16  8  1  0  0  0
 13 16  1  0  0  0
  1 17  1  0  0  0
  2 18  1  0  0  0
  3 19  1  0  0  0
  4 20  1  0  0  0
  5 21  1  0  0  0
  6 22  1  0  0  0
  6 23  1  0  0  0
  8 24  1  0  0  0
  8 25  1  0  0  0
  8 26  1  0  0  0
 10 27  1  0  0  0
 11 28  1  0  0  0
 13 29  1  0  0  0
 14 30  1  0  0  0
 16 31  1  0  0  0
 16 32  1  0  0  0
M  END
$$$$
