2pv2_ligand
  -I-interpret- 

233237  0  0  0  0  0  0  0  0999 V2000
   -1.3510  -13.0270   16.2630 N   0  3  0  0  0
   -1.1080  -14.0650   17.3070 C   0  0  0  0  0
   -0.7450  -13.3880   18.6240 C   0  0  0  0  0
   -0.0330  -12.3830   18.6300 O   0  0  0  0  0
    0.0050  -15.0060   16.8520 C   0  0  0  0  0
    0.3590  -16.0310   17.9040 C   0  0  0  0  0
    1.2730  -15.8250   18.7050 O   0  0  0  0  0
   -0.3820  -17.1320   17.9310 N   0  0  0  0  0
   -1.2050  -13.9520   19.7400 N   0  0  0  0  0
   -0.9770  -13.3230   21.0380 C   0  0  0  0  0
    0.2480  -13.6680   21.8680 C   0  0  0  0  0
    0.3910  -13.1630   22.9760 O   0  0  0  0  0
   -2.2440  -13.4610   21.9140 C   0  0  0  0  0
   -2.6470  -14.8950   22.2770 C   0  0  0  0  0
   -3.9950  -15.2680   22.2170 C   0  0  0  0  0
   -1.7300  -15.8200   22.7820 C   0  0  0  0  0
   -4.4230  -16.5120   22.6490 C   0  0  0  0  0
   -2.1540  -17.0780   23.2230 C   0  0  0  0  0
   -3.5080  -17.4210   23.1550 C   0  0  0  0  0
    1.1480  -14.4840   21.3340 N   0  0  0  0  0
    2.3090  -14.9150   22.1060 C   0  0  0  0  0
    3.1040  -13.7930   22.7610 C   0  0  0  0  0
    3.3080  -13.7980   23.9760 O   0  0  0  0  0
    3.2550  -15.7760   21.2390 C   0  0  0  0  0
    2.5520  -16.9430   20.7930 O   0  0  0  0  0
    4.4640  -16.2320   22.0480 C   0  0  0  0  0
    3.5560  -12.8340   21.9600 N   0  0  0  0  0
    4.3420  -11.7290   22.4910 C   0  0  0  0  0
    3.4870  -10.6130   23.0980 C   0  0  0  0  0
    3.9540   -9.8920   23.9800 O   0  0  0  0  0
    5.2680  -11.1830   21.4060 C   0  0  0  0  0
    6.3200  -12.1820   20.9080 C   0  0  0  0  0
    7.2170  -11.4790   19.9050 C   0  0  0  0  0
    7.1410  -12.7340   22.0640 C   0  0  0  0  0
    2.2410  -10.4780   22.6520 N   0  0  0  0  0
    1.3500   -9.4620   23.2160 C   0  0  0  0  0
    1.1550   -9.7690   24.6950 C   0  0  0  0  0
    1.1120   -8.8660   25.5250 O   0  0  0  0  0
   -0.0060   -9.4630   22.5140 C   0  0  0  0  0
    0.0280   -8.9530   21.0850 C   0  0  0  0  0
   -1.3840   -8.8420   20.5300 C   0  0  0  0  0
   -1.4040   -8.2480   19.1280 C   0  0  0  0  0
   -0.7570   -9.1400   18.1290 N   0  3  0  0  0
    1.0250  -11.0500   25.0390 N   0  0  0  0  0
    0.8860  -11.4080   26.4440 C   0  0  0  0  0
    2.2160  -11.2530   27.1880 C   0  0  0  0  0
    2.2480  -10.7220   28.2920 O   0  0  0  0  0
    0.3870  -12.8530   26.6100 C   0  0  0  0  0
   -1.1120  -12.9830   26.6280 C   0  0  0  0  0
   -1.8620  -12.4340   27.6640 C   0  0  0  0  0
   -1.7720  -13.6480   25.6070 C   0  0  0  0  0
   -3.2540  -12.5500   27.6740 C   0  0  0  0  0
   -3.1610  -13.7670   25.6070 C   0  0  0  0  0
   -3.8990  -13.2130   26.6470 C   0  0  0  0  0
    3.3170  -11.7130   26.5970 N   0  0  0  0  0
    4.5890  -11.6150   27.2970 C   0  0  0  0  0
    4.9340  -10.1640   27.6280 C   0  0  0  0  0
    5.4240   -9.8800   28.7160 O   0  0  0  0  0
    5.7080  -12.2870   26.4840 C   0  0  0  0  0
    6.9680  -12.5350   27.2740 C   0  0  0  0  0
    7.1160  -12.4720   28.6290 C   0  0  0  0  0
    8.2470  -12.9120   26.7490 C   0  0  0  0  0
    8.4140  -12.7870   28.9810 N   0  0  0  0  0
    9.1240  -13.0600   27.8430 C   0  0  0  0  0
    8.7340  -13.1430   25.4580 C   0  0  0  0  0
   10.4670  -13.4280   27.6850 C   0  0  0  0  0
   10.0700  -13.5130   25.3020 C   0  0  0  0  0
   10.9170  -13.6500   26.4110 C   0  0  0  0  0
    4.6360   -9.2550   26.7040 N   0  0  0  0  0
    4.9250   -7.8360   26.9020 C   0  0  0  0  0
    4.2810   -7.2580   28.1550 C   0  0  0  0  0
    4.8090   -6.3150   28.7370 O   0  0  0  0  0
    4.4740   -7.0140   25.6880 C   0  0  0  0  0
    5.3960   -7.1770   24.4860 C   0  0  0  0  0
    6.5350   -7.6620   24.6560 O   0  0  0  0  0
    4.9800   -6.7990   23.3680 O   0  0  0  0  0
    3.1600   -7.8280   28.5760 N   0  0  0  0  0
    2.4640   -7.3410   29.7590 C   0  0  0  0  0
    3.2640   -7.5260   31.0420 C   0  0  0  0  0
    3.1730   -6.7130   31.9710 O   0  0  0  0  0
    1.1270   -8.0660   29.9090 C   0  0  0  0  0
    0.2600   -7.7760   28.6890 C   0  0  0  0  0
    0.4300   -7.6380   31.1950 C   0  0  0  0  0
   -1.0060   -8.6100   28.6350 C   0  0  0  0  0
    4.0720   -8.5790   31.0790 N   0  0  0  0  0
    4.8490   -8.9240   32.2650 C   0  0  0  0  0
    6.2520   -8.3690   32.3290 C   0  0  0  0  0
    6.9030   -8.4750   33.3660 O   0  0  0  0  0
    4.9160  -10.4490   32.3880 C   0  0  0  0  0
    3.5770  -11.0980   32.4310 C   0  0  0  0  0
    2.8140  -11.0760   33.5960 C   0  0  0  0  0
    3.0440  -11.6870   31.2910 C   0  0  0  0  0
    1.5440  -11.6240   33.6250 C   0  0  0  0  0
    1.7760  -12.2380   31.3100 C   0  0  0  0  0
    1.0200  -12.2060   32.4820 C   0  0  0  0  0
    6.7200   -7.7750   31.2410 N   0  0  0  0  0
    8.0800   -7.2410   31.1970 C   0  0  0  0  0
    8.3150   -6.0440   32.1160 C   0  0  0  0  0
    7.5080   -5.1150   32.1680 O   0  0  0  0  0
    8.4470   -6.8620   29.7580 C   0  0  0  0  0
    9.9080   -6.4660   29.5760 C   0  0  0  0  0
   10.2360   -6.1930   28.1130 C   0  0  0  0  0
    9.4860   -5.0580   27.5800 N   0  0  0  0  0
    9.6560   -3.7960   27.9650 C   0  0  0  0  0
   10.5560   -3.4940   28.8920 N   0  0  0  0  0
    8.9240   -2.8320   27.4210 N   0  0  0  0  0
    9.4360   -6.0800   32.8330 N   0  0  0  0  0
    9.8170   -5.0120   33.7510 C   0  0  0  0  0
   11.2980   -4.6790   33.5760 C   0  0  0  0  0
   11.6330   -3.4770   33.5620 O   0  0  0  0  0
    9.5480   -5.4290   35.2010 C   0  0  0  0  0
   10.3830   -6.6090   35.6690 C   0  0  0  0  0
   10.1410   -6.9300   37.1340 C   0  0  0  0  0
   10.9920   -8.1090   37.5740 C   0  0  0  0  0
   10.7900   -8.4490   39.0100 N   0  3  0  0  0
   12.1090   -5.6240   33.4670 O   0  0  0  0  0
   -2.0952  -12.4022   16.5732 H   0  0  0  0  0
   -0.4962  -12.4912   16.1125 H   0  0  0  0  0
   -1.6272  -13.4805   15.3921 H   0  0  0  0  0
   -2.0128  -14.6539   17.4576 H   0  0  0  0  0
    0.8932  -14.4063   16.6532 H   0  0  0  0  0
   -0.3441  -15.5380   15.9670 H   0  0  0  0  0
   -0.2047  -17.8489   18.6345 H   0  0  0  0  0
   -1.1287  -17.2611   17.2482 H   0  0  0  0  0
   -1.7207  -14.8304   19.6873 H   0  0  0  0  0
   -0.7459  -12.3026   20.7323 H   0  0  0  0  0
   -3.0679  -13.0460   21.3334 H   0  0  0  0  0
   -2.0266  -12.9537   22.8540 H   0  0  0  0  0
   -4.7251  -14.5623   21.8207 H   0  0  0  0  0
   -0.6730  -15.5588   22.8329 H   0  0  0  0  0
   -5.4790  -16.7759   22.5910 H   0  0  0  0  0
   -1.4299  -17.7900   23.6191 H   0  0  0  0  0
   -3.8423  -18.3999   23.4988 H   0  0  0  0  0
    1.0273  -14.8127   20.3760 H   0  0  0  0  0
    1.8900  -15.5026   22.9229 H   0  0  0  0  0
    3.5900  -15.1742   20.3942 H   0  0  0  0  0
    3.1365  -17.4808   20.2538 H   0  0  0  0  0
    5.0104  -15.3593   22.4056 H   0  0  0  0  0
    4.1278  -16.8253   22.8983 H   0  0  0  0  0
    5.1152  -16.8363   21.4165 H   0  0  0  0  0
    3.3501  -12.8722   20.9617 H   0  0  0  0  0
    4.9378  -12.1257   23.3131 H   0  0  0  0  0
    5.8071  -10.3409   21.8400 H   0  0  0  0  0
    4.6421  -10.9255   20.5516 H   0  0  0  0  0
    5.8207  -13.0260   20.4321 H   0  0  0  0  0
    6.6156  -11.1237   19.0682 H   0  0  0  0  0
    7.7063  -10.6329   20.3876 H   0  0  0  0  0
    7.9708  -12.1774   19.5416 H   0  0  0  0  0
    7.6500  -11.9140   22.5706 H   0  0  0  0  0
    6.4808  -13.2428   22.7664 H   0  0  0  0  0
    7.8782  -13.4392   21.6802 H   0  0  0  0  0
    1.9025  -11.0891   21.9088 H   0  0  0  0  0
    1.7977   -8.4779   23.0774 H   0  0  0  0  0
   -0.6582   -8.7951   23.0767 H   0  0  0  0  0
   -0.3462  -10.4979   22.4765 H   0  0  0  0  0
    0.5975   -9.6512   20.4716 H   0  0  0  0  0
    0.4947   -7.9681   21.0698 H   0  0  0  0  0
   -1.9561   -8.1853   21.1854 H   0  0  0  0  0
   -1.8094   -9.8443   20.4804 H   0  0  0  0  0
   -0.8521   -7.3083   19.1505 H   0  0  0  0  0
   -2.4443   -8.1088   18.8341 H   0  0  0  0  0
   -0.7945   -8.7016   17.2088 H   0  0  0  0  0
    0.2158   -9.2955   18.3934 H   0  0  0  0  0
   -1.2501  -10.0325   18.1021 H   0  0  0  0  0
    1.0229  -11.7757   24.3223 H   0  0  0  0  0
    0.1506  -10.7260   26.8708 H   0  0  0  0  0
    0.7550  -13.2144   27.5702 H   0  0  0  0  0
    0.7512  -13.4217   25.7544 H   0  0  0  0  0
   -1.3583  -11.9085   28.4753 H   0  0  0  0  0
   -1.1961  -14.0849   24.7911 H   0  0  0  0  0
   -3.8313  -12.1178   28.4914 H   0  0  0  0  0
   -3.6659  -14.2917   24.7959 H   0  0  0  0  0
   -4.9854  -13.3015   26.6524 H   0  0  0  0  0
    3.2694  -12.1283   25.6666 H   0  0  0  0  0
    4.4942  -12.1467   28.2438 H   0  0  0  0  0
    5.9643  -11.6145   25.6654 H   0  0  0  0  0
    5.3340  -13.2566   26.1552 H   0  0  0  0  0
    6.3247  -12.2110   29.3317 H   0  0  0  0  0
    8.0822  -13.0360   24.5909 H   0  0  0  0  0
   11.1289  -13.5336   28.5446 H   0  0  0  0  0
   10.4617  -13.6986   24.3019 H   0  0  0  0  0
   11.9563  -13.9395   26.2555 H   0  0  0  0  0
    4.1945   -9.5558   25.8351 H   0  0  0  0  0
    6.0061   -7.7705   27.0250 H   0  0  0  0  0
    4.4844   -5.9626   25.9754 H   0  0  0  0  0
    3.4836   -7.3647   25.3979 H   0  0  0  0  0
    4.0860   -6.4609   23.4581 H   0  0  0  0  0
    2.7783   -8.6220   28.0619 H   0  0  0  0  0
    2.3165   -6.2711   29.6116 H   0  0  0  0  0
    1.2989   -9.1406   29.9711 H   0  0  0  0  0
    0.8488   -8.0163   27.8038 H   0  0  0  0  0
   -0.0391   -6.7291   28.7408 H   0  0  0  0  0
    1.0633   -7.8810   32.0482 H   0  0  0  0  0
    0.2501   -6.5633   31.1689 H   0  0  0  0  0
   -0.5201   -8.1647   31.2844 H   0  0  0  0  0
   -0.7421   -9.6672   28.6050 H   0  0  0  0  0
   -1.6095   -8.4098   29.5203 H   0  0  0  0  0
   -1.5728   -8.3502   27.7410 H   0  0  0  0  0
    4.1524   -9.1672   30.2496 H   0  0  0  0  0
    4.3201   -8.4533   33.0938 H   0  0  0  0  0
    5.4239  -10.6811   33.3241 H   0  0  0  0  0
    5.4363  -10.8271   31.5080 H   0  0  0  0  0
    3.2233  -10.6205   34.4977 H   0  0  0  0  0
    3.6310  -11.7150   30.3730 H   0  0  0  0  0
    0.9578  -11.5980   34.5436 H   0  0  0  0  0
    1.3673  -12.6971   30.4098 H   0  0  0  0  0
    0.0193  -12.6379   32.4985 H   0  0  0  0  0
    6.1209   -7.6889   30.4200 H   0  0  0  0  0
    8.7242   -8.0394   31.5653 H   0  0  0  0  0
    7.8409   -5.9978   29.4861 H   0  0  0  0  0
    8.2696   -7.7398   29.1366 H   0  0  0  0  0
   10.5339   -7.2886   29.9220 H   0  0  0  0  0
   10.0921   -5.5555   30.1463 H   0  0  0  0  0
    9.9677   -7.0774   27.5352 H   0  0  0  0  0
   11.2984   -5.9600   28.0421 H   0  0  0  0  0
    8.7843   -5.2461   26.8640 H   0  0  0  0  0
   11.1215   -4.2311   29.3130 H   0  0  0  0  0
    9.0546   -1.8643   27.7159 H   0  0  0  0  0
    8.2307   -3.0587   26.7080 H   0  0  0  0  0
   10.0532   -6.8864   32.7368 H   0  0  0  0  0
    9.2191   -4.1294   33.5238 H   0  0  0  0  0
    8.5017   -5.7282   35.2629 H   0  0  0  0  0
    9.8040   -4.5799   35.8347 H   0  0  0  0  0
   11.4353   -6.3532   35.5449 H   0  0  0  0  0
   10.1034   -7.4810   35.0777 H   0  0  0  0  0
    9.0898   -7.1845   37.2696 H   0  0  0  0  0
   10.4079   -6.0599   37.7338 H   0  0  0  0  0
   12.0391   -7.8403   37.4347 H   0  0  0  0  0
   10.7033   -8.9749   36.9781 H   0  0  0  0  0
   11.3805   -9.2434   39.2564 H   0  0  0  0  0
   11.0404   -7.6459   39.5868 H   0  0  0  0  0
    9.8113   -8.6898   39.1667 H   0  0  0  0  0
   11.6342   -6.4575   33.5038 H   0  0  0  0  0
  1  2  1  0  0  0
  2  3  1  0  0  0
  2  5  1  0  0  0
  3  4  2  0  0  0
  3  9  1  0  0  0
  5  6  1  0  0  0
  6  7  2  0  0  0
  6  8  1  0  0  0
  9 10  1  0  0  0
 10 11  1  0  0  0
 10 13  1  0  0  0
 11 12  2  0  0  0
 11 20  1  0  0  0
 13 14  1  0  0  0
 14 15  4  0  0  0
 14 16  4  0  0  0
 15 17  4  0  0  0
 16 18  4  0  0  0
 17 19  4  0  0  0
 18 19  4  0  0  0
 20 21  1  0  0  0
 21 22  1  0  0  0
 21 24  1  0  0  0
 22 23  2  0  0  0
 22 27  1  0  0  0
 24 25  1  0  0  0
 24 26  1  0  0  0
 27 28  1  0  0  0
 28 29  1  0  0  0
 28 31  1  0  0  0
 29 30  2  0  0  0
 29 35  1  0  0  0
 31 32  1  0  0  0
 32 33  1  0  0  0
 32 34  1  0  0  0
 35 36  1  0  0  0
 36 37  1  0  0  0
 36 39  1  0  0  0
 37 38  2  0  0  0
 37 44  1  0  0  0
 39 40  1  0  0  0
 40 41  1  0  0  0
 41 42  1  0  0  0
 42 43  1  0  0  0
 44 45  1  0  0  0
 45 46  1  0  0  0
 45 48  1  0  0  0
 46 47  2  0  0  0
 46 55  1  0  0  0
 48 49  1  0  0  0
 49 50  4  0  0  0
 49 51  4  0  0  0
 50 52  4  0  0  0
 51 53  4  0  0  0
 52 54  4  0  0  0
 53 54  4  0  0  0
 55 56  1  0  0  0
 56 57  1  0  0  0
 56 59  1  0  0  0
 57 58  2  0  0  0
 57 69  1  0  0  0
 59 60  1  0  0  0
 60 61  4  0  0  0
 60 62  4  0  0  0
 61 63  4  0  0  0
 62 64  4  0  0  0
 62 65  4  0  0  0
 63 64  4  0  0  0
 64 66  4  0  0  0
 65 67  4  0  0  0
 66 68  4  0  0  0
 67 68  4  0  0  0
 69 70  1  0  0  0
 70 71  1  0  0  0
 70 73  1  0  0  0
 71 72  2  0  0  0
 71 77  1  0  0  0
 73 74  1  0  0  0
 74 75  2  0  0  0
 74 76  1  0  0  0
 77 78  1  0  0  0
 78 79  1  0  0  0
 78 81  1  0  0  0
 79 80  2  0  0  0
 79 85  1  0  0  0
 81 82  1  0  0  0
 81 83  1  0  0  0
 82 84  1  0  0  0
 85 86  1  0  0  0
 86 87  1  0  0  0
 86 89  1  0  0  0
 87 88  2  0  0  0
 87 96  1  0  0  0
 89 90  1  0  0  0
 90 91  4  0  0  0
 90 92  4  0  0  0
 91 93  4  0  0  0
 92 94  4  0  0  0
 93 95  4  0  0  0
 94 95  4  0  0  0
 96 97  1  0  0  0
 97 98  1  0  0  0
 97100  1  0  0  0
 98 99  2  0  0  0
 98107  1  0  0  0
100101  1  0  0  0
101102  1  0  0  0
102103  1  0  0  0
103104  1  0  0  0
104105  2  0  0  0
104106  1  0  0  0
107108  1  0  0  0
108109  1  0  0  0
108111  1  0  0  0
109110  2  0  0  0
109116  1  0  0  0
111112  1  0  0  0
112113  1  0  0  0
113114  1  0  0  0
114115  1  0  0  0
  1117  1  0  0  0
  1118  1  0  0  0
  1119  1  0  0  0
  2120  1  0  0  0
  5121  1  0  0  0
  5122  1  0  0  0
  8123  1  0  0  0
  8124  1  0  0  0
  9125  1  0  0  0
 10126  1  0  0  0
 13127  1  0  0  0
 13128  1  0  0  0
 15129  1  0  0  0
 16130  1  0  0  0
 17131  1  0  0  0
 18132  1  0  0  0
 19133  1  0  0  0
 20134  1  0  0  0
 21135  1  0  0  0
 24136  1  0  0  0
 25137  1  0  0  0
 26138  1  0  0  0
 26139  1  0  0  0
 26140  1  0  0  0
 27141  1  0  0  0
 28142  1  0  0  0
 31143  1  0  0  0
 31144  1  0  0  0
 32145  1  0  0  0
 33146  1  0  0  0
 33147  1  0  0  0
 33148  1  0  0  0
 34149  1  0  0  0
 34150  1  0  0  0
 34151  1  0  0  0
 35152  1  0  0  0
 36153  1  0  0  0
 39154  1  0  0  0
 39155  1  0  0  0
 40156  1  0  0  0
 40157  1  0  0  0
 41158  1  0  0  0
 41159  1  0  0  0
 42160  1  0  0  0
 42161  1  0  0  0
 43162  1  0  0  0
 43163  1  0  0  0
 43164  1  0  0  0
 44165  1  0  0  0
 45166  1  0  0  0
 48167  1  0  0  0
 48168  1  0  0  0
 50169  1  0  0  0
 51170  1  0  0  0
 52171  1  0  0  0
 53172  1  0  0  0
 54173  1  0  0  0
 55174  1  0  0  0
 56175  1  0  0  0
 59176  1  0  0  0
 59177  1  0  0  0
 61178  1  0  0  0
 65179  1  0  0  0
 66180  1  0  0  0
 67181  1  0  0  0
 68182  1  0  0  0
 69183  1  0  0  0
 70184  1  0  0  0
 73185  1  0  0  0
 73186  1  0  0  0
 76187  1  0  0  0
 77188  1  0  0  0
 78189  1  0  0  0
 81190  1  0  0  0
 82191  1  0  0  0
 82192  1  0  0  0
 83193  1  0  0  0
 83194  1  0  0  0
 83195  1  0  0  0
 84196  1  0  0  0
 84197  1  0  0  0
 84198  1  0  0  0
 85199  1  0  0  0
 86200  1  0  0  0
 89201  1  0  0  0
 89202  1  0  0  0
 91203  1  0  0  0
 92204  1  0  0  0
 93205  1  0  0  0
 94206  1  0  0  0
 95207  1  0  0  0
 96208  1  0  0  0
 97209  1  0  0  0
100210  1  0  0  0
100211  1  0  0  0
101212  1  0  0  0
101213  1  0  0  0
102214  1  0  0  0
102215  1  0  0  0
103216  1  0  0  0
105217  1  0  0  0
106218  1  0  0  0
106219  1  0  0  0
107220  1  0  0  0
108221  1  0  0  0
111222  1  0  0  0
111223  1  0  0  0
112224  1  0  0  0
112225  1  0  0  0
113226  1  0  0  0
113227  1  0  0  0
114228  1  0  0  0
114229  1  0  0  0
115230  1  0  0  0
115231  1  0  0  0
115232  1  0  0  0
116233  1  0  0  0
M  END
$$$$
