6ayq_ligand
  -I-interpret- 

 39 41  0  0  0  0  0  0  0  0999 V2000
   13.9720  -10.3520   31.9200 C   0  0  0  0  0
   14.7350   -9.1130   30.1510 C   0  0  0  0  0
   15.2520  -10.3110   29.5120 C   0  0  0  0  0
   15.0320  -11.5720   30.2110 C   0  0  0  0  0
   20.3690   -6.7800   33.1720 C   0  0  0  0  0
   18.7650   -7.3500   33.6550 S   0  0  0  0  0
   17.9200   -7.2200   32.1030 C   0  0  0  0  0
   17.4510   -5.7970   31.7530 C   0  0  0  0  0
   16.9480   -5.7040   30.3190 C   0  0  0  0  0
   15.5420   -6.0220   30.4860 N   0  3  0  0  0
   14.7390   -6.5090   29.4020 C   0  0  0  0  0
   15.0550   -7.9810   29.2740 C   0  0  0  0  0
   15.7060   -8.5710   28.2020 C   0  0  0  0  0
   15.8260   -9.9200   28.3610 N   0  0  0  0  0
   15.4540  -12.7420   29.6990 N   0  0  0  0  0
   14.4100  -11.5270   31.4040 N   0  0  0  0  0
   14.1120   -9.1490   31.3470 N   0  0  0  0  0
   15.0690   -5.9160   31.8620 C   0  0  0  0  0
   16.2610   -5.3230   32.5740 C   0  0  0  0  0
   16.1450   -3.9070   32.4870 O   0  0  0  0  0
   13.4626  -10.3894   32.8829 H   0  0  0  0  0
   20.7654   -7.4315   32.3933 H   0  0  0  0  0
   20.2918   -5.7617   32.7910 H   0  0  0  0  0
   21.0343   -6.7969   34.0352 H   0  0  0  0  0
   17.0285   -7.8434   32.1706 H   0  0  0  0  0
   18.6240   -7.5247   31.3286 H   0  0  0  0  0
   18.3368   -5.1914   31.9447 H   0  0  0  0  0
   17.4676   -6.3696   29.6297 H   0  0  0  0  0
   17.1244   -4.7330   29.8562 H   0  0  0  0  0
   14.8287   -5.6202   29.8777 H   0  0  0  0  0
   14.9616   -5.9767   28.4772 H   0  0  0  0  0
   13.6782   -6.3495   29.5953 H   0  0  0  0  0
   16.0773   -8.0227   27.3362 H   0  0  0  0  0
   15.9400  -12.7607   28.8024 H   0  0  0  0  0
   15.2880  -13.6106   30.2073 H   0  0  0  0  0
   14.7549   -6.8724   32.2799 H   0  0  0  0  0
   14.1691   -5.3085   31.9581 H   0  0  0  0  0
   16.3479   -5.6071   33.6227 H   0  0  0  0  0
   15.3925   -3.6161   33.0073 H   0  0  0  0  0
  1 16  4  0  0  0
 17  1  4  0  0  0
  2  3  4  0  0  0
 12  2  4  0  0  0
  2 17  4  0  0  0
  3  4  4  0  0  0
  3 14  4  0  0  0
  4 15  1  0  0  0
  4 16  4  0  0  0
  6  5  1  0  0  0
  7  6  1  0  0  0
  8  7  1  0  0  0
  9  8  1  0  0  0
  8 19  1  0  0  0
 10  9  1  0  0  0
 11 10  1  0  0  0
 10 18  1  0  0  0
 11 12  1  0  0  0
 12 13  4  0  0  0
 13 14  4  0  0  0
 18 19  1  0  0  0
 19 20  1  0  0  0
  1 21  1  0  0  0
  5 22  1  0  0  0
  5 23  1  0  0  0
  5 24  1  0  0  0
  7 25  1  0  0  0
  7 26  1  0  0  0
  8 27  1  0  0  0
  9 28  1  0  0  0
  9 29  1  0  0  0
 10 30  1  0  0  0
 11 31  1  0  0  0
 11 32  1  0  0  0
 13 33  1  0  0  0
 15 34  1  0  0  0
 15 35  1  0  0  0
 18 36  1  0  0  0
 18 37  1  0  0  0
 19 38  1  0  0  0
 20 39  1  0  0  0
M  END
$$$$
