3hr1_ligand
  -I-interpret- 

 50 54  0  0  0  0  0  0  0  0999 V2000
   12.4000   18.3090   42.6760 C   0  0  0  0  0
   10.9900   16.0890   41.6810 C   0  0  0  0  0
   14.3300   13.8060   45.6820 C   0  0  0  0  0
   14.8660   13.4860   42.9860 C   0  0  0  0  0
    7.6050   18.2670   35.8770 C   0  0  0  0  0
    7.4610   15.8700   36.2800 C   0  0  0  0  0
   11.8110   18.3630   41.4170 C   0  0  0  0  0
    8.0390   17.1080   36.5520 C   0  0  0  0  0
    8.1950   19.5110   36.1570 C   0  0  0  0  0
   13.7230   16.1940   45.3910 C   0  0  0  0  0
   13.3950   18.8980   47.8480 C   0  0  0  0  0
   13.4610   17.8650   46.7770 N   0  0  0  0  0
   14.0530   16.6660   46.6610 C   0  0  0  0  0
   14.1770   14.8950   44.8280 C   0  0  0  0  0
   14.7520   12.5790   45.1570 C   0  0  0  0  0
   15.0060   12.4530   43.8370 N   0  0  0  0  0
   14.4480   14.7330   43.4690 C   0  0  0  0  0
   12.7430   18.1890   45.6330 N   0  0  0  0  0
   12.9120   17.1570   44.7850 C   0  0  0  0  0
   12.2860   17.1460   43.4370 C   0  0  0  0  0
   11.1090   17.2590   40.9180 C   0  0  0  0  0
   11.5750   16.0440   42.9520 C   0  0  0  0  0
   10.5300   17.3160   39.6790 O   0  0  0  0  0
   10.6930   18.4410   38.8160 C   0  0  0  0  0
    9.6050   18.3970   37.7690 C   0  0  0  0  0
    9.2020   19.5750   37.1280 C   0  0  0  0  0
    6.5860   18.1520   34.9260 C   0  0  0  0  0
    6.0000   16.9060   34.6700 C   0  0  0  0  0
    6.4480   15.7620   35.3360 C   0  0  0  0  0
    9.0340   17.1940   37.4770 N   0  0  0  0  0
   12.9461   19.1686   43.0645 H   0  0  0  0  0
   10.4497   15.2267   41.2902 H   0  0  0  0  0
   14.1235   13.9078   46.7474 H   0  0  0  0  0
   15.0770   13.3531   41.9249 H   0  0  0  0  0
    7.8053   14.9822   36.8104 H   0  0  0  0  0
   11.8963   19.2686   40.8163 H   0  0  0  0  0
    7.8750   20.4090   35.6286 H   0  0  0  0  0
   12.9472   18.4644   48.7422 H   0  0  0  0  0
   14.4019   19.2470   48.0770 H   0  0  0  0  0
   12.7877   19.7360   47.5058 H   0  0  0  0  0
   14.6672   16.1632   47.4080 H   0  0  0  0  0
   14.8762   11.7207   45.8173 H   0  0  0  0  0
   14.3349   15.5741   42.7850 H   0  0  0  0  0
   11.4760   15.1480   43.5648 H   0  0  0  0  0
   11.6725   18.4076   38.3390 H   0  0  0  0  0
   10.6230   19.3654   39.3894 H   0  0  0  0  0
    9.6656   20.5284   37.3813 H   0  0  0  0  0
    6.2471   19.0342   34.3828 H   0  0  0  0  0
    5.1888   16.8280   33.9462 H   0  0  0  0  0
    6.0050   14.7907   35.1159 H   0  0  0  0  0
  7  1  4  0  0  0
  1 20  4  0  0  0
 21  2  4  0  0  0
  2 22  4  0  0  0
 14  3  4  0  0  0
  3 15  4  0  0  0
  4 16  4  0  0  0
 17  4  4  0  0  0
  5  8  4  0  0  0
  9  5  4  0  0  0
  5 27  4  0  0  0
  8  6  4  0  0  0
  6 29  4  0  0  0
 21  7  4  0  0  0
  8 30  4  0  0  0
 26  9  4  0  0  0
 10 13  4  0  0  0
 10 14  1  0  0  0
 19 10  4  0  0  0
 12 11  1  0  0  0
 12 13  4  0  0  0
 18 12  4  0  0  0
 14 17  4  0  0  0
 15 16  4  0  0  0
 19 18  4  0  0  0
 20 19  1  0  0  0
 22 20  4  0  0  0
 23 21  1  0  0  0
 24 23  1  0  0  0
 25 24  1  0  0  0
 25 26  4  0  0  0
 25 30  4  0  0  0
 27 28  4  0  0  0
 28 29  4  0  0  0
  1 31  1  0  0  0
  2 32  1  0  0  0
  3 33  1  0  0  0
  4 34  1  0  0  0
  6 35  1  0  0  0
  7 36  1  0  0  0
  9 37  1  0  0  0
 11 38  1  0  0  0
 11 39  1  0  0  0
 11 40  1  0  0  0
 13 41  1  0  0  0
 15 42  1  0  0  0
 17 43  1  0  0  0
 22 44  1  0  0  0
 24 45  1  0  0  0
 24 46  1  0  0  0
 26 47  1  0  0  0
 27 48  1  0  0  0
 28 49  1  0  0  0
 29 50  1  0  0  0
M  END
$$$$
