3hxd_ligand
  -I-interpret- 

 81 84  0  0  0  0  0  0  0  0999 V2000
    6.9390   24.3340   19.1600 C   0  0  0  0  0
    7.7550   25.0640   18.3010 C   0  0  0  0  0
    9.0450   25.4070   18.7020 C   0  0  0  0  0
    9.8790   26.1070   17.8970 O   0  0  0  0  0
    9.5160   25.0260   19.9460 C   0  0  0  0  0
    8.7010   24.3060   20.8030 C   0  0  0  0  0
    7.4180   23.9640   20.4140 C   0  0  0  0  0
    6.5490   23.1560   21.3720 C   0  0  0  0  0
    6.2650   23.8900   22.6760 C   0  0  0  0  0
    5.1840   24.9480   22.4070 C   0  0  0  0  0
    4.0750   24.6260   21.9830 O   0  0  0  0  0
    5.5430   26.2090   22.6530 N   0  0  0  0  0
    4.6730   27.2540   22.4500 O   0  0  0  0  0
    5.7720   22.8730   23.6340 N   0  0  0  0  0
    5.7460   22.9940   24.9640 C   0  0  0  0  0
    6.1450   23.9750   25.5900 O   0  0  0  0  0
    5.1790   21.7510   25.6780 C   0  0  0  0  0
    4.4960   22.1690   26.9930 C   0  0  0  0  0
    3.8430   20.9960   27.7310 C   0  0  0  0  0
    4.4650   20.4510   28.8530 C   0  0  0  0  0
    3.8780   19.3890   29.5340 C   0  0  0  0  0
    2.6640   18.8680   29.0880 C   0  0  0  0  0
    2.0410   19.4200   27.9670 C   0  0  0  0  0
    2.6320   20.4850   27.2880 C   0  0  0  0  0
    6.3000   20.7980   25.9210 N   0  0  0  0  0
    7.6500   21.2390   26.3620 C   0  0  0  0  0
    6.1970   19.4650   25.7620 C   0  0  0  0  0
    7.1520   18.7100   25.9560 O   0  0  0  0  0
    4.8570   18.8690   25.2890 C   0  0  0  0  0
    4.3310   17.8380   26.2840 C   0  0  0  0  0
    2.9770   17.2390   25.8750 C   0  0  0  0  0
    2.2170   17.5650   24.8300 C   0  0  0  0  0
    1.1250   16.8050   24.8500 N   0  0  0  0  0
    1.1990   16.0060   25.9070 C   0  0  0  0  0
    2.3360   16.2790   26.5390 N   0  0  0  0  0
    5.2290   18.1930   24.0580 N   0  0  0  0  0
    5.3540   18.8740   22.9350 C   0  0  0  0  0
    5.1100   20.0820   22.8550 O   0  0  0  0  0
    5.7540   18.1990   21.8170 O   0  0  0  0  0
    5.9030   19.1600   20.7050 C   0  0  0  0  0
    7.0320   19.3730   19.9580 C   0  0  0  0  0
    8.1060   18.4930   20.0700 C   0  0  0  0  0
    9.2280   18.7240   19.3080 C   0  0  0  0  0
    9.2590   19.8130   18.4490 C   0  0  0  0  0
    8.1830   20.6850   18.3380 C   0  0  0  0  0
    7.0520   20.4710   19.0900 C   0  0  0  0  0
    5.9314   24.0537   18.8531 H   0  0  0  0  0
    7.3874   25.3658   17.3202 H   0  0  0  0  0
   10.7159   26.2442   18.3469 H   0  0  0  0  0
   10.5279   25.2925   20.2511 H   0  0  0  0  0
    9.0703   24.0085   21.7844 H   0  0  0  0  0
    7.0857   22.2391   21.6159 H   0  0  0  0  0
    5.5945   22.9701   20.8797 H   0  0  0  0  0
    7.1481   24.3884   23.0757 H   0  0  0  0  0
    6.4829   26.4020   22.9990 H   0  0  0  0  0
    5.1064   28.0791   22.6802 H   0  0  0  0  0
    5.4199   21.9998   23.2417 H   0  0  0  0  0
    4.4256   21.2619   25.0606 H   0  0  0  0  0
    3.7104   22.8830   26.7456 H   0  0  0  0  0
    5.2626   22.5856   27.6463 H   0  0  0  0  0
    5.4152   20.8584   29.1984 H   0  0  0  0  0
    4.3652   18.9661   30.4126 H   0  0  0  0  0
    2.2024   18.0318   29.6132 H   0  0  0  0  0
    1.0891   19.0169   27.6213 H   0  0  0  0  0
    2.1443   20.9141   26.4127 H   0  0  0  0  0
    8.0713   21.9146   25.6176 H   0  0  0  0  0
    7.5677   21.7557   27.3182 H   0  0  0  0  0
    8.2970   20.3688   26.4724 H   0  0  0  0  0
    4.0769   19.6221   25.1776 H   0  0  0  0  0
    4.1940   18.3420   27.2407 H   0  0  0  0  0
    5.0532   17.0228   26.3281 H   0  0  0  0  0
    2.4504   18.3256   24.0849 H   0  0  0  0  0
    0.4609   15.2607   26.2033 H   0  0  0  0  0
    5.3944   17.1865   24.0620 H   0  0  0  0  0
    5.7966   20.1139   21.2216 H   0  0  0  0  0
    5.2214   18.7458   19.9621 H   0  0  0  0  0
    8.0585   17.6398   20.7467 H   0  0  0  0  0
   10.0865   18.0561   19.3787 H   0  0  0  0  0
   10.1498   19.9889   17.8461 H   0  0  0  0  0
    8.2353   21.5350   17.6577 H   0  0  0  0  0
    6.1938   21.1385   19.0123 H   0  0  0  0  0
  1  2  4  0  0  0
  1  7  4  0  0  0
  2  3  4  0  0  0
  3  4  1  0  0  0
  3  5  4  0  0  0
  5  6  4  0  0  0
  6  7  4  0  0  0
  7  8  1  0  0  0
  8  9  1  0  0  0
  9 10  1  0  0  0
  9 14  1  0  0  0
 10 11  2  0  0  0
 10 12  1  0  0  0
 12 13  1  0  0  0
 14 15  1  0  0  0
 15 16  2  0  0  0
 15 17  1  0  0  0
 17 18  1  0  0  0
 17 25  1  0  0  0
 18 19  1  0  0  0
 19 20  4  0  0  0
 19 24  4  0  0  0
 20 21  4  0  0  0
 21 22  4  0  0  0
 22 23  4  0  0  0
 23 24  4  0  0  0
 25 26  1  0  0  0
 25 27  1  0  0  0
 27 28  2  0  0  0
 27 29  1  0  0  0
 29 30  1  0  0  0
 29 36  1  0  0  0
 30 31  1  0  0  0
 31 32  4  0  0  0
 31 35  4  0  0  0
 32 33  4  0  0  0
 33 34  4  0  0  0
 34 35  4  0  0  0
 36 37  1  0  0  0
 37 38  2  0  0  0
 37 39  1  0  0  0
 39 40  1  0  0  0
 40 41  1  0  0  0
 41 42  4  0  0  0
 41 46  4  0  0  0
 42 43  4  0  0  0
 43 44  4  0  0  0
 44 45  4  0  0  0
 45 46  4  0  0  0
  1 47  1  0  0  0
  2 48  1  0  0  0
  4 49  1  0  0  0
  5 50  1  0  0  0
  6 51  1  0  0  0
  8 52  1  0  0  0
  8 53  1  0  0  0
  9 54  1  0  0  0
 12 55  1  0  0  0
 13 56  1  0  0  0
 14 57  1  0  0  0
 17 58  1  0  0  0
 18 59  1  0  0  0
 18 60  1  0  0  0
 20 61  1  0  0  0
 21 62  1  0  0  0
 22 63  1  0  0  0
 23 64  1  0  0  0
 24 65  1  0  0  0
 26 66  1  0  0  0
 26 67  1  0  0  0
 26 68  1  0  0  0
 29 69  1  0  0  0
 30 70  1  0  0  0
 30 71  1  0  0  0
 32 72  1  0  0  0
 34 73  1  0  0  0
 36 74  1  0  0  0
 40 75  1  0  0  0
 40 76  1  0  0  0
 42 77  1  0  0  0
 43 78  1  0  0  0
 44 79  1  0  0  0
 45 80  1  0  0  0
 46 81  1  0  0  0
M  END
$$$$
