5jr6_ligand
  -I-interpret- 

 67 69  0  0  0  0  0  0  0  0999 V2000
  -38.4050   72.1810  241.4610 C   0  0  0  0  0
  -37.1010   71.8890  242.1430 C   0  0  0  0  0
  -38.4890   73.5750  241.3590 N   0  3  0  0  0
  -36.2700   73.0170  242.0060 O   0  0  0  0  0
  -36.3990   70.7650  241.4720 C   0  0  0  0  0
  -39.5180   71.6460  242.3530 C   0  0  0  0  0
  -40.7810   71.2550  241.5050 C   0  0  0  0  0
  -40.9430   71.7670  240.2640 C   0  0  0  0  0
  -42.1710   71.3960  239.4230 C   0  0  0  0  0
  -43.1150   70.5420  239.9290 C   0  0  0  0  0
  -42.9400   69.9670  241.3230 C   0  0  0  0  0
  -41.8430   70.2950  242.0720 C   0  0  0  0  0
  -36.4820   70.6290  240.2560 O   0  0  0  0  0
  -35.5980   69.8610  242.2970 N   0  0  0  0  0
  -34.8150   68.7050  241.8510 C   0  0  0  0  0
  -35.4400   67.8670  240.8080 C   0  0  0  0  0
  -36.6360   67.5630  240.8750 O   0  0  0  0  0
  -34.6480   67.8900  243.1150 C   0  0  0  0  0
  -34.6420   68.8820  244.2240 C   0  0  0  0  0
  -35.4780   70.0100  243.7070 C   0  0  0  0  0
  -34.5870   67.3720  239.6850 N   0  0  0  0  0
  -35.0550   66.5160  238.5920 C   0  0  0  0  0
  -35.4390   65.1560  239.1350 C   0  0  0  0  0
  -36.3490   64.5310  238.6330 O   0  0  0  0  0
  -33.9060   66.4500  237.6090 C   0  0  0  0  0
  -32.7180   67.0260  238.3110 C   0  0  0  0  0
  -33.1870   67.6590  239.5340 C   0  0  0  0  0
  -34.6610   64.6370  240.3070 N   0  0  0  0  0
  -34.9380   63.3440  240.9240 C   0  0  0  0  0
  -34.6860   62.2330  239.9270 C   0  0  0  0  0
  -35.6200   61.7800  239.2360 O   0  0  0  0  0
  -36.3530   63.2930  241.4630 C   0  0  0  0  0
  -33.3330   61.6870  239.7770 N   0  0  0  0  0
  -38.4851   71.7227  240.4753 H   0  0  0  0  0
  -37.3022   71.6406  243.1851 H   0  0  0  0  0
  -37.7380   73.9167  240.7594 H   0  0  0  0  0
  -39.3904   73.8316  240.9565 H   0  0  0  0  0
  -38.3996   73.9886  242.2871 H   0  0  0  0  0
  -36.6859   73.7726  242.4275 H   0  0  0  0  0
  -39.8007   72.4231  243.0631 H   0  0  0  0  0
  -39.1552   70.7574  242.8696 H   0  0  0  0  0
  -40.1953   72.4485  239.8582 H   0  0  0  0  0
  -42.2925   71.8119  238.4228 H   0  0  0  0  0
  -43.9882   70.2764  239.3331 H   0  0  0  0  0
  -43.6915   69.2899  241.7290 H   0  0  0  0  0
  -41.7207   69.8764  243.0709 H   0  0  0  0  0
  -33.8945   69.0499  241.3801 H   0  0  0  0  0
  -33.7291   67.3040  243.0960 H   0  0  0  0  0
  -35.4510   67.1623  243.2321 H   0  0  0  0  0
  -33.6335   69.2021  244.4859 H   0  0  0  0  0
  -35.0371   68.4668  245.1512 H   0  0  0  0  0
  -36.4636   69.9910  244.1721 H   0  0  0  0  0
  -35.0095   70.9649  243.9454 H   0  0  0  0  0
  -35.9472   66.9028  238.0996 H   0  0  0  0  0
  -34.1341   67.0095  236.7018 H   0  0  0  0  0
  -33.7164   65.4231  237.2966 H   0  0  0  0  0
  -32.2199   67.7569  237.6739 H   0  0  0  0  0
  -31.9987   66.2407  238.5435 H   0  0  0  0  0
  -32.6328   67.2736  240.3898 H   0  0  0  0  0
  -33.0308   68.7364  239.4800 H   0  0  0  0  0
  -33.9084   65.2104  240.6880 H   0  0  0  0  0
  -34.2646   63.2058  241.7699 H   0  0  0  0  0
  -36.4835   64.0741  242.2120 H   0  0  0  0  0
  -37.0575   63.4498  240.6461 H   0  0  0  0  0
  -36.5325   62.3186  241.9173 H   0  0  0  0  0
  -33.1568   60.9375  239.1080 H   0  0  0  0  0
  -32.5683   62.0568  240.3417 H   0  0  0  0  0
  1  2  1  0  0  0
  1  3  1  0  0  0
  1  6  1  0  0  0
  2  4  1  0  0  0
  2  5  1  0  0  0
  5 13  2  0  0  0
  5 14  1  0  0  0
  6  7  1  0  0  0
  7  8  4  0  0  0
  7 12  4  0  0  0
  8  9  4  0  0  0
  9 10  4  0  0  0
 10 11  4  0  0  0
 11 12  4  0  0  0
 14 15  1  0  0  0
 14 20  1  0  0  0
 15 16  1  0  0  0
 15 18  1  0  0  0
 16 17  2  0  0  0
 16 21  1  0  0  0
 18 19  1  0  0  0
 19 20  1  0  0  0
 21 22  1  0  0  0
 21 27  1  0  0  0
 22 23  1  0  0  0
 22 25  1  0  0  0
 23 24  2  0  0  0
 23 28  1  0  0  0
 25 26  1  0  0  0
 26 27  1  0  0  0
 28 29  1  0  0  0
 29 30  1  0  0  0
 29 32  1  0  0  0
 30 31  2  0  0  0
 30 33  1  0  0  0
  1 34  1  0  0  0
  2 35  1  0  0  0
  3 36  1  0  0  0
  3 37  1  0  0  0
  3 38  1  0  0  0
  4 39  1  0  0  0
  6 40  1  0  0  0
  6 41  1  0  0  0
  8 42  1  0  0  0
  9 43  1  0  0  0
 10 44  1  0  0  0
 11 45  1  0  0  0
 12 46  1  0  0  0
 15 47  1  0  0  0
 18 48  1  0  0  0
 18 49  1  0  0  0
 19 50  1  0  0  0
 19 51  1  0  0  0
 20 52  1  0  0  0
 20 53  1  0  0  0
 22 54  1  0  0  0
 25 55  1  0  0  0
 25 56  1  0  0  0
 26 57  1  0  0  0
 26 58  1  0  0  0
 27 59  1  0  0  0
 27 60  1  0  0  0
 28 61  1  0  0  0
 29 62  1  0  0  0
 32 63  1  0  0  0
 32 64  1  0  0  0
 32 65  1  0  0  0
 33 66  1  0  0  0
 33 67  1  0  0  0
M  END
$$$$
