3nuj_ligand
  -I-interpret- 

 70 72  0  0  0  0  0  0  0  0999 V2000
   16.7790   24.9520   19.2150 C   0  0  0  0  0
   14.8380   24.0450   20.2910 C   0  0  0  0  0
   14.7210   22.2320   17.8570 C   0  0  0  0  0
   15.4520   24.2370   18.9020 C   0  0  0  0  0
   14.1420   20.0510   16.8470 C   0  0  0  0  0
   13.6410   18.9770   17.8070 C   0  0  0  0  0
   14.8280   19.5290   15.5830 C   0  0  0  0  0
   15.2270   20.6690   14.6550 C   0  0  0  0  0
   16.5230   21.1490   14.6460 C   0  0  0  0  0
   14.3100   21.2780   13.8150 C   0  0  0  0  0
   16.8310   22.2420   13.8370 C   0  0  0  0  0
   14.5690   22.3450   12.9710 C   0  0  0  0  0
   15.8560   22.8420   13.0760 C   0  0  0  0  0
   12.4990   18.1500   17.2280 C   0  0  0  0  0
   10.2450   18.3750   18.1580 C   0  0  0  0  0
   10.6630   18.8840   19.5440 C   0  0  0  0  0
    9.7550   17.6730   15.0520 C   0  0  0  0  0
   10.4650   16.7940   14.2600 C   0  0  0  0  0
    9.8060   15.6830   13.7540 C   0  0  0  0  0
    8.5590   15.3400   14.2150 C   0  0  0  0  0
    7.7960   16.2790   14.9180 C   0  0  0  0  0
    8.4400   17.4090   15.3760 C   0  0  0  0  0
   10.6740   20.4210   19.5090 C   0  0  0  0  0
    9.5900   18.4390   20.5590 C   0  0  0  0  0
   15.9160   24.5330   21.2310 C   0  0  0  0  0
   15.0380   20.9620   17.5280 N   0  0  0  0  0
   11.2160   18.8130   17.1510 N   0  0  0  0  0
    7.9670   14.2410   13.7660 N   0  0  0  0  0
   15.7750   22.9110   18.4090 O   0  0  0  0  0
   13.6140   22.7310   17.7140 O   0  0  0  0  0
   14.6860   18.0690   18.1220 O   0  0  0  0  0
   11.6630   19.3930   14.6550 O   0  0  0  0  0
    9.6040   20.2520   15.7500 O   0  0  0  0  0
   17.1400   24.4610   20.5010 O   0  0  0  0  0
   10.5770   19.1030   15.6700 S   0  0  0  0  0
   16.6768   26.0371   19.2009 H   0  0  0  0  0
   17.5442   24.7492   18.4657 H   0  0  0  0  0
   14.5582   23.0090   20.4819 H   0  0  0  0  0
   13.9031   24.5923   20.4112 H   0  0  0  0  0
   14.8206   24.7681   18.1897 H   0  0  0  0  0
   13.2382   20.5602   16.5123 H   0  0  0  0  0
   13.2880   19.5121   18.6886 H   0  0  0  0  0
   14.1302   18.8802   15.0536 H   0  0  0  0  0
   15.7290   18.9901   15.8760 H   0  0  0  0  0
   17.2915   20.6809   15.2611 H   0  0  0  0  0
   13.2943   20.8825   13.8184 H   0  0  0  0  0
   17.8517   22.6233   13.8078 H   0  0  0  0  0
   13.8268   22.7557   12.2865 H   0  0  0  0  0
   16.1084   23.7511   12.5302 H   0  0  0  0  0
   12.3658   17.2995   17.8966 H   0  0  0  0  0
   12.7826   17.9094   16.2034 H   0  0  0  0  0
    9.2630   18.7770   17.9088 H   0  0  0  0  0
   10.2081   17.2857   18.1715 H   0  0  0  0  0
   11.6443   18.4964   19.8177 H   0  0  0  0  0
   11.5177   16.9683   14.0374 H   0  0  0  0  0
   10.2825   15.0769   12.9835 H   0  0  0  0  0
    6.7322   16.1230   15.0969 H   0  0  0  0  0
    7.8971   18.1107   16.0093 H   0  0  0  0  0
   11.3839   20.7609   18.7550 H   0  0  0  0  0
    9.6768   20.7847   19.2611 H   0  0  0  0  0
   10.9690   20.8033   20.4862 H   0  0  0  0  0
    8.6264   18.8631   20.2765 H   0  0  0  0  0
    9.5230   17.3511   20.5614 H   0  0  0  0  0
    9.8651   18.7895   21.5538 H   0  0  0  0  0
   15.9586   23.9219   22.1326 H   0  0  0  0  0
   15.7160   25.5511   21.5650 H   0  0  0  0  0
   15.9676   20.6225   17.7747 H   0  0  0  0  0
    8.4382   13.6521   13.0793 H   0  0  0  0  0
    7.0406   13.9849   14.1075 H   0  0  0  0  0
   15.4283   18.5529   18.4914 H   0  0  0  0  0
  4  1  1  0  0  0
  1 34  1  0  0  0
  4  2  1  0  0  0
  2 25  1  0  0  0
 26  3  1  0  0  0
  3 29  1  0  0  0
  3 30  2  0  0  0
 29  4  1  0  0  0
  6  5  1  0  0  0
  5  7  1  0  0  0
  5 26  1  0  0  0
 14  6  1  0  0  0
  6 31  1  0  0  0
  7  8  1  0  0  0
  8  9  4  0  0  0
  8 10  4  0  0  0
  9 11  4  0  0  0
 10 12  4  0  0  0
 11 13  4  0  0  0
 12 13  4  0  0  0
 27 14  1  0  0  0
 15 16  1  0  0  0
 27 15  1  0  0  0
 16 23  1  0  0  0
 16 24  1  0  0  0
 17 18  4  0  0  0
 17 22  4  0  0  0
 35 17  1  0  0  0
 18 19  4  0  0  0
 19 20  4  0  0  0
 21 20  4  0  0  0
 20 28  1  0  0  0
 22 21  4  0  0  0
 25 34  1  0  0  0
 27 35  1  0  0  0
 35 32  2  0  0  0
 35 33  2  0  0  0
  1 36  1  0  0  0
  1 37  1  0  0  0
  2 38  1  0  0  0
  2 39  1  0  0  0
  4 40  1  0  0  0
  5 41  1  0  0  0
  6 42  1  0  0  0
  7 43  1  0  0  0
  7 44  1  0  0  0
  9 45  1  0  0  0
 10 46  1  0  0  0
 11 47  1  0  0  0
 12 48  1  0  0  0
 13 49  1  0  0  0
 14 50  1  0  0  0
 14 51  1  0  0  0
 15 52  1  0  0  0
 15 53  1  0  0  0
 16 54  1  0  0  0
 18 55  1  0  0  0
 19 56  1  0  0  0
 21 57  1  0  0  0
 22 58  1  0  0  0
 23 59  1  0  0  0
 23 60  1  0  0  0
 23 61  1  0  0  0
 24 62  1  0  0  0
 24 63  1  0  0  0
 24 64  1  0  0  0
 25 65  1  0  0  0
 25 66  1  0  0  0
 26 67  1  0  0  0
 28 68  1  0  0  0
 28 69  1  0  0  0
 31 70  1  0  0  0
M  END
$$$$
