4a7i_ligand
  -I-interpret- 

 49 50  0  0  0  0  0  0  0  0999 V2000
   48.8000    5.0580   57.9920 C   0  0  0  0  0
   47.9210    3.9930   58.6530 C   0  0  0  0  0
   48.6840    2.7400   58.7880 N   0  3  0  0  0
   47.9740    1.7030   59.5570 C   0  0  0  0  0
   46.5940    1.3730   58.9790 C   0  0  0  0  0
   47.8650    2.1050   61.0300 C   0  0  0  0  0
   49.0770    2.2100   57.4720 C   0  0  0  0  0
   50.0050    3.2140   56.7840 C   0  0  0  0  0
   49.3150    4.5720   56.6340 C   0  0  0  0  0
   50.2770    5.5330   56.0740 N   0  0  0  0  0
   49.5530    6.8010   55.3470 S   0  0  0  0  0
   48.1420    6.5140   54.9290 O   0  0  0  0  0
   49.6660    8.0690   56.1400 O   0  0  0  0  0
   50.5080    7.0700   53.8090 C   0  0  0  0  0
   50.0170    8.2340   52.9450 C   0  0  0  0  0
   48.7140    7.9160   52.3410 N   0  0  0  0  0
   47.5880    8.5030   52.7340 C   0  0  0  0  0
   47.5220    9.3430   53.6300 O   0  0  0  0  0
   46.3230    8.0600   51.9950 C   0  0  0  0  0
   46.2680    7.4030   50.8370 C   0  0  0  0  0
   45.0330    7.1270   50.4040 C   0  0  0  0  0
   44.0490    7.5540   51.1960 C   0  0  0  0  0
   42.3550    7.2980   50.9520 Cl  0  0  0  0  0
   44.7300    8.3470   52.5500 S   0  0  0  0  0
   49.6532    5.2608   58.6393 H   0  0  0  0  0
   48.2061    5.9594   57.8405 H   0  0  0  0  0
   47.0392    3.8165   58.0370 H   0  0  0  0  0
   47.6124    4.3383   59.6397 H   0  0  0  0  0
   49.5210    2.9837   59.3176 H   0  0  0  0  0
   48.5681    0.7924   59.4805 H   0  0  0  0  0
   46.1557    0.5461   59.5378 H   0  0  0  0  0
   45.9496    2.2486   59.0580 H   0  0  0  0  0
   46.6984    1.0904   57.9315 H   0  0  0  0  0
   47.2269    2.9842   61.1191 H   0  0  0  0  0
   47.4330    1.2817   61.5990 H   0  0  0  0  0
   48.8578    2.3343   61.4171 H   0  0  0  0  0
   48.1888    2.0529   56.8600 H   0  0  0  0  0
   49.5953    1.2596   57.5996 H   0  0  0  0  0
   50.2606    2.8369   55.7938 H   0  0  0  0  0
   50.9016    3.3390   57.3911 H   0  0  0  0  0
   48.4610    4.4791   55.9631 H   0  0  0  0  0
   51.2888    5.4188   56.1338 H   0  0  0  0  0
   50.4050    6.1653   53.2098 H   0  0  0  0  0
   51.5294    7.3059   54.1075 H   0  0  0  0  0
   50.7406    8.4138   52.1499 H   0  0  0  0  0
   49.9092    9.1188   53.5723 H   0  0  0  0  0
   48.6731    7.2214   51.5952 H   0  0  0  0  0
   47.1616    7.1126   50.2846 H   0  0  0  0  0
   44.8449    6.5927   49.4728 H   0  0  0  0  0
  1  2  1  0  0  0
  1  9  1  0  0  0
  2  3  1  0  0  0
  3  4  1  0  0  0
  3  7  1  0  0  0
  4  5  1  0  0  0
  4  6  1  0  0  0
  7  8  1  0  0  0
  8  9  1  0  0  0
  9 10  1  0  0  0
 10 11  1  0  0  0
 11 12  2  0  0  0
 11 13  2  0  0  0
 11 14  1  0  0  0
 14 15  1  0  0  0
 15 16  1  0  0  0
 16 17  1  0  0  0
 17 18  2  0  0  0
 17 19  1  0  0  0
 19 20  4  0  0  0
 19 24  4  0  0  0
 20 21  4  0  0  0
 21 22  4  0  0  0
 22 23  1  0  0  0
 22 24  4  0  0  0
  1 25  1  0  0  0
  1 26  1  0  0  0
  2 27  1  0  0  0
  2 28  1  0  0  0
  3 29  1  0  0  0
  4 30  1  0  0  0
  5 31  1  0  0  0
  5 32  1  0  0  0
  5 33  1  0  0  0
  6 34  1  0  0  0
  6 35  1  0  0  0
  6 36  1  0  0  0
  7 37  1  0  0  0
  7 38  1  0  0  0
  8 39  1  0  0  0
  8 40  1  0  0  0
  9 41  1  0  0  0
 10 42  1  0  0  0
 14 43  1  0  0  0
 14 44  1  0  0  0
 15 45  1  0  0  0
 15 46  1  0  0  0
 16 47  1  0  0  0
 20 48  1  0  0  0
 21 49  1  0  0  0
M  END
$$$$
