3vo3_ligand
  -I-interpret- 

 53 57  0  0  0  0  0  0  0  0999 V2000
   28.7020  -29.2840  -11.4360 C   0  0  0  0  0
   29.3740  -29.6490  -12.5760 C   0  0  0  0  0
   27.3510  -29.0230  -11.4500 C   0  0  0  0  0
   27.3310  -29.4750  -13.8110 C   0  0  0  0  0
   30.6960  -31.3200  -17.2220 C   0  0  0  0  0
   21.7480  -26.2180  -11.3970 C   0  0  0  0  0
   28.6850  -29.7320  -13.7650 C   0  0  0  0  0
   26.6800  -29.1200  -12.6480 C   0  0  0  0  0
   30.0310  -30.1130  -17.1560 C   0  0  0  0  0
   31.3820  -31.2990  -18.4600 C   0  0  0  0  0
   21.6840  -24.8830  -11.2920 C   0  0  0  0  0
   23.6410  -25.2910  -11.8950 C   0  0  0  0  0
   24.9260  -25.2090  -12.2860 C   0  0  0  0  0
   25.4950  -26.4950  -12.5680 C   0  0  0  0  0
   24.8010  -27.6490  -12.4320 C   0  0  0  0  0
   29.1730  -29.5730  -16.1460 C   0  0  0  0  0
   19.3520  -24.6680  -10.5510 C   0  0  0  0  0
   17.4360  -23.7910   -9.0540 C   0  0  0  0  0
   16.8980  -23.9030  -10.4470 C   0  0  0  0  0
   18.3590  -23.6310  -10.2280 C   0  0  0  0  0
   32.2450  -32.3450  -19.0370 C   0  0  0  0  0
   29.9180  -28.1600  -18.7540 C   0  0  0  0  0
   31.1690  -30.1660  -19.1310 N   0  0  0  0  0
   22.8860  -24.2780  -11.6060 N   0  0  0  0  0
   23.6020  -27.6910  -12.0400 N   0  0  0  0  0
   23.0300  -26.4900  -11.7770 N   0  0  0  0  0
   30.3600  -29.4710  -18.3210 N   0  0  0  0  0
   29.3950  -30.1050  -14.9080 N   0  0  0  0  0
   20.5640  -24.1420  -10.9430 N   0  0  0  0  0
   28.3080  -28.7490  -16.3920 O   0  0  0  0  0
   19.0770  -25.8560  -10.4480 O   0  0  0  0  0
   25.3200  -28.8930  -12.7130 O   0  0  0  0  0
   29.2511  -29.1990  -10.4983 H   0  0  0  0  0
   30.4407  -29.8705  -12.5402 H   0  0  0  0  0
   26.8256  -28.7465  -10.5359 H   0  0  0  0  0
   26.7842  -29.5511  -14.7509 H   0  0  0  0  0
   30.6936  -32.1185  -16.4800 H   0  0  0  0  0
   20.9462  -26.9341  -11.2170 H   0  0  0  0  0
   25.4730  -24.2707  -12.3781 H   0  0  0  0  0
   26.5300  -26.5451  -12.9061 H   0  0  0  0  0
   17.3961  -24.3451   -8.1162 H   0  0  0  0  0
   17.1977  -23.2715   -8.1259 H   0  0  0  0  0
   16.0729  -23.5058  -11.0383 H   0  0  0  0  0
   16.2713  -24.5791  -11.0286 H   0  0  0  0  0
   19.0639  -22.8644  -10.5497 H   0  0  0  0  0
   33.0841  -32.5324  -18.3670 H   0  0  0  0  0
   31.6681  -33.2611  -19.1639 H   0  0  0  0  0
   32.6189  -32.0124  -20.0053 H   0  0  0  0  0
   28.8308  -28.1521  -18.8324 H   0  0  0  0  0
   30.2367  -27.4123  -18.0277 H   0  0  0  0  0
   30.3553  -27.9334  -19.7264 H   0  0  0  0  0
   30.1208  -30.8153  -14.8129 H   0  0  0  0  0
   20.6442  -23.1258  -10.9795 H   0  0  0  0  0
  1  2  4  0  0  0
  3  1  4  0  0  0
  7  2  4  0  0  0
  8  3  4  0  0  0
  4  7  4  0  0  0
  8  4  4  0  0  0
  9  5  4  0  0  0
  5 10  4  0  0  0
 11  6  4  0  0  0
  6 26  4  0  0  0
  7 28  1  0  0  0
 32  8  1  0  0  0
 16  9  1  0  0  0
  9 27  4  0  0  0
 10 21  1  0  0  0
 10 23  4  0  0  0
 11 24  4  0  0  0
 29 11  1  0  0  0
 12 13  4  0  0  0
 24 12  4  0  0  0
 12 26  4  0  0  0
 13 14  4  0  0  0
 14 15  4  0  0  0
 15 25  4  0  0  0
 15 32  1  0  0  0
 28 16  1  0  0  0
 16 30  2  0  0  0
 20 17  1  0  0  0
 17 29  1  0  0  0
 17 31  2  0  0  0
 18 19  1  0  0  0
 18 20  1  0  0  0
 19 20  1  0  0  0
 27 22  1  0  0  0
 23 27  4  0  0  0
 25 26  4  0  0  0
  1 33  1  0  0  0
  2 34  1  0  0  0
  3 35  1  0  0  0
  4 36  1  0  0  0
  5 37  1  0  0  0
  6 38  1  0  0  0
 13 39  1  0  0  0
 14 40  1  0  0  0
 18 41  1  0  0  0
 18 42  1  0  0  0
 19 43  1  0  0  0
 19 44  1  0  0  0
 20 45  1  0  0  0
 21 46  1  0  0  0
 21 47  1  0  0  0
 21 48  1  0  0  0
 22 49  1  0  0  0
 22 50  1  0  0  0
 22 51  1  0  0  0
 28 52  1  0  0  0
 29 53  1  0  0  0
M  END
$$$$
