5lt6_ligand
  -I-interpret- 

 67 69  0  0  0  0  0  0  0  0999 V2000
   21.8530   12.0640   63.4650 C   0  0  0  0  0
   21.5810   13.5290   63.7460 C   0  0  0  0  0
   20.1000   13.8860   63.8820 C   0  0  0  0  0
   17.8360   13.1950   64.8050 C   0  0  0  0  0
   16.4920   14.2220   66.7390 C   0  0  0  0  0
   16.8730   14.8710   68.0730 C   0  0  0  0  0
   15.3490   14.3550   69.9890 C   0  0  0  0  0
   15.0270   13.3530   71.1140 C   0  0  0  0  0
   15.6120   15.0990   65.8200 C   0  0  0  0  0
   14.2750   15.5990   66.4100 C   0  0  0  0  0
   14.4620   16.4360   67.5720 O   0  0  0  0  0
   12.5640   17.2810   66.4310 C   0  0  0  0  0
   13.4460   16.4830   65.4590 C   0  0  0  0  0
   15.6200   18.9080   67.1500 C   0  0  0  0  0
   14.8570   20.9020   67.2890 C   0  0  0  0  0
   14.6060   22.2860   67.3060 C   0  0  0  0  0
   19.2420   12.7730   64.4310 C   0  0  0  0  0
   17.8310   13.8980   66.1130 N   0  3  0  0  0
   16.6340   14.0080   69.2770 C   0  0  0  0  0
   15.4580   15.7400   70.5310 N   0  3  0  0  0
   15.3490   12.1790   70.9070 O   0  0  0  0  0
   14.4630   13.7630   72.1520 O   0  0  0  0  0
   13.5410   17.5340   67.6060 C   0  0  0  0  0
   11.4500   16.5250   66.8630 O   0  0  0  0  0
   12.7110   15.6890   64.5600 O   0  0  0  0  0
   14.2880   18.7970   67.4630 N   0  0  0  0  0
   15.9980   20.1600   67.0420 N   0  0  0  0  0
   15.5570   23.1830   67.0560 N   0  0  0  0  0
   13.3380   22.7280   67.5510 N   0  0  0  0  0
   12.3820   21.7930   67.7720 C   0  0  0  0  0
   12.5190   20.4690   67.7580 N   0  0  0  0  0
   13.7910   20.0770   67.5110 C   0  0  0  0  0
   21.4546   11.4591   64.2795 H   0  0  0  0  0
   21.3710   11.7792   62.5297 H   0  0  0  0  0
   22.9282   11.9043   63.3845 H   0  0  0  0  0
   21.9680   14.0932   62.8974 H   0  0  0  0  0
   22.0540   13.7635   64.6996 H   0  0  0  0  0
   19.7311   14.1122   62.8816 H   0  0  0  0  0
   20.0334   14.7183   64.5827 H   0  0  0  0  0
   17.2089   12.3066   64.8795 H   0  0  0  0  0
   17.4551   13.8711   64.0395 H   0  0  0  0  0
   15.8581   13.3488   66.8934 H   0  0  0  0  0
   16.2476   15.7565   68.1866 H   0  0  0  0  0
   17.9432   15.0743   68.0342 H   0  0  0  0  0
   14.5275   14.2994   69.2747 H   0  0  0  0  0
   15.3482   14.4712   64.9689 H   0  0  0  0  0
   16.1986   15.9926   65.6065 H   0  0  0  0  0
   13.7599   14.6638   66.6295 H   0  0  0  0  0
   12.1407   18.1851   65.9933 H   0  0  0  0  0
   14.0350   17.1356   64.8146 H   0  0  0  0  0
   16.2854   18.0564   67.0079 H   0  0  0  0  0
   19.7229   12.4175   65.3423 H   0  0  0  0  0
   19.1529   12.0208   63.6472 H   0  0  0  0  0
   18.2734   14.8001   65.9374 H   0  0  0  0  0
   18.2877   13.2603   66.7651 H   0  0  0  0  0
   17.4579   14.1652   69.9731 H   0  0  0  0  0
   16.5644   12.9733   68.9414 H   0  0  0  0  0
   15.6712   16.3856   69.7706 H   0  0  0  0  0
   14.5738   16.0044   70.9653 H   0  0  0  0  0
   16.2034   15.7740   71.2265 H   0  0  0  0  0
   14.3144   14.7088   72.0818 H   0  0  0  0  0
   12.9888   17.6113   68.5426 H   0  0  0  0  0
   10.9219   17.0520   67.4672 H   0  0  0  0  0
   12.2016   16.2562   63.9765 H   0  0  0  0  0
   16.5056   22.8746   66.8430 H   0  0  0  0  0
   15.3372   24.1788   67.0774 H   0  0  0  0  0
   11.3821   22.1700   67.9867 H   0  0  0  0  0
  2  1  1  0  0  0
  3  2  1  0  0  0
 17  3  1  0  0  0
  4 17  1  0  0  0
 18  4  1  0  0  0
  5  6  1  0  0  0
  9  5  1  0  0  0
  5 18  1  0  0  0
  6 19  1  0  0  0
  7  8  1  0  0  0
 19  7  1  0  0  0
  7 20  1  0  0  0
  8 21  2  0  0  0
  8 22  1  0  0  0
 10  9  1  0  0  0
 11 10  1  0  0  0
 13 10  1  0  0  0
 23 11  1  0  0  0
 12 13  1  0  0  0
 23 12  1  0  0  0
 12 24  1  0  0  0
 13 25  1  0  0  0
 26 14  4  0  0  0
 14 27  4  0  0  0
 15 16  4  0  0  0
 27 15  4  0  0  0
 15 32  4  0  0  0
 16 28  1  0  0  0
 16 29  4  0  0  0
 23 26  1  0  0  0
 26 32  4  0  0  0
 29 30  4  0  0  0
 30 31  4  0  0  0
 31 32  4  0  0  0
  1 33  1  0  0  0
  1 34  1  0  0  0
  1 35  1  0  0  0
  2 36  1  0  0  0
  2 37  1  0  0  0
  3 38  1  0  0  0
  3 39  1  0  0  0
  4 40  1  0  0  0
  4 41  1  0  0  0
  5 42  1  0  0  0
  6 43  1  0  0  0
  6 44  1  0  0  0
  7 45  1  0  0  0
  9 46  1  0  0  0
  9 47  1  0  0  0
 10 48  1  0  0  0
 12 49  1  0  0  0
 13 50  1  0  0  0
 14 51  1  0  0  0
 17 52  1  0  0  0
 17 53  1  0  0  0
 18 54  1  0  0  0
 18 55  1  0  0  0
 19 56  1  0  0  0
 19 57  1  0  0  0
 20 58  1  0  0  0
 20 59  1  0  0  0
 20 60  1  0  0  0
 22 61  1  0  0  0
 23 62  1  0  0  0
 24 63  1  0  0  0
 25 64  1  0  0  0
 28 65  1  0  0  0
 28 66  1  0  0  0
 30 67  1  0  0  0
M  END
$$$$
