4x8v_ligand
  -I-interpret- 

 87 91  0  0  0  0  0  0  0  0999 V2000
    7.2670   37.4310   25.8850 C   0  0  0  0  0
    6.7720   40.3180   23.3570 C   0  0  0  0  0
    7.2590   38.2750   24.5980 C   0  0  0  0  0
    6.5160   41.7500   23.8510 C   0  0  0  0  0
    5.6850   41.5510   25.1110 C   0  0  0  0  0
    6.1530   40.2570   25.7360 C   0  0  0  0  0
    5.7590   39.8410   22.3310 C   0  0  0  0  0
    5.1160   36.3220   25.2000 C   0  0  0  0  0
    3.8190   35.8990   25.4520 C   0  0  0  0  0
    3.7800   38.9090   20.5560 C   0  0  0  0  0
    5.2780   37.1770   27.4410 C   0  0  0  0  0
    3.6220   38.7120   21.9230 C   0  0  0  0  0
    8.4650   35.8060   28.0980 C   0  0  0  0  0
    9.7380   33.4450   27.4050 C   0  0  0  0  0
    9.3430   34.3260   26.4190 C   0  0  0  0  0
    8.6800   35.5030   26.7560 C   0  0  0  0  0
    9.4890   33.7040   28.7480 C   0  0  0  0  0
    8.8580   34.9110   29.1010 C   0  0  0  0  0
    8.5350   35.2180   30.5130 C   0  0  0  0  0
    9.0450   34.3760   31.4270 N   0  0  0  0  0
    9.9280   33.2640   31.1650 C   0  0  0  0  0
    9.7610   32.6500   29.7930 C   0  0  0  0  0
    7.8370   36.1680   30.8490 O   0  0  0  0  0
    8.1870   36.3150   25.7310 N   0  0  0  0  0
    5.8490   36.9710   26.1870 C   0  0  0  0  0
    7.7750   37.8160   23.6020 O   0  0  0  0  0
    6.7580   39.5220   24.6120 N   0  0  0  0  0
    3.2320   36.1460   26.7230 C   0  0  0  0  0
    3.9820   36.7700   27.7190 C   0  0  0  0  0
    1.9160   35.7780   26.8430 O   0  0  0  0  0
    1.2830   35.9110   28.1150 C   0  0  0  0  0
    3.0510   35.1710   24.5740 O   0  0  0  0  0
    3.5710   34.9090   23.2680 C   0  0  0  0  0
    4.6120   39.1740   22.7880 C   0  0  0  0  0
    4.8960   39.5710   20.0740 C   0  0  0  0  0
    5.8730   40.0320   20.9490 C   0  0  0  0  0
    7.1940   40.9200   20.1390 S   0  0  0  0  0
    8.3570   39.6660   19.5200 C   0  0  0  0  0
    6.6230   41.5730   18.9920 O   0  0  0  0  0
    7.8940   41.7220   21.1040 O   0  0  0  0  0
    8.9320   38.7690   20.5990 C   0  0  0  0  0
    9.4330   40.3690   18.7110 C   0  0  0  0  0
    2.3900   38.1430   22.3380 N   0  0  0  0  0
    1.8600   38.1290   23.5890 C   0  0  0  0  0
    0.7620   37.3570   23.5930 O   0  0  0  0  0
    2.2580   38.7590   24.5440 O   0  0  0  0  0
   -0.0740   37.4440   24.7740 C   0  0  0  0  0
    7.6140   38.0242   26.7311 H   0  0  0  0  0
    7.7109   40.2262   22.8109 H   0  0  0  0  0
    6.0057   42.3624   23.1076 H   0  0  0  0  0
    7.4396   42.2961   24.0428 H   0  0  0  0  0
    4.6220   41.5070   24.8737 H   0  0  0  0  0
    5.8155   42.3858   25.7996 H   0  0  0  0  0
    5.3384   39.7035   26.2031 H   0  0  0  0  0
    6.8574   40.4211   26.5514 H   0  0  0  0  0
    5.5632   36.1444   24.2219 H   0  0  0  0  0
    3.0237   38.5415   19.8624 H   0  0  0  0  0
    5.8620   37.6681   28.2194 H   0  0  0  0  0
    7.9871   36.7471   28.3700 H   0  0  0  0  0
   10.2557   32.5275   27.1252 H   0  0  0  0  0
    9.5507   34.0997   25.3732 H   0  0  0  0  0
    8.7834   34.5377   32.3995 H   0  0  0  0  0
    9.6945   32.4889   31.8949 H   0  0  0  0  0
   10.9485   33.6422   31.2261 H   0  0  0  0  0
   10.6836   32.1322   29.5307 H   0  0  0  0  0
    8.9145   31.9639   29.8214 H   0  0  0  0  0
    8.5026   36.1049   24.7841 H   0  0  0  0  0
    3.5534   36.9364   28.7073 H   0  0  0  0  0
    1.8105   35.3001   28.8476 H   0  0  0  0  0
    1.3090   36.9557   28.4249 H   0  0  0  0  0
    0.2476   35.5784   28.0407 H   0  0  0  0  0
    3.7595   35.8533   22.7572 H   0  0  0  0  0
    4.5022   34.3491   23.3547 H   0  0  0  0  0
    2.8463   34.3256   22.7001 H   0  0  0  0  0
    4.4910   39.0113   23.8590 H   0  0  0  0  0
    5.0095   39.7318   19.0019 H   0  0  0  0  0
    7.8055   38.9761   18.8813 H   0  0  0  0  0
    9.4712   39.3767   21.3257 H   0  0  0  0  0
    8.1216   38.2375   21.0979 H   0  0  0  0  0
    9.6151   38.0503   20.1463 H   0  0  0  0  0
    8.9718   40.8957   17.8756 H   0  0  0  0  0
    9.9565   41.0824   19.3475 H   0  0  0  0  0
   10.1403   39.6317   18.3313 H   0  0  0  0  0
    1.8364   37.6906   21.6105 H   0  0  0  0  0
    0.5050   37.1510   25.6498 H   0  0  0  0  0
   -0.4245   38.4690   24.8948 H   0  0  0  0  0
   -0.9289   36.7771   24.6623 H   0  0  0  0  0
  1  3  1  0  0  0
 24  1  1  0  0  0
  1 25  1  0  0  0
  2  4  1  0  0  0
  2  7  1  0  0  0
 27  2  1  0  0  0
  3 26  2  0  0  0
  3 27  1  0  0  0
  5  4  1  0  0  0
  6  5  1  0  0  0
 27  6  1  0  0  0
  7 34  4  0  0  0
  7 36  4  0  0  0
  8  9  4  0  0  0
 25  8  4  0  0  0
  9 28  4  0  0  0
  9 32  1  0  0  0
 12 10  4  0  0  0
 10 35  4  0  0  0
 25 11  4  0  0  0
 11 29  4  0  0  0
 34 12  4  0  0  0
 12 43  1  0  0  0
 16 13  4  0  0  0
 13 18  4  0  0  0
 15 14  4  0  0  0
 14 17  4  0  0  0
 16 15  4  0  0  0
 16 24  1  0  0  0
 17 18  4  0  0  0
 17 22  1  0  0  0
 18 19  1  0  0  0
 19 20  1  0  0  0
 19 23  2  0  0  0
 20 21  1  0  0  0
 21 22  1  0  0  0
 28 29  4  0  0  0
 28 30  1  0  0  0
 30 31  1  0  0  0
 32 33  1  0  0  0
 35 36  4  0  0  0
 36 37  1  0  0  0
 37 38  1  0  0  0
 37 39  2  0  0  0
 37 40  2  0  0  0
 38 41  1  0  0  0
 38 42  1  0  0  0
 43 44  1  0  0  0
 44 45  1  0  0  0
 44 46  2  0  0  0
 45 47  1  0  0  0
  1 48  1  0  0  0
  2 49  1  0  0  0
  4 50  1  0  0  0
  4 51  1  0  0  0
  5 52  1  0  0  0
  5 53  1  0  0  0
  6 54  1  0  0  0
  6 55  1  0  0  0
  8 56  1  0  0  0
 10 57  1  0  0  0
 11 58  1  0  0  0
 13 59  1  0  0  0
 14 60  1  0  0  0
 15 61  1  0  0  0
 20 62  1  0  0  0
 21 63  1  0  0  0
 21 64  1  0  0  0
 22 65  1  0  0  0
 22 66  1  0  0  0
 24 67  1  0  0  0
 29 68  1  0  0  0
 31 69  1  0  0  0
 31 70  1  0  0  0
 31 71  1  0  0  0
 33 72  1  0  0  0
 33 73  1  0  0  0
 33 74  1  0  0  0
 34 75  1  0  0  0
 35 76  1  0  0  0
 38 77  1  0  0  0
 41 78  1  0  0  0
 41 79  1  0  0  0
 41 80  1  0  0  0
 42 81  1  0  0  0
 42 82  1  0  0  0
 42 83  1  0  0  0
 43 84  1  0  0  0
 47 85  1  0  0  0
 47 86  1  0  0  0
 47 87  1  0  0  0
M  END
$$$$
