4w53_ligand
  -I-interpret- 

 15 15  0  0  0  0  0  0  0  0999 V2000
  -32.3550    7.2630    2.2070 C   0  0  0  0  0
  -33.1810    6.6060    3.3010 C   0  0  0  0  0
  -33.2380    7.1600    4.5650 C   0  0  0  0  0
  -33.9920    6.5710    5.5700 C   0  0  0  0  0
  -34.7110    5.4170    5.3320 C   0  0  0  0  0
  -34.6380    4.8780    4.0600 C   0  0  0  0  0
  -33.8940    5.4470    3.0480 C   0  0  0  0  0
  -32.7253    8.2729    2.0308 H   0  0  0  0  0
  -31.3113    7.3065    2.5181 H   0  0  0  0  0
  -32.4382    6.6790    1.2904 H   0  0  0  0  0
  -32.6823    8.0736    4.7762 H   0  0  0  0  0
  -34.0168    7.0256    6.5604 H   0  0  0  0  0
  -35.3109    4.9502    6.1132 H   0  0  0  0  0
  -35.1927    3.9638    3.8486 H   0  0  0  0  0
  -33.8677    4.9889    2.0593 H   0  0  0  0  0
  1  2  1  0  0  0
  2  3  4  0  0  0
  2  7  4  0  0  0
  3  4  4  0  0  0
  4  5  4  0  0  0
  5  6  4  0  0  0
  6  7  4  0  0  0
  1  8  1  0  0  0
  1  9  1  0  0  0
  1 10  1  0  0  0
  3 11  1  0  0  0
  4 12  1  0  0  0
  5 13  1  0  0  0
  6 14  1  0  0  0
  7 15  1  0  0  0
M  END
$$$$
