3u7s_ligand
  -I-interpret- 

 75 78  0  0  0  0  0  0  0  0999 V2000
  -10.7180   14.3630   34.9150 N   0  0  0  0  0
  -10.3550   14.6440   33.6300 C   0  0  0  0  0
   -9.9790   15.9350   33.2380 C   0  0  0  0  0
   -9.6060   16.1990   31.9090 C   0  0  0  0  0
   -9.6230   15.1720   30.9640 C   0  0  0  0  0
   -9.9950   13.8900   31.3650 C   0  0  0  0  0
  -10.3540   13.6220   32.6890 C   0  0  0  0  0
   -9.2000   15.4110   29.4290 S   0  0  0  0  0
   -8.0200   16.2280   29.3920 O   0  0  0  0  0
   -8.9130   14.1150   28.8640 O   0  0  0  0  0
  -10.3670   16.0310   28.4860 N   0  0  0  0  0
  -11.6980   15.4430   28.7610 C   0  0  0  0  0
  -12.4570   15.2260   27.4400 C   0  0  0  0  0
  -11.6880   14.3650   26.4470 C   0  0  0  0  0
  -13.8260   14.6140   27.6630 C   0  0  0  0  0
  -10.3660   17.5100   28.4270 C   0  0  0  0  0
  -10.2700   17.8980   26.9410 C   0  0  0  0  0
  -10.6210   19.2770   26.7080 O   0  0  0  0  0
   -8.8690   17.5890   26.3880 C   0  0  0  0  0
   -8.9040   17.8390   24.9480 N   0  0  0  0  0
   -8.8220   16.8810   24.0120 C   0  0  0  0  0
   -8.7270   15.6740   24.2470 O   0  0  0  0  0
   -8.8630   17.3420   22.6330 O   0  0  0  0  0
   -8.4530   16.4590   21.5880 C   0  0  0  0  0
   -9.3820   16.7760   20.4320 C   0  0  0  0  0
   -8.8230   17.9500   19.8440 O   0  0  0  0  0
   -7.4030   17.9800   20.0370 C   0  0  0  0  0
   -6.9880   19.2060   20.6450 O   0  0  0  0  0
   -6.1260   18.9590   21.7570 C   0  0  0  0  0
   -6.1090   17.4570   22.0200 C   0  0  0  0  0
   -7.0990   16.8680   21.0290 C   0  0  0  0  0
   -7.8380   18.5500   26.9740 C   0  0  0  0  0
   -6.0290   19.1830   25.3610 C   0  0  0  0  0
   -4.7760   18.9690   24.7940 C   0  0  0  0  0
   -3.9880   17.9040   25.2170 C   0  0  0  0  0
   -4.4450   17.0390   26.2150 C   0  0  0  0  0
   -5.6980   17.2440   26.7900 C   0  0  0  0  0
   -6.4830   18.3120   26.3570 C   0  0  0  0  0
  -10.7200   15.1023   35.6177 H   0  0  0  0  0
  -10.9874   13.4136   35.1729 H   0  0  0  0  0
   -9.9757   16.7423   33.9704 H   0  0  0  0  0
   -9.3038   17.2046   31.6166 H   0  0  0  0  0
  -10.0062   13.0822   30.6332 H   0  0  0  0  0
  -10.6334   12.6104   32.9834 H   0  0  0  0  0
  -12.2672   16.1222   29.3956 H   0  0  0  0  0
  -11.5709   14.4847   29.2645 H   0  0  0  0  0
  -12.5716   16.2230   27.0146 H   0  0  0  0  0
  -10.7392   14.8461   26.2095 H   0  0  0  0  0
  -11.5001   13.3854   26.8866 H   0  0  0  0  0
  -12.2761   14.2493   25.5366 H   0  0  0  0  0
  -13.7148   13.6473   28.1542 H   0  0  0  0  0
  -14.4206   15.2764   28.2921 H   0  0  0  0  0
  -14.3234   14.4798   26.7024 H   0  0  0  0  0
   -9.5259   17.9188   28.9885 H   0  0  0  0  0
  -11.2733   17.9155   28.8747 H   0  0  0  0  0
  -10.9999   17.2912   26.4051 H   0  0  0  0  0
  -10.5464   19.4711   25.7708 H   0  0  0  0  0
   -8.6026   16.5615   26.6357 H   0  0  0  0  0
   -8.9968   18.8051   24.6342 H   0  0  0  0  0
   -8.4442   15.4345   21.9601 H   0  0  0  0  0
  -10.4095   16.9307   20.7612 H   0  0  0  0  0
   -9.4491   15.9525   19.7211 H   0  0  0  0  0
   -6.8943   17.8731   19.0789 H   0  0  0  0  0
   -6.4876   19.4902   22.6375 H   0  0  0  0  0
   -5.1188   19.3130   21.5371 H   0  0  0  0  0
   -6.3842   17.2257   23.0490 H   0  0  0  0  0
   -5.1116   17.0372   21.8898 H   0  0  0  0  0
   -6.6323   15.9639   20.6381 H   0  0  0  0  0
   -7.7712   18.3848   28.0493 H   0  0  0  0  0
   -8.1481   19.5735   26.7632 H   0  0  0  0  0
   -6.6482   20.0181   25.0333 H   0  0  0  0  0
   -4.4109   19.6388   24.0154 H   0  0  0  0  0
   -3.0081   17.7430   24.7675 H   0  0  0  0  0
   -3.8231   16.2061   26.5429 H   0  0  0  0  0
   -6.0609   16.5757   27.5709 H   0  0  0  0  0
  2  1  1  0  0  0
  3  2  4  0  0  0
  7  2  4  0  0  0
  4  3  4  0  0  0
  5  4  4  0  0  0
  5  6  4  0  0  0
  8  5  1  0  0  0
  6  7  4  0  0  0
  8  9  2  0  0  0
  8 10  2  0  0  0
 11  8  1  0  0  0
 11 12  1  0  0  0
 16 11  1  0  0  0
 12 13  1  0  0  0
 13 14  1  0  0  0
 13 15  1  0  0  0
 17 16  1  0  0  0
 17 18  1  0  0  0
 19 17  1  0  0  0
 19 20  1  0  0  0
 32 19  1  0  0  0
 20 21  1  0  0  0
 21 22  2  0  0  0
 21 23  1  0  0  0
 23 24  1  0  0  0
 24 25  1  0  0  0
 24 31  1  0  0  0
 25 26  1  0  0  0
 27 26  1  0  0  0
 27 28  1  0  0  0
 31 27  1  0  0  0
 29 28  1  0  0  0
 30 29  1  0  0  0
 31 30  1  0  0  0
 38 32  1  0  0  0
 33 34  4  0  0  0
 33 38  4  0  0  0
 34 35  4  0  0  0
 35 36  4  0  0  0
 36 37  4  0  0  0
 37 38  4  0  0  0
  1 39  1  0  0  0
  1 40  1  0  0  0
  3 41  1  0  0  0
  4 42  1  0  0  0
  6 43  1  0  0  0
  7 44  1  0  0  0
 12 45  1  0  0  0
 12 46  1  0  0  0
 13 47  1  0  0  0
 14 48  1  0  0  0
 14 49  1  0  0  0
 14 50  1  0  0  0
 15 51  1  0  0  0
 15 52  1  0  0  0
 15 53  1  0  0  0
 16 54  1  0  0  0
 16 55  1  0  0  0
 17 56  1  0  0  0
 18 57  1  0  0  0
 19 58  1  0  0  0
 20 59  1  0  0  0
 24 60  1  0  0  0
 25 61  1  0  0  0
 25 62  1  0  0  0
 27 63  1  0  0  0
 29 64  1  0  0  0
 29 65  1  0  0  0
 30 66  1  0  0  0
 30 67  1  0  0  0
 31 68  1  0  0  0
 32 69  1  0  0  0
 32 70  1  0  0  0
 33 71  1  0  0  0
 34 72  1  0  0  0
 35 73  1  0  0  0
 36 74  1  0  0  0
 37 75  1  0  0  0
M  END
$$$$
