6qha_ligand
  -I-interpret- 

 39 40  0  0  0  0  0  0  0  0999 V2000
  -23.6300   -2.8030  -17.1000 C   0  0  0  0  0
  -23.3350    0.8760  -19.3270 C   0  0  0  0  0
  -22.6550    1.9410  -21.4970 C   0  0  0  0  0
  -22.4140    1.6380  -22.8340 C   0  0  0  0  0
  -22.3280    2.6480  -23.7810 C   0  0  0  0  0
  -22.4660    3.9870  -23.4100 C   0  0  0  0  0
  -22.0850   -6.1380  -18.3230 C   0  0  0  0  0
  -23.2560   -5.3040  -18.6530 C   0  0  0  0  0
  -22.7540   -4.0120  -19.0530 O   0  0  0  0  0
  -23.1800   -2.8680  -18.4110 C   0  0  0  0  0
  -23.9870   -1.5770  -16.5530 C   0  0  0  0  0
  -23.8720   -0.4110  -17.2900 C   0  0  0  0  0
  -23.3790   -0.4390  -18.5990 C   0  0  0  0  0
  -23.7840    1.8930  -18.8010 O   0  0  0  0  0
  -22.7790    0.8690  -20.5700 N   0  0  0  0  0
  -22.7180    4.2830  -22.0720 C   0  0  0  0  0
  -22.8120    3.2750  -21.1240 C   0  0  0  0  0
  -22.4030    5.0710  -24.4350 C   0  0  0  0  0
  -23.1070    6.1930  -24.1930 N   0  0  0  0  0
  -21.7600    4.9640  -25.5510 N   0  0  0  0  0
  -23.0450   -1.6970  -19.1750 C   0  0  0  0  0
  -22.5890   -1.8050  -20.4410 O   0  0  0  0  0
  -23.7031   -3.7109  -16.5013 H   0  0  0  0  0
  -22.2919    0.5988  -23.1393 H   0  0  0  0  0
  -22.1508    2.3936  -24.8260 H   0  0  0  0  0
  -21.4453   -6.2275  -19.2010 H   0  0  0  0  0
  -21.5265   -5.6727  -17.5108 H   0  0  0  0  0
  -22.4210   -7.1279  -18.0142 H   0  0  0  0  0
  -23.9182   -5.2110  -17.7923 H   0  0  0  0  0
  -23.8384   -5.7569  -19.4554 H   0  0  0  0  0
  -24.3624   -1.5327  -15.5306 H   0  0  0  0  0
  -24.1687    0.5391  -16.8458 H   0  0  0  0  0
  -22.4000   -0.0264  -20.8783 H   0  0  0  0  0
  -22.8431    5.3216  -21.7659 H   0  0  0  0  0
  -23.0096    3.5271  -20.0821 H   0  0  0  0  0
  -23.1270    6.9418  -24.8853 H   0  0  0  0  0
  -23.6203    6.2941  -23.3174 H   0  0  0  0  0
  -21.7909    5.7226  -26.2321 H   0  0  0  0  0
  -22.5478   -0.9331  -20.8406 H   0  0  0  0  0
  1 10  4  0  0  0
 11  1  4  0  0  0
 13  2  1  0  0  0
  2 14  2  0  0  0
  2 15  1  0  0  0
  3  4  4  0  0  0
 15  3  1  0  0  0
  3 17  4  0  0  0
  4  5  4  0  0  0
  5  6  4  0  0  0
  6 16  4  0  0  0
  6 18  1  0  0  0
  8  7  1  0  0  0
  9  8  1  0  0  0
 10  9  1  0  0  0
 10 21  4  0  0  0
 12 11  4  0  0  0
 12 13  4  0  0  0
 13 21  4  0  0  0
 16 17  4  0  0  0
 18 19  1  0  0  0
 18 20  2  0  0  0
 21 22  1  0  0  0
  1 23  1  0  0  0
  4 24  1  0  0  0
  5 25  1  0  0  0
  7 26  1  0  0  0
  7 27  1  0  0  0
  7 28  1  0  0  0
  8 29  1  0  0  0
  8 30  1  0  0  0
 11 31  1  0  0  0
 12 32  1  0  0  0
 15 33  1  0  0  0
 16 34  1  0  0  0
 17 35  1  0  0  0
 19 36  1  0  0  0
 19 37  1  0  0  0
 20 38  1  0  0  0
 22 39  1  0  0  0
M  END
$$$$
