5iui_ligand
  -I-interpret- 

 57 60  0  0  0  0  0  0  0  0999 V2000
   75.3610   69.1050    9.2860 C   0  0  0  0  0
   75.2180   67.2690    7.6350 C   0  0  0  0  0
   75.8320   65.9600    7.2400 C   0  0  0  0  0
   77.1860   65.5700    7.7010 C   0  0  0  0  0
   69.6900   74.2530   11.2310 N   0  0  0  0  0
   71.5670   72.8330   11.9190 C   0  0  0  0  0
   70.7330   73.4480   10.8760 C   0  0  0  0  0
   71.0430   73.1390    9.4460 C   0  0  0  0  0
   72.1670   72.2420    9.1050 C   0  0  0  0  0
   73.0000   71.6650   10.1640 C   0  0  0  0  0
   72.6870   71.9500   11.5520 C   0  0  0  0  0
   74.1440   70.7360    9.9610 C   0  0  0  0  0
   74.1620   69.6850    9.1520 C   0  0  0  0  0
   76.0070   69.7580   10.2200 N   0  0  0  0  0
   75.2680   70.7540   10.6240 N   0  0  0  0  0
   75.8210   67.9420    8.6970 N   0  0  0  0  0
   74.2780   67.6700    7.0810 O   0  0  0  0  0
   77.7630   64.2630    7.3300 C   0  0  0  0  0
   76.9760   63.3140    6.5190 C   0  0  0  0  0
   75.6340   63.6900    6.0450 C   0  0  0  0  0
   75.0480   65.0040    6.4180 C   0  0  0  0  0
   77.6150   62.0220    6.1390 C   0  0  0  0  0
   77.4830   60.9480    6.8470 N   0  3  0  0  0
   78.1420   59.8660    6.2660 C   0  0  0  0  0
   78.0320   58.5720    7.0620 C   0  0  0  0  0
   77.2510   58.7060    8.1770 N   0  3  0  0  0
   77.3960   59.8210    8.9700 C   0  0  0  0  0
   77.6060   61.1020    8.1750 C   0  0  0  0  0
   77.1060   57.6260    8.8790 C   0  0  0  0  0
   70.2460   73.7240    8.3460 C   0  0  0  0  0
   77.7622   66.2565    8.3212 H   0  0  0  0  0
   69.4917   74.4259   12.2165 H   0  0  0  0  0
   69.1087   74.6818   10.5109 H   0  0  0  0  0
   71.3552   73.0317   12.9696 H   0  0  0  0  0
   72.3774   72.0085    8.0613 H   0  0  0  0  0
   73.2932   71.5014   12.3390 H   0  0  0  0  0
   73.3526   69.3555    8.5005 H   0  0  0  0  0
   76.6794   67.5397    9.0734 H   0  0  0  0  0
   78.7695   63.9991    7.6548 H   0  0  0  0  0
   75.0676   63.0017    5.4177 H   0  0  0  0  0
   74.0427   65.2658    6.0881 H   0  0  0  0  0
   78.6812   62.2385    6.2049 H   0  0  0  0  0
   77.1273   61.7660    5.1984 H   0  0  0  0  0
   76.4949   60.6976    6.8102 H   0  0  0  0  0
   79.1999   60.1232    6.2123 H   0  0  0  0  0
   77.6782   59.6886    5.2957 H   0  0  0  0  0
   79.0341   58.2908    7.3858 H   0  0  0  0  0
   77.5735   57.8204    6.4193 H   0  0  0  0  0
   78.2786   59.6706    9.5917 H   0  0  0  0  0
   76.4779   59.9374    9.5458 H   0  0  0  0  0
   76.8377   61.8077    8.4908 H   0  0  0  0  0
   78.6246   61.4386    8.3681 H   0  0  0  0  0
   77.5906   56.7019    8.5638 H   0  0  0  0  0
   76.4994   57.6419    9.7845 H   0  0  0  0  0
   69.2052   73.4177    8.4504 H   0  0  0  0  0
   70.3123   74.8111    8.3893 H   0  0  0  0  0
   70.6353   73.3728    7.3904 H   0  0  0  0  0
 13  1  4  0  0  0
  1 14  4  0  0  0
  1 16  1  0  0  0
  2  3  1  0  0  0
 16  2  1  0  0  0
  2 17  2  0  0  0
  3  4  4  0  0  0
  3 21  4  0  0  0
  4 18  4  0  0  0
  7  5  1  0  0  0
  6  7  4  0  0  0
 11  6  4  0  0  0
  8  7  4  0  0  0
  9  8  4  0  0  0
  8 30  1  0  0  0
 10  9  4  0  0  0
 10 11  4  0  0  0
 12 10  1  0  0  0
 12 13  4  0  0  0
 12 15  4  0  0  0
 14 15  4  0  0  0
 18 19  4  0  0  0
 19 20  4  0  0  0
 19 22  1  0  0  0
 20 21  4  0  0  0
 22 23  1  0  0  0
 23 24  1  0  0  0
 23 28  1  0  0  0
 24 25  1  0  0  0
 25 26  1  0  0  0
 26 27  1  0  0  0
 26 29  2  0  0  0
 27 28  1  0  0  0
  4 31  1  0  0  0
  5 32  1  0  0  0
  5 33  1  0  0  0
  6 34  1  0  0  0
  9 35  1  0  0  0
 11 36  1  0  0  0
 13 37  1  0  0  0
 16 38  1  0  0  0
 18 39  1  0  0  0
 20 40  1  0  0  0
 21 41  1  0  0  0
 22 42  1  0  0  0
 22 43  1  0  0  0
 23 44  1  0  0  0
 24 45  1  0  0  0
 24 46  1  0  0  0
 25 47  1  0  0  0
 25 48  1  0  0  0
 27 49  1  0  0  0
 27 50  1  0  0  0
 28 51  1  0  0  0
 28 52  1  0  0  0
 29 53  1  0  0  0
 29 54  1  0  0  0
 30 55  1  0  0  0
 30 56  1  0  0  0
 30 57  1  0  0  0
M  END
$$$$
