5elv_ligand
  -I-interpret- 

 28 30  0  0  0  0  0  0  0  0999 V2000
  -17.0660   45.9160   -3.2470 C   0  0  0  0  0
  -17.8120   44.7450   -3.0580 C   0  0  0  0  0
  -17.8100   43.7890   -4.0710 C   0  0  0  0  0
  -17.1040   44.0030   -5.2440 C   0  0  0  0  0
  -16.3750   45.1880   -5.4120 C   0  0  0  0  0
  -15.1290   47.0510   -6.9260 N   0  0  0  0  0
  -14.6200   47.5350   -5.6510 C   0  0  0  0  0
  -15.6040   47.3790   -4.5740 N   0  0  0  0  0
  -16.3300   46.1810   -4.4250 C   0  0  0  0  0
  -18.5230   42.6380   -3.9230 O   0  0  0  0  0
  -15.4720   45.4310   -6.9020 S   0  0  0  0  0
  -14.2290   44.7070   -6.6840 O   0  0  0  0  0
  -16.3200   45.1190   -8.0340 O   0  0  0  0  0
  -15.6030   48.3890   -3.5000 C   0  0  0  0  0
  -16.8450   49.1870   -3.1680 C   0  0  0  0  0
  -15.6730   49.8590   -3.8200 C   0  0  0  0  0
  -17.0524   46.6576   -2.4483 H   0  0  0  0  0
  -18.3797   44.5862   -2.1412 H   0  0  0  0  0
  -17.1156   43.2518   -6.0337 H   0  0  0  0  0
  -15.2601   47.6449   -7.7449 H   0  0  0  0  0
  -14.3922   48.5959   -5.7546 H   0  0  0  0  0
  -13.7357   46.9524   -5.3928 H   0  0  0  0  0
  -18.4146   42.0929   -4.7057 H   0  0  0  0  0
  -14.9244   47.7492   -2.9359 H   0  0  0  0  0
  -17.5121   49.3469   -2.3209 H   0  0  0  0  0
  -17.9242   49.1137   -3.3022 H   0  0  0  0  0
  -15.4801   50.5177   -4.6668 H   0  0  0  0  0
  -15.0650   50.7525   -3.6786 H   0  0  0  0  0
  1  2  4  0  0  0
  9  1  4  0  0  0
  3  2  4  0  0  0
  4  3  4  0  0  0
  3 10  1  0  0  0
  5  4  4  0  0  0
  5  9  4  0  0  0
 11  5  1  0  0  0
  6  7  1  0  0  0
  6 11  1  0  0  0
  7  8  1  0  0  0
  8  9  1  0  0  0
  8 14  1  0  0  0
 11 12  2  0  0  0
 11 13  2  0  0  0
 14 15  1  0  0  0
 14 16  1  0  0  0
 15 16  1  0  0  0
  1 17  1  0  0  0
  2 18  1  0  0  0
  4 19  1  0  0  0
  6 20  1  0  0  0
  7 21  1  0  0  0
  7 22  1  0  0  0
 10 23  1  0  0  0
 14 24  1  0  0  0
 15 25  1  0  0  0
 15 26  1  0  0  0
 16 27  1  0  0  0
 16 28  1  0  0  0
M  END
$$$$
