6j06_ligand
  -I-interpret- 

 40 40  0  0  0  0  0  0  0  0999 V2000
   31.0710  231.3760   28.7000 O   0  0  0  0  0
   30.3070  231.8390   29.7590 C   0  0  0  0  0
   29.4860  230.7450   30.4240 C   0  0  0  0  0
   29.8570  229.4810   30.3180 C   0  0  0  0  0
   28.2950  231.1950   31.2700 C   0  0  0  0  0
   28.8930  231.7570   32.5390 C   0  0  0  0  0
   28.9180  230.9970   33.6950 C   0  0  0  0  0
   29.5530  231.4910   34.8320 C   0  0  0  0  0
   30.0880  232.7770   34.8120 C   0  0  0  0  0
   30.0040  233.5570   33.6720 C   0  0  0  0  0
   29.4080  233.0400   32.5290 C   0  0  0  0  0
   30.7270  233.3600   36.0750 C   0  0  0  0  0
   29.1640  228.3100   31.0340 C   0  0  0  0  0
   28.3900  227.5520   30.1600 O   0  0  0  0  0
   27.5780  226.2460   30.7590 P   0  0  0  0  0
   28.6940  225.4490   31.6110 O   0  0  0  0  0
   26.5230  226.6570   31.7370 O   0  0  0  0  0
   27.0900  225.2960   29.6820 O   0  0  0  0  0
   29.9040  224.6220   30.8940 P   0  0  0  0  0
   29.5060  223.2230   31.0230 O   0  0  0  0  0
   31.0910  224.8670   31.7050 O   0  0  0  0  0
   30.1670  224.9530   29.3160 O   0  0  0  0  0
   31.5656  232.1060   28.3205 H   0  0  0  0  0
   29.6130  232.5826   29.3671 H   0  0  0  0  0
   30.9883  232.2437   30.5074 H   0  0  0  0  0
   30.7113  229.2534   29.6804 H   0  0  0  0  0
   27.6175  230.3672   31.4794 H   0  0  0  0  0
   27.6919  231.9383   30.7485 H   0  0  0  0  0
   28.4429  230.0162   33.7158 H   0  0  0  0  0
   29.6306  230.8769   35.7292 H   0  0  0  0  0
   30.4033  234.5712   33.6711 H   0  0  0  0  0
   29.3463  233.6454   31.6247 H   0  0  0  0  0
   29.9853  233.3949   36.8730 H   0  0  0  0  0
   31.5628  232.7310   36.3813 H   0  0  0  0  0
   31.0863  234.3678   35.8668 H   0  0  0  0  0
   28.5091  228.7192   31.8033 H   0  0  0  0  0
   29.9337  227.6642   31.4567 H   0  0  0  0  0
   27.8179  225.0781   29.0953 H   0  0  0  0  0
   28.7246  223.0632   30.4887 H   0  0  0  0  0
   29.3659  224.7802   28.8161 H   0  0  0  0  0
  1  2  1  0  0  0
  2  3  1  0  0  0
  3  4  2  0  0  0
  3  5  1  0  0  0
  4 13  1  0  0  0
  5  6  1  0  0  0
  6  7  4  0  0  0
  6 11  4  0  0  0
  7  8  4  0  0  0
  8  9  4  0  0  0
  9 10  4  0  0  0
  9 12  1  0  0  0
 10 11  4  0  0  0
 13 14  1  0  0  0
 14 15  1  0  0  0
 15 16  1  0  0  0
 15 17  2  0  0  0
 15 18  1  0  0  0
 16 19  1  0  0  0
 19 20  1  0  0  0
 19 21  2  0  0  0
 19 22  1  0  0  0
  1 23  1  0  0  0
  2 24  1  0  0  0
  2 25  1  0  0  0
  4 26  1  0  0  0
  5 27  1  0  0  0
  5 28  1  0  0  0
  7 29  1  0  0  0
  8 30  1  0  0  0
 10 31  1  0  0  0
 11 32  1  0  0  0
 12 33  1  0  0  0
 12 34  1  0  0  0
 12 35  1  0  0  0
 13 36  1  0  0  0
 13 37  1  0  0  0
 18 38  1  0  0  0
 20 39  1  0  0  0
 22 40  1  0  0  0
M  END
$$$$
