### 
### Created by X-TOOL on Mon Aug  2 16:10:54 2021
### 

@<TRIPOS>MOLECULE
6j06_ligand
   37    37     1     0     0
SMALL
GAST_HUCK


@<TRIPOS>ATOM
      1 O1         31.0710  231.3760   28.7000 O.3       1 MOL        -0.3840
      2 C1         30.3070  231.8390   29.7590 C.3       1 MOL         0.0709
      3 C2         29.4860  230.7450   30.4240 C.2       1 MOL        -0.0432
      4 C3         29.8570  229.4810   30.3180 C.2       1 MOL        -0.0735
      5 C4         28.2950  231.1950   31.2700 C.3       1 MOL         0.0039
      6 C5         28.8930  231.7570   32.5390 C.ar      1 MOL        -0.0401
      7 C6         28.9180  230.9970   33.6950 C.ar      1 MOL        -0.0650
      8 C7         29.5530  231.4910   34.8320 C.ar      1 MOL        -0.0668
      9 C8         30.0880  232.7770   34.8120 C.ar      1 MOL        -0.0526
     10 C9         30.0040  233.5570   33.6720 C.ar      1 MOL        -0.0668
     11 C10        29.4080  233.0400   32.5290 C.ar      1 MOL        -0.0650
     12 C11        30.7270  233.3600   36.0750 C.3       1 MOL        -0.0342
     13 C12        29.1640  228.3100   31.0340 C.3       1 MOL         0.0923
     14 O2         28.3900  227.5520   30.1600 O.3       1 MOL        -0.2409
     15 P1         27.5780  226.2460   30.7590 P.3       1 MOL         0.3288
     16 O3         28.6940  225.4490   31.6110 O.3       1 MOL        -0.1547
     17 O4         26.5230  226.6570   31.7370 O.co2     1 MOL        -0.5555
     18 O5         27.0900  225.2960   29.6820 O.co2     1 MOL        -0.5555
     19 P2         29.9040  224.6220   30.8940 P.3       1 MOL         0.2070
     20 O6         29.5060  223.2230   31.0230 O.co2     1 MOL        -0.5891
     21 O7         31.0910  224.8670   31.7050 O.co2     1 MOL        -0.5891
     22 O8         30.1670  224.9530   29.3160 O.co2     1 MOL        -0.5891
     23 H1         30.5004  231.0013   28.0394 H         1 MOL         0.2125
     24 H2         29.6210  232.6128   29.3841 H         1 MOL         0.0705
     25 H3         30.9796  232.2781   30.5106 H         1 MOL         0.0705
     26 H4         30.7105  229.2536   29.6810 H         1 MOL         0.0279
     27 H5         27.6407  230.3408   31.4985 H         1 MOL         0.0556
     28 H6         27.7178  231.9680   30.7415 H         1 MOL         0.0556
     29 H7         28.4455  230.0216   33.7157 H         1 MOL         0.0543
     30 H8         29.6302  230.8803   35.7243 H         1 MOL         0.0540
     31 H9         30.4011  234.5657   33.6711 H         1 MOL         0.0540
     32 H10        29.3467  233.6420   31.6296 H         1 MOL         0.0543
     33 H11        30.7087  232.6067   36.8764 H         1 MOL         0.0378
     34 H12        30.1632  234.2488   36.3944 H         1 MOL         0.0378
     35 H13        31.7683  233.6433   35.8618 H         1 MOL         0.0378
     36 H14        28.5154  228.7115   31.8265 H         1 MOL         0.0698
     37 H15        29.9321  227.6623   31.4818 H         1 MOL         0.0698
@<TRIPOS>BOND
     1    1    2 1  
     2    2    3 1  
     3    3    4 2  
     4    3    5 1  
     5    4   13 1  
     6    5    6 1  
     7    6    7 ar 
     8    6   11 ar 
     9    7    8 ar 
    10    8    9 ar 
    11    9   10 ar 
    12    9   12 1  
    13   10   11 ar 
    14   13   14 1  
    15   14   15 1  
    16   15   16 1  
    17   15   17 ar 
    18   15   18 ar 
    19   16   19 1  
    20   19   20 ar 
    21   19   21 ar 
    22   19   22 ar 
    23    1   23 1  
    24    2   24 1  
    25    2   25 1  
    26    4   26 1  
    27    5   27 1  
    28    5   28 1  
    29    7   29 1  
    30    8   30 1  
    31   10   31 1  
    32   11   32 1  
    33   12   33 1  
    34   12   34 1  
    35   12   35 1  
    36   13   36 1  
    37   13   37 1  
@<TRIPOS>SUBSTRUCTURE
     1 MOL         1

