2ltv_ligand
  -I-interpret- 

191197  0  0  0  0  0  0  0  0999 V2000
   -8.2160    8.5200   -6.1740 N   0  3  0  0  0
   -8.9480    7.9740   -5.0120 C   0  0  0  0  0
   -8.0440    7.9170   -3.7860 C   0  0  0  0  0
   -6.8490    7.6660   -3.9100 O   0  0  0  0  0
   -9.4310    6.5620   -5.3390 C   0  0  0  0  0
  -10.1770    6.5370   -6.5460 O   0  0  0  0  0
   -8.5950    8.1600   -2.5890 N   0  0  0  0  0
   -7.8880    7.8840   -1.3380 C   0  0  0  0  0
   -7.7650    6.3740   -1.1270 C   0  0  0  0  0
   -8.7090    5.6300   -1.4130 O   0  0  0  0  0
   -8.7850    8.5180   -0.2700 C   0  0  0  0  0
  -10.1440    8.5550   -0.8790 C   0  0  0  0  0
   -9.9340    8.7330   -2.3570 C   0  0  0  0  0
   -6.6150    5.8910   -0.6320 N   0  0  0  0  0
   -6.3700    4.4600   -0.4890 C   0  0  0  0  0
   -7.2290    3.8450    0.6100 C   0  0  0  0  0
   -7.3490    4.4060    1.7030 O   0  0  0  0  0
   -4.8790    4.3700   -0.1350 C   0  0  0  0  0
   -4.3290    5.7420   -0.3440 C   0  0  0  0  0
   -5.4790    6.6820   -0.1490 C   0  0  0  0  0
   -7.8380    2.6850    0.3170 N   0  0  0  0  0
   -8.7110    1.9560    1.2480 C   0  0  0  0  0
   -8.0830    1.7620    2.6240 C   0  0  0  0  0
   -6.8620    1.6110    2.7450 O   0  0  0  0  0
   -8.9110    0.5920    0.5650 C   0  0  0  0  0
   -7.9220    0.5550   -0.5510 C   0  0  0  0  0
   -7.7340    1.9800   -0.9620 C   0  0  0  0  0
   -8.9210    1.7560    3.6750 N   0  0  0  0  0
   -8.4710    1.5440    5.0520 C   0  0  0  0  0
   -7.5850    0.3110    5.1890 C   0  0  0  0  0
   -7.9670   -0.7910    4.8000 O   0  0  0  0  0
   -9.7750    1.3540    5.8270 C   0  0  0  0  0
  -10.7910    2.1020    5.0360 C   0  0  0  0  0
  -10.3820    1.9530    3.5990 C   0  0  0  0  0
   -6.4110    0.5210    5.7650 N   0  0  0  0  0
   -5.4070   -0.5250    5.9490 C   0  0  0  0  0
   -5.9180   -1.6690    6.8430 C   0  0  0  0  0
   -5.2900   -2.7250    6.9400 O   0  0  0  0  0
   -4.1230    0.1270    6.4980 C   0  0  0  0  0
   -3.2660   -0.7440    7.3890 C   0  0  0  0  0
   -2.4740   -1.7600    6.8710 C   0  0  0  0  0
   -3.2440   -0.5300    8.7570 C   0  0  0  0  0
   -1.6880   -2.5390    7.6970 C   0  0  0  0  0
   -2.4640   -1.3010    9.5890 C   0  0  0  0  0
   -1.6870   -2.3050    9.0570 C   0  0  0  0  0
   -0.9050   -3.0760    9.8860 O   0  0  0  0  0
   -7.0720   -1.4640    7.4700 N   0  0  0  0  0
   -7.6370   -2.4490    8.3820 C   0  0  0  0  0
   -7.8940   -3.7860    7.6750 C   0  0  0  0  0
   -7.7240   -4.8550    8.2700 O   0  0  0  0  0
   -8.9400   -1.9140    8.9740 C   0  0  0  0  0
   -8.8070   -0.5480    9.3380 O   0  0  0  0  0
   -8.3440   -3.7310    6.4230 N   0  0  0  0  0
   -8.5030   -4.9430    5.6330 C   0  0  0  0  0
   -8.3100   -4.6610    4.1480 C   0  0  0  0  0
   -8.3430   -3.5130    3.7130 O   0  0  0  0  0
   -9.8530   -5.6130    5.8630 C   0  0  0  0  0
   -9.7820   -7.1030    5.5820 C   0  0  0  0  0
   -9.2270   -7.8630    6.7740 C   0  0  0  0  0
  -10.2690   -8.2000    7.7370 N   0  0  0  0  0
  -10.3220   -7.7380    8.9860 C   0  0  0  0  0
   -9.4230   -6.8610    9.4240 N   0  0  0  0  0
  -11.2870   -8.1530    9.7940 N   0  0  0  0  0
   -8.1300   -5.7270    3.3770 N   0  0  0  0  0
   -7.8290   -5.6210    1.9580 C   0  0  0  0  0
   -9.1230   -5.6010    1.1520 C   0  0  0  0  0
   -9.9720   -6.4830    1.3070 O   0  0  0  0  0
   -6.9720   -6.8140    1.4940 C   0  0  0  0  0
   -5.7260   -7.0920    2.3230 C   0  0  0  0  0
   -5.4870   -6.4360    3.5210 C   0  0  0  0  0
   -4.8060   -8.0490    1.9140 C   0  0  0  0  0
   -4.3840   -6.7150    4.2860 C   0  0  0  0  0
   -3.6870   -8.3310    2.6730 C   0  0  0  0  0
   -3.4820   -7.6630    3.8610 C   0  0  0  0  0
   -2.3760   -7.9500    4.6300 O   0  0  0  0  0
   -9.2930   -4.5910    0.2900 N   0  0  0  0  0
  -10.4450   -4.5060   -0.6090 C   0  0  0  0  0
  -10.4660   -5.6600   -1.6090 C   0  0  0  0  0
   -9.4480   -5.9900   -2.2180 O   0  0  0  0  0
  -10.2430   -3.1690   -1.3340 C   0  0  0  0  0
   -8.7910   -2.8670   -1.1930 C   0  0  0  0  0
   -8.3770   -3.4510    0.1260 C   0  0  0  0  0
  -11.6280   -6.2750   -1.7710 N   0  0  0  0  0
  -11.7740   -7.3900   -2.6980 C   0  0  0  0  0
  -12.3140   -6.8870   -4.0360 C   0  0  0  0  0
  -12.6410   -7.6670   -4.9340 O   0  0  0  0  0
  -12.7080   -8.4460   -2.1000 C   0  0  0  0  0
  -12.5930   -9.8080   -2.7650 C   0  0  0  0  0
  -10.9270  -10.4960   -2.6480 S   0  0  0  0  0
  -10.7180  -10.6000   -0.8690 C   0  0  0  0  0
  -12.3820   -5.5710   -4.1610 N   0  0  0  0  0
  -12.8880   -4.9320   -5.3650 C   0  0  0  0  0
  -11.9850   -3.7790   -5.7710 C   0  0  0  0  0
  -10.8130   -4.0350   -6.1090 O   0  0  0  0  0
  -14.3150   -4.4180   -5.1440 C   0  0  0  0  0
  -15.3460   -5.5200   -5.1900 C   0  0  0  0  0
  -15.7590   -5.8990   -6.3090 O   0  0  0  0  0
  -15.7550   -6.0120   -4.1130 O   0  0  0  0  0
  -12.4570   -2.6270   -5.7680 O   0  0  0  0  0
   -7.8924    9.4629   -5.9580 H   0  0  0  0  0
   -7.4149    7.9234   -6.3806 H   0  0  0  0  0
   -8.8372    8.5492   -6.9825 H   0  0  0  0  0
   -9.7959    8.6243   -4.7968 H   0  0  0  0  0
  -10.0732    6.2191   -4.5278 H   0  0  0  0  0
   -8.5604    5.9167   -5.4565 H   0  0  0  0  0
  -10.4657    5.6389   -6.7239 H   0  0  0  0  0
   -6.8724    8.2794   -1.3175 H   0  0  0  0  0
   -8.4399    9.5139    0.0076 H   0  0  0  0  0
   -8.7739    7.9460    0.6578 H   0  0  0  0  0
  -10.7391    9.3690   -0.4649 H   0  0  0  0  0
  -10.6956    7.6390   -0.6671 H   0  0  0  0  0
  -10.7058    8.2419   -2.9496 H   0  0  0  0  0
   -9.9996    9.7767   -2.6645 H   0  0  0  0  0
   -6.6245    3.9094   -1.3947 H   0  0  0  0  0
   -4.3664    3.6376   -0.7587 H   0  0  0  0  0
   -4.7344    4.0367    0.8927 H   0  0  0  0  0
   -3.8977    5.8470   -1.3395 H   0  0  0  0  0
   -3.5219    5.9548    0.3570 H   0  0  0  0  0
   -5.5937    7.0106    0.8839 H   0  0  0  0  0
   -5.3565    7.6255   -0.6810 H   0  0  0  0  0
   -9.6357    2.5027    1.4328 H   0  0  0  0  0
   -9.9308    0.4751    0.1984 H   0  0  0  0  0
   -8.7556   -0.2304    1.2632 H   0  0  0  0  0
   -8.2767   -0.0573   -1.3801 H   0  0  0  0  0
   -6.9817    0.1013   -0.2378 H   0  0  0  0  0
   -6.7900    2.1588   -1.4767 H   0  0  0  0  0
   -8.4635    2.3154   -1.6991 H   0  0  0  0  0
   -7.8621    2.3727    5.4133 H   0  0  0  0  0
   -9.7001    1.7237    6.8497 H   0  0  0  0  0
  -10.0359    0.3013    5.9359 H   0  0  0  0  0
  -10.8292    3.1507    5.3306 H   0  0  0  0  0
  -11.7934    1.7089    5.2056 H   0  0  0  0  0
  -10.8899    1.1254    3.1038 H   0  0  0  0  0
  -10.6560    2.8179    2.9949 H   0  0  0  0  0
   -6.1965    1.4612    6.0973 H   0  0  0  0  0
   -5.1872   -0.9929    4.9894 H   0  0  0  0  0
   -4.4451    0.9687    7.1111 H   0  0  0  0  0
   -3.5104    0.3742    5.6310 H   0  0  0  0  0
   -2.4726   -1.9454    5.7969 H   0  0  0  0  0
   -3.8563    0.2646    9.1834 H   0  0  0  0  0
   -1.0719   -3.3342    7.2772 H   0  0  0  0  0
   -2.4617   -1.1174   10.6634 H   0  0  0  0  0
   -1.0195   -2.7852   10.7937 H   0  0  0  0  0
   -7.5761   -0.5922    7.3078 H   0  0  0  0  0
   -6.9157   -2.6257    9.1799 H   0  0  0  0  0
   -9.1840   -2.4924    9.8651 H   0  0  0  0  0
   -9.7277   -2.0026    8.2258 H   0  0  0  0  0
   -9.6359   -0.2341    9.7067 H   0  0  0  0  0
   -8.5803   -2.8278    6.0123 H   0  0  0  0  0
   -7.7283   -5.6327    5.9680 H   0  0  0  0  0
  -10.5825   -5.1662    5.1875 H   0  0  0  0  0
  -10.1397   -5.4689    6.9047 H   0  0  0  0  0
   -9.1222   -7.2645    4.7295 H   0  0  0  0  0
  -10.7892   -7.4660    5.3772 H   0  0  0  0  0
   -8.4933   -7.2291    7.2720 H   0  0  0  0  0
   -8.7835   -8.7904    6.4117 H   0  0  0  0  0
  -11.0087   -8.8334    7.4335 H   0  0  0  0  0
   -9.4772   -6.5093   10.3799 H   0  0  0  0  0
   -8.6794   -6.5401    8.8040 H   0  0  0  0  0
  -11.9813   -8.8206    9.4584 H   0  0  0  0  0
   -8.2056   -6.6542    3.7952 H   0  0  0  0  0
   -7.2754   -4.6961    1.7964 H   0  0  0  0  0
   -6.6270   -6.5741    0.4883 H   0  0  0  0  0
   -7.6028   -7.6989    1.5778 H   0  0  0  0  0
   -6.1936   -5.6798    3.8630 H   0  0  0  0  0
   -4.9697   -8.5858    0.9796 H   0  0  0  0  0
   -4.2224   -6.1882    5.2265 H   0  0  0  0  0
   -2.9695   -9.0783    2.3341 H   0  0  0  0  0
   -1.8527   -8.6275    4.1956 H   0  0  0  0  0
  -11.3917   -4.5664   -0.0721 H   0  0  0  0  0
  -10.8622   -2.3807   -0.9059 H   0  0  0  0  0
  -10.5427   -3.2284   -2.3803 H   0  0  0  0  0
   -8.6045   -1.7936   -1.2270 H   0  0  0  0  0
   -8.2158   -3.2953   -2.0139 H   0  0  0  0  0
   -7.3283   -3.7477    0.1444 H   0  0  0  0  0
   -8.4465   -2.7341    0.9441 H   0  0  0  0  0
  -12.4377   -5.9616   -1.2356 H   0  0  0  0  0
  -10.7992   -7.8470   -2.8685 H   0  0  0  0  0
  -13.7305   -8.0972   -2.2449 H   0  0  0  0  0
  -12.4328   -8.5698   -1.0526 H   0  0  0  0  0
  -12.8340   -9.6881   -3.8212 H   0  0  0  0  0
  -13.2749  -10.4894   -2.2562 H   0  0  0  0  0
  -10.8080   -9.6042   -0.4351 H   0  0  0  0  0
  -11.4866  -11.2504   -0.4516 H   0  0  0  0  0
   -9.7329  -11.0084   -0.6434 H   0  0  0  0  0
  -12.0689   -4.9855   -3.3867 H   0  0  0  0  0
  -12.9007   -5.6735   -6.1638 H   0  0  0  0  0
  -10.6597   -4.9800   -6.0375 H   0  0  0  0  0
  -14.5437   -3.7126   -5.9429 H   0  0  0  0  0
  -14.3567   -3.9623   -4.1547 H   0  0  0  0  0
  -15.3129   -5.5816   -3.3776 H   0  0  0  0  0
  1  2  1  0  0  0
  2  3  1  0  0  0
  2  5  1  0  0  0
  3  4  2  0  0  0
  3  7  1  0  0  0
  5  6  1  0  0  0
  7  8  1  0  0  0
  7 13  1  0  0  0
  8  9  1  0  0  0
  8 11  1  0  0  0
  9 10  2  0  0  0
  9 14  1  0  0  0
 11 12  1  0  0  0
 12 13  1  0  0  0
 14 15  1  0  0  0
 14 20  1  0  0  0
 15 16  1  0  0  0
 15 18  1  0  0  0
 16 17  2  0  0  0
 16 21  1  0  0  0
 18 19  1  0  0  0
 19 20  1  0  0  0
 21 22  1  0  0  0
 21 27  1  0  0  0
 22 23  1  0  0  0
 22 25  1  0  0  0
 23 24  2  0  0  0
 23 28  1  0  0  0
 25 26  1  0  0  0
 26 27  1  0  0  0
 28 29  1  0  0  0
 28 34  1  0  0  0
 29 30  1  0  0  0
 29 32  1  0  0  0
 30 31  2  0  0  0
 30 35  1  0  0  0
 32 33  1  0  0  0
 33 34  1  0  0  0
 35 36  1  0  0  0
 36 37  1  0  0  0
 36 39  1  0  0  0
 37 38  2  0  0  0
 37 47  1  0  0  0
 39 40  1  0  0  0
 40 41  4  0  0  0
 40 42  4  0  0  0
 41 43  4  0  0  0
 42 44  4  0  0  0
 43 45  4  0  0  0
 44 45  4  0  0  0
 45 46  1  0  0  0
 47 48  1  0  0  0
 48 49  1  0  0  0
 48 51  1  0  0  0
 49 50  2  0  0  0
 49 53  1  0  0  0
 51 52  1  0  0  0
 53 54  1  0  0  0
 54 55  1  0  0  0
 54 57  1  0  0  0
 55 56  2  0  0  0
 55 64  1  0  0  0
 57 58  1  0  0  0
 58 59  1  0  0  0
 59 60  1  0  0  0
 60 61  1  0  0  0
 61 62  1  0  0  0
 61 63  2  0  0  0
 64 65  1  0  0  0
 65 66  1  0  0  0
 65 68  1  0  0  0
 66 67  2  0  0  0
 66 76  1  0  0  0
 68 69  1  0  0  0
 69 70  4  0  0  0
 69 71  4  0  0  0
 70 72  4  0  0  0
 71 73  4  0  0  0
 72 74  4  0  0  0
 73 74  4  0  0  0
 74 75  1  0  0  0
 76 77  1  0  0  0
 76 82  1  0  0  0
 77 78  1  0  0  0
 77 80  1  0  0  0
 78 79  2  0  0  0
 78 83  1  0  0  0
 80 81  1  0  0  0
 81 82  1  0  0  0
 83 84  1  0  0  0
 84 85  1  0  0  0
 84 87  1  0  0  0
 85 86  2  0  0  0
 85 91  1  0  0  0
 87 88  1  0  0  0
 88 89  1  0  0  0
 89 90  1  0  0  0
 91 92  1  0  0  0
 92 93  1  0  0  0
 92 95  1  0  0  0
 93 94  1  0  0  0
 93 99  2  0  0  0
 95 96  1  0  0  0
 96 97  2  0  0  0
 96 98  1  0  0  0
  1100  1  0  0  0
  1101  1  0  0  0
  1102  1  0  0  0
  2103  1  0  0  0
  5104  1  0  0  0
  5105  1  0  0  0
  6106  1  0  0  0
  8107  1  0  0  0
 11108  1  0  0  0
 11109  1  0  0  0
 12110  1  0  0  0
 12111  1  0  0  0
 13112  1  0  0  0
 13113  1  0  0  0
 15114  1  0  0  0
 18115  1  0  0  0
 18116  1  0  0  0
 19117  1  0  0  0
 19118  1  0  0  0
 20119  1  0  0  0
 20120  1  0  0  0
 22121  1  0  0  0
 25122  1  0  0  0
 25123  1  0  0  0
 26124  1  0  0  0
 26125  1  0  0  0
 27126  1  0  0  0
 27127  1  0  0  0
 29128  1  0  0  0
 32129  1  0  0  0
 32130  1  0  0  0
 33131  1  0  0  0
 33132  1  0  0  0
 34133  1  0  0  0
 34134  1  0  0  0
 35135  1  0  0  0
 36136  1  0  0  0
 39137  1  0  0  0
 39138  1  0  0  0
 41139  1  0  0  0
 42140  1  0  0  0
 43141  1  0  0  0
 44142  1  0  0  0
 46143  1  0  0  0
 47144  1  0  0  0
 48145  1  0  0  0
 51146  1  0  0  0
 51147  1  0  0  0
 52148  1  0  0  0
 53149  1  0  0  0
 54150  1  0  0  0
 57151  1  0  0  0
 57152  1  0  0  0
 58153  1  0  0  0
 58154  1  0  0  0
 59155  1  0  0  0
 59156  1  0  0  0
 60157  1  0  0  0
 62158  1  0  0  0
 62159  1  0  0  0
 63160  1  0  0  0
 64161  1  0  0  0
 65162  1  0  0  0
 68163  1  0  0  0
 68164  1  0  0  0
 70165  1  0  0  0
 71166  1  0  0  0
 72167  1  0  0  0
 73168  1  0  0  0
 75169  1  0  0  0
 77170  1  0  0  0
 80171  1  0  0  0
 80172  1  0  0  0
 81173  1  0  0  0
 81174  1  0  0  0
 82175  1  0  0  0
 82176  1  0  0  0
 83177  1  0  0  0
 84178  1  0  0  0
 87179  1  0  0  0
 87180  1  0  0  0
 88181  1  0  0  0
 88182  1  0  0  0
 90183  1  0  0  0
 90184  1  0  0  0
 90185  1  0  0  0
 91186  1  0  0  0
 92187  1  0  0  0
 94188  1  0  0  0
 95189  1  0  0  0
 95190  1  0  0  0
 98191  1  0  0  0
M  END
$$$$
