### 
### Created by X-TOOL on Mon Sep 10 21:13:12 2018
### 

@<TRIPOS>MOLECULE
2ltv_ligand
  190   196     1     0     0
SMALL
GAST_HUCK


@<TRIPOS>ATOM
      1 N          -8.2160    8.5200   -6.1740 N.4       1 SER         0.2396
      2 CA         -8.9480    7.9740   -5.0120 C.3       1 SER         0.0886
      3 C          -8.0440    7.9170   -3.7860 C.2       1 SER         0.2315
      4 O          -6.8490    7.6660   -3.9100 O.2       1 SER        -0.3904
      5 CB         -9.4310    6.5620   -5.3390 C.3       1 SER         0.1041
      6 OG        -10.1770    6.5370   -6.5460 O.3       1 SER        -0.3870
      7 N          -8.5950    8.1600   -2.5890 N.am      1 PRO        -0.2471
      8 CA         -7.8880    7.8840   -1.3380 C.3       1 PRO         0.1341
      9 C          -7.7650    6.3740   -1.1270 C.2       1 PRO         0.2066
     10 O          -8.7090    5.6300   -1.4130 O.2       1 PRO        -0.3942
     11 CB         -8.7850    8.5180   -0.2700 C.3       1 PRO        -0.0104
     12 CG        -10.1440    8.5550   -0.8790 C.3       1 PRO        -0.0281
     13 CD         -9.9340    8.7330   -2.3570 C.3       1 PRO         0.0371
     14 N          -6.6150    5.8910   -0.6320 N.am      1 PRO        -0.2498
     15 CA         -6.3700    4.4600   -0.4890 C.3       1 PRO         0.1340
     16 C          -7.2290    3.8450    0.6100 C.2       1 PRO         0.2066
     17 O          -7.3490    4.4060    1.7030 O.2       1 PRO        -0.3942
     18 CB         -4.8790    4.3700   -0.1350 C.3       1 PRO        -0.0104
     19 CG         -4.3290    5.7420   -0.3440 C.3       1 PRO        -0.0281
     20 CD         -5.4790    6.6820   -0.1490 C.3       1 PRO         0.0369
     21 N          -7.8380    2.6850    0.3170 N.am      1 PRO        -0.2498
     22 CA         -8.7110    1.9560    1.2480 C.3       1 PRO         0.1340
     23 C          -8.0830    1.7620    2.6240 C.2       1 PRO         0.2066
     24 O          -6.8620    1.6110    2.7450 O.2       1 PRO        -0.3942
     25 CB         -8.9110    0.5920    0.5650 C.3       1 PRO        -0.0104
     26 CG         -7.9220    0.5550   -0.5510 C.3       1 PRO        -0.0281
     27 CD         -7.7340    1.9800   -0.9620 C.3       1 PRO         0.0369
     28 N          -8.9210    1.7560    3.6750 N.am      1 PRO        -0.2498
     29 CA         -8.4710    1.5440    5.0520 C.3       1 PRO         0.1338
     30 C          -7.5850    0.3110    5.1890 C.2       1 PRO         0.2042
     31 O          -7.9670   -0.7910    4.8000 O.2       1 PRO        -0.3944
     32 CB         -9.7750    1.3540    5.8270 C.3       1 PRO        -0.0104
     33 CG        -10.7910    2.1020    5.0360 C.3       1 PRO        -0.0281
     34 CD        -10.3820    1.9530    3.5990 C.3       1 PRO         0.0369
     35 N          -6.4110    0.5210    5.7650 N.am      1 TYR        -0.2621
     36 CA         -5.4070   -0.5250    5.9490 C.3       1 TYR         0.1390
     37 C          -5.9180   -1.6690    6.8430 C.2       1 TYR         0.2058
     38 O          -5.2900   -2.7250    6.9400 O.2       1 TYR        -0.3942
     39 CB         -4.1230    0.1270    6.4980 C.3       1 TYR         0.0163
     40 CG         -3.2660   -0.7440    7.3890 C.ar      1 TYR        -0.0493
     41 CD1        -2.4740   -1.7600    6.8710 C.ar      1 TYR        -0.0685
     42 CD2        -3.2440   -0.5300    8.7570 C.ar      1 TYR        -0.0685
     43 CE1        -1.6880   -2.5390    7.6970 C.ar      1 TYR        -0.0398
     44 CE2        -2.4640   -1.3010    9.5890 C.ar      1 TYR        -0.0398
     45 CZ         -1.6870   -2.3050    9.0570 C.ar      1 TYR         0.0805
     46 OH         -0.9050   -3.0760    9.8860 O.3       1 TYR        -0.3376
     47 N          -7.0720   -1.4640    7.4700 N.am      1 SER        -0.2614
     48 CA         -7.6370   -2.4490    8.3820 C.3       1 SER         0.1539
     49 C          -7.8940   -3.7860    7.6750 C.2       1 SER         0.2062
     50 O          -7.7240   -4.8550    8.2700 O.2       1 SER        -0.3943
     51 CB         -8.9400   -1.9140    8.9740 C.3       1 SER         0.0843
     52 OG         -8.8070   -0.5480    9.3380 O.3       1 SER        -0.3903
     53 N          -8.3440   -3.7310    6.4230 N.am      1 ARG        -0.2637
     54 CA         -8.5030   -4.9430    5.6330 C.3       1 ARG         0.1311
     55 C          -8.3100   -4.6610    4.1480 C.2       1 ARG         0.2040
     56 O          -8.3430   -3.5130    3.7130 O.2       1 ARG        -0.3944
     57 CB         -9.8530   -5.6130    5.8630 C.3       1 ARG        -0.0092
     58 CG         -9.7820   -7.1030    5.5820 C.3       1 ARG        -0.0156
     59 CD         -9.2270   -7.8630    6.7740 C.3       1 ARG         0.0627
     60 NE        -10.2690   -8.2000    7.7370 N.pl3     1 ARG        -0.2723
     61 CZ        -10.3220   -7.7380    8.9860 C.cat     1 ARG         0.2882
     62 NH1        -9.4230   -6.8610    9.4240 N.pl3     1 ARG        -0.2849
     63 NH2       -11.2870   -8.1530    9.7940 N.pl3     1 ARG        -0.2849
     64 N          -8.1300   -5.7270    3.3770 N.am      1 TYR        -0.2621
     65 CA         -7.8290   -5.6210    1.9580 C.3       1 TYR         0.1392
     66 C          -9.1230   -5.6010    1.1520 C.2       1 TYR         0.2082
     67 O          -9.9720   -6.4830    1.3070 O.2       1 TYR        -0.3940
     68 CB         -6.9720   -6.8140    1.4940 C.3       1 TYR         0.0164
     69 CG         -5.7260   -7.0920    2.3230 C.ar      1 TYR        -0.0493
     70 CD1        -5.4870   -6.4360    3.5210 C.ar      1 TYR        -0.0685
     71 CD2        -4.8060   -8.0490    1.9140 C.ar      1 TYR        -0.0685
     72 CE1        -4.3840   -6.7150    4.2860 C.ar      1 TYR        -0.0398
     73 CE2        -3.6870   -8.3310    2.6730 C.ar      1 TYR        -0.0398
     74 CZ         -3.4820   -7.6630    3.8610 C.ar      1 TYR         0.0805
     75 OH         -2.3760   -7.9500    4.6300 O.3       1 TYR        -0.3376
     76 N          -9.2930   -4.5910    0.2900 N.am      1 PRO        -0.2497
     77 CA        -10.4450   -4.5060   -0.6090 C.3       1 PRO         0.1338
     78 C         -10.4660   -5.6600   -1.6090 C.2       1 PRO         0.2041
     79 O          -9.4480   -5.9900   -2.2180 O.2       1 PRO        -0.3944
     80 CB        -10.2430   -3.1690   -1.3340 C.3       1 PRO        -0.0104
     81 CG         -8.7910   -2.8670   -1.1930 C.3       1 PRO        -0.0281
     82 CD         -8.3770   -3.4510    0.1260 C.3       1 PRO         0.0369
     83 N         -11.6280   -6.2750   -1.7710 N.am      1 MET        -0.2637
     84 CA        -11.7740   -7.3900   -2.6980 C.3       1 MET         0.1317
     85 C         -12.3140   -6.8870   -4.0360 C.2       1 MET         0.2035
     86 O         -12.6410   -7.6670   -4.9340 O.2       1 MET        -0.3944
     87 CB        -12.7080   -8.4460   -2.1000 C.3       1 MET        -0.0034
     88 CG        -12.5930   -9.8080   -2.7650 C.3       1 MET        -0.0024
     89 SD        -10.9270  -10.4960   -2.6480 S.3       1 MET        -0.1639
     90 CE        -10.7180  -10.6000   -0.8690 C.3       1 MET        -0.0181
     91 N         -12.3820   -5.5710   -4.1610 N.am      1 ASP        -0.2679
     92 CA        -12.8880   -4.9320   -5.3650 C.3       1 ASP         0.1057
     93 C         -11.9850   -3.7790   -5.7710 C.2       1 ASP         0.0618
     94 O         -10.8130   -4.0350   -6.1090 O.co2     1 ASP        -0.5665
     95 CB        -14.3150   -4.4180   -5.1440 C.3       1 ASP         0.0351
     96 CG        -15.3460   -5.5200   -5.1900 C.2       1 ASP         0.0387
     97 OD1       -15.7590   -5.8990   -6.3090 O.co2     1 ASP        -0.5688
     98 OD2       -15.7550   -6.0120   -4.1130 O.co2     1 ASP        -0.5688
     99 OXT       -12.4570   -2.6270   -5.7680 O.co2     1 ASP        -0.5665
    100 H          -7.8924    9.4629   -5.9580 H         1 SER         0.2016
    101 H          -7.4149    7.9234   -6.3806 H         1 SER         0.2016
    102 H          -8.8372    8.5492   -6.9825 H         1 SER         0.2016
    103 H          -9.7959    8.6243   -4.7968 H         1 SER         0.1122
    104 H         -10.0732    6.2191   -4.5278 H         1 SER         0.0640
    105 H          -8.5604    5.9167   -5.4565 H         1 SER         0.0640
    106 H         -10.4657    5.6389   -6.7239 H         1 SER         0.2099
    107 H          -6.8724    8.2794   -1.3175 H         1 PRO         0.0802
    108 H          -8.4399    9.5139    0.0076 H         1 PRO         0.0313
    109 H          -8.7739    7.9460    0.6578 H         1 PRO         0.0313
    110 H         -10.7391    9.3690   -0.4649 H         1 PRO         0.0287
    111 H         -10.6956    7.6390   -0.6671 H         1 PRO         0.0287
    112 H         -10.7058    8.2419   -2.9496 H         1 PRO         0.0524
    113 H          -9.9996    9.7767   -2.6645 H         1 PRO         0.0524
    114 H          -6.6245    3.9094   -1.3947 H         1 PRO         0.0802
    115 H          -4.3664    3.6376   -0.7587 H         1 PRO         0.0313
    116 H          -4.7344    4.0367    0.8927 H         1 PRO         0.0313
    117 H          -3.8977    5.8470   -1.3395 H         1 PRO         0.0287
    118 H          -3.5219    5.9548    0.3570 H         1 PRO         0.0287
    119 H          -5.5937    7.0106    0.8839 H         1 PRO         0.0524
    120 H          -5.3565    7.6255   -0.6810 H         1 PRO         0.0524
    121 H          -9.6357    2.5027    1.4328 H         1 PRO         0.0802
    122 H          -9.9308    0.4751    0.1984 H         1 PRO         0.0313
    123 H          -8.7556   -0.2304    1.2632 H         1 PRO         0.0313
    124 H          -8.2767   -0.0573   -1.3801 H         1 PRO         0.0287
    125 H          -6.9817    0.1013   -0.2378 H         1 PRO         0.0287
    126 H          -6.7900    2.1588   -1.4767 H         1 PRO         0.0524
    127 H          -8.4635    2.3154   -1.6991 H         1 PRO         0.0524
    128 H          -7.8621    2.3727    5.4133 H         1 PRO         0.0802
    129 H          -9.7001    1.7237    6.8497 H         1 PRO         0.0313
    130 H         -10.0359    0.3013    5.9359 H         1 PRO         0.0313
    131 H         -10.8292    3.1507    5.3306 H         1 PRO         0.0287
    132 H         -11.7934    1.7089    5.2056 H         1 PRO         0.0287
    133 H         -10.8899    1.1254    3.1038 H         1 PRO         0.0524
    134 H         -10.6560    2.8179    2.9949 H         1 PRO         0.0524
    135 H          -6.1965    1.4612    6.0973 H         1 TYR         0.1885
    136 H          -5.1872   -0.9929    4.9894 H         1 TYR         0.0821
    137 H          -4.4451    0.9687    7.1111 H         1 TYR         0.0453
    138 H          -3.5104    0.3742    5.6310 H         1 TYR         0.0453
    139 H          -2.4726   -1.9454    5.7969 H         1 TYR         0.0530
    140 H          -3.8563    0.2646    9.1834 H         1 TYR         0.0530
    141 H          -1.0719   -3.3342    7.2772 H         1 TYR         0.0525
    142 H          -2.4617   -1.1174   10.6634 H         1 TYR         0.0525
    143 H          -0.4294   -3.7253    9.3627 H         1 TYR         0.2458
    144 H          -7.5761   -0.5922    7.3078 H         1 SER         0.1884
    145 H          -6.9157   -2.6257    9.1799 H         1 SER         0.0823
    146 H          -9.1840   -2.4924    9.8651 H         1 SER         0.0606
    147 H          -9.7277   -2.0026    8.2258 H         1 SER         0.0606
    148 H          -9.6359   -0.2341    9.7067 H         1 SER         0.2097
    149 H          -8.5803   -2.8278    6.0123 H         1 ARG         0.1883
    150 H          -7.7283   -5.6327    5.9680 H         1 ARG         0.0800
    151 H         -10.5825   -5.1662    5.1875 H         1 ARG         0.0313
    152 H         -10.1397   -5.4689    6.9047 H         1 ARG         0.0313
    153 H          -9.1222   -7.2645    4.7295 H         1 ARG         0.0301
    154 H         -10.7892   -7.4660    5.3772 H         1 ARG         0.0301
    155 H          -8.4933   -7.2291    7.2720 H         1 ARG         0.0689
    156 H          -8.7835   -8.7904    6.4117 H         1 ARG         0.0689
    157 H         -11.0087   -8.8334    7.4335 H         1 ARG         0.2642
    158 H          -8.6832   -6.5352    8.8020 H         1 ARG         0.2615
    159 H          -9.4734   -6.5143   10.3819 H         1 ARG         0.2615
    160 H         -11.9813   -8.8206    9.4584 H         1 ARG         0.2615
    161 H         -11.3354   -7.8048   10.7515 H         1 ARG         0.2615
    162 H          -8.2056   -6.6542    3.7952 H         1 TYR         0.1885
    163 H          -7.2754   -4.6961    1.7964 H         1 TYR         0.0821
    164 H          -6.6270   -6.5741    0.4883 H         1 TYR         0.0453
    165 H          -7.6028   -7.6989    1.5778 H         1 TYR         0.0453
    166 H          -6.1936   -5.6798    3.8630 H         1 TYR         0.0530
    167 H          -4.9697   -8.5858    0.9796 H         1 TYR         0.0530
    168 H          -4.2224   -6.1882    5.2265 H         1 TYR         0.0525
    169 H          -2.9695   -9.0783    2.3341 H         1 TYR         0.0525
    170 H          -2.3839   -7.4009    5.4174 H         1 TYR         0.2458
    171 H         -11.3917   -4.5664   -0.0721 H         1 PRO         0.0802
    172 H         -10.8622   -2.3807   -0.9059 H         1 PRO         0.0313
    173 H         -10.5427   -3.2284   -2.3803 H         1 PRO         0.0313
    174 H          -8.6045   -1.7936   -1.2270 H         1 PRO         0.0287
    175 H          -8.2158   -3.2953   -2.0139 H         1 PRO         0.0287
    176 H          -7.3283   -3.7477    0.1444 H         1 PRO         0.0524
    177 H          -8.4465   -2.7341    0.9441 H         1 PRO         0.0524
    178 H         -12.4377   -5.9616   -1.2356 H         1 MET         0.1883
    179 H         -10.7992   -7.8470   -2.8685 H         1 MET         0.0800
    180 H         -13.7305   -8.0972   -2.2449 H         1 MET         0.0320
    181 H         -12.4328   -8.5698   -1.0526 H         1 MET         0.0320
    182 H         -12.8340   -9.6881   -3.8212 H         1 MET         0.0378
    183 H         -13.2749  -10.4894   -2.2562 H         1 MET         0.0378
    184 H         -10.8080   -9.6042   -0.4351 H         1 MET         0.0340
    185 H         -11.4866  -11.2504   -0.4516 H         1 MET         0.0340
    186 H          -9.7329  -11.0084   -0.6434 H         1 MET         0.0340
    187 H         -12.0689   -4.9855   -3.3867 H         1 ASP         0.1876
    188 H         -12.9007   -5.6735   -6.1638 H         1 ASP         0.0745
    189 H         -14.5437   -3.7126   -5.9429 H         1 ASP         0.0471
    190 H         -14.3567   -3.9623   -4.1547 H         1 ASP         0.0471
@<TRIPOS>BOND
     1    1    2 1  
     2    2    3 1  
     3    2    5 1  
     4    3    4 2  
     5    3    7 am 
     6    5    6 1  
     7    7    8 1  
     8    7   13 1  
     9    8    9 1  
    10    8   11 1  
    11    9   10 2  
    12    9   14 am 
    13   11   12 1  
    14   12   13 1  
    15   14   15 1  
    16   14   20 1  
    17   15   16 1  
    18   15   18 1  
    19   16   17 2  
    20   16   21 am 
    21   18   19 1  
    22   19   20 1  
    23   21   22 1  
    24   21   27 1  
    25   22   23 1  
    26   22   25 1  
    27   23   24 2  
    28   23   28 am 
    29   25   26 1  
    30   26   27 1  
    31   28   29 1  
    32   28   34 1  
    33   29   30 1  
    34   29   32 1  
    35   30   31 2  
    36   30   35 am 
    37   32   33 1  
    38   33   34 1  
    39   35   36 1  
    40   36   37 1  
    41   36   39 1  
    42   37   38 2  
    43   37   47 am 
    44   39   40 1  
    45   40   41 ar 
    46   40   42 ar 
    47   41   43 ar 
    48   42   44 ar 
    49   43   45 ar 
    50   44   45 ar 
    51   45   46 1  
    52   47   48 1  
    53   48   49 1  
    54   48   51 1  
    55   49   50 2  
    56   49   53 am 
    57   51   52 1  
    58   53   54 1  
    59   54   55 1  
    60   54   57 1  
    61   55   56 2  
    62   55   64 am 
    63   57   58 1  
    64   58   59 1  
    65   59   60 1  
    66   60   61 ar 
    67   61   62 ar 
    68   61   63 ar 
    69   64   65 1  
    70   65   66 1  
    71   65   68 1  
    72   66   67 2  
    73   66   76 am 
    74   68   69 1  
    75   69   70 ar 
    76   69   71 ar 
    77   70   72 ar 
    78   71   73 ar 
    79   72   74 ar 
    80   73   74 ar 
    81   74   75 1  
    82   76   77 1  
    83   76   82 1  
    84   77   78 1  
    85   77   80 1  
    86   78   79 2  
    87   78   83 am 
    88   80   81 1  
    89   81   82 1  
    90   83   84 1  
    91   84   85 1  
    92   84   87 1  
    93   85   86 2  
    94   85   91 am 
    95   87   88 1  
    96   88   89 1  
    97   89   90 1  
    98   91   92 1  
    99   92   93 1  
   100   92   95 1  
   101   93   94 ar 
   102   93   99 ar 
   103   95   96 1  
   104   96   97 ar 
   105   96   98 ar 
   106    1  100 1  
   107    1  101 1  
   108    1  102 1  
   109    2  103 1  
   110    5  104 1  
   111    5  105 1  
   112    6  106 1  
   113    8  107 1  
   114   11  108 1  
   115   11  109 1  
   116   12  110 1  
   117   12  111 1  
   118   13  112 1  
   119   13  113 1  
   120   15  114 1  
   121   18  115 1  
   122   18  116 1  
   123   19  117 1  
   124   19  118 1  
   125   20  119 1  
   126   20  120 1  
   127   22  121 1  
   128   25  122 1  
   129   25  123 1  
   130   26  124 1  
   131   26  125 1  
   132   27  126 1  
   133   27  127 1  
   134   29  128 1  
   135   32  129 1  
   136   32  130 1  
   137   33  131 1  
   138   33  132 1  
   139   34  133 1  
   140   34  134 1  
   141   35  135 1  
   142   36  136 1  
   143   39  137 1  
   144   39  138 1  
   145   41  139 1  
   146   42  140 1  
   147   43  141 1  
   148   44  142 1  
   149   46  143 1  
   150   47  144 1  
   151   48  145 1  
   152   51  146 1  
   153   51  147 1  
   154   52  148 1  
   155   53  149 1  
   156   54  150 1  
   157   57  151 1  
   158   57  152 1  
   159   58  153 1  
   160   58  154 1  
   161   59  155 1  
   162   59  156 1  
   163   60  157 1  
   164   62  158 1  
   165   62  159 1  
   166   63  160 1  
   167   63  161 1  
   168   64  162 1  
   169   65  163 1  
   170   68  164 1  
   171   68  165 1  
   172   70  166 1  
   173   71  167 1  
   174   72  168 1  
   175   73  169 1  
   176   75  170 1  
   177   77  171 1  
   178   80  172 1  
   179   80  173 1  
   180   81  174 1  
   181   81  175 1  
   182   82  176 1  
   183   82  177 1  
   184   83  178 1  
   185   84  179 1  
   186   87  180 1  
   187   87  181 1  
   188   88  182 1  
   189   88  183 1  
   190   90  184 1  
   191   90  185 1  
   192   90  186 1  
   193   91  187 1  
   194   92  188 1  
   195   95  189 1  
   196   95  190 1  
@<TRIPOS>SUBSTRUCTURE
     1 SER         1

