5w0l_ligand
  -I-interpret- 

 69 74  0  0  0  0  0  0  0  0999 V2000
   -7.8950    5.6910  -40.3070 C   0  0  0  0  0
   -9.1620    5.6570  -39.7270 C   0  0  0  0  0
  -10.1650    4.8290  -40.2110 C   0  0  0  0  0
   -4.9630    7.5030  -38.9330 N   0  0  0  0  0
   -9.9000    4.0240  -41.3240 C   0  0  0  0  0
   -8.6380    4.0660  -41.9110 C   0  0  0  0  0
  -10.8990    3.1700  -41.8210 N   0  0  0  0  0
   -7.6210    4.8800  -41.4160 C   0  0  0  0  0
   -6.2660    4.7980  -42.1160 C   0  0  0  0  0
  -12.1440    2.9910  -41.0560 C   0  0  0  0  0
  -12.5930    4.2830  -40.4400 C   0  0  0  0  0
  -10.5390    3.3520  -44.1990 N   0  0  0  0  0
  -11.5160    4.8210  -39.5400 C   0  0  0  0  0
  -10.7930    2.6440  -43.1150 C   0  0  0  0  0
  -10.1770    2.8740  -46.5930 C   0  0  0  0  0
  -10.4810    2.4280  -45.2190 N   0  0  0  0  0
   -5.9760    8.3890  -38.8320 N   0  0  0  0  0
   -5.7190    9.7140  -38.2790 C   0  0  0  0  0
  -10.0040    5.0270  -48.4650 O   0  0  0  0  0
   -7.1370    7.9060  -39.2880 C   0  0  0  0  0
   -9.0330    3.8780  -46.5780 C   0  0  0  0  0
   -8.8150    4.4310  -47.9610 C   0  0  0  0  0
  -11.0390    4.0460  -48.5850 C   0  0  0  0  0
  -11.4130    3.4820  -47.2380 C   0  0  0  0  0
   -6.8950    6.6270  -39.7280 C   0  0  0  0  0
  -10.7030    1.1720  -44.7850 C   0  0  0  0  0
  -10.9200    1.2310  -43.4320 C   0  0  0  0  0
  -11.2400    0.0030  -42.6290 C   0  0  0  0  0
  -11.4500   -1.1470  -44.8400 C   0  0  0  0  0
  -10.6960   -0.0750  -45.6050 C   0  0  0  0  0
  -10.5120   -2.3630  -42.9950 C   0  0  0  0  0
  -10.2110   -2.4920  -41.5250 C   0  0  0  0  0
   -5.5180    6.4340  -39.4750 C   0  0  0  0  0
   -6.4310    4.3060  -43.3720 F   0  0  0  0  0
   -5.7550    6.0470  -42.2750 F   0  0  0  0  0
  -11.0190   -1.1930  -43.4410 N   0  0  0  0  0
  -10.2770   -3.2720  -43.7800 O   0  0  0  0  0
   -9.3706    6.2979  -38.8704 H   0  0  0  0  0
   -8.4397    3.4437  -42.7836 H   0  0  0  0  0
   -5.6125    4.1669  -41.5137 H   0  0  0  0  0
  -11.9618    2.2704  -40.2588 H   0  0  0  0  0
  -12.9217    2.6403  -41.7344 H   0  0  0  0  0
  -13.4963    4.1083  -39.8556 H   0  0  0  0  0
  -12.7969    5.0064  -41.2295 H   0  0  0  0  0
  -11.7722    5.8482  -39.2806 H   0  0  0  0  0
  -11.4550    4.1781  -38.6619 H   0  0  0  0  0
   -9.8722    2.0095  -47.1827 H   0  0  0  0  0
   -5.3457    9.6148  -37.2597 H   0  0  0  0  0
   -4.9755   10.2240  -38.8916 H   0  0  0  0  0
   -6.6444   10.2899  -38.2739 H   0  0  0  0  0
   -8.0937    8.4280  -39.3070 H   0  0  0  0  0
   -8.1231    3.3798  -46.2435 H   0  0  0  0  0
   -9.2816    4.6947  -45.9003 H   0  0  0  0  0
   -8.0353    5.1913  -47.9147 H   0  0  0  0  0
   -8.5257    3.6144  -48.6225 H   0  0  0  0  0
  -10.6771    3.2332  -49.2146 H   0  0  0  0  0
  -11.9188    4.5195  -49.0208 H   0  0  0  0  0
  -11.8046    4.2770  -46.6033 H   0  0  0  0  0
  -12.1776    2.7150  -47.3609 H   0  0  0  0  0
  -12.2839    0.0386  -42.3175 H   0  0  0  0  0
  -10.5931   -0.0325  -41.7525 H   0  0  0  0  0
  -11.2476   -2.1139  -45.3007 H   0  0  0  0  0
  -12.5148   -0.9159  -44.8710 H   0  0  0  0  0
   -9.6712   -0.3966  -45.7906 H   0  0  0  0  0
  -11.1741    0.1059  -46.5677 H   0  0  0  0  0
  -10.7749   -3.3284  -41.1120 H   0  0  0  0  0
   -9.1441   -2.6685  -41.3880 H   0  0  0  0  0
  -10.4969   -1.5722  -41.0148 H   0  0  0  0  0
   -4.9789    5.5138  -39.7001 H   0  0  0  0  0
  2  1  4  0  0  0
  8  1  4  0  0  0
  1 25  1  0  0  0
  3  2  4  0  0  0
  5  3  4  0  0  0
  3 13  1  0  0  0
  4 17  4  0  0  0
 33  4  4  0  0  0
  5  6  4  0  0  0
  7  5  1  0  0  0
  6  8  4  0  0  0
  7 10  1  0  0  0
 14  7  1  0  0  0
  8  9  1  0  0  0
  9 34  1  0  0  0
  9 35  1  0  0  0
 10 11  1  0  0  0
 11 13  1  0  0  0
 14 12  4  0  0  0
 16 12  4  0  0  0
 27 14  4  0  0  0
 16 15  1  0  0  0
 15 21  1  0  0  0
 15 24  1  0  0  0
 26 16  4  0  0  0
 17 18  1  0  0  0
 20 17  4  0  0  0
 22 19  1  0  0  0
 23 19  1  0  0  0
 25 20  4  0  0  0
 21 22  1  0  0  0
 24 23  1  0  0  0
 25 33  4  0  0  0
 27 26  4  0  0  0
 30 26  1  0  0  0
 28 27  1  0  0  0
 36 28  1  0  0  0
 29 30  1  0  0  0
 36 29  1  0  0  0
 31 32  1  0  0  0
 31 36  1  0  0  0
 31 37  2  0  0  0
  2 38  1  0  0  0
  6 39  1  0  0  0
  9 40  1  0  0  0
 10 41  1  0  0  0
 10 42  1  0  0  0
 11 43  1  0  0  0
 11 44  1  0  0  0
 13 45  1  0  0  0
 13 46  1  0  0  0
 15 47  1  0  0  0
 18 48  1  0  0  0
 18 49  1  0  0  0
 18 50  1  0  0  0
 20 51  1  0  0  0
 21 52  1  0  0  0
 21 53  1  0  0  0
 22 54  1  0  0  0
 22 55  1  0  0  0
 23 56  1  0  0  0
 23 57  1  0  0  0
 24 58  1  0  0  0
 24 59  1  0  0  0
 28 60  1  0  0  0
 28 61  1  0  0  0
 29 62  1  0  0  0
 29 63  1  0  0  0
 30 64  1  0  0  0
 30 65  1  0  0  0
 32 66  1  0  0  0
 32 67  1  0  0  0
 32 68  1  0  0  0
 33 69  1  0  0  0
M  END
$$$$
