### 
### Created by X-TOOL on Mon Sep 10 21:13:02 2018
### 

@<TRIPOS>MOLECULE
3ncq_ligand
   43    45     1     0     0
SMALL
GAST_HUCK


@<TRIPOS>ATOM
      1 PG         12.6330   14.5100   24.8590 P.3       1 ATP         0.1879
      2 O1G        12.1840   13.4010   24.0560 O.co2     1 ATP        -0.6091
      3 O2G        12.9100   14.0210   26.3130 O.co2     1 ATP        -0.6091
      4 O3G        11.6790   15.5860   24.6960 O.co2     1 ATP        -0.6091
      5 PB         15.4690   14.3050   24.2170 P.3       1 ATP         0.3553
      6 O1B        15.5600   13.0380   24.9960 O.co2     1 ATP        -0.5652
      7 O2B        16.1000   14.3040   22.8730 O.co2     1 ATP        -0.5652
      8 O3B        13.9890   14.8730   24.1030 O.3       1 ATP        -0.1546
      9 PA         15.8770   16.0320   26.5240 P.3       1 ATP         0.3266
     10 O1A        15.4080   14.8820   27.3350 O.co2     1 ATP        -0.5692
     11 O2A        15.0780   17.2520   26.3910 O.co2     1 ATP        -0.5692
     12 O3A        16.1710   15.5020   25.0970 O.3       1 ATP        -0.1171
     13 O5'        17.3180   16.4420   27.0180 O.3       1 ATP        -0.2441
     14 C5'        17.8670   17.7510   27.0560 C.3       1 ATP         0.1131
     15 C4'        19.0610   17.7230   27.9770 C.3       1 ATP         0.1189
     16 O4'        18.6980   17.2260   29.2830 O.3       1 ATP        -0.3364
     17 C3'        20.1530   16.7720   27.5140 C.3       1 ATP         0.1149
     18 O3'        20.9530   17.3210   26.4040 O.3       1 ATP        -0.3864
     19 C2'        20.9520   16.5000   28.7510 C.3       1 ATP         0.1385
     20 O2'        21.7360   17.6270   29.0740 O.3       1 ATP        -0.3836
     21 C1'        19.8470   16.4940   29.7890 C.3       1 ATP         0.2010
     22 N9         19.3640   15.1000   30.0350 N.pl3     1 ATP        -0.1919
     23 C8         18.3240   14.4670   29.3650 C.2       1 ATP         0.1123
     24 N7         18.1250   13.2440   29.9370 N.2       1 ATP        -0.2958
     25 C5         19.0750   13.0820   30.9300 C.ar      1 ATP         0.1045
     26 C6         19.4020   12.0500   31.9180 C.ar      1 ATP         0.1298
     27 N6         18.6860   10.8870   31.9240 N.pl3     1 ATP        -0.3152
     28 N1         20.4060   12.3240   32.7810 N.ar      1 ATP        -0.2698
     29 C2         21.1060   13.4830   32.7780 C.ar      1 ATP         0.0533
     30 N3         20.8320   14.4770   31.8900 N.ar      1 ATP        -0.2714
     31 C4         19.8450   14.2870   30.9760 C.ar      1 ATP         0.1613
     32 H1         17.1174   18.4604   27.4365 H         1 ATP         0.0648
     33 H2         18.1802   18.0550   26.0463 H         1 ATP         0.0648
     34 H3         19.4637   18.7436   28.0558 H         1 ATP         0.0651
     35 H4         19.6971   15.8343   27.1633 H         1 ATP         0.0648
     36 H5         20.3855   17.4962   25.6626 H         1 ATP         0.2100
     37 H6         21.5412   15.5725   28.6999 H         1 ATP         0.0676
     38 H7         22.2394   17.4466   29.8591 H         1 ATP         0.2101
     39 H8         20.2135   16.9444   30.7232 H         1 ATP         0.0996
     40 H9         17.7633   14.8770   28.5263 H         1 ATP         0.1349
     41 H10        18.9034   10.1519   32.6119 H         1 ATP         0.1820
     42 H11        17.9286   10.7450   31.2406 H         1 ATP         0.1820
     43 H12        21.9029   13.6222   33.4995 H         1 ATP         0.0996
@<TRIPOS>BOND
     1    1    2 ar 
     2    1    3 ar 
     3    1    4 ar 
     4    8    1 1  
     5    5    6 ar 
     6    5    7 ar 
     7    5    8 1  
     8   12    5 1  
     9    9   10 ar 
    10    9   11 ar 
    11    9   12 1  
    12    9   13 1  
    13   13   14 1  
    14   14   15 1  
    15   15   16 1  
    16   15   17 1  
    17   16   21 1  
    18   17   18 1  
    19   17   19 1  
    20   19   20 1  
    21   19   21 1  
    22   21   22 1  
    23   22   23 1  
    24   22   31 1  
    25   23   24 2  
    26   24   25 1  
    27   25   26 ar 
    28   25   31 ar 
    29   26   27 1  
    30   26   28 ar 
    31   28   29 ar 
    32   29   30 ar 
    33   30   31 ar 
    34   14   32 1  
    35   14   33 1  
    36   15   34 1  
    37   17   35 1  
    38   18   36 1  
    39   19   37 1  
    40   20   38 1  
    41   21   39 1  
    42   23   40 1  
    43   27   41 1  
    44   27   42 1  
    45   29   43 1  
@<TRIPOS>SUBSTRUCTURE
     1 ATP         1

