1biw_ligand
  -I-interpret- 

 66 66  0  0  0  0  0  0  0  0999 V2000
    7.7280   48.8860   54.7260 C   0  0  0  0  0
    7.1300   48.7430   55.7910 O   0  0  0  0  0
    9.0640   48.6640   54.5960 N   0  0  0  0  0
    9.7910   48.5950   53.3280 C   0  0  0  0  0
   10.0530   49.9670   52.7000 C   0  0  0  0  0
    8.8120   50.5880   52.0720 C   0  0  0  0  0
    7.6010   50.7340   52.9270 C   0  0  0  0  0
    6.9830   49.5680   53.6070 C   0  0  0  0  0
    5.5340   49.6070   53.8140 N   0  0  0  0  0
    4.6060   48.8100   53.2170 C   0  0  0  0  0
    3.2000   48.7670   53.6500 C   0  0  0  0  0
    2.2080   49.3600   52.6880 C   0  0  0  0  0
    0.8270   49.4610   53.2340 C   0  0  0  0  0
    0.6530   50.2790   54.1110 O   0  0  0  0  0
   -0.2040   48.7210   52.8070 N   0  0  0  0  0
   -1.4000   48.9070   53.4850 O   0  0  0  0  0
    2.5090   50.1180   51.3890 C   0  0  0  0  0
    2.7640   51.5950   51.7610 C   0  0  0  0  0
    2.7820   52.5070   50.5140 C   0  0  0  0  0
    1.4680   52.5610   49.9590 O   0  0  0  0  0
    2.7900   47.7390   54.6160 C   0  0  0  0  0
    3.1310   47.5590   56.0000 C   0  0  0  0  0
    3.0120   48.6560   57.0090 C   0  0  0  0  0
    3.0420   46.1870   56.6390 C   0  0  0  0  0
    4.8460   48.0310   52.3310 O   0  0  0  0  0
    9.9330   48.5750   55.7860 C   0  0  0  0  0
    9.9770   47.1930   56.4310 C   0  0  0  0  0
   10.5110   46.2280   55.5420 O   0  0  0  0  0
   10.4720   44.9290   56.1410 C   0  0  0  0  0
    9.1781   48.0259   52.6290 H   0  0  0  0  0
   10.7590   48.1362   53.5294 H   0  0  0  0  0
   10.7906   49.8321   51.9089 H   0  0  0  0  0
   10.3899   50.6340   53.4935 H   0  0  0  0  0
    8.5217   49.9103   51.2692 H   0  0  0  0  0
    9.1004   51.6033   51.7998 H   0  0  0  0  0
    6.8308   51.0663   52.2310 H   0  0  0  0  0
    7.9388   51.3646   53.7494 H   0  0  0  0  0
    7.1362   48.8715   52.7827 H   0  0  0  0  0
    5.1842   50.3026   54.4730 H   0  0  0  0  0
    3.1540   49.5368   54.4203 H   0  0  0  0  0
    2.5311   48.6061   51.9702 H   0  0  0  0  0
   -0.1157   48.0627   52.0329 H   0  0  0  0  0
   -2.0728   48.3359   53.1073 H   0  0  0  0  0
    1.6695   50.0386   50.6984 H   0  0  0  0  0
    3.3824   49.6936   50.8940 H   0  0  0  0  0
    3.7367   51.6622   52.2482 H   0  0  0  0  0
    1.9585   51.9269   52.4161 H   0  0  0  0  0
    3.4768   52.1066   49.7757 H   0  0  0  0  0
    3.1033   53.5096   50.7964 H   0  0  0  0  0
    1.4725   53.1265   49.1833 H   0  0  0  0  0
    3.2849   46.8684   54.1856 H   0  0  0  0  0
    1.7322   47.9834   54.7132 H   0  0  0  0  0
    4.1517   47.6839   55.6386 H   0  0  0  0  0
    3.6487   49.4900   56.7139 H   0  0  0  0  0
    1.9755   48.9892   57.0610 H   0  0  0  0  0
    3.3253   48.2857   57.9851 H   0  0  0  0  0
    2.0166   45.8231   56.5738 H   0  0  0  0  0
    3.7067   45.4999   56.1154 H   0  0  0  0  0
    3.3389   46.2551   57.6856 H   0  0  0  0  0
    9.5296   49.2626   56.5293 H   0  0  0  0  0
   10.9466   48.8090   55.4606 H   0  0  0  0  0
    8.9605   46.8993   56.6927 H   0  0  0  0  0
   10.6141   47.2419   57.3141 H   0  0  0  0  0
   11.0615   44.9352   57.0578 H   0  0  0  0  0
    9.4394   44.6682   56.3732 H   0  0  0  0  0
   10.8854   44.1976   55.4466 H   0  0  0  0  0
  1  2  2  0  0  0
  1  3  1  0  0  0
  1  8  1  0  0  0
  3  4  1  0  0  0
  3 26  1  0  0  0
  4  5  1  0  0  0
  5  6  1  0  0  0
  6  7  1  0  0  0
  7  8  1  0  0  0
  8  9  1  0  0  0
  9 10  1  0  0  0
 10 11  1  0  0  0
 10 25  2  0  0  0
 11 12  1  0  0  0
 11 21  1  0  0  0
 12 13  1  0  0  0
 12 17  1  0  0  0
 13 14  2  0  0  0
 13 15  1  0  0  0
 15 16  1  0  0  0
 17 18  1  0  0  0
 18 19  1  0  0  0
 19 20  1  0  0  0
 21 22  1  0  0  0
 22 23  1  0  0  0
 22 24  1  0  0  0
 26 27  1  0  0  0
 27 28  1  0  0  0
 28 29  1  0  0  0
  4 30  1  0  0  0
  4 31  1  0  0  0
  5 32  1  0  0  0
  5 33  1  0  0  0
  6 34  1  0  0  0
  6 35  1  0  0  0
  7 36  1  0  0  0
  7 37  1  0  0  0
  8 38  1  0  0  0
  9 39  1  0  0  0
 11 40  1  0  0  0
 12 41  1  0  0  0
 15 42  1  0  0  0
 16 43  1  0  0  0
 17 44  1  0  0  0
 17 45  1  0  0  0
 18 46  1  0  0  0
 18 47  1  0  0  0
 19 48  1  0  0  0
 19 49  1  0  0  0
 20 50  1  0  0  0
 21 51  1  0  0  0
 21 52  1  0  0  0
 22 53  1  0  0  0
 23 54  1  0  0  0
 23 55  1  0  0  0
 23 56  1  0  0  0
 24 57  1  0  0  0
 24 58  1  0  0  0
 24 59  1  0  0  0
 26 60  1  0  0  0
 26 61  1  0  0  0
 27 62  1  0  0  0
 27 63  1  0  0  0
 29 64  1  0  0  0
 29 65  1  0  0  0
 29 66  1  0  0  0
M  END
$$$$
