5wyx_ligand
  -I-interpret- 

 31 33  0  0  0  0  0  0  0  0999 V2000
   60.5340  -31.8330   39.4220 O   0  0  0  0  0
   61.2320  -31.5250   38.5330 C   0  0  0  0  0
   62.5090  -31.6710   38.6290 N   0  0  0  0  0
   60.6320  -30.9210   37.3450 C   0  0  0  0  0
   61.4580  -30.7040   36.1670 C   0  0  0  0  0
   60.6290  -30.1660   35.3590 N   0  0  0  0  0
   59.3710  -30.0010   35.8550 N   0  0  0  0  0
   59.3710  -30.4710   37.0880 C   0  0  0  0  0
   62.7330  -30.9750   35.9050 N   0  0  0  0  0
   63.2280  -30.6510   34.7340 C   0  0  0  0  0
   62.3680  -30.0610   33.8350 C   0  0  0  0  0
   61.0550  -29.8270   34.1600 C   0  0  0  0  0
   60.1520  -29.1810   33.1930 C   0  0  0  0  0
   59.4080  -28.1130   33.6180 C   0  0  0  0  0
   58.5400  -27.4590   32.7910 C   0  0  0  0  0
   58.4350  -27.8570   31.5000 C   0  0  0  0  0
   59.1760  -28.9020   31.0470 C   0  0  0  0  0
   59.0290  -29.3010   29.6240 C   0  0  0  0  0
   60.0410  -29.5710   31.8820 C   0  0  0  0  0
   62.9156  -32.0561   39.4815 H   0  0  0  0  0
   63.1129  -31.4015   37.8525 H   0  0  0  0  0
   58.5227  -30.4949   37.7721 H   0  0  0  0  0
   64.2720  -30.8402   34.4843 H   0  0  0  0  0
   62.7357  -29.7752   32.8495 H   0  0  0  0  0
   59.5118  -27.7741   34.6488 H   0  0  0  0  0
   57.9403  -26.6288   33.1641 H   0  0  0  0  0
   57.7553  -27.3382   30.8240 H   0  0  0  0  0
   57.9941  -29.5848   29.4326 H   0  0  0  0  0
   59.3017  -28.4627   28.9829 H   0  0  0  0  0
   59.6836  -30.1473   29.4158 H   0  0  0  0  0
   60.6337  -30.4045   31.5050 H   0  0  0  0  0
  1  2  2  0  0  0
  2  3  1  0  0  0
  2  4  1  0  0  0
  4  5  4  0  0  0
  4  8  4  0  0  0
  5  6  4  0  0  0
  5  9  4  0  0  0
  6  7  4  0  0  0
  6 12  4  0  0  0
  7  8  4  0  0  0
  9 10  4  0  0  0
 10 11  4  0  0  0
 11 12  4  0  0  0
 12 13  1  0  0  0
 13 14  4  0  0  0
 13 19  4  0  0  0
 14 15  4  0  0  0
 15 16  4  0  0  0
 16 17  4  0  0  0
 17 18  1  0  0  0
 17 19  4  0  0  0
  3 20  1  0  0  0
  3 21  1  0  0  0
  8 22  1  0  0  0
 10 23  1  0  0  0
 11 24  1  0  0  0
 14 25  1  0  0  0
 15 26  1  0  0  0
 16 27  1  0  0  0
 18 28  1  0  0  0
 18 29  1  0  0  0
 18 30  1  0  0  0
 19 31  1  0  0  0
M  END
$$$$
