4ty1_ligand
  -I-interpret- 

 49 53  0  0  0  0  0  0  0  0999 V2000
  -19.4360   29.0350    3.6560 C   0  0  0  0  0
  -19.9690   30.2770    2.8890 C   0  0  0  0  0
  -21.4510   30.5390    3.2100 C   0  0  0  0  0
  -19.1400   31.5100    3.2840 C   0  0  0  0  0
  -19.8540   30.0000    1.4780 N   0  0  0  0  0
  -20.1830   30.9760    0.5000 C   0  0  0  0  0
  -20.0560   30.7910   -0.8210 N   0  0  0  0  0
  -20.4530   31.9170   -1.4510 N   0  0  0  0  0
  -20.8450   32.7980   -0.5080 C   0  0  0  0  0
  -20.6660   32.2240    0.7220 O   0  0  0  0  0
  -21.2910   34.0960   -0.7700 C   0  0  0  0  0
  -21.4080   34.5210   -2.1090 C   0  0  0  0  0
  -21.8300   35.8110   -2.3990 C   0  0  0  0  0
  -22.1280   36.7060   -1.3310 C   0  0  0  0  0
  -22.5580   38.0180   -1.3690 N   0  0  0  0  0
  -22.7270   38.4600   -0.0910 C   0  0  0  0  0
  -22.3760   37.4440    0.8100 C   0  0  0  0  0
  -22.4890   37.5240    2.2050 C   0  0  0  0  0
  -22.9880   38.6450    2.8170 N   0  0  0  0  0
  -23.1560   38.7010    4.1770 C   0  0  0  0  0
  -22.8620   37.5720    4.9520 C   0  0  0  0  0
  -22.3870   36.4250    4.2930 C   0  0  0  0  0
  -22.2260   36.4290    2.9470 N   0  0  0  0  0
  -21.9910   35.1510    5.0140 C   0  0  0  0  0
  -22.4150   33.6930    4.9620 C   0  0  0  0  0
  -21.1130   34.1220    4.3230 C   0  0  0  0  0
  -22.0110   36.3120   -0.0060 C   0  0  0  0  0
  -21.5700   34.9800    0.2820 C   0  0  0  0  0
  -20.0316   28.1619    3.3896 H   0  0  0  0  0
  -18.3943   28.8620    3.3856 H   0  0  0  0  0
  -19.5095   29.2130    4.7289 H   0  0  0  0  0
  -21.8014   31.3933    2.6307 H   0  0  0  0  0
  -22.0386   29.6579    2.9521 H   0  0  0  0  0
  -21.5591   30.7508    4.2738 H   0  0  0  0  0
  -18.0908   31.3313    3.0489 H   0  0  0  0  0
  -19.4953   32.3782    2.7289 H   0  0  0  0  0
  -19.2482   31.6916    4.3533 H   0  0  0  0  0
  -19.5288   29.0817    1.1756 H   0  0  0  0  0
  -21.1661   33.8338   -2.9198 H   0  0  0  0  0
  -21.9325   36.1365   -3.4342 H   0  0  0  0  0
  -23.0811   39.4523    0.1885 H   0  0  0  0  0
  -23.5148   39.6151    4.6501 H   0  0  0  0  0
  -22.9975   37.5826    6.0335 H   0  0  0  0  0
  -22.0239   35.8450    5.8539 H   0  0  0  0  0
  -23.2977   33.1082    4.7032 H   0  0  0  0  0
  -22.7748   32.9226    5.6440 H   0  0  0  0  0
  -20.0673   33.8145    4.3154 H   0  0  0  0  0
  -20.5903   34.0002    3.3743 H   0  0  0  0  0
  -21.4517   34.6546    1.3156 H   0  0  0  0  0
  1  2  1  0  0  0
  2  3  1  0  0  0
  2  4  1  0  0  0
  2  5  1  0  0  0
  5  6  1  0  0  0
  6  7  4  0  0  0
  6 10  4  0  0  0
  7  8  4  0  0  0
  8  9  4  0  0  0
  9 10  4  0  0  0
  9 11  1  0  0  0
 11 12  4  0  0  0
 11 28  4  0  0  0
 12 13  4  0  0  0
 13 14  4  0  0  0
 14 15  4  0  0  0
 14 27  4  0  0  0
 15 16  4  0  0  0
 16 17  4  0  0  0
 17 18  1  0  0  0
 17 27  4  0  0  0
 18 19  4  0  0  0
 18 23  4  0  0  0
 19 20  4  0  0  0
 20 21  4  0  0  0
 21 22  4  0  0  0
 22 23  4  0  0  0
 22 24  1  0  0  0
 24 25  1  0  0  0
 24 26  1  0  0  0
 25 26  1  0  0  0
 27 28  4  0  0  0
  1 29  1  0  0  0
  1 30  1  0  0  0
  1 31  1  0  0  0
  3 32  1  0  0  0
  3 33  1  0  0  0
  3 34  1  0  0  0
  4 35  1  0  0  0
  4 36  1  0  0  0
  4 37  1  0  0  0
  5 38  1  0  0  0
 12 39  1  0  0  0
 13 40  1  0  0  0
 16 41  1  0  0  0
 20 42  1  0  0  0
 21 43  1  0  0  0
 24 44  1  0  0  0
 25 45  1  0  0  0
 25 46  1  0  0  0
 26 47  1  0  0  0
 26 48  1  0  0  0
 28 49  1  0  0  0
M  END
$$$$
