5ncy_ligand
  -I-interpret- 

 47 50  0  0  0  0  0  0  0  0999 V2000
   -3.4480  -49.9200   17.7840 C   0  0  0  0  0
   -4.6390  -49.3530   18.5280 C   0  0  0  0  0
   -5.4080  -48.4710   17.9080 C   0  0  0  0  0
   -4.9620  -49.7370   19.8190 N   0  0  0  0  0
   -4.2980  -50.5960   20.6980 C   0  0  0  0  0
   -4.7960  -50.8560   22.0030 C   0  0  0  0  0
   -6.0040  -50.2400   22.4070 C   0  0  0  0  0
   -6.6430  -49.3650   21.5240 C   0  0  0  0  0
   -6.6490  -50.4990   23.7530 C   0  0  0  0  0
   -7.6290  -51.6540   23.5560 C   0  0  0  0  0
   -6.7330  -48.2470   24.8620 C   0  0  0  0  0
   -4.7900  -47.2710   25.6730 C   0  0  0  0  0
   -2.4870  -51.9970   24.7920 C   0  0  0  0  0
   -4.1660  -53.1610   22.8440 C   0  0  0  0  0
   -6.7180  -48.0340   19.0050 S   0  0  0  0  0
   -6.1130  -49.1100   20.2740 C   0  0  0  0  0
   -3.2490  -51.1430   20.3800 O   0  0  0  0  0
   -7.3700  -49.3120   24.2660 N   0  0  0  0  0
   -7.4670  -47.1010   25.2730 C   0  0  0  0  0
   -6.7510  -46.0680   25.9140 C   0  0  0  0  0
   -5.4260  -46.1930   26.0670 N   0  0  0  0  0
   -5.4220  -48.2780   25.0830 N   0  0  0  0  0
   -7.3940  -44.9470   26.3620 N   0  0  0  0  0
   -8.8720  -46.9650   25.0450 C   0  0  0  0  0
   -9.9800  -46.8170   24.9110 N   0  0  0  0  0
   -4.0420  -51.7560   22.9270 C   0  0  0  0  0
   -3.2060  -51.1870   23.9180 C   0  0  0  0  0
   -2.6150  -53.3820   24.7090 C   0  0  0  0  0
   -3.4380  -53.9610   23.7350 C   0  0  0  0  0
   -3.7926  -50.4320   16.8856 H   0  0  0  0  0
   -2.7751  -49.1088   17.5059 H   0  0  0  0  0
   -2.9221  -50.6258   18.4269 H   0  0  0  0  0
   -5.2581  -48.0843   16.9000 H   0  0  0  0  0
   -7.5705  -48.8781   21.8253 H   0  0  0  0  0
   -5.8795  -50.7361   24.4877 H   0  0  0  0  0
   -8.0959  -51.8994   24.5099 H   0  0  0  0  0
   -8.3960  -51.3598   22.8396 H   0  0  0  0  0
   -7.0919  -52.5241   23.1784 H   0  0  0  0  0
   -3.7143  -47.3413   25.8345 H   0  0  0  0  0
   -1.8279  -51.5508   25.5367 H   0  0  0  0  0
   -4.8180  -53.6158   22.0982 H   0  0  0  0  0
   -8.3854  -49.2819   24.1736 H   0  0  0  0  0
   -8.4014  -44.8515   26.2341 H   0  0  0  0  0
   -6.8661  -44.2066   26.8240 H   0  0  0  0  0
   -3.1247  -50.1029   23.9972 H   0  0  0  0  0
   -2.0711  -54.0189   25.4066 H   0  0  0  0  0
   -3.5132  -55.0464   23.6692 H   0  0  0  0  0
  2  1  1  0  0  0
  2  3  2  0  0  0
  4  2  1  0  0  0
 15  3  1  0  0  0
  5  4  1  0  0  0
  4 16  1  0  0  0
  6  5  1  0  0  0
  5 17  2  0  0  0
  6  7  2  0  0  0
 26  6  1  0  0  0
  7  8  1  0  0  0
  7  9  1  0  0  0
  8 16  2  0  0  0
  9 10  1  0  0  0
  9 18  1  0  0  0
 18 11  1  0  0  0
 11 19  4  0  0  0
 11 22  4  0  0  0
 12 21  4  0  0  0
 22 12  4  0  0  0
 27 13  4  0  0  0
 13 28  4  0  0  0
 26 14  4  0  0  0
 14 29  4  0  0  0
 16 15  1  0  0  0
 19 20  4  0  0  0
 19 24  1  0  0  0
 20 21  4  0  0  0
 20 23  1  0  0  0
 24 25  3  0  0  0
 26 27  4  0  0  0
 28 29  4  0  0  0
  1 30  1  0  0  0
  1 31  1  0  0  0
  1 32  1  0  0  0
  3 33  1  0  0  0
  8 34  1  0  0  0
  9 35  1  0  0  0
 10 36  1  0  0  0
 10 37  1  0  0  0
 10 38  1  0  0  0
 12 39  1  0  0  0
 13 40  1  0  0  0
 14 41  1  0  0  0
 18 42  1  0  0  0
 23 43  1  0  0  0
 23 44  1  0  0  0
 27 45  1  0  0  0
 28 46  1  0  0  0
 29 47  1  0  0  0
M  END
$$$$
