2fle_ligand
  -I-interpret- 

122125  0  0  0  0  0  0  0  0999 V2000
   26.6460  -32.2260   10.5960 C   0  0  0  0  0
   22.5980  -36.7410   13.0280 C   0  0  0  0  0
   27.9860  -32.0350   11.0440 C   0  0  0  0  0
   29.0350  -32.8220   10.4620 C   0  0  0  0  0
   22.7180  -38.6110    7.0250 C   0  0  0  0  0
   28.7760  -33.7980    9.4420 C   0  0  0  0  0
   27.4050  -37.3510    8.7640 C   0  0  0  0  0
   23.1580  -37.6740    9.4010 C   0  0  0  0  0
   22.5430  -38.8380    8.5440 C   0  0  0  0  0
   21.0180  -39.0040    8.7980 C   0  0  0  0  0
   23.0200  -37.8300   10.9150 C   0  0  0  0  0
   26.4900  -36.2290    8.4680 N   0  0  0  0  0
   26.3870  -33.1950    9.5830 N   0  0  0  0  0
   27.4300  -33.9800    9.0030 C   0  0  0  0  0
   24.6100  -37.5010    9.1640 N   0  0  0  0  0
   24.3640  -35.3750    8.4180 O   0  0  0  0  0
   25.1290  -36.3320    8.6740 C   0  0  0  0  0
   27.1120  -34.9940    7.9340 C   0  0  0  0  0
   23.1350  -38.9560   11.4480 O   0  0  0  0  0
   22.7640  -36.6850   11.5810 N   0  0  0  0  0
   23.6460  -35.8020   13.7480 C   0  0  0  0  0
   25.0980  -36.1750   13.5110 C   0  0  0  0  0
   25.6930  -37.2690   14.2360 C   0  0  0  0  0
   27.0650  -37.6130   14.0050 C   0  0  0  0  0
   27.8410  -36.8720   13.0560 C   0  0  0  0  0
   27.2430  -35.7830   12.3370 C   0  0  0  0  0
   25.8710  -35.4250   12.5550 C   0  0  0  0  0
   21.0980  -36.3510   13.2820 C   0  0  0  0  0
   20.9210  -35.0100   12.7830 O   0  0  0  0  0
   20.6710  -36.3850   14.7740 C   0  0  0  0  0
   19.5040  -35.5870   15.0050 O   0  0  0  0  0
   20.3730  -37.8750   15.1570 C   0  0  0  0  0
   18.9910  -38.3550   14.6570 C   0  0  0  0  0
   18.6500  -39.8040   14.9960 C   0  0  0  0  0
   17.1010  -40.0490   15.0460 C   0  0  0  0  0
   16.6900  -41.5640   15.1860 C   0  0  0  0  0
   17.9080  -42.4910   15.4950 C   0  0  0  0  0
   19.0530  -42.3090   14.4320 C   0  0  0  0  0
   19.3060  -40.8150   13.9970 C   0  0  0  0  0
   20.4550  -38.0170   16.6170 N   0  0  0  0  0
   21.3360  -38.8630   17.1880 C   0  0  0  0  0
   22.1470  -39.5930   16.5880 O   0  0  0  0  0
   21.2690  -38.8820   18.7300 C   0  0  0  0  0
   22.6500  -39.0380   19.4580 C   0  0  0  0  0
   22.4840  -39.0520   20.9710 C   0  0  0  0  0
   23.5900  -37.8730   19.1300 C   0  0  0  0  0
   20.3440  -39.9970   19.0340 N   0  0  0  0  0
   19.1000  -39.8260   19.5670 C   0  0  0  0  0
   18.6820  -38.6790   19.8270 O   0  0  0  0  0
   18.3180  -40.9430   19.8090 N   0  0  0  0  0
   18.7780  -42.3160   19.5140 C   0  0  0  0  0
   16.9550  -40.8290   20.3920 C   0  0  0  0  0
   15.9120  -40.5020   19.3470 C   0  0  0  0  0
   15.0520  -41.5320   18.8600 C   0  0  0  0  0
   15.7860  -39.1700   18.8490 N   0  0  0  0  0
   14.8150  -38.8220   17.8660 C   0  0  0  0  0
   13.9470  -39.8340   17.3660 C   0  0  0  0  0
   14.0720  -41.1770   17.8670 C   0  0  0  0  0
   25.8316  -31.6398   11.0218 H   0  0  0  0  0
   22.7974  -37.7268   13.4483 H   0  0  0  0  0
   28.2104  -31.3011   11.8181 H   0  0  0  0  0
   30.0591  -32.6743   10.8047 H   0  0  0  0  0
   22.2219  -37.6838    6.7380 H   0  0  0  0  0
   23.7800  -38.5445    6.7888 H   0  0  0  0  0
   22.2750  -39.4451    6.4809 H   0  0  0  0  0
   29.5874  -34.3859    9.0130 H   0  0  0  0  0
   27.3327  -37.6080    9.8208 H   0  0  0  0  0
   27.1271  -38.2141    8.1591 H   0  0  0  0  0
   28.4277  -37.0556    8.5297 H   0  0  0  0  0
   22.5713  -36.8189    9.0653 H   0  0  0  0  0
   23.0865  -39.7297    8.8565 H   0  0  0  0  0
   20.8487  -39.2292    9.8510 H   0  0  0  0  0
   20.5045  -38.0790    8.5358 H   0  0  0  0  0
   20.6355  -39.8198    8.1846 H   0  0  0  0  0
   25.2414  -38.2747    9.3717 H   0  0  0  0  0
   26.4011  -34.5368    7.2457 H   0  0  0  0  0
   28.0503  -35.2763    7.4566 H   0  0  0  0  0
   22.6882  -35.7985   11.0823 H   0  0  0  0  0
   23.4666  -35.8888   14.8196 H   0  0  0  0  0
   23.5053  -34.7998   13.3431 H   0  0  0  0  0
   25.1017  -37.8329   14.9575 H   0  0  0  0  0
   27.5185  -38.4395   14.5521 H   0  0  0  0  0
   28.8841  -37.1347   12.8801 H   0  0  0  0  0
   27.8383  -35.2215   11.6170 H   0  0  0  0  0
   25.4207  -34.5983   12.0056 H   0  0  0  0  0
   20.4753  -37.0884   12.7754 H   0  0  0  0  0
   21.1821  -34.9762   11.8598 H   0  0  0  0  0
   21.4747  -35.9754   15.3858 H   0  0  0  0  0
   19.2674  -35.6296   15.9344 H   0  0  0  0  0
   21.1187  -38.5008   14.6667 H   0  0  0  0  0
   19.0068  -38.2815   13.5696 H   0  0  0  0  0
   18.2443  -37.7324   15.1499 H   0  0  0  0  0
   19.0633  -39.9804   15.9890 H   0  0  0  0  0
   16.6883  -39.6899   14.1032 H   0  0  0  0  0
   16.7219  -39.5305   15.9267 H   0  0  0  0  0
   16.2579  -41.8832   14.2376 H   0  0  0  0  0
   15.9877  -41.6456   16.0156 H   0  0  0  0  0
   17.5704  -43.5270   15.4657 H   0  0  0  0  0
   18.3024  -42.2282   16.4766 H   0  0  0  0  0
   18.7501  -42.8554   13.5388 H   0  0  0  0  0
   19.9744  -42.6695   14.8893 H   0  0  0  0  0
   20.3814  -40.6377   13.9846 H   0  0  0  0  0
   18.8623  -40.6633   13.0130 H   0  0  0  0  0
   19.8342  -37.4656   17.2094 H   0  0  0  0  0
   20.9265  -37.9187   19.1078 H   0  0  0  0  0
   23.0672  -39.9820   19.1073 H   0  0  0  0  0
   22.0267  -38.1167   21.2937 H   0  0  0  0  0
   21.8457  -39.8878   21.2575 H   0  0  0  0  0
   23.4611  -39.1615   21.4414 H   0  0  0  0  0
   23.7667  -37.8420   18.0549 H   0  0  0  0  0
   23.1327  -36.9373   19.4515 H   0  0  0  0  0
   24.5369  -38.0140   19.6512 H   0  0  0  0  0
   20.6546  -40.9476   18.8334 H   0  0  0  0  0
   18.9958  -42.4040   18.4496 H   0  0  0  0  0
   19.6794  -42.5273   20.0893 H   0  0  0  0  0
   17.9969  -43.0259   19.7862 H   0  0  0  0  0
   16.9659  -40.0218   21.1243 H   0  0  0  0  0
   16.6967  -41.7884   20.8403 H   0  0  0  0  0
   15.1347  -42.5546   19.2282 H   0  0  0  0  0
   14.7379  -37.7973   17.5025 H   0  0  0  0  0
   13.1967  -39.5941   16.6126 H   0  0  0  0  0
   13.4047  -41.9487   17.4832 H   0  0  0  0  0
  1  3  4  0  0  0
 13  1  4  0  0  0
 20  2  1  0  0  0
  2 21  1  0  0  0
  2 28  1  0  0  0
  4  3  4  0  0  0
  6  4  4  0  0  0
  9  5  1  0  0  0
 14  6  4  0  0  0
 12  7  1  0  0  0
  8  9  1  0  0  0
  8 11  1  0  0  0
 15  8  1  0  0  0
  9 10  1  0  0  0
 11 19  2  0  0  0
 11 20  1  0  0  0
 17 12  1  0  0  0
 12 18  1  0  0  0
 14 13  4  0  0  0
 18 14  1  0  0  0
 15 17  1  0  0  0
 17 16  2  0  0  0
 21 22  1  0  0  0
 22 23  4  0  0  0
 22 27  4  0  0  0
 23 24  4  0  0  0
 24 25  4  0  0  0
 25 26  4  0  0  0
 26 27  4  0  0  0
 28 29  1  0  0  0
 28 30  1  0  0  0
 30 31  1  0  0  0
 30 32  1  0  0  0
 32 33  1  0  0  0
 32 40  1  0  0  0
 33 34  1  0  0  0
 34 35  1  0  0  0
 34 39  1  0  0  0
 35 36  1  0  0  0
 36 37  1  0  0  0
 37 38  1  0  0  0
 38 39  1  0  0  0
 40 41  1  0  0  0
 41 42  2  0  0  0
 41 43  1  0  0  0
 43 44  1  0  0  0
 43 47  1  0  0  0
 44 45  1  0  0  0
 44 46  1  0  0  0
 47 48  1  0  0  0
 48 49  2  0  0  0
 48 50  1  0  0  0
 50 51  1  0  0  0
 50 52  1  0  0  0
 52 53  1  0  0  0
 53 54  4  0  0  0
 53 55  4  0  0  0
 54 58  4  0  0  0
 55 56  4  0  0  0
 56 57  4  0  0  0
 57 58  4  0  0  0
  1 59  1  0  0  0
  2 60  1  0  0  0
  3 61  1  0  0  0
  4 62  1  0  0  0
  5 63  1  0  0  0
  5 64  1  0  0  0
  5 65  1  0  0  0
  6 66  1  0  0  0
  7 67  1  0  0  0
  7 68  1  0  0  0
  7 69  1  0  0  0
  8 70  1  0  0  0
  9 71  1  0  0  0
 10 72  1  0  0  0
 10 73  1  0  0  0
 10 74  1  0  0  0
 15 75  1  0  0  0
 18 76  1  0  0  0
 18 77  1  0  0  0
 20 78  1  0  0  0
 21 79  1  0  0  0
 21 80  1  0  0  0
 23 81  1  0  0  0
 24 82  1  0  0  0
 25 83  1  0  0  0
 26 84  1  0  0  0
 27 85  1  0  0  0
 28 86  1  0  0  0
 29 87  1  0  0  0
 30 88  1  0  0  0
 31 89  1  0  0  0
 32 90  1  0  0  0
 33 91  1  0  0  0
 33 92  1  0  0  0
 34 93  1  0  0  0
 35 94  1  0  0  0
 35 95  1  0  0  0
 36 96  1  0  0  0
 36 97  1  0  0  0
 37 98  1  0  0  0
 37 99  1  0  0  0
 38100  1  0  0  0
 38101  1  0  0  0
 39102  1  0  0  0
 39103  1  0  0  0
 40104  1  0  0  0
 43105  1  0  0  0
 44106  1  0  0  0
 45107  1  0  0  0
 45108  1  0  0  0
 45109  1  0  0  0
 46110  1  0  0  0
 46111  1  0  0  0
 46112  1  0  0  0
 47113  1  0  0  0
 51114  1  0  0  0
 51115  1  0  0  0
 51116  1  0  0  0
 52117  1  0  0  0
 52118  1  0  0  0
 54119  1  0  0  0
 56120  1  0  0  0
 57121  1  0  0  0
 58122  1  0  0  0
M  END
$$$$
