2qd6_ligand
  -I-interpret- 

 76 80  0  0  0  0  0  0  0  0999 V2000
   20.7040   27.8150   14.8190 C   0  0  0  0  0
   21.5710   28.8840   14.8050 O   0  0  0  0  0
   22.7630   28.3600   15.2250 C   0  0  0  0  0
   22.6470   27.0410   15.6020 O   0  0  0  0  0
   21.3410   26.7170   15.3790 C   0  0  0  0  0
   20.6470   25.5580   15.6510 C   0  0  0  0  0
   19.2910   25.5100   15.3500 C   0  0  0  0  0
   18.6640   26.5800   14.7410 C   0  0  0  0  0
   19.3640   27.7480   14.4680 C   0  0  0  0  0
   18.3430   24.1200   15.8120 S   0  0  0  0  0
   17.2290   23.9410   14.8760 O   0  0  0  0  0
   19.2850   22.9470   15.8840 O   0  0  0  0  0
   17.7370   24.3310   17.3220 N   0  0  0  0  0
   18.6720   24.6690   18.3860 C   0  0  0  0  0
   18.3590   24.0140   19.7370 C   0  0  0  0  0
   18.3610   22.4870   19.6520 C   0  0  0  0  0
   19.4110   24.4580   20.7680 C   0  0  0  0  0
   16.4790   25.0530   17.3940 C   0  0  0  0  0
   15.3580   24.1980   17.9770 C   0  0  0  0  0
   14.1930   24.9630   18.2960 O   0  0  0  0  0
   14.9060   23.0750   17.0330 C   0  0  0  0  0
   14.0350   22.1560   17.7600 N   0  0  0  0  0
   14.3470   20.9060   18.1100 C   0  0  0  0  0
   15.3850   20.3300   17.7660 O   0  0  0  0  0
   13.3650   20.3480   18.8650 O   0  0  0  0  0
   13.4940   18.9400   19.1000 C   0  0  0  0  0
   12.8650   18.6970   20.4760 C   0  0  0  0  0
   11.4570   18.6830   20.2470 O   0  0  0  0  0
   11.2130   18.1780   18.9500 C   0  0  0  0  0
   10.3050   19.0360   18.2460 O   0  0  0  0  0
   11.0060   19.6830   17.1850 C   0  0  0  0  0
   12.1800   18.7660   16.8490 C   0  0  0  0  0
   12.5370   18.1600   18.2020 C   0  0  0  0  0
   14.1450   23.5660   15.7960 C   0  0  0  0  0
   12.4210   21.9600   14.7350 C   0  0  0  0  0
   12.0880   20.8690   13.9240 C   0  0  0  0  0
   13.0880   20.1660   13.2600 C   0  0  0  0  0
   14.3970   20.5960   13.4140 C   0  0  0  0  0
   14.7190   21.7070   14.1880 C   0  0  0  0  0
   13.7420   22.3960   14.8850 C   0  0  0  0  0
   23.0989   28.9318   16.0901 H   0  0  0  0  0
   23.4686   28.4151   14.3960 H   0  0  0  0  0
   21.1504   24.6979   16.0925 H   0  0  0  0  0
   17.6102   26.5068   14.4723 H   0  0  0  0  0
   18.8710   28.5936   13.9883 H   0  0  0  0  0
   18.6134   25.7475   18.5324 H   0  0  0  0  0
   19.6530   24.3090   18.0758 H   0  0  0  0  0
   17.3601   24.3316   20.0361 H   0  0  0  0  0
   17.6066   22.1633   18.9349 H   0  0  0  0  0
   19.3434   22.1437   19.3277 H   0  0  0  0  0
   18.1344   22.0695   20.6330 H   0  0  0  0  0
   20.4007   24.1498   20.4311 H   0  0  0  0  0
   19.3822   25.5428   20.8705 H   0  0  0  0  0
   19.1928   23.9949   21.7303 H   0  0  0  0  0
   16.1947   25.3418   16.3821 H   0  0  0  0  0
   16.6200   25.9170   18.0434 H   0  0  0  0  0
   15.7952   23.7731   18.8806 H   0  0  0  0  0
   13.5195   24.3824   18.6579 H   0  0  0  0  0
   15.8186   22.5923   16.6833 H   0  0  0  0  0
   13.1105   22.4977   18.0225 H   0  0  0  0  0
   14.5362   18.6508   18.9652 H   0  0  0  0  0
   13.1484   19.4705   21.1897 H   0  0  0  0  0
   13.2099   17.7613   20.9160 H   0  0  0  0  0
   10.7795   17.1803   19.0186 H   0  0  0  0  0
   11.3473   20.6753   17.4799 H   0  0  0  0  0
   10.3623   19.8395   16.3194 H   0  0  0  0  0
   13.0138   19.2970   16.3898 H   0  0  0  0  0
   11.9289   18.0137   16.1013 H   0  0  0  0  0
   13.0309   17.2090   18.0027 H   0  0  0  0  0
   14.7951   24.2355   15.2327 H   0  0  0  0  0
   13.2397   24.0756   16.1261 H   0  0  0  0  0
   11.6273   22.4858   15.2657 H   0  0  0  0  0
   11.0456   20.5703   13.8127 H   0  0  0  0  0
   12.8497   19.3034   12.6377 H   0  0  0  0  0
   15.1965   20.0485   12.9148 H   0  0  0  0  0
   15.7555   22.0392   14.2460 H   0  0  0  0  0
  1  2  1  0  0  0
  5  1  4  0  0  0
  9  1  4  0  0  0
  2  3  1  0  0  0
  4  3  1  0  0  0
  5  4  1  0  0  0
  6  5  4  0  0  0
  7  6  4  0  0  0
  7  8  4  0  0  0
 10  7  1  0  0  0
  8  9  4  0  0  0
 10 11  2  0  0  0
 10 12  2  0  0  0
 13 10  1  0  0  0
 13 14  1  0  0  0
 18 13  1  0  0  0
 14 15  1  0  0  0
 15 16  1  0  0  0
 15 17  1  0  0  0
 19 18  1  0  0  0
 19 20  1  0  0  0
 21 19  1  0  0  0
 21 22  1  0  0  0
 34 21  1  0  0  0
 22 23  1  0  0  0
 23 24  2  0  0  0
 23 25  1  0  0  0
 25 26  1  0  0  0
 26 27  1  0  0  0
 26 33  1  0  0  0
 27 28  1  0  0  0
 29 28  1  0  0  0
 29 30  1  0  0  0
 33 29  1  0  0  0
 31 30  1  0  0  0
 32 31  1  0  0  0
 33 32  1  0  0  0
 40 34  1  0  0  0
 35 36  4  0  0  0
 35 40  4  0  0  0
 36 37  4  0  0  0
 37 38  4  0  0  0
 38 39  4  0  0  0
 39 40  4  0  0  0
  3 41  1  0  0  0
  3 42  1  0  0  0
  6 43  1  0  0  0
  8 44  1  0  0  0
  9 45  1  0  0  0
 14 46  1  0  0  0
 14 47  1  0  0  0
 15 48  1  0  0  0
 16 49  1  0  0  0
 16 50  1  0  0  0
 16 51  1  0  0  0
 17 52  1  0  0  0
 17 53  1  0  0  0
 17 54  1  0  0  0
 18 55  1  0  0  0
 18 56  1  0  0  0
 19 57  1  0  0  0
 20 58  1  0  0  0
 21 59  1  0  0  0
 22 60  1  0  0  0
 26 61  1  0  0  0
 27 62  1  0  0  0
 27 63  1  0  0  0
 29 64  1  0  0  0
 31 65  1  0  0  0
 31 66  1  0  0  0
 32 67  1  0  0  0
 32 68  1  0  0  0
 33 69  1  0  0  0
 34 70  1  0  0  0
 34 71  1  0  0  0
 35 72  1  0  0  0
 36 73  1  0  0  0
 37 74  1  0  0  0
 38 75  1  0  0  0
 39 76  1  0  0  0
M  END
$$$$
