2y5f_ligand
  -I-interpret- 

 68 73  0  0  0  0  0  0  0  0999 V2000
   -0.5040    5.7010   27.9950 Cl  0  0  0  0  0
   -1.2770    7.2730   27.5840 C   0  0  0  0  0
   -2.3770    7.8220   28.1910 C   0  0  0  0  0
   -2.6990    9.0320   27.5800 C   0  0  0  0  0
   -0.5440    8.1750   26.3360 S   0  0  0  0  0
   -1.7920    9.3340   26.5820 C   0  0  0  0  0
   -1.8180   10.4320   25.7310 C   0  0  0  0  0
   -2.9060   11.1400   25.3110 C   0  0  0  0  0
   -0.7090   10.8190   25.0880 O   0  0  0  0  0
   -1.0440   11.8910   24.2560 N   0  0  0  0  0
   -2.3470   12.0750   24.3730 C   0  0  0  0  0
   -3.1590   13.1180   23.6470 C   0  0  0  0  0
   -4.5040   13.4520   24.1660 N   0  3  0  0  0
   -5.1350   14.2220   23.0740 C   0  0  0  0  0
   -4.7350   15.6770   23.3140 C   0  0  0  0  0
   -4.4180   15.7660   24.8030 C   0  0  0  0  0
   -4.4420   14.3340   25.3410 C   0  0  0  0  0
   -4.6220   13.6230   21.7710 C   0  0  0  0  0
   -3.4340   12.7590   22.1770 C   0  0  0  0  0
   -3.9270   11.3500   21.9650 C   0  0  0  0  0
   -3.2810   10.3010   22.1250 O   0  0  0  0  0
   -5.5970   12.6270   21.2260 C   0  0  0  0  0
   -6.5930   12.8870   20.5530 O   0  0  0  0  0
   -5.2690   11.3580   21.6520 N   0  0  0  0  0
   -5.9380   10.1520   21.1060 C   0  0  0  0  0
   -5.5230    9.6770   19.7290 C   0  0  0  0  0
   -6.4250    8.4940   19.3970 C   0  0  0  0  0
   -6.2420    7.9000   18.0570 N   0  3  0  0  0
   -6.3460    8.8810   16.9370 C   0  0  0  0  0
   -7.5910    9.7700   16.9810 C   0  0  0  0  0
   -8.7440    8.9660   16.7620 O   0  0  0  0  0
   -7.2340    6.8110   17.8900 C   0  0  0  0  0
   -6.5820    5.5360   18.4020 C   0  0  0  0  0
   -5.1140    5.7350   18.1010 C   0  0  0  0  0
   -4.9220    7.2350   18.0090 C   0  0  0  0  0
   -2.9185    7.3783   29.0265 H   0  0  0  0  0
   -3.5505    9.6557   27.8521 H   0  0  0  0  0
   -3.9468   11.0246   25.6134 H   0  0  0  0  0
   -2.4922   13.9671   23.7971 H   0  0  0  0  0
   -5.0002   12.6044   24.4412 H   0  0  0  0  0
   -6.2234   14.1818   23.0309 H   0  0  0  0  0
   -5.5324   16.3644   23.0315 H   0  0  0  0  0
   -3.8789   15.9639   22.7034 H   0  0  0  0  0
   -5.1482   16.3885   25.3201 H   0  0  0  0  0
   -3.4441   16.2273   24.9669 H   0  0  0  0  0
   -3.5560   14.1259   25.9408 H   0  0  0  0  0
   -5.2992   14.1756   25.9955 H   0  0  0  0  0
   -4.4240   14.4185   21.0527 H   0  0  0  0  0
   -2.5030   12.8936   21.6263 H   0  0  0  0  0
   -6.9911   10.4187   21.0167 H   0  0  0  0  0
   -5.6752    9.3409   21.7851 H   0  0  0  0  0
   -4.4726    9.3864   19.7138 H   0  0  0  0  0
   -5.6298   10.4717   18.9907 H   0  0  0  0  0
   -7.4479    8.8690   19.4297 H   0  0  0  0  0
   -6.1821    7.7113   20.1157 H   0  0  0  0  0
   -6.3997    8.3045   16.0135 H   0  0  0  0  0
   -5.4816    9.5408   17.0112 H   0  0  0  0  0
   -7.5239   10.5341   16.2066 H   0  0  0  0  0
   -7.6614   10.2551   17.9546 H   0  0  0  0  0
   -9.5282    9.5191   16.7886 H   0  0  0  0  0
   -7.5195    6.7056   16.8434 H   0  0  0  0  0
   -8.1451    7.0296   18.4469 H   0  0  0  0  0
   -6.9859    4.6431   17.9249 H   0  0  0  0  0
   -6.7693    5.3716   19.4631 H   0  0  0  0  0
   -4.8239    5.2368   17.1759 H   0  0  0  0  0
   -4.4837    5.2975   18.8752 H   0  0  0  0  0
   -4.3105    7.5767   18.8441 H   0  0  0  0  0
   -4.4224    7.4823   17.0723 H   0  0  0  0  0
  1  2  1  0  0  0
  2  3  4  0  0  0
  2  5  4  0  0  0
  3  4  4  0  0  0
  4  6  4  0  0  0
  5  6  4  0  0  0
  6  7  1  0  0  0
  7  8  4  0  0  0
  7  9  4  0  0  0
  8 11  4  0  0  0
  9 10  4  0  0  0
 10 11  4  0  0  0
 11 12  1  0  0  0
 12 13  1  0  0  0
 12 19  1  0  0  0
 13 14  1  0  0  0
 13 17  1  0  0  0
 14 15  1  0  0  0
 14 18  1  0  0  0
 15 16  1  0  0  0
 16 17  1  0  0  0
 18 19  1  0  0  0
 18 22  1  0  0  0
 19 20  1  0  0  0
 20 21  2  0  0  0
 20 24  1  0  0  0
 22 23  2  0  0  0
 22 24  1  0  0  0
 24 25  1  0  0  0
 25 26  1  0  0  0
 26 27  1  0  0  0
 27 28  1  0  0  0
 28 29  1  0  0  0
 28 32  1  0  0  0
 28 35  1  0  0  0
 29 30  1  0  0  0
 30 31  1  0  0  0
 32 33  1  0  0  0
 33 34  1  0  0  0
 34 35  1  0  0  0
  3 36  1  0  0  0
  4 37  1  0  0  0
  8 38  1  0  0  0
 12 39  1  0  0  0
 13 40  1  0  0  0
 14 41  1  0  0  0
 15 42  1  0  0  0
 15 43  1  0  0  0
 16 44  1  0  0  0
 16 45  1  0  0  0
 17 46  1  0  0  0
 17 47  1  0  0  0
 18 48  1  0  0  0
 19 49  1  0  0  0
 25 50  1  0  0  0
 25 51  1  0  0  0
 26 52  1  0  0  0
 26 53  1  0  0  0
 27 54  1  0  0  0
 27 55  1  0  0  0
 29 56  1  0  0  0
 29 57  1  0  0  0
 30 58  1  0  0  0
 30 59  1  0  0  0
 31 60  1  0  0  0
 32 61  1  0  0  0
 32 62  1  0  0  0
 33 63  1  0  0  0
 33 64  1  0  0  0
 34 65  1  0  0  0
 34 66  1  0  0  0
 35 67  1  0  0  0
 35 68  1  0  0  0
M  END
$$$$
