3zyh_ligand
  -I-interpret- 

 30 30  0  0  0  0  0  0  0  0999 V2000
    8.5580  -18.5960  -37.2060 C   0  0  0  0  0
    7.1480  -18.3790  -36.6890 C   0  0  0  0  0
    6.2600  -18.0540  -37.7430 O   0  0  0  0  0
    7.1350  -17.3300  -35.6740 C   0  0  0  0  0
    5.9050  -16.7260  -35.2680 O   0  0  0  0  0
    8.2240  -17.1740  -34.7790 C   0  0  0  0  0
    7.8640  -17.9760  -33.6440 O   0  0  0  0  0
    9.5690  -17.5610  -35.3510 C   0  0  0  0  0
    9.4960  -18.7680  -36.1890 O   0  0  0  0  0
   10.5740  -17.7560  -34.3180 C   0  0  0  0  0
   11.8690  -17.9300  -34.7750 O   0  0  0  0  0
    8.5580  -20.0040  -38.2580 S   0  0  0  0  0
    9.8530  -19.6770  -39.4160 C   0  0  0  0  0
    9.7330  -18.4470  -40.2590 C   0  0  0  0  0
    8.8528  -17.6976  -37.7482 H   0  0  0  0  0
    6.8085  -19.3113  -36.2377 H   0  0  0  0  0
    6.2788  -18.7516  -38.4023 H   0  0  0  0  0
    7.4397  -16.6540  -36.4729 H   0  0  0  0  0
    5.2349  -16.8868  -35.9364 H   0  0  0  0  0
    8.3707  -16.1229  -34.5303 H   0  0  0  0  0
    7.0066  -17.6964  -33.3150 H   0  0  0  0  0
    9.8679  -16.7196  -35.9761 H   0  0  0  0  0
   10.3046  -18.6709  -33.7903 H   0  0  0  0  0
   10.5769  -16.8502  -33.7116 H   0  0  0  0  0
   12.4578  -18.0504  -34.0264 H   0  0  0  0  0
    9.8393  -20.5135  -40.1147 H   0  0  0  0  0
   10.7526  -19.5351  -38.8171 H   0  0  0  0  0
    8.8215  -18.5034  -40.8541 H   0  0  0  0  0
    9.6939  -17.5688  -39.6146 H   0  0  0  0  0
   10.5964  -18.3757  -40.9204 H   0  0  0  0  0
  1  2  1  0  0  0
  1  9  1  0  0  0
  1 12  1  0  0  0
  2  3  1  0  0  0
  2  4  1  0  0  0
  4  5  1  0  0  0
  4  6  1  0  0  0
  6  7  1  0  0  0
  6  8  1  0  0  0
  8  9  1  0  0  0
  8 10  1  0  0  0
 10 11  1  0  0  0
 12 13  1  0  0  0
 13 14  1  0  0  0
  1 15  1  0  0  0
  2 16  1  0  0  0
  3 17  1  0  0  0
  4 18  1  0  0  0
  5 19  1  0  0  0
  6 20  1  0  0  0
  7 21  1  0  0  0
  8 22  1  0  0  0
 10 23  1  0  0  0
 10 24  1  0  0  0
 11 25  1  0  0  0
 13 26  1  0  0  0
 13 27  1  0  0  0
 14 28  1  0  0  0
 14 29  1  0  0  0
 14 30  1  0  0  0
M  END
$$$$
