### 
### Created by X-TOOL on Mon Sep 10 21:13:16 2018
### 

@<TRIPOS>MOLECULE
4ln2_ligand
  158   162     1     0     0
SMALL
GAST_HUCK


@<TRIPOS>ATOM
      1 N          21.9660   -9.6690  -15.1010 N.4       1 LEU         0.2379
      2 CA         20.7700  -10.1230  -15.8440 C.3       1 LEU         0.0652
      3 C          19.5240   -9.7960  -15.0480 C.2       1 LEU         0.2267
      4 O          19.3980  -10.1960  -13.8970 O.2       1 LEU        -0.3907
      5 CB         20.8390  -11.6180  -16.1010 C.3       1 LEU         0.0102
      6 CG         19.6440  -12.1820  -16.8710 C.3       1 LEU        -0.0394
      7 CD1        19.4750  -11.5540  -18.2460 C.3       1 LEU        -0.0623
      8 CD2        19.7960  -13.6840  -16.9820 C.3       1 LEU        -0.0623
      9 N          18.6060   -9.0770  -15.6730 N.am      1 ALA        -0.2613
     10 CA         17.3820   -8.6540  -15.0150 C.3       1 ALA         0.1285
     11 C          16.3570   -8.3220  -16.0810 C.2       1 ALA         0.2061
     12 O          16.7080   -8.1740  -17.2540 O.2       1 ALA        -0.3942
     13 CB         17.6460   -7.4440  -14.1280 C.3       1 ALA        -0.0244
     14 N          15.0780   -8.2020  -15.6990 N.am      1 PRO        -0.2498
     15 CA         14.0740   -7.8020  -16.6760 C.3       1 PRO         0.1340
     16 C          14.4060   -6.4340  -17.2820 C.2       1 PRO         0.2066
     17 O          15.1250   -5.6400  -16.6810 O.2       1 PRO        -0.3942
     18 CB         12.7800   -7.7550  -15.8530 C.3       1 PRO        -0.0104
     19 CG         13.0310   -8.6900  -14.7140 C.3       1 PRO        -0.0281
     20 CD         14.4790   -8.4710  -14.3840 C.3       1 PRO         0.0369
     21 N          13.8800   -6.1360  -18.4690 N.am      1 PRO        -0.2498
     22 CA         14.1390   -4.8110  -19.0160 C.3       1 PRO         0.1338
     23 C          13.5760   -3.7230  -18.1140 C.2       1 PRO         0.2041
     24 O          12.5390   -3.9080  -17.4720 O.2       1 PRO        -0.3944
     25 CB         13.4010   -4.8310  -20.3550 C.3       1 PRO        -0.0104
     26 CG         13.3010   -6.2760  -20.7110 C.3       1 PRO        -0.0281
     27 CD         13.0960   -6.9630  -19.3950 C.3       1 PRO         0.0369
     28 N          14.2610   -2.5910  -18.0680 N.am      1 LYS        -0.2637
     29 CA         13.8000   -1.4740  -17.2660 C.3       1 LYS         0.1312
     30 C          12.5820   -0.8430  -17.9440 C.2       1 LYS         0.2064
     31 O          12.6600   -0.4700  -19.1190 O.2       1 LYS        -0.3942
     32 CB         14.9070   -0.4480  -17.1470 C.3       1 LYS        -0.0122
     33 CG         14.6250    0.6940  -16.1990 C.3       1 LYS        -0.0440
     34 CD         15.7100    1.7420  -16.3550 C.3       1 LYS        -0.0124
     35 CE         15.6310    2.7940  -15.2760 C.3       1 LYS        -0.0354
     36 NZ         16.7280    3.7850  -15.4480 N.4       1 LYS         0.2185
     37 N          11.4630   -0.6930  -17.2280 N.am      1 PRO        -0.2498
     38 CA         10.3210   -0.0110  -17.8380 C.3       1 PRO         0.1340
     39 C          10.6100    1.4720  -18.0280 C.2       1 PRO         0.2066
     40 O          11.5180    2.0180  -17.3940 O.2       1 PRO        -0.3942
     41 CB          9.1930   -0.2410  -16.8290 C.3       1 PRO        -0.0104
     42 CG          9.8910   -0.4680  -15.5360 C.3       1 PRO        -0.0281
     43 CD         11.1840   -1.1400  -15.8570 C.3       1 PRO         0.0369
     44 N           9.8360    2.1390  -18.8910 N.am      1 PRO        -0.2498
     45 CA          9.9430    3.5870  -18.9660 C.3       1 PRO         0.1338
     46 C           9.5730    4.2010  -17.6190 C.2       1 PRO         0.2041
     47 O           8.6960    3.6850  -16.9220 O.2       1 PRO        -0.3944
     48 CB          8.9310    3.9640  -20.0500 C.3       1 PRO        -0.0104
     49 CG          7.9370    2.8610  -20.0440 C.3       1 PRO        -0.0281
     50 CD          8.6990    1.6190  -19.6650 C.3       1 PRO         0.0369
     51 N          10.2430    5.2880  -17.2570 N.am      1 LEU        -0.2637
     52 CA          9.9680    5.9680  -15.9960 C.3       1 LEU         0.1314
     53 C           8.5560    6.5350  -15.9710 C.2       1 LEU         0.2064
     54 O           7.9720    6.7940  -17.0160 O.2       1 LEU        -0.3942
     55 CB         10.9600    7.1050  -15.7540 C.3       1 LEU        -0.0101
     56 CG         12.3720    6.7130  -15.3460 C.3       1 LEU        -0.0425
     57 CD1        13.3270    7.8560  -15.6500 C.3       1 LEU        -0.0625
     58 CD2        12.4170    6.3360  -13.8800 C.3       1 LEU        -0.0625
     59 N           8.0190    6.7740  -14.7660 N.am      1 PRO        -0.2498
     60 CA          6.7410    7.4680  -14.6530 C.3       1 PRO         0.1337
     61 C           6.8260    8.9040  -15.1870 C.2       1 PRO         0.2035
     62 O           7.9020    9.4190  -15.4680 O.2       1 PRO        -0.3944
     63 CB          6.4650    7.4840  -13.1410 C.3       1 PRO        -0.0104
     64 CG          7.3630    6.4460  -12.5600 C.3       1 PRO        -0.0281
     65 CD          8.5760    6.4330  -13.4460 C.3       1 PRO         0.0369
     66 N           5.6760    9.5540  -15.2810 N.am      1 GLU        -0.2694
     67 CA          5.6350   10.9640  -15.6450 C.3       1 GLU         0.0959
     68 C           6.0730   11.9030  -14.5300 C.2       1 GLU         0.0602
     69 O           6.1030   11.5130  -13.3550 O.co2     1 GLU        -0.5666
     70 CB          4.2400   11.3370  -16.1520 C.3       1 GLU        -0.0064
     71 CG          3.8590   10.5800  -17.4030 C.3       1 GLU         0.0038
     72 CD          4.9530   10.6700  -18.4410 C.2       1 GLU         0.0350
     73 OE1         5.1640   11.7700  -18.9910 O.co2     1 GLU        -0.5690
     74 OE2         5.6330    9.6520  -18.6870 O.co2     1 GLU        -0.5690
     75 OXT         6.3890   13.0590  -14.8600 O.co2     1 GLU        -0.5666
     76 H          22.7944   -9.8874  -15.6321 H         1 LEU         0.2015
     77 H          22.0055  -10.1373  -14.2093 H         1 LEU         0.2015
     78 H          21.9131   -8.6730  -14.9554 H         1 LEU         0.2015
     79 H          20.7284   -9.5972  -16.8093 H         1 LEU         0.1098
     80 H          20.8963  -12.1318  -15.1301 H         1 LEU         0.0348
     81 H          21.7507  -11.8259  -16.6802 H         1 LEU         0.0348
     82 H          18.7340  -11.9664  -16.2919 H         1 LEU         0.0299
     83 H          18.6031  -11.9991  -18.7477 H         1 LEU         0.0232
     84 H          20.3776  -11.7387  -18.8469 H         1 LEU         0.0232
     85 H          19.3219  -10.4701  -18.1378 H         1 LEU         0.0232
     86 H          19.9166  -14.1155  -15.9774 H         1 LEU         0.0232
     87 H          20.6816  -13.9190  -17.5907 H         1 LEU         0.0232
     88 H          18.9003  -14.1090  -17.4585 H         1 LEU         0.0232
     89 H          18.7592   -8.8171  -16.6264 H         1 ALA         0.1884
     90 H          17.0023   -9.4760  -14.3904 H         1 ALA         0.0797
     91 H          16.7101   -7.1373  -13.6381 H         1 ALA         0.0277
     92 H          18.0269   -6.6150  -14.7425 H         1 ALA         0.0277
     93 H          18.3916   -7.7059  -13.3628 H         1 ALA         0.0277
     94 H          13.9956   -8.5455  -17.4829 H         1 PRO         0.0802
     95 H          11.9236   -8.0946  -16.4541 H         1 PRO         0.0313
     96 H          12.5890   -6.7360  -15.4854 H         1 PRO         0.0313
     97 H          12.8511   -9.7324  -15.0156 H         1 PRO         0.0287
     98 H          12.3912   -8.4413  -13.8545 H         1 PRO         0.0287
     99 H          14.6054   -7.6123  -13.7083 H         1 PRO         0.0524
    100 H          14.9201   -9.3676  -13.9240 H         1 PRO         0.0524
    101 H          15.2173   -4.6485  -19.1601 H         1 PRO         0.0802
    102 H          13.9698   -4.2817  -21.1196 H         1 PRO         0.0313
    103 H          12.4000   -4.3866  -20.2528 H         1 PRO         0.0313
    104 H          14.2262   -6.6243  -21.1934 H         1 PRO         0.0287
    105 H          12.4479   -6.4548  -21.3819 H         1 PRO         0.0287
    106 H          12.0324   -6.9719  -19.1145 H         1 PRO         0.0524
    107 H          13.4764   -7.9947  -19.4235 H         1 PRO         0.0524
    108 H          15.1076   -2.5050  -18.5933 H         1 LYS         0.1883
    109 H          13.5204   -1.8297  -16.2634 H         1 LYS         0.0800
    110 H          15.0876   -0.0245  -18.1460 H         1 LYS         0.0312
    111 H          15.8136   -0.9641  -16.7981 H         1 LYS         0.0312
    112 H          14.6178    0.3215  -15.1640 H         1 LYS         0.0269
    113 H          13.6467    1.1375  -16.4360 H         1 LYS         0.0269
    114 H          15.5975    2.2281  -17.3353 H         1 LYS         0.0317
    115 H          16.6919    1.2491  -16.3007 H         1 LYS         0.0317
    116 H          15.7259    2.3132  -14.2912 H         1 LYS         0.0813
    117 H          14.6614    3.3095  -15.3405 H         1 LYS         0.0813
    118 H          16.6669    4.4830  -14.7233 H         1 LYS         0.1994
    119 H          16.6423    4.2281  -16.3493 H         1 LYS         0.1994
    120 H          17.6178    3.3152  -15.3878 H         1 LYS         0.1994
    121 H          10.0707   -0.4591  -18.8109 H         1 PRO         0.0802
    122 H           8.5952   -1.1213  -17.1079 H         1 PRO         0.0313
    123 H           8.5395    0.6418  -16.7683 H         1 PRO         0.0313
    124 H           9.2815   -1.1112  -14.8843 H         1 PRO         0.0287
    125 H          10.0778    0.4921  -15.0327 H         1 PRO         0.0287
    126 H          11.9781   -0.8173  -15.1676 H         1 PRO         0.0524
    127 H          11.0816   -2.2343  -15.8120 H         1 PRO         0.0524
    128 H          10.9588    3.8991  -19.2502 H         1 PRO         0.0802
    129 H           9.4233    4.0361  -21.0310 H         1 PRO         0.0313
    130 H           8.4470    4.9225  -19.8113 H         1 PRO         0.0313
    131 H           7.4886    2.7449  -21.0417 H         1 PRO         0.0287
    132 H           7.1455    3.0636  -19.3075 H         1 PRO         0.0287
    133 H           8.0789    0.9488  -19.0515 H         1 PRO         0.0524
    134 H           9.0452    1.0813  -20.5600 H         1 PRO         0.0524
    135 H          10.9524    5.6490  -17.8623 H         1 LEU         0.1883
    136 H          10.0672    5.2350  -15.1819 H         1 LEU         0.0800
    137 H          10.5483    7.7407  -14.9563 H         1 LEU         0.0315
    138 H          11.0327    7.6861  -16.6852 H         1 LEU         0.0315
    139 H          12.6776    5.8370  -15.9370 H         1 LEU         0.0298
    140 H          14.3471    7.5700  -15.3541 H         1 LEU         0.0232
    141 H          13.0194    8.7502  -15.0881 H         1 LEU         0.0232
    142 H          13.3057    8.0749  -16.7278 H         1 LEU         0.0232
    143 H          11.7170    5.5085  -13.6926 H         1 LEU         0.0232
    144 H          12.1300    7.2045  -13.2690 H         1 LEU         0.0232
    145 H          13.4367    6.0211  -13.6135 H         1 LEU         0.0232
    146 H           5.9531    6.9221  -15.1926 H         1 PRO         0.0802
    147 H           5.4121    7.2372  -12.9400 H         1 PRO         0.0313
    148 H           6.6970    8.4728  -12.7185 H         1 PRO         0.0313
    149 H           6.8703    5.4625  -12.5663 H         1 PRO         0.0287
    150 H           7.6413    6.7101  -11.5291 H         1 PRO         0.0287
    151 H           9.3123    7.1828  -13.1208 H         1 PRO         0.0524
    152 H           9.0464    5.4388  -13.4592 H         1 PRO         0.0524
    153 H           4.8209    9.0685  -15.0990 H         1 GLU         0.1875
    154 H           6.3411   11.1031  -16.4769 H         1 GLU         0.0727
    155 H           4.2207   12.4146  -16.3719 H         1 GLU         0.0323
    156 H           3.5059   11.1102  -15.3648 H         1 GLU         0.0323
    157 H           2.9342   11.0091  -17.8162 H         1 GLU         0.0432
    158 H           3.6908    9.5234  -17.1476 H         1 GLU         0.0432
@<TRIPOS>BOND
     1    1    2 1  
     2    2    3 1  
     3    2    5 1  
     4    3    4 2  
     5    3    9 am 
     6    5    6 1  
     7    6    7 1  
     8    6    8 1  
     9    9   10 1  
    10   10   11 1  
    11   10   13 1  
    12   11   12 2  
    13   11   14 am 
    14   14   15 1  
    15   14   20 1  
    16   15   16 1  
    17   15   18 1  
    18   16   17 2  
    19   16   21 am 
    20   18   19 1  
    21   19   20 1  
    22   21   22 1  
    23   21   27 1  
    24   22   23 1  
    25   22   25 1  
    26   23   24 2  
    27   23   28 am 
    28   25   26 1  
    29   26   27 1  
    30   28   29 1  
    31   29   30 1  
    32   29   32 1  
    33   30   31 2  
    34   30   37 am 
    35   32   33 1  
    36   33   34 1  
    37   34   35 1  
    38   35   36 1  
    39   37   38 1  
    40   37   43 1  
    41   38   39 1  
    42   38   41 1  
    43   39   40 2  
    44   39   44 am 
    45   41   42 1  
    46   42   43 1  
    47   44   45 1  
    48   44   50 1  
    49   45   46 1  
    50   45   48 1  
    51   46   47 2  
    52   46   51 am 
    53   48   49 1  
    54   49   50 1  
    55   51   52 1  
    56   52   53 1  
    57   52   55 1  
    58   53   54 2  
    59   53   59 am 
    60   55   56 1  
    61   56   57 1  
    62   56   58 1  
    63   59   60 1  
    64   59   65 1  
    65   60   61 1  
    66   60   63 1  
    67   61   62 2  
    68   61   66 am 
    69   63   64 1  
    70   64   65 1  
    71   66   67 1  
    72   67   68 1  
    73   67   70 1  
    74   68   69 ar 
    75   68   75 ar 
    76   70   71 1  
    77   71   72 1  
    78   72   73 ar 
    79   72   74 ar 
    80    1   76 1  
    81    1   77 1  
    82    1   78 1  
    83    2   79 1  
    84    5   80 1  
    85    5   81 1  
    86    6   82 1  
    87    7   83 1  
    88    7   84 1  
    89    7   85 1  
    90    8   86 1  
    91    8   87 1  
    92    8   88 1  
    93    9   89 1  
    94   10   90 1  
    95   13   91 1  
    96   13   92 1  
    97   13   93 1  
    98   15   94 1  
    99   18   95 1  
   100   18   96 1  
   101   19   97 1  
   102   19   98 1  
   103   20   99 1  
   104   20  100 1  
   105   22  101 1  
   106   25  102 1  
   107   25  103 1  
   108   26  104 1  
   109   26  105 1  
   110   27  106 1  
   111   27  107 1  
   112   28  108 1  
   113   29  109 1  
   114   32  110 1  
   115   32  111 1  
   116   33  112 1  
   117   33  113 1  
   118   34  114 1  
   119   34  115 1  
   120   35  116 1  
   121   35  117 1  
   122   36  118 1  
   123   36  119 1  
   124   36  120 1  
   125   38  121 1  
   126   41  122 1  
   127   41  123 1  
   128   42  124 1  
   129   42  125 1  
   130   43  126 1  
   131   43  127 1  
   132   45  128 1  
   133   48  129 1  
   134   48  130 1  
   135   49  131 1  
   136   49  132 1  
   137   50  133 1  
   138   50  134 1  
   139   51  135 1  
   140   52  136 1  
   141   55  137 1  
   142   55  138 1  
   143   56  139 1  
   144   57  140 1  
   145   57  141 1  
   146   57  142 1  
   147   58  143 1  
   148   58  144 1  
   149   58  145 1  
   150   60  146 1  
   151   63  147 1  
   152   63  148 1  
   153   64  149 1  
   154   64  150 1  
   155   65  151 1  
   156   65  152 1  
   157   66  153 1  
   158   67  154 1  
   159   70  155 1  
   160   70  156 1  
   161   71  157 1  
   162   71  158 1  
@<TRIPOS>SUBSTRUCTURE
     1 LEU         1

