4ln2_ligand
  -I-interpret- 

160164  0  0  0  0  0  0  0  0999 V2000
   21.9660   -9.6690  -15.1010 N   0  3  0  0  0
   20.7700  -10.1230  -15.8440 C   0  0  0  0  0
   19.5240   -9.7960  -15.0480 C   0  0  0  0  0
   19.3980  -10.1960  -13.8970 O   0  0  0  0  0
   20.8390  -11.6180  -16.1010 C   0  0  0  0  0
   19.6440  -12.1820  -16.8710 C   0  0  0  0  0
   19.4750  -11.5540  -18.2460 C   0  0  0  0  0
   19.7960  -13.6840  -16.9820 C   0  0  0  0  0
   18.6060   -9.0770  -15.6730 N   0  0  0  0  0
   17.3820   -8.6540  -15.0150 C   0  0  0  0  0
   16.3570   -8.3220  -16.0810 C   0  0  0  0  0
   16.7080   -8.1740  -17.2540 O   0  0  0  0  0
   17.6460   -7.4440  -14.1280 C   0  0  0  0  0
   15.0780   -8.2020  -15.6990 N   0  0  0  0  0
   14.0740   -7.8020  -16.6760 C   0  0  0  0  0
   14.4060   -6.4340  -17.2820 C   0  0  0  0  0
   15.1250   -5.6400  -16.6810 O   0  0  0  0  0
   12.7800   -7.7550  -15.8530 C   0  0  0  0  0
   13.0310   -8.6900  -14.7140 C   0  0  0  0  0
   14.4790   -8.4710  -14.3840 C   0  0  0  0  0
   13.8800   -6.1360  -18.4690 N   0  0  0  0  0
   14.1390   -4.8110  -19.0160 C   0  0  0  0  0
   13.5760   -3.7230  -18.1140 C   0  0  0  0  0
   12.5390   -3.9080  -17.4720 O   0  0  0  0  0
   13.4010   -4.8310  -20.3550 C   0  0  0  0  0
   13.3010   -6.2760  -20.7110 C   0  0  0  0  0
   13.0960   -6.9630  -19.3950 C   0  0  0  0  0
   14.2610   -2.5910  -18.0680 N   0  0  0  0  0
   13.8000   -1.4740  -17.2660 C   0  0  0  0  0
   12.5820   -0.8430  -17.9440 C   0  0  0  0  0
   12.6600   -0.4700  -19.1190 O   0  0  0  0  0
   14.9070   -0.4480  -17.1470 C   0  0  0  0  0
   14.6250    0.6940  -16.1990 C   0  0  0  0  0
   15.7100    1.7420  -16.3550 C   0  0  0  0  0
   15.6310    2.7940  -15.2760 C   0  0  0  0  0
   16.7280    3.7850  -15.4480 N   0  3  0  0  0
   11.4630   -0.6930  -17.2280 N   0  0  0  0  0
   10.3210   -0.0110  -17.8380 C   0  0  0  0  0
   10.6100    1.4720  -18.0280 C   0  0  0  0  0
   11.5180    2.0180  -17.3940 O   0  0  0  0  0
    9.1930   -0.2410  -16.8290 C   0  0  0  0  0
    9.8910   -0.4680  -15.5360 C   0  0  0  0  0
   11.1840   -1.1400  -15.8570 C   0  0  0  0  0
    9.8360    2.1390  -18.8910 N   0  0  0  0  0
    9.9430    3.5870  -18.9660 C   0  0  0  0  0
    9.5730    4.2010  -17.6190 C   0  0  0  0  0
    8.6960    3.6850  -16.9220 O   0  0  0  0  0
    8.9310    3.9640  -20.0500 C   0  0  0  0  0
    7.9370    2.8610  -20.0440 C   0  0  0  0  0
    8.6990    1.6190  -19.6650 C   0  0  0  0  0
   10.2430    5.2880  -17.2570 N   0  0  0  0  0
    9.9680    5.9680  -15.9960 C   0  0  0  0  0
    8.5560    6.5350  -15.9710 C   0  0  0  0  0
    7.9720    6.7940  -17.0160 O   0  0  0  0  0
   10.9600    7.1050  -15.7540 C   0  0  0  0  0
   12.3720    6.7130  -15.3460 C   0  0  0  0  0
   13.3270    7.8560  -15.6500 C   0  0  0  0  0
   12.4170    6.3360  -13.8800 C   0  0  0  0  0
    8.0190    6.7740  -14.7660 N   0  0  0  0  0
    6.7410    7.4680  -14.6530 C   0  0  0  0  0
    6.8260    8.9040  -15.1870 C   0  0  0  0  0
    7.9020    9.4190  -15.4680 O   0  0  0  0  0
    6.4650    7.4840  -13.1410 C   0  0  0  0  0
    7.3630    6.4460  -12.5600 C   0  0  0  0  0
    8.5760    6.4330  -13.4460 C   0  0  0  0  0
    5.6760    9.5540  -15.2810 N   0  0  0  0  0
    5.6350   10.9640  -15.6450 C   0  0  0  0  0
    6.0730   11.9030  -14.5300 C   0  0  0  0  0
    6.1030   11.5130  -13.3550 O   0  0  0  0  0
    4.2400   11.3370  -16.1520 C   0  0  0  0  0
    3.8590   10.5800  -17.4030 C   0  0  0  0  0
    4.9530   10.6700  -18.4410 C   0  0  0  0  0
    5.1640   11.7700  -18.9910 O   0  0  0  0  0
    5.6330    9.6520  -18.6870 O   0  0  0  0  0
    6.3890   13.0590  -14.8600 O   0  0  0  0  0
   21.9022   -8.6642  -14.9378 H   0  0  0  0  0
   22.0151  -10.1575  -14.2069 H   0  0  0  0  0
   22.8024   -9.8734  -15.6478 H   0  0  0  0  0
   20.7353   -9.6071  -16.8035 H   0  0  0  0  0
   20.8538  -12.1096  -15.1283 H   0  0  0  0  0
   21.7254  -11.7976  -16.7094 H   0  0  0  0  0
   18.7396  -11.9349  -16.3150 H   0  0  0  0  0
   20.3513  -11.7753  -18.8553 H   0  0  0  0  0
   18.5854  -11.9637  -18.7243 H   0  0  0  0  0
   19.3677  -10.4745  -18.1403 H   0  0  0  0  0
   18.9079  -14.1039  -17.4543 H   0  0  0  0  0
   20.6738  -13.9155  -17.5853 H   0  0  0  0  0
   19.9154  -14.1104  -15.9860 H   0  0  0  0  0
   18.7623   -8.8119  -16.6455 H   0  0  0  0  0
   17.0054   -9.4547  -14.3785 H   0  0  0  0  0
   18.3849   -7.7048  -13.3703 H   0  0  0  0  0
   18.0234   -6.6233  -14.7381 H   0  0  0  0  0
   16.7179   -7.1411  -13.6432 H   0  0  0  0  0
   14.0087   -8.4813  -17.5259 H   0  0  0  0  0
   11.9099   -8.0486  -16.4402 H   0  0  0  0  0
   12.5478   -6.7462  -15.5116 H   0  0  0  0  0
   12.8164   -9.7268  -14.9729 H   0  0  0  0  0
   12.3772   -8.4940  -13.8641 H   0  0  0  0  0
   14.6333   -7.6583  -13.6742 H   0  0  0  0  0
   14.9319   -9.3242  -13.8790 H   0  0  0  0  0
   15.2034   -4.5967  -19.1118 H   0  0  0  0  0
   13.9288   -4.2597  -21.1187 H   0  0  0  0  0
   12.4202   -4.3606  -20.2857 H   0  0  0  0  0
   14.1900   -6.6353  -21.2295 H   0  0  0  0  0
   12.4881   -6.4730  -21.4099 H   0  0  0  0  0
   12.0454   -7.0345  -19.1135 H   0  0  0  0  0
   13.4155   -8.0051  -19.4067 H   0  0  0  0  0
   15.1245   -2.5033  -18.6038 H   0  0  0  0  0
   13.5253   -1.8212  -16.2700 H   0  0  0  0  0
   15.0354   -0.0094  -18.1366 H   0  0  0  0  0
   15.7791   -0.9719  -16.7557 H   0  0  0  0  0
   14.6128    0.3264  -15.1729 H   0  0  0  0  0
   13.6539    1.1323  -16.4290 H   0  0  0  0  0
   15.5787    2.2305  -17.3205 H   0  0  0  0  0
   16.6782    1.2469  -16.2810 H   0  0  0  0  0
   15.7301    2.3157  -14.3016 H   0  0  0  0  0
   14.6714    3.3064  -15.3451 H   0  0  0  0  0
   16.6652    4.4907  -14.7142 H   0  0  0  0  0
   17.6278    3.3084  -15.3869 H   0  0  0  0  0
   16.6402    4.2326  -16.3603 H   0  0  0  0  0
   10.0771   -0.3848  -18.8324 H   0  0  0  0  0
    8.5623   -1.0855  -17.1067 H   0  0  0  0  0
    8.5088    0.6062  -16.7808 H   0  0  0  0  0
    9.2867   -1.0866  -14.8725 H   0  0  0  0  0
   10.0625    0.4751  -15.0171 H   0  0  0  0  0
   11.9790   -0.8775  -15.1591 H   0  0  0  0  0
   11.1264   -2.2252  -15.7720 H   0  0  0  0  0
   10.9466    3.9435  -19.1980 H   0  0  0  0  0
    9.4050    4.0767  -21.0250 H   0  0  0  0  0
    8.4658    4.9295  -19.8516 H   0  0  0  0  0
    7.4626    2.7513  -21.0192 H   0  0  0  0  0
    7.1301    3.0601  -19.3388 H   0  0  0  0  0
    8.0932    0.9136  -19.0962 H   0  0  0  0  0
    9.0136    1.0398  -20.5331 H   0  0  0  0  0
   10.9666    5.6563  -17.8745 H   0  0  0  0  0
   10.0713    5.2235  -15.2066 H   0  0  0  0  0
   10.5573    7.6792  -14.9196 H   0  0  0  0  0
   11.0584    7.6227  -16.7082 H   0  0  0  0  0
   12.6823    5.8398  -15.9198 H   0  0  0  0  0
   13.3049    8.0719  -16.7182 H   0  0  0  0  0
   13.0211    8.7414  -15.0927 H   0  0  0  0  0
   14.3374    7.5714  -15.3564 H   0  0  0  0  0
   12.0976    7.1863  -13.2775 H   0  0  0  0  0
   11.7501    5.4923  -13.7025 H   0  0  0  0  0
   13.4356    6.0589  -13.6085 H   0  0  0  0  0
    5.9589    6.9787  -15.2336 H   0  0  0  0  0
    5.4179    7.2722  -12.9243 H   0  0  0  0  0
    6.6596    8.4662  -12.7103 H   0  0  0  0  0
    6.8796    5.4697  -12.5262 H   0  0  0  0  0
    7.6230    6.6727  -11.5260 H   0  0  0  0  0
    9.3483    7.1290  -13.1185 H   0  0  0  0  0
    9.0962    5.4751  -13.4394 H   0  0  0  0  0
    4.8038    9.0588  -15.0953 H   0  0  0  0  0
    6.3653   11.0955  -16.4434 H   0  0  0  0  0
    4.2412   12.4009  -16.3893 H   0  0  0  0  0
    3.5201   11.0849  -15.3734 H   0  0  0  0  0
    2.9488   11.0169  -17.8139 H   0  0  0  0  0
    3.7050    9.5321  -17.1456 H   0  0  0  0  0
    5.3086    8.9171  -18.1613 H   0  0  0  0  0
    6.2969   13.1557  -15.8107 H   0  0  0  0  0
  1  2  1  0  0  0
  2  3  1  0  0  0
  2  5  1  0  0  0
  3  4  2  0  0  0
  3  9  1  0  0  0
  5  6  1  0  0  0
  6  7  1  0  0  0
  6  8  1  0  0  0
  9 10  1  0  0  0
 10 11  1  0  0  0
 10 13  1  0  0  0
 11 12  2  0  0  0
 11 14  1  0  0  0
 14 15  1  0  0  0
 14 20  1  0  0  0
 15 16  1  0  0  0
 15 18  1  0  0  0
 16 17  2  0  0  0
 16 21  1  0  0  0
 18 19  1  0  0  0
 19 20  1  0  0  0
 21 22  1  0  0  0
 21 27  1  0  0  0
 22 23  1  0  0  0
 22 25  1  0  0  0
 23 24  2  0  0  0
 23 28  1  0  0  0
 25 26  1  0  0  0
 26 27  1  0  0  0
 28 29  1  0  0  0
 29 30  1  0  0  0
 29 32  1  0  0  0
 30 31  2  0  0  0
 30 37  1  0  0  0
 32 33  1  0  0  0
 33 34  1  0  0  0
 34 35  1  0  0  0
 35 36  1  0  0  0
 37 38  1  0  0  0
 37 43  1  0  0  0
 38 39  1  0  0  0
 38 41  1  0  0  0
 39 40  2  0  0  0
 39 44  1  0  0  0
 41 42  1  0  0  0
 42 43  1  0  0  0
 44 45  1  0  0  0
 44 50  1  0  0  0
 45 46  1  0  0  0
 45 48  1  0  0  0
 46 47  2  0  0  0
 46 51  1  0  0  0
 48 49  1  0  0  0
 49 50  1  0  0  0
 51 52  1  0  0  0
 52 53  1  0  0  0
 52 55  1  0  0  0
 53 54  2  0  0  0
 53 59  1  0  0  0
 55 56  1  0  0  0
 56 57  1  0  0  0
 56 58  1  0  0  0
 59 60  1  0  0  0
 59 65  1  0  0  0
 60 61  1  0  0  0
 60 63  1  0  0  0
 61 62  2  0  0  0
 61 66  1  0  0  0
 63 64  1  0  0  0
 64 65  1  0  0  0
 66 67  1  0  0  0
 67 68  1  0  0  0
 67 70  1  0  0  0
 68 69  2  0  0  0
 68 75  1  0  0  0
 70 71  1  0  0  0
 71 72  1  0  0  0
 72 73  2  0  0  0
 72 74  1  0  0  0
  1 76  1  0  0  0
  1 77  1  0  0  0
  1 78  1  0  0  0
  2 79  1  0  0  0
  5 80  1  0  0  0
  5 81  1  0  0  0
  6 82  1  0  0  0
  7 83  1  0  0  0
  7 84  1  0  0  0
  7 85  1  0  0  0
  8 86  1  0  0  0
  8 87  1  0  0  0
  8 88  1  0  0  0
  9 89  1  0  0  0
 10 90  1  0  0  0
 13 91  1  0  0  0
 13 92  1  0  0  0
 13 93  1  0  0  0
 15 94  1  0  0  0
 18 95  1  0  0  0
 18 96  1  0  0  0
 19 97  1  0  0  0
 19 98  1  0  0  0
 20 99  1  0  0  0
 20100  1  0  0  0
 22101  1  0  0  0
 25102  1  0  0  0
 25103  1  0  0  0
 26104  1  0  0  0
 26105  1  0  0  0
 27106  1  0  0  0
 27107  1  0  0  0
 28108  1  0  0  0
 29109  1  0  0  0
 32110  1  0  0  0
 32111  1  0  0  0
 33112  1  0  0  0
 33113  1  0  0  0
 34114  1  0  0  0
 34115  1  0  0  0
 35116  1  0  0  0
 35117  1  0  0  0
 36118  1  0  0  0
 36119  1  0  0  0
 36120  1  0  0  0
 38121  1  0  0  0
 41122  1  0  0  0
 41123  1  0  0  0
 42124  1  0  0  0
 42125  1  0  0  0
 43126  1  0  0  0
 43127  1  0  0  0
 45128  1  0  0  0
 48129  1  0  0  0
 48130  1  0  0  0
 49131  1  0  0  0
 49132  1  0  0  0
 50133  1  0  0  0
 50134  1  0  0  0
 51135  1  0  0  0
 52136  1  0  0  0
 55137  1  0  0  0
 55138  1  0  0  0
 56139  1  0  0  0
 57140  1  0  0  0
 57141  1  0  0  0
 57142  1  0  0  0
 58143  1  0  0  0
 58144  1  0  0  0
 58145  1  0  0  0
 60146  1  0  0  0
 63147  1  0  0  0
 63148  1  0  0  0
 64149  1  0  0  0
 64150  1  0  0  0
 65151  1  0  0  0
 65152  1  0  0  0
 66153  1  0  0  0
 67154  1  0  0  0
 70155  1  0  0  0
 70156  1  0  0  0
 71157  1  0  0  0
 71158  1  0  0  0
 74159  1  0  0  0
 75160  1  0  0  0
M  END
$$$$
