4eb8_ligand
  -I-interpret- 

 36 38  0  0  0  0  0  0  0  0999 V2000
   21.3350  -28.0980  -19.7440 N   0  0  0  0  0
   20.0980  -27.4370  -19.6710 C   0  0  0  0  0
   19.5280  -27.0360  -20.8070 N   0  0  0  0  0
   19.5300  -27.2040  -18.4670 N   0  0  0  0  0
   20.1420  -27.6050  -17.3260 C   0  0  0  0  0
   21.3350  -28.2470  -17.3700 C   0  0  0  0  0
   21.9330  -28.5150  -18.5530 C   0  0  0  0  0
   22.9960  -29.1400  -18.6290 O   0  0  0  0  0
   21.6950  -28.5270  -16.1050 N   0  0  0  0  0
   20.7560  -28.0550  -15.2760 C   0  0  0  0  0
   19.8040  -27.5090  -16.0300 C   0  0  0  0  0
   17.3040  -27.5940  -15.3400 N   0  3  0  0  0
   18.5470  -26.8030  -15.4550 C   0  0  0  0  0
   16.7520  -27.9580  -16.6580 C   0  0  0  0  0
   15.6740  -28.9730  -16.2950 C   0  0  0  0  0
   14.4690  -28.3100  -15.8870 O   0  0  0  0  0
   16.2450  -29.7210  -15.1080 C   0  0  0  0  0
   16.6840  -31.0830  -15.5950 C   0  0  0  0  0
   17.5320  -31.6610  -14.6030 O   0  0  0  0  0
   17.4800  -28.8810  -14.6350 C   0  0  0  0  0
   19.9901  -27.2116  -21.6992 H   0  0  0  0  0
   18.6325  -26.7220  -18.4165 H   0  0  0  0  0
   20.7684  -28.1077  -14.1873 H   0  0  0  0  0
   16.6834  -26.9770  -14.8160 H   0  0  0  0  0
   18.3174  -26.0011  -16.1567 H   0  0  0  0  0
   18.8106  -26.5257  -14.4344 H   0  0  0  0  0
   17.5026  -28.3575  -17.3399 H   0  0  0  0  0
   16.3641  -27.1018  -17.2099 H   0  0  0  0  0
   15.4259  -29.6174  -17.1384 H   0  0  0  0  0
   13.8044  -28.9656  -15.6632 H   0  0  0  0  0
   15.5334  -29.8517  -14.2928 H   0  0  0  0  0
   17.2224  -30.9875  -16.5379 H   0  0  0  0  0
   15.8146  -31.7192  -15.7608 H   0  0  0  0  0
   17.8208  -32.5283  -14.8964 H   0  0  0  0  0
   17.5193  -28.7649  -13.5519 H   0  0  0  0  0
   18.4298  -29.3619  -14.8691 H   0  0  0  0  0
  1  2  4  0  0  0
  1  7  1  0  0  0
  2  3  2  0  0  0
  2  4  1  0  0  0
  4  5  1  0  0  0
  5  6  4  0  0  0
  5 11  4  0  0  0
  6  7  1  0  0  0
  6  9  4  0  0  0
  7  8  2  0  0  0
  9 10  4  0  0  0
 10 11  4  0  0  0
 11 13  1  0  0  0
 13 12  1  0  0  0
 12 14  1  0  0  0
 12 20  1  0  0  0
 14 15  1  0  0  0
 15 16  1  0  0  0
 15 17  1  0  0  0
 17 18  1  0  0  0
 17 20  1  0  0  0
 18 19  1  0  0  0
  3 21  1  0  0  0
  4 22  1  0  0  0
 10 23  1  0  0  0
 12 24  1  0  0  0
 13 25  1  0  0  0
 13 26  1  0  0  0
 14 27  1  0  0  0
 14 28  1  0  0  0
 15 29  1  0  0  0
 16 30  1  0  0  0
 17 31  1  0  0  0
 18 32  1  0  0  0
 18 33  1  0  0  0
 19 34  1  0  0  0
 20 35  1  0  0  0
 20 36  1  0  0  0
M  END
$$$$
