3fvn_ligand
  -I-interpret- 

 37 38  0  0  0  0  0  0  0  0999 V2000
   -7.0560   17.7670   19.4970 O   0  0  0  0  0
   -7.7730   16.7380   19.4510 C   0  0  0  0  0
   -8.8810   16.6960   18.8790 O   0  0  0  0  0
   -7.2700   15.4580   20.1610 C   0  0  0  0  0
   -5.8130   15.1900   19.8510 C   0  0  0  0  0
   -5.4930   15.1160   18.3530 C   0  0  0  0  0
   -5.8840   13.7970   17.7580 N   0  3  0  0  0
   -4.0270   15.3480   18.1550 C   0  0  0  0  0
   -3.5180   16.3880   18.6220 O   0  0  0  0  0
   -3.3600   14.4930   17.4890 O   0  0  0  0  0
   -8.0700   14.3160   19.7840 O   0  0  0  0  0
   -8.7900   13.8130   20.8890 C   0  0  0  0  0
  -10.2510   13.5930   20.4770 C   0  0  0  0  0
  -10.7390   14.5670   19.5530 O   0  0  0  0  0
  -11.1930   13.7490   21.6840 C   0  0  0  0  0
  -11.0600   15.1750   22.3040 C   0  0  0  0  0
   -9.8210   15.7880   21.8970 O   0  0  0  0  0
   -8.6820   14.8890   21.9620 C   0  0  0  0  0
   -7.4360   15.6590   21.6690 C   0  0  0  0  0
   -6.2519   17.5738   19.9845 H   0  0  0  0  0
   -5.5656   14.2195   20.2813 H   0  0  0  0  0
   -5.2385   16.0200   20.2622 H   0  0  0  0  0
   -6.0726   15.8859   17.8438 H   0  0  0  0  0
   -6.8832   13.6457   17.8965 H   0  0  0  0  0
   -5.6745   13.8002   16.7597 H   0  0  0  0  0
   -5.3594   13.0507   18.2143 H   0  0  0  0  0
   -3.9379   13.7735   17.2246 H   0  0  0  0  0
   -8.4045   12.8592   21.2492 H   0  0  0  0  0
  -10.2497   12.5946   20.0395 H   0  0  0  0  0
  -11.6540   14.3721   19.3378 H   0  0  0  0  0
  -10.9254   13.0094   22.4387 H   0  0  0  0  0
  -12.2206   13.6031   21.3511 H   0  0  0  0  0
  -11.0739   15.0916   23.3907 H   0  0  0  0  0
  -11.8904   15.7906   21.9582 H   0  0  0  0  0
   -8.6600   14.4394   22.9547 H   0  0  0  0  0
   -7.5051   16.7085   21.9551 H   0  0  0  0  0
   -6.5759   15.3145   22.2432 H   0  0  0  0  0
  1  2  1  0  0  0
  2  3  2  0  0  0
  2  4  1  0  0  0
  4  5  1  0  0  0
  4 11  1  0  0  0
  4 19  1  0  0  0
  5  6  1  0  0  0
  6  7  1  0  0  0
  6  8  1  0  0  0
  8  9  2  0  0  0
  8 10  1  0  0  0
 11 12  1  0  0  0
 12 13  1  0  0  0
 12 18  1  0  0  0
 13 14  1  0  0  0
 13 15  1  0  0  0
 15 16  1  0  0  0
 16 17  1  0  0  0
 17 18  1  0  0  0
 18 19  1  0  0  0
  1 20  1  0  0  0
  5 21  1  0  0  0
  5 22  1  0  0  0
  6 23  1  0  0  0
  7 24  1  0  0  0
  7 25  1  0  0  0
  7 26  1  0  0  0
 10 27  1  0  0  0
 12 28  1  0  0  0
 13 29  1  0  0  0
 14 30  1  0  0  0
 15 31  1  0  0  0
 15 32  1  0  0  0
 16 33  1  0  0  0
 16 34  1  0  0  0
 18 35  1  0  0  0
 19 36  1  0  0  0
 19 37  1  0  0  0
M  END
$$$$
