3e9b_ligand

Created by X-TOOL on Fri Nov 18 15:18:29 2016
 30 28  0  0  0  0  0  0  0  0999 V2000
   44.6620  -21.3000    6.8660  O 0  0  0  1  0  1
   44.7610  -20.0780    3.3850  N 0  3  0  4  0  4
   44.4370  -19.9960    4.8330  C 0  0  0  2  0  4
   44.9070  -21.3080    5.5550  C 0  5  0  1  0  3
   45.4760  -22.3020    4.9990  O 0  0  0  1  0  1
   42.9230  -19.7160    4.8050  C 0  0  0  3  0  4
   42.0060  -20.4190    6.1730  S 0  0  0  1  0  2
   40.3840  -19.8300    5.6600  C 0  0  0  3  0  4
   39.4900  -21.0280    5.3680  C 0  0  0  4  0  5
   38.0410  -20.7100    4.9010  B 0  0  0  1  0  3
   37.9900  -20.1840    3.5580  O 0  0  0  3  0  3
   37.2580  -21.9110    4.9200  O 0  0  0  3  0  3
   37.3570  -19.7500    5.7760  O 0  0  0  3  0  2
   44.4579  -19.2341    2.9246  H 0  0  0  1  0  1
   44.2883  -20.8704    2.9792  H 0  0  0  1  0  1
   45.7566  -20.1850    3.2690  H 0  0  0  1  0  1
   44.9555  -19.1476    5.3035  H 0  0  0  1  0  1
   42.5153  -20.1297    3.8708  H 0  0  0  1  0  1
   42.7759  -18.6260    4.8183  H 0  0  0  1  0  1
   40.4847  -19.2156    4.7532  H 0  0  0  1  0  1
   39.9396  -19.2260    6.4648  H 0  0  0  1  0  1
   39.4258  -21.1811    4.2806  H 0  0  0  1  0  1
   38.4840  -20.8419    5.7722  H 0  0  0  1  0  1
   39.9146  -21.9261    5.8403  H 0  0  0  1  0  1
   38.3474  -20.8247    2.9544  H 0  0  0  1  0  1
   38.3473  -20.8247    2.9544  H 0  0  0  1  0  1
   37.6224  -22.5351    4.3034  H 0  0  0  1  0  1
   37.6224  -22.5350    4.3034  H 0  0  0  1  0  1
   38.2976  -19.8829    5.7643  H 0  0  0  1  0  1
   37.0467  -19.7614    6.6738  H 0  0  0  1  0  1
  4  1  2  0  0  2
  3  2  1  0  0  2
  3  4  1  0  0  2
  3  6  1  0  0  2
  4  5  2  0  0  2
  6  7  1  0  0  2
  7  8  1  0  0  2
  8  9  1  0  0  2
  9 10  1  0  0  2
 10 11  1  0  0  2
 10 12  1  0  0  2
  2 14  1  0  0  2
  2 15  1  0  0  2
  2 16  1  0  0  2
  3 17  1  0  0  2
  6 18  1  0  0  2
  6 19  1  0  0  2
  8 20  1  0  0  2
  8 21  1  0  0  2
  9 22  1  0  0  2
  9 23  1  0  0  2
  9 24  1  0  0  2
 11 25  1  0  0  2
 11 26  1  0  0  2
 12 27  1  0  0  2
 12 28  1  0  0  2
 13 29  1  0  0  2
 13 30  1  0  0  2
M  END
> <MOLECULAR_FORMULA>
C5H17NO5SB

> <MOLECULAR_WEIGHT>
213.9

> <NUM_HB_ATOMS>
7  

> <NUM_ROTOR>
5  

> <XLOGP2>
-2.30

$$$$
