1pot_ligand
  -I-interpret- 

 32 31  0  0  0  0  0  0  0  0999 V2000
   66.7990   40.4000    4.7550 N   0  3  0  0  0
   65.9220   39.7940    5.8220 C   0  0  0  0  0
   66.4670   40.2840    7.1960 C   0  0  0  0  0
   65.8930   41.6730    7.3910 C   0  0  0  0  0
   65.9020   42.1410    8.8050 C   0  0  0  0  0
   65.0520   43.2980    8.8800 N   0  3  0  0  0
   64.8010   44.0790   10.0130 C   0  0  0  0  0
   65.9350   45.0240   10.2850 C   0  0  0  0  0
   65.7540   45.7360   11.5500 C   0  0  0  0  0
   66.5480   47.0270   11.5690 N   0  3  0  0  0
   66.4714   40.1004    3.8367 H   0  0  0  0  0
   66.7552   41.4171    4.8177 H   0  0  0  0  0
   67.7614   40.0909    4.8916 H   0  0  0  0  0
   65.9438   38.7057    5.7655 H   0  0  0  0  0
   64.8849   40.1014    5.6878 H   0  0  0  0  0
   67.5568   40.2979    7.2101 H   0  0  0  0  0
   66.1715   39.6141    8.0034 H   0  0  0  0  0
   64.8523   41.6403    7.0685 H   0  0  0  0  0
   66.5143   42.3622    6.8190 H   0  0  0  0  0
   66.9157   42.3906    9.1185 H   0  0  0  0  0
   65.5394   41.3567    9.4694 H   0  0  0  0  0
   64.1338   42.8898    8.7047 H   0  0  0  0  0
   65.5501   43.9576    8.2823 H   0  0  0  0  0
   64.6861   43.4179   10.8720 H   0  0  0  0  0
   63.8968   44.6624    9.8393 H   0  0  0  0  0
   65.9713   45.7579    9.4799 H   0  0  0  0  0
   66.8571   44.4459   10.3451 H   0  0  0  0  0
   66.1051   45.0990   12.3618 H   0  0  0  0  0
   64.6970   45.9752   11.6671 H   0  0  0  0  0
   66.4030   47.5008   12.4606 H   0  0  0  0  0
   67.5392   46.8169   11.4515 H   0  0  0  0  0
   66.2342   47.6290   10.8077 H   0  0  0  0  0
  1  2  1  0  0  0
  2  3  1  0  0  0
  3  4  1  0  0  0
  4  5  1  0  0  0
  5  6  1  0  0  0
  6  7  1  0  0  0
  7  8  1  0  0  0
  8  9  1  0  0  0
  9 10  1  0  0  0
  1 11  1  0  0  0
  1 12  1  0  0  0
  1 13  1  0  0  0
  2 14  1  0  0  0
  2 15  1  0  0  0
  3 16  1  0  0  0
  3 17  1  0  0  0
  4 18  1  0  0  0
  4 19  1  0  0  0
  5 20  1  0  0  0
  5 21  1  0  0  0
  6 22  1  0  0  0
  6 23  1  0  0  0
  7 24  1  0  0  0
  7 25  1  0  0  0
  8 26  1  0  0  0
  8 27  1  0  0  0
  9 28  1  0  0  0
  9 29  1  0  0  0
 10 30  1  0  0  0
 10 31  1  0  0  0
 10 32  1  0  0  0
M  END
$$$$
