5wbp_ligand
  -I-interpret- 

 20 21  0  0  0  0  0  0  0  0999 V2000
   -3.1710   -0.8910   18.2610 C   0  0  0  0  0
   -2.9550   -2.1420   18.8320 N   0  0  0  0  0
   -4.7210   -1.6230   20.4920 C   0  0  0  0  0
   -4.3100    1.2580   18.2190 C   0  0  0  0  0
   -3.5390   -3.9080   20.3700 C   0  0  0  0  0
   -3.6930   -2.5000   19.8740 C   0  0  0  0  0
   -3.6080    1.5910   17.0670 C   0  0  0  0  0
   -2.7200    0.6920   16.5000 C   0  0  0  0  0
   -2.4980   -0.5480   17.0850 C   0  0  0  0  0
   -4.0990    0.0130   18.8080 C   0  0  0  0  0
   -4.8400   -0.4030   19.9130 N   0  0  0  0  0
   -5.4610   -1.9720   21.4180 O   0  0  0  0  0
   -2.4430   -4.4960   19.8980 F   0  0  0  0  0
   -3.4340   -3.9750   21.6870 F   0  0  0  0  0
   -4.5670   -4.6620   20.0320 F   0  0  0  0  0
   -5.0174    1.9624   18.6567 H   0  0  0  0  0
   -3.7573    2.5673   16.6060 H   0  0  0  0  0
   -2.1903    0.9602   15.5859 H   0  0  0  0  0
   -1.8014   -1.2512   16.6286 H   0  0  0  0  0
   -5.5138    0.2514   20.3107 H   0  0  0  0  0
  1  2  1  0  0  0
  1  9  4  0  0  0
 10  1  4  0  0  0
  2  6  2  0  0  0
  6  3  1  0  0  0
  3 11  1  0  0  0
  3 12  2  0  0  0
  4  7  4  0  0  0
  4 10  4  0  0  0
  6  5  1  0  0  0
  5 13  1  0  0  0
  5 14  1  0  0  0
  5 15  1  0  0  0
  7  8  4  0  0  0
  8  9  4  0  0  0
 10 11  1  0  0  0
  4 16  1  0  0  0
  7 17  1  0  0  0
  8 18  1  0  0  0
  9 19  1  0  0  0
 11 20  1  0  0  0
M  END
$$$$
