5hm0_ligand
  -I-interpret- 

 35 38  0  0  0  0  0  0  0  0999 V2000
  -10.3380    6.9220   -4.8710 C   0  0  0  0  0
   -9.6790    6.4580   -6.0320 C   0  0  0  0  0
   -8.5780    5.6280   -5.8460 C   0  0  0  0  0
   -7.6030    5.0090   -7.2200 Cl  0  0  0  0  0
   -8.0880    5.2970   -4.6130 C   0  0  0  0  0
   -8.7070    5.8010   -3.4850 C   0  0  0  0  0
   -9.8600    6.5600   -3.6030 C   0  0  0  0  0
  -10.5300    6.9910   -2.4340 C   0  0  0  0  0
  -11.8690    7.1350   -2.5580 N   0  0  0  0  0
  -12.8000    7.4080   -1.4530 C   0  0  0  0  0
  -12.6930    6.3300   -0.5340 C   0  0  0  0  0
  -13.8020    5.5790   -0.2250 O   0  0  0  0  0
  -13.4380    4.5700    0.6110 N   0  0  0  0  0
  -12.1150    4.7490    0.8140 C   0  0  0  0  0
  -11.3690    3.7480    1.6920 C   0  0  0  0  0
  -11.6430    5.7980    0.0610 C   0  0  0  0  0
  -10.3790    6.3360   -0.0080 C   0  0  0  0  0
   -9.8690    6.9590   -1.1730 C   0  0  0  0  0
   -8.5700    7.4970   -1.1420 C   0  0  0  0  0
   -7.8080    7.4880    0.0360 C   0  0  0  0  0
   -8.2720    6.8350    1.1690 C   0  0  0  0  0
   -9.5940    6.3320    1.1630 C   0  0  0  0  0
  -11.2168    7.5605   -4.9609 H   0  0  0  0  0
  -10.0184    6.7381   -7.0292 H   0  0  0  0  0
   -7.2202    4.6439   -4.5211 H   0  0  0  0  0
   -8.2868    5.6008   -2.4994 H   0  0  0  0  0
  -13.8209    7.4940   -1.8250 H   0  0  0  0  0
  -12.5513    8.3514   -0.9671 H   0  0  0  0  0
  -11.8059    3.7462    2.6906 H   0  0  0  0  0
  -11.4514    2.7523    1.2562 H   0  0  0  0  0
  -10.3188    4.0331    1.7541 H   0  0  0  0  0
   -8.1476    7.9287   -2.0494 H   0  0  0  0  0
   -6.8448    7.9975    0.0614 H   0  0  0  0  0
   -7.6327    6.7125    2.0433 H   0  0  0  0  0
  -10.0156    5.9320    2.0852 H   0  0  0  0  0
  1  2  4  0  0  0
  1  7  4  0  0  0
  2  3  4  0  0  0
  3  4  1  0  0  0
  3  5  4  0  0  0
  5  6  4  0  0  0
  6  7  4  0  0  0
  7  8  1  0  0  0
  8  9  2  0  0  0
  8 18  1  0  0  0
  9 10  1  0  0  0
 10 11  1  0  0  0
 11 12  4  0  0  0
 11 16  4  0  0  0
 12 13  4  0  0  0
 13 14  4  0  0  0
 14 15  1  0  0  0
 14 16  4  0  0  0
 16 17  1  0  0  0
 17 18  4  0  0  0
 17 22  4  0  0  0
 18 19  4  0  0  0
 19 20  4  0  0  0
 20 21  4  0  0  0
 21 22  4  0  0  0
  1 23  1  0  0  0
  2 24  1  0  0  0
  5 25  1  0  0  0
  6 26  1  0  0  0
 10 27  1  0  0  0
 10 28  1  0  0  0
 15 29  1  0  0  0
 15 30  1  0  0  0
 15 31  1  0  0  0
 19 32  1  0  0  0
 20 33  1  0  0  0
 21 34  1  0  0  0
 22 35  1  0  0  0
M  END
$$$$
