4gvm_ligand
  -I-interpret- 

 49 51  0  0  0  0  0  0  0  0999 V2000
  -46.6800   18.5800   27.4170 C   0  0  0  0  0
  -45.9660   17.4360   27.7940 C   0  0  0  0  0
  -46.6460   16.2080   27.8300 C   0  0  0  0  0
  -48.0150   16.1970   27.4890 C   0  0  0  0  0
  -48.7270   17.3630   27.1100 C   0  0  0  0  0
  -48.0240   18.5570   27.0590 C   0  0  0  0  0
  -46.0100   15.0060   28.2350 C   0  0  0  0  0
  -46.7640   13.8150   28.2420 C   0  0  0  0  0
  -48.1420   13.8600   27.8830 C   0  0  0  0  0
  -48.7040   15.0310   27.5200 N   0  0  0  0  0
  -45.7530   20.2170   27.3470 Br  0  0  0  0  0
  -46.0970   12.5560   28.6160 C   0  0  0  0  0
  -46.5290   12.1230   29.9850 C   0  0  0  0  0
  -46.5090   11.5380   27.7160 O   0  0  0  0  0
  -45.7930   11.4070   26.4800 C   0  0  0  0  0
  -44.2630   11.4710   26.5870 C   0  0  0  0  0
  -46.1950   10.0440   25.9460 C   0  0  0  0  0
  -46.2790   12.4540   25.4860 C   0  0  0  0  0
  -46.5520   10.8950   30.2510 O   0  0  0  0  0
  -46.8550   13.0140   30.7870 O   0  0  0  0  0
  -44.5550   14.9570   28.5720 C   0  0  0  0  0
  -44.1420   14.7070   29.8800 C   0  0  0  0  0
  -42.7860   14.6580   30.1900 C   0  0  0  0  0
  -41.8750   14.8620   29.1470 C   0  0  0  0  0
  -42.2660   15.1070   27.8150 C   0  0  0  0  0
  -43.6340   15.1760   27.5130 C   0  0  0  0  0
  -49.1070   12.7060   27.8680 C   0  0  0  0  0
  -40.1540   14.7950   29.5090 Cl  0  0  0  0  0
  -44.9090   17.4972   28.0530 H   0  0  0  0  0
  -49.7889   17.3222   26.8674 H   0  0  0  0  0
  -48.5218   19.4727   26.7401 H   0  0  0  0  0
  -45.0188   12.7139   28.5896 H   0  0  0  0  0
  -43.9695   12.4315   27.0106 H   0  0  0  0  0
  -43.9111   10.6655   27.2316 H   0  0  0  0  0
  -43.8258   11.3613   25.5946 H   0  0  0  0  0
  -45.9093    9.2752   26.6639 H   0  0  0  0  0
  -47.2741   10.0184   25.7945 H   0  0  0  0  0
  -45.6893    9.8632   24.9975 H   0  0  0  0  0
  -47.3439   12.3119   25.3022 H   0  0  0  0  0
  -46.1095   13.4493   25.8967 H   0  0  0  0  0
  -45.7301   12.3473   24.5504 H   0  0  0  0  0
  -46.2600   10.3971   29.4839 H   0  0  0  0  0
  -44.8839   14.5493   30.6628 H   0  0  0  0  0
  -42.4458   14.4677   31.2079 H   0  0  0  0  0
  -41.5182   15.2405   27.0333 H   0  0  0  0  0
  -43.9783   15.3902   26.5012 H   0  0  0  0  0
  -48.7497   11.9443   27.1750 H   0  0  0  0  0
  -49.1802   12.2822   28.8696 H   0  0  0  0  0
  -50.0878   13.0583   27.5486 H   0  0  0  0  0
  1  2  4  0  0  0
  1  6  4  0  0  0
  1 11  1  0  0  0
  2  3  4  0  0  0
  3  4  4  0  0  0
  3  7  4  0  0  0
  4  5  4  0  0  0
  4 10  4  0  0  0
  5  6  4  0  0  0
  7  8  4  0  0  0
  7 21  1  0  0  0
  8  9  4  0  0  0
  8 12  1  0  0  0
  9 10  4  0  0  0
  9 27  1  0  0  0
 12 13  1  0  0  0
 12 14  1  0  0  0
 13 19  1  0  0  0
 13 20  2  0  0  0
 14 15  1  0  0  0
 15 16  1  0  0  0
 15 17  1  0  0  0
 15 18  1  0  0  0
 21 22  4  0  0  0
 21 26  4  0  0  0
 22 23  4  0  0  0
 23 24  4  0  0  0
 24 25  4  0  0  0
 24 28  1  0  0  0
 25 26  4  0  0  0
  2 29  1  0  0  0
  5 30  1  0  0  0
  6 31  1  0  0  0
 12 32  1  0  0  0
 16 33  1  0  0  0
 16 34  1  0  0  0
 16 35  1  0  0  0
 17 36  1  0  0  0
 17 37  1  0  0  0
 17 38  1  0  0  0
 18 39  1  0  0  0
 18 40  1  0  0  0
 18 41  1  0  0  0
 19 42  1  0  0  0
 22 43  1  0  0  0
 23 44  1  0  0  0
 25 45  1  0  0  0
 26 46  1  0  0  0
 27 47  1  0  0  0
 27 48  1  0  0  0
 27 49  1  0  0  0
M  END
$$$$
