5lt9_ligand
  -I-interpret- 

 27 26  0  0  0  0  0  0  0  0999 V2000
   -8.8840   27.6830   16.8210 N   0  3  0  0  0
   -9.9390   26.8470   16.2590 C   0  0  0  0  0
   -9.6260   25.3630   16.4330 C   0  0  0  0  0
  -10.3610   24.4990   15.9540 O   0  0  0  0  0
  -10.1480   27.1710   14.7780 C   0  0  0  0  0
  -10.1350   28.6590   14.4720 C   0  0  0  0  0
   -9.5390   28.9540   13.1110 C   0  0  0  0  0
  -10.4850   28.7150   12.0270 N   0  0  0  0  0
  -10.2700   29.0860   10.7700 C   0  0  0  0  0
   -9.1480   29.7140   10.4590 N   0  0  0  0  0
  -11.1710   28.8370    9.8300 N   0  0  0  0  0
   -8.6320   24.9930   17.0570 O   0  0  0  0  0
   -8.7589   27.4535   17.8069 H   0  0  0  0  0
   -8.0131   27.5132   16.3180 H   0  0  0  0  0
   -9.1449   28.6648   16.7297 H   0  0  0  0  0
  -10.8582   27.0644   16.8029 H   0  0  0  0  0
  -11.0926   24.9203   15.4970 H   0  0  0  0  0
  -11.1287   26.7882   14.4954 H   0  0  0  0  0
   -9.3255   26.7169   14.2253 H   0  0  0  0  0
   -9.5250   29.1564   15.2260 H   0  0  0  0  0
  -11.1646   29.0169   14.4778 H   0  0  0  0  0
   -8.6851   28.2923   12.9658 H   0  0  0  0  0
   -9.2570   30.0066   13.0870 H   0  0  0  0  0
  -11.3590   28.2370   12.2461 H   0  0  0  0  0
   -8.4559   29.9099   11.1822 H   0  0  0  0  0
  -10.9988   29.1296    8.8682 H   0  0  0  0  0
  -12.0365   28.3529   10.0686 H   0  0  0  0  0
  1  2  1  0  0  0
  2  3  1  0  0  0
  2  5  1  0  0  0
  3  4  1  0  0  0
  3 12  2  0  0  0
  5  6  1  0  0  0
  6  7  1  0  0  0
  7  8  1  0  0  0
  8  9  1  0  0  0
  9 10  2  0  0  0
  9 11  1  0  0  0
  1 13  1  0  0  0
  1 14  1  0  0  0
  1 15  1  0  0  0
  2 16  1  0  0  0
  4 17  1  0  0  0
  5 18  1  0  0  0
  5 19  1  0  0  0
  6 20  1  0  0  0
  6 21  1  0  0  0
  7 22  1  0  0  0
  7 23  1  0  0  0
  8 24  1  0  0  0
 10 25  1  0  0  0
 11 26  1  0  0  0
 11 27  1  0  0  0
M  END
$$$$
