4k3k_ligand
  -I-interpret- 

 40 40  0  0  0  0  0  0  0  0999 V2000
  -20.3730    0.9550  -23.3620 C   0  0  0  0  0
  -21.4030    1.8340  -24.0810 C   0  0  0  0  0
  -20.8180    2.3560  -25.4100 C   0  0  0  0  0
  -22.6190    0.9860  -24.3520 C   0  0  0  0  0
  -23.7160    1.9630  -24.7240 C   0  0  0  0  0
  -24.9290    1.0570  -24.9940 C   0  0  0  0  0
  -24.9990    0.4090  -26.0340 O   0  0  0  0  0
  -25.8430    0.9980  -24.0120 N   0  0  0  0  0
  -27.0600    0.1690  -24.1200 C   0  0  0  0  0
  -28.1880    0.8640  -23.3580 C   0  0  0  0  0
  -29.3010    0.2990  -23.3570 O   0  0  0  0  0
  -27.9000    1.9230  -22.7590 O   0  0  0  0  0
  -26.8640   -1.2540  -23.5900 C   0  0  0  0  0
  -26.2110   -1.2110  -22.3260 C   0  0  0  0  0
  -26.9460   -1.0730  -21.1420 C   0  0  0  0  0
  -26.3120   -1.0550  -19.9020 C   0  0  0  0  0
  -24.9280   -1.1690  -19.8320 C   0  0  0  0  0
  -24.1830   -1.3120  -21.0010 C   0  0  0  0  0
  -24.8220   -1.3420  -22.2410 C   0  0  0  0  0
  -20.7980    0.5906  -22.4267 H   0  0  0  0  0
  -20.1120    0.1091  -23.9980 H   0  0  0  0  0
  -19.4793    1.5426  -23.1519 H   0  0  0  0  0
  -21.6660    2.6936  -23.4645 H   0  0  0  0  0
  -20.5345    1.5110  -26.0375 H   0  0  0  0  0
  -21.5680    2.9568  -25.9245 H   0  0  0  0  0
  -19.9397    2.9676  -25.2035 H   0  0  0  0  0
  -22.8927    0.3890  -23.4821 H   0  0  0  0  0
  -22.4357    0.2669  -25.1504 H   0  0  0  0  0
  -23.4536    2.5768  -25.5856 H   0  0  0  0  0
  -23.9077    2.6940  -23.9386 H   0  0  0  0  0
  -25.6916    1.5438  -23.1637 H   0  0  0  0  0
  -27.3067    0.0691  -25.1770 H   0  0  0  0  0
  -26.9798    2.1419  -22.9228 H   0  0  0  0  0
  -26.2525   -1.8197  -24.2929 H   0  0  0  0  0
  -27.8360   -1.7342  -23.4777 H   0  0  0  0  0
  -28.0307   -0.9782  -21.1916 H   0  0  0  0  0
  -26.8989   -0.9519  -18.9893 H   0  0  0  0  0
  -24.4266   -1.1466  -18.8644 H   0  0  0  0  0
  -23.0980   -1.4007  -20.9465 H   0  0  0  0  0
  -24.2338   -1.4685  -23.1499 H   0  0  0  0  0
  1  2  1  0  0  0
  2  3  1  0  0  0
  2  4  1  0  0  0
  4  5  1  0  0  0
  5  6  1  0  0  0
  6  7  2  0  0  0
  6  8  1  0  0  0
  8  9  1  0  0  0
  9 10  1  0  0  0
  9 13  1  0  0  0
 10 11  2  0  0  0
 10 12  1  0  0  0
 13 14  1  0  0  0
 14 15  4  0  0  0
 14 19  4  0  0  0
 15 16  4  0  0  0
 16 17  4  0  0  0
 17 18  4  0  0  0
 18 19  4  0  0  0
  1 20  1  0  0  0
  1 21  1  0  0  0
  1 22  1  0  0  0
  2 23  1  0  0  0
  3 24  1  0  0  0
  3 25  1  0  0  0
  3 26  1  0  0  0
  4 27  1  0  0  0
  4 28  1  0  0  0
  5 29  1  0  0  0
  5 30  1  0  0  0
  8 31  1  0  0  0
  9 32  1  0  0  0
 12 33  1  0  0  0
 13 34  1  0  0  0
 13 35  1  0  0  0
 15 36  1  0  0  0
 16 37  1  0  0  0
 17 38  1  0  0  0
 18 39  1  0  0  0
 19 40  1  0  0  0
M  END
$$$$
