4o2a_ligand
  -I-interpret- 

 46 49  0  0  0  0  0  0  0  0999 V2000
   17.3360   63.5760   43.5860 C   0  0  0  0  0
   16.2280   64.2930   42.8700 C   0  0  0  0  0
   15.6810   65.2450   43.4220 O   0  0  0  0  0
   15.4210   63.3270   38.8400 C   0  0  0  0  0
   16.3340   62.5440   39.5650 C   0  0  0  0  0
   16.5950   62.8660   40.8850 C   0  0  0  0  0
   14.7710   64.4240   39.4270 C   0  0  0  0  0
   15.0410   64.7340   40.7480 C   0  0  0  0  0
   15.9540   63.9610   41.4840 C   0  0  0  0  0
   15.1570   63.0070   37.5140 N   0  0  0  0  0
   17.9730   65.1330   45.5060 C   0  0  0  0  0
   17.2870   63.9820   47.1960 C   0  0  0  0  0
   17.3710   63.9880   45.0020 N   0  0  0  0  0
   16.9290   63.2390   46.0830 C   0  0  0  0  0
   16.9670   63.4800   48.4760 C   0  0  0  0  0
   16.2590   62.0050   46.1110 C   0  0  0  0  0
   16.3070   62.2650   48.5390 C   0  0  0  0  0
   15.9550   61.5320   47.3730 C   0  0  0  0  0
   17.9220   65.1320   46.8400 N   0  0  0  0  0
   17.2590   70.2390   46.7180 C   0  0  0  0  0
   19.1870   67.3180   45.0160 C   0  0  0  0  0
   19.5640   67.9700   43.9500 N   0  0  0  0  0
   18.5510   66.1390   44.6140 C   0  0  0  0  0
   18.5700   66.0800   43.3070 N   0  0  0  0  0
   16.2780   70.1080   47.2880 N   0  0  0  0  0
   19.1910   67.1970   42.8980 O   0  0  0  0  0
   18.8640   67.9740   46.2160 N   0  0  0  0  0
   19.5000   69.2920   46.3920 C   0  0  0  0  0
   18.5230   70.3970   45.9830 C   0  0  0  0  0
   18.2873   63.8258   43.1162 H   0  0  0  0  0
   17.1632   62.5013   43.5293 H   0  0  0  0  0
   16.8298   61.6949   39.0946 H   0  0  0  0  0
   17.3005   62.2674   41.4612 H   0  0  0  0  0
   14.0647   65.0221   38.8512 H   0  0  0  0  0
   14.5433   65.5814   41.2194 H   0  0  0  0  0
   15.6242   62.2117   37.0786 H   0  0  0  0  0
   14.4960   63.5674   36.9760 H   0  0  0  0  0
   17.2297   64.0285   49.3806 H   0  0  0  0  0
   15.9980   61.4604   45.2036 H   0  0  0  0  0
   16.0484   61.8564   49.5158 H   0  0  0  0  0
   15.4357   60.5793   47.4765 H   0  0  0  0  0
   18.2376   67.5692   46.9118 H   0  0  0  0  0
   20.3911   69.3489   45.7668 H   0  0  0  0  0
   19.7750   69.4229   47.4386 H   0  0  0  0  0
   18.9580   71.3685   46.2175 H   0  0  0  0  0
   18.3291   70.3295   44.9125 H   0  0  0  0  0
  1  2  1  0  0  0
 13  1  1  0  0  0
  2  3  2  0  0  0
  2  9  1  0  0  0
  5  4  4  0  0  0
  7  4  4  0  0  0
  4 10  1  0  0  0
  6  5  4  0  0  0
  9  6  4  0  0  0
  8  7  4  0  0  0
  9  8  4  0  0  0
 11 13  4  0  0  0
 11 19  4  0  0  0
 23 11  1  0  0  0
 12 14  4  0  0  0
 12 15  4  0  0  0
 19 12  4  0  0  0
 13 14  4  0  0  0
 14 16  4  0  0  0
 15 17  4  0  0  0
 16 18  4  0  0  0
 17 18  4  0  0  0
 20 25  3  0  0  0
 29 20  1  0  0  0
 21 22  4  0  0  0
 21 23  4  0  0  0
 27 21  1  0  0  0
 22 26  4  0  0  0
 23 24  4  0  0  0
 24 26  4  0  0  0
 28 27  1  0  0  0
 28 29  1  0  0  0
  1 30  1  0  0  0
  1 31  1  0  0  0
  5 32  1  0  0  0
  6 33  1  0  0  0
  7 34  1  0  0  0
  8 35  1  0  0  0
 10 36  1  0  0  0
 10 37  1  0  0  0
 15 38  1  0  0  0
 16 39  1  0  0  0
 17 40  1  0  0  0
 18 41  1  0  0  0
 27 42  1  0  0  0
 28 43  1  0  0  0
 28 44  1  0  0  0
 29 45  1  0  0  0
 29 46  1  0  0  0
M  END
$$$$
