1orw_ligand
  -I-interpret- 

 41 42  0  0  0  0  0  0  0  0999 V2000
   -6.4080   19.1790    7.2570 N   0  3  0  0  0
   -6.4960   19.8850    5.9740 C   0  0  0  0  0
   -5.4630   21.0010    5.8590 C   0  0  0  0  0
   -5.6430   22.1880    6.8170 C   0  0  0  0  0
   -6.7300   23.0670    6.6950 C   0  0  0  0  0
   -4.7340   22.4180    7.8550 C   0  0  0  0  0
   -6.9010   24.1400    7.5890 C   0  0  0  0  0
   -4.8980   23.4800    8.7430 C   0  0  0  0  0
   -5.9700   24.3310    8.6120 C   0  0  0  0  0
   -6.1970   25.9180    9.9510 I   0  0  0  0  0
   -6.3330   18.9240    4.7900 C   0  0  0  0  0
   -5.2530   18.7710    4.2100 O   0  0  0  0  0
   -7.7770   19.1340    1.5890 N   0  3  0  0  0
   -7.3360   17.9010    1.9140 C   0  0  0  0  0
   -7.5430   17.3250    3.3030 C   0  0  0  0  0
   -7.4430   18.2840    4.4020 N   0  0  0  0  0
   -8.7430   18.4160    5.0830 C   0  0  0  0  0
   -9.6820   17.9880    3.9900 C   0  0  0  0  0
   -8.9340   16.7810    3.4660 C   0  0  0  0  0
   -6.5204   19.8469    8.0197 H   0  0  0  0  0
   -7.1450   18.4757    7.3080 H   0  0  0  0  0
   -5.4976   18.7252    7.3323 H   0  0  0  0  0
   -7.4911   20.3286    5.9420 H   0  0  0  0  0
   -5.5597   21.4043    4.8510 H   0  0  0  0  0
   -4.5003   20.5529    6.1050 H   0  0  0  0  0
   -7.4540   22.9160    5.8943 H   0  0  0  0  0
   -3.8788   21.7524    7.9721 H   0  0  0  0  0
   -7.7507   24.8146    7.4842 H   0  0  0  0  0
   -4.1746   23.6362    9.5432 H   0  0  0  0  0
   -7.5411   19.3329    0.6168 H   0  0  0  0  0
   -8.7890   19.1746    1.7097 H   0  0  0  0  0
   -7.3331   19.8234    2.1957 H   0  0  0  0  0
   -6.2526   17.9801    1.8239 H   0  0  0  0  0
   -7.9145   17.2394    1.2692 H   0  0  0  0  0
   -6.7476   16.5822    3.3636 H   0  0  0  0  0
   -8.9403   19.4164    5.4682 H   0  0  0  0  0
   -8.8265   17.8236    5.9941 H   0  0  0  0  0
   -9.8846   18.7544    3.2419 H   0  0  0  0  0
  -10.6990   17.7804    4.3229 H   0  0  0  0  0
   -8.9859   15.9181    4.1300 H   0  0  0  0  0
   -9.3525   16.3800    2.5429 H   0  0  0  0  0
  2  1  1  0  0  0
  2  3  1  0  0  0
 11  2  1  0  0  0
  3  4  1  0  0  0
  4  5  4  0  0  0
  4  6  4  0  0  0
  5  7  4  0  0  0
  6  8  4  0  0  0
  7  9  4  0  0  0
  8  9  4  0  0  0
  9 10  1  0  0  0
 11 12  2  0  0  0
 16 11  1  0  0  0
 14 13  1  0  0  0
 15 14  1  0  0  0
 15 16  1  0  0  0
 15 19  1  0  0  0
 16 17  1  0  0  0
 17 18  1  0  0  0
 18 19  1  0  0  0
  1 20  1  0  0  0
  1 21  1  0  0  0
  1 22  1  0  0  0
  2 23  1  0  0  0
  3 24  1  0  0  0
  3 25  1  0  0  0
  5 26  1  0  0  0
  6 27  1  0  0  0
  7 28  1  0  0  0
  8 29  1  0  0  0
 13 30  1  0  0  0
 13 31  1  0  0  0
 13 32  1  0  0  0
 14 33  1  0  0  0
 14 34  1  0  0  0
 15 35  1  0  0  0
 17 36  1  0  0  0
 17 37  1  0  0  0
 18 38  1  0  0  0
 18 39  1  0  0  0
 19 40  1  0  0  0
 19 41  1  0  0  0
M  END
$$$$
