5mfr_ligand
  -I-interpret- 

 30 31  0  0  0  0  0  0  0  0999 V2000
  -66.0720   16.0670   -6.6630 C   0  0  0  0  0
  -65.5540   19.2360   -9.6890 C   0  0  0  0  0
  -64.5130   19.8330   -8.7400 C   0  0  0  0  0
  -67.5880   15.2530   -8.3220 C   0  0  0  0  0
  -66.8030   15.0270   -7.2140 C   0  0  0  0  0
  -66.1060   17.3390   -7.2230 C   0  0  0  0  0
  -66.8980   17.5660   -8.3450 C   0  0  0  0  0
  -67.6450   16.5200   -8.8750 C   0  0  0  0  0
  -65.2980   18.4670   -6.6250 C   0  0  0  0  0
  -66.8910   18.9190   -9.0120 C   0  0  0  0  0
  -64.1350   18.9670   -7.4680 C   0  0  0  0  0
  -63.2610   20.1560   -9.4790 N   0  3  0  0  0
  -63.2510   19.7400   -6.6940 O   0  0  0  0  0
  -63.3050   17.9500   -7.9270 O   0  0  0  0  0
  -65.4618   15.8854   -5.7782 H   0  0  0  0  0
  -65.1497   18.2978  -10.0691 H   0  0  0  0  0
  -65.7486   19.9744  -10.4668 H   0  0  0  0  0
  -65.0066   20.7239   -8.3517 H   0  0  0  0  0
  -68.1621   14.4374   -8.7617 H   0  0  0  0  0
  -66.7566   14.0321   -6.7712 H   0  0  0  0  0
  -68.2848   16.7007   -9.7387 H   0  0  0  0  0
  -64.8656   18.0805   -5.7021 H   0  0  0  0  0
  -65.9810   19.3090   -6.5123 H   0  0  0  0  0
  -67.6639   18.9177   -9.7806 H   0  0  0  0  0
  -67.0645   19.6724   -8.2436 H   0  0  0  0  0
  -63.4878   20.7142  -10.3020 H   0  0  0  0  0
  -62.6351   20.6838   -8.8707 H   0  0  0  0  0
  -62.8056   19.2905   -9.7686 H   0  0  0  0  0
  -62.5266   20.0441   -7.2457 H   0  0  0  0  0
  -62.5947   18.3295   -8.4496 H   0  0  0  0  0
  1  5  4  0  0  0
  6  1  4  0  0  0
  2  3  1  0  0  0
 10  2  1  0  0  0
  3 11  1  0  0  0
  3 12  1  0  0  0
  4  5  4  0  0  0
  8  4  4  0  0  0
  7  6  4  0  0  0
  6  9  1  0  0  0
  7  8  4  0  0  0
  7 10  1  0  0  0
  9 11  1  0  0  0
 11 13  1  0  0  0
 11 14  1  0  0  0
  1 15  1  0  0  0
  2 16  1  0  0  0
  2 17  1  0  0  0
  3 18  1  0  0  0
  4 19  1  0  0  0
  5 20  1  0  0  0
  8 21  1  0  0  0
  9 22  1  0  0  0
  9 23  1  0  0  0
 10 24  1  0  0  0
 10 25  1  0  0  0
 12 26  1  0  0  0
 12 27  1  0  0  0
 12 28  1  0  0  0
 13 29  1  0  0  0
 14 30  1  0  0  0
M  END
$$$$
