### 
### Created by X-TOOL on Mon Aug  2 16:15:13 2021
### 

@<TRIPOS>MOLECULE
6n7z_ligand
   47    50     1     0     0
SMALL
GAST_HUCK


@<TRIPOS>ATOM
      1 OAD         8.6470   73.1000   24.3280 O.co2     1 KF7        -0.5606
      2 CAM         3.2500   74.4890   27.2460 C.2       1 KF7         0.0373
      3 CAO         3.1490   75.8500   27.3560 C.ar      1 KF7        -0.0128
      4 CAL         4.3150   73.7570   26.8490 C.2       1 KF7        -0.0456
      5 NAB         6.2430   71.7930   26.1160 N.pl3     1 KF7        -0.2805
      6 CAP         1.9330   76.4320   27.7450 C.ar      1 KF7        -0.0592
      7 CAQ         1.7560   77.8100   27.8570 C.ar      1 KF7        -0.0593
      8 CAR         2.7960   78.6670   27.5900 C.ar      1 KF7        -0.0451
      9 CAW         2.5920   80.0440   27.6980 C.3       1 KF7        -0.0306
     10 CAS         4.0170   78.1300   27.2010 C.ar      1 KF7        -0.0593
     11 CAT         4.1950   76.7440   27.0720 C.ar      1 KF7        -0.0592
     12 SAN         2.0250   73.3910   27.5440 S.3       1 KF7        -0.0140
     13 C5          4.1240   72.3930   26.8100 C.ar      1 KF7         0.0469
     14 C6          2.8690   72.0200   27.1700 C.ar      1 KF7         0.1085
     15 N1          2.4790   70.7290   27.1920 N.ar      1 KF7        -0.2773
     16 C2          3.3760   69.7210   26.8410 C.ar      1 KF7         0.0586
     17 N3          4.6640   70.1030   26.4740 N.ar      1 KF7        -0.2639
     18 C4          4.9970   71.4120   26.4630 C.ar      1 KF7         0.1295
     19 CAC         7.2120   70.9060   25.4360 C.3       1 KF7         0.1218
     20 PAA         7.9200   71.8570   23.9740 P.3       1 KF7         0.0872
     21 OAE         6.6690   72.2390   23.0290 O.co2     1 KF7        -0.5606
     22 OAU         8.8050   70.8080   23.1330 O.co2     1 KF7        -0.5606
     23 CAV         8.3340   70.4890   26.4130 C.3       1 KF7         0.0202
     24 CAX         7.8070   70.2850   27.6920 C.ar      1 KF7        -0.0394
     25 CAY         7.7340   71.3460   28.5980 C.ar      1 KF7        -0.0602
     26 CAZ         7.1940   71.1480   29.8680 C.ar      1 KF7        -0.0686
     27 CBA         6.7250   69.8910   30.2400 C.ar      1 KF7        -0.0687
     28 CBB         6.7990   68.8330   29.3380 C.ar      1 KF7        -0.0686
     29 CBC         7.3350   69.0260   28.0660 C.ar      1 KF7        -0.0602
     30 H1          5.2641   74.2165   26.5771 H         1 KF7         0.0448
     31 H2          6.5364   72.7553   26.3367 H         1 KF7         0.1885
     32 H3          1.0949   75.7818   27.9681 H         1 KF7         0.0607
     33 H4          0.7929   78.2075   28.1563 H         1 KF7         0.0561
     34 H5          3.5239   80.5732   27.4502 H         1 KF7         0.0395
     35 H6          2.2929   80.2908   28.7274 H         1 KF7         0.0395
     36 H7          1.7986   80.3529   27.0015 H         1 KF7         0.0395
     37 H8          4.8480   78.7944   26.9932 H         1 KF7         0.0561
     38 H9          5.1544   76.3571   26.7482 H         1 KF7         0.0607
     39 H10         3.0816   68.6778   26.8533 H         1 KF7         0.1012
     40 H11         6.6976   70.0034   25.0745 H         1 KF7         0.0781
     41 H12         9.0935   71.2836   26.4551 H         1 KF7         0.0464
     42 H13         8.7977   69.5569   26.0578 H         1 KF7         0.0464
     43 H14         8.0984   72.3262   28.3126 H         1 KF7         0.0557
     44 H15         7.1392   71.9745   30.5673 H         1 KF7         0.0599
     45 H16         6.3043   69.7368   31.2271 H         1 KF7         0.0559
     46 H17         6.4374   67.8528   29.6269 H         1 KF7         0.0599
     47 H18         7.3852   68.1986   27.3675 H         1 KF7         0.0557
@<TRIPOS>BOND
     1   20    1 ar 
     2    2    3 1  
     3    4    2 2  
     4   12    2 1  
     5    3    6 ar 
     6    3   11 ar 
     7   13    4 1  
     8    5   18 1  
     9   19    5 1  
    10    6    7 ar 
    11    7    8 ar 
    12    8    9 1  
    13   10    8 ar 
    14   11   10 ar 
    15   14   12 1  
    16   13   14 ar 
    17   18   13 ar 
    18   14   15 ar 
    19   16   15 ar 
    20   17   16 ar 
    21   18   17 ar 
    22   19   20 1  
    23   19   23 1  
    24   20   21 ar 
    25   20   22 ar 
    26   23   24 1  
    27   24   25 ar 
    28   24   29 ar 
    29   25   26 ar 
    30   26   27 ar 
    31   27   28 ar 
    32   28   29 ar 
    33    4   30 1  
    34    5   31 1  
    35    6   32 1  
    36    7   33 1  
    37    9   34 1  
    38    9   35 1  
    39    9   36 1  
    40   10   37 1  
    41   11   38 1  
    42   16   39 1  
    43   19   40 1  
    44   23   41 1  
    45   23   42 1  
    46   25   43 1  
    47   26   44 1  
    48   27   45 1  
    49   28   46 1  
    50   29   47 1  
@<TRIPOS>SUBSTRUCTURE
     1 KF7         1

