6n7z_ligand
  -I-interpret- 

 49 52  0  0  0  0  0  0  0  0999 V2000
    8.6470   73.1000   24.3280 O   0  0  0  0  0
    3.2500   74.4890   27.2460 C   0  0  0  0  0
    3.1490   75.8500   27.3560 C   0  0  0  0  0
    4.3150   73.7570   26.8490 C   0  0  0  0  0
    6.2430   71.7930   26.1160 N   0  0  0  0  0
    1.9330   76.4320   27.7450 C   0  0  0  0  0
    1.7560   77.8100   27.8570 C   0  0  0  0  0
    2.7960   78.6670   27.5900 C   0  0  0  0  0
    2.5920   80.0440   27.6980 C   0  0  0  0  0
    4.0170   78.1300   27.2010 C   0  0  0  0  0
    4.1950   76.7440   27.0720 C   0  0  0  0  0
    2.0250   73.3910   27.5440 S   0  0  0  0  0
    4.1240   72.3930   26.8100 C   0  0  0  0  0
    2.8690   72.0200   27.1700 C   0  0  0  0  0
    2.4790   70.7290   27.1920 N   0  0  0  0  0
    3.3760   69.7210   26.8410 C   0  0  0  0  0
    4.6640   70.1030   26.4740 N   0  0  0  0  0
    4.9970   71.4120   26.4630 C   0  0  0  0  0
    7.2120   70.9060   25.4360 C   0  0  0  0  0
    7.9200   71.8570   23.9740 P   0  0  0  0  0
    6.6690   72.2390   23.0290 O   0  0  0  0  0
    8.8050   70.8080   23.1330 O   0  0  0  0  0
    8.3340   70.4890   26.4130 C   0  0  0  0  0
    7.8070   70.2850   27.6920 C   0  0  0  0  0
    7.7340   71.3460   28.5980 C   0  0  0  0  0
    7.1940   71.1480   29.8680 C   0  0  0  0  0
    6.7250   69.8910   30.2400 C   0  0  0  0  0
    6.7990   68.8330   29.3380 C   0  0  0  0  0
    7.3350   69.0260   28.0660 C   0  0  0  0  0
    5.2650   74.2169   26.5769 H   0  0  0  0  0
    6.5336   72.7460   26.3346 H   0  0  0  0  0
    1.0902   75.7782   27.9693 H   0  0  0  0  0
    0.7876   78.2097   28.1579 H   0  0  0  0  0
    1.8056   80.3488   27.0075 H   0  0  0  0  0
    2.2956   80.2872   28.7184 H   0  0  0  0  0
    3.5160   80.5673   27.4522 H   0  0  0  0  0
    4.8526   78.7980   26.9920 H   0  0  0  0  0
    5.1598   76.3550   26.7464 H   0  0  0  0  0
    3.0799   68.6720   26.8534 H   0  0  0  0  0
    6.7237   69.9943   25.0917 H   0  0  0  0  0
    6.1913   71.4402   22.7940 H   0  0  0  0  0
    8.2774   70.0301   22.9377 H   0  0  0  0  0
    9.0823   71.2803   26.4567 H   0  0  0  0  0
    8.7880   69.5625   26.0615 H   0  0  0  0  0
    8.1004   72.3317   28.3110 H   0  0  0  0  0
    7.1389   71.9790   30.5712 H   0  0  0  0  0
    6.3020   69.7360   31.2325 H   0  0  0  0  0
    6.4354   67.8474   29.6285 H   0  0  0  0  0
    7.3855   68.1940   27.3636 H   0  0  0  0  0
 20  1  2  0  0  0
  2  3  1  0  0  0
  4  2  4  0  0  0
 12  2  4  0  0  0
  3  6  4  0  0  0
  3 11  4  0  0  0
 13  4  4  0  0  0
  5 18  1  0  0  0
 19  5  1  0  0  0
  6  7  4  0  0  0
  7  8  4  0  0  0
  8  9  1  0  0  0
 10  8  4  0  0  0
 11 10  4  0  0  0
 14 12  4  0  0  0
 13 14  4  0  0  0
 18 13  4  0  0  0
 14 15  4  0  0  0
 16 15  4  0  0  0
 17 16  4  0  0  0
 18 17  4  0  0  0
 19 20  1  0  0  0
 19 23  1  0  0  0
 20 21  1  0  0  0
 20 22  1  0  0  0
 23 24  1  0  0  0
 24 25  4  0  0  0
 24 29  4  0  0  0
 25 26  4  0  0  0
 26 27  4  0  0  0
 27 28  4  0  0  0
 28 29  4  0  0  0
  4 30  1  0  0  0
  5 31  1  0  0  0
  6 32  1  0  0  0
  7 33  1  0  0  0
  9 34  1  0  0  0
  9 35  1  0  0  0
  9 36  1  0  0  0
 10 37  1  0  0  0
 11 38  1  0  0  0
 16 39  1  0  0  0
 19 40  1  0  0  0
 21 41  1  0  0  0
 22 42  1  0  0  0
 23 43  1  0  0  0
 23 44  1  0  0  0
 25 45  1  0  0  0
 26 46  1  0  0  0
 27 47  1  0  0  0
 28 48  1  0  0  0
 29 49  1  0  0  0
M  END
$$$$
