4hg7_ligand
  -I-interpret- 

 70 74  0  0  0  0  0  0  0  0999 V2000
  -23.6670    5.8390  -16.5680 O   0  0  0  0  0
  -23.0150    6.5380  -15.7570 C   0  0  0  0  0
  -21.6950    6.4020  -15.7100 N   0  0  0  0  0
  -21.0060    5.5640  -16.6970 C   0  0  0  0  0
  -19.6240    6.0370  -17.0660 C   0  0  0  0  0
  -19.0270    5.4380  -17.9570 O   0  0  0  0  0
  -19.0960    7.0880  -16.4230 N   0  0  0  0  0
  -19.7650    7.7770  -15.3160 C   0  0  0  0  0
  -20.8510    6.9550  -14.6470 C   0  0  0  0  0
  -23.7280    7.3870  -14.9700 N   0  0  0  0  0
  -25.0320    7.1730  -14.7100 C   0  0  0  0  0
  -25.7160    5.8490  -14.5590 C   0  0  0  0  0
  -27.0030    5.6430  -15.0330 C   0  0  0  0  0
  -27.6360    4.3900  -14.8720 C   0  0  0  0  0
  -25.0210    4.7420  -13.8780 C   0  0  0  0  0
  -23.7510    4.9500  -13.4150 O   0  0  0  0  0
  -23.0770    3.9270  -12.6400 C   0  0  0  0  0
  -22.4450    2.9000  -13.5860 C   0  0  0  0  0
  -22.0630    4.5960  -11.7180 C   0  0  0  0  0
  -25.6780    3.5120  -13.7320 C   0  0  0  0  0
  -26.9730    3.3480  -14.2070 C   0  0  0  0  0
  -27.5570    2.1270  -14.0220 O   0  0  0  0  0
  -28.8630    1.8220  -14.5400 C   0  0  0  0  0
  -23.3300    8.7740  -14.7400 C   0  0  0  0  0
  -22.8970    9.2330  -13.3740 C   0  0  0  0  0
  -22.1980   10.4510  -13.3260 C   0  0  0  0  0
  -21.8670   10.9940  -12.0870 C   0  0  0  0  0
  -22.2600   10.3210  -10.9420 C   0  0  0  0  0
  -21.9280   11.0790   -9.3760 Cl  0  0  0  0  0
  -22.9880    9.1230  -10.9420 C   0  0  0  0  0
  -23.3000    8.5790  -12.1900 C   0  0  0  0  0
  -24.7920    9.3670  -15.0380 C   0  0  0  0  0
  -25.7070    8.2510  -14.7090 N   0  0  0  0  0
  -25.1940   10.6170  -14.3010 C   0  0  0  0  0
  -24.9800   11.8740  -14.8650 C   0  0  0  0  0
  -25.3550   13.0350  -14.1450 C   0  0  0  0  0
  -25.9350   12.9210  -12.8640 C   0  0  0  0  0
  -26.4170   14.3600  -11.9150 Cl  0  0  0  0  0
  -26.1560   11.6770  -12.2540 C   0  0  0  0  0
  -25.7910   10.5280  -13.0190 C   0  0  0  0  0
  -21.6042    5.5882  -17.6078 H   0  0  0  0  0
  -20.8956    4.5748  -16.2527 H   0  0  0  0  0
  -18.1805    7.4259  -16.7198 H   0  0  0  0  0
  -20.2397    8.6675  -15.7279 H   0  0  0  0  0
  -19.0078    7.9894  -14.5613 H   0  0  0  0  0
  -20.4132    6.1550  -14.0500 H   0  0  0  0  0
  -21.4412    7.5758  -13.9729 H   0  0  0  0  0
  -27.5307    6.4546  -15.5340 H   0  0  0  0  0
  -28.6405    4.2330  -15.2650 H   0  0  0  0  0
  -23.7807    3.3819  -12.0110 H   0  0  0  0  0
  -23.2241    2.4406  -14.1943 H   0  0  0  0  0
  -21.7240    3.3995  -14.2332 H   0  0  0  0  0
  -21.9390    2.1321  -13.0009 H   0  0  0  0  0
  -21.3363    5.1450  -12.3168 H   0  0  0  0  0
  -22.5802    5.2850  -11.0502 H   0  0  0  0  0
  -21.5503    3.8344  -11.1304 H   0  0  0  0  0
  -25.1701    2.6805  -13.2434 H   0  0  0  0  0
  -29.5922    2.5094  -14.1112 H   0  0  0  0  0
  -28.8560    1.9280  -15.6248 H   0  0  0  0  0
  -29.1274    0.7982  -14.2753 H   0  0  0  0  0
  -22.4377    9.0479  -15.3030 H   0  0  0  0  0
  -21.9186   10.9640  -14.2462 H   0  0  0  0  0
  -21.3105   11.9288  -12.0198 H   0  0  0  0  0
  -23.2952    8.6401  -10.0143 H   0  0  0  0  0
  -23.8577    7.6444  -12.2499 H   0  0  0  0  0
  -24.8213    9.7054  -16.0737 H   0  0  0  0  0
  -24.5275   11.9628  -15.8527 H   0  0  0  0  0
  -25.1948   14.0204  -14.5825 H   0  0  0  0  0
  -26.5816   11.5926  -11.2541 H   0  0  0  0  0
  -25.9797    9.5401  -12.5989 H   0  0  0  0  0
  1  2  2  0  0  0
  2  3  1  0  0  0
  2 10  1  0  0  0
  3  4  1  0  0  0
  3  9  1  0  0  0
  4  5  1  0  0  0
  5  6  2  0  0  0
  5  7  1  0  0  0
  7  8  1  0  0  0
  8  9  1  0  0  0
 10 11  1  0  0  0
 10 24  1  0  0  0
 11 12  1  0  0  0
 11 33  2  0  0  0
 12 13  4  0  0  0
 12 15  4  0  0  0
 13 14  4  0  0  0
 14 21  4  0  0  0
 15 16  1  0  0  0
 15 20  4  0  0  0
 16 17  1  0  0  0
 17 18  1  0  0  0
 17 19  1  0  0  0
 20 21  4  0  0  0
 21 22  1  0  0  0
 22 23  1  0  0  0
 24 25  1  0  0  0
 24 32  1  0  0  0
 25 26  4  0  0  0
 25 31  4  0  0  0
 26 27  4  0  0  0
 27 28  4  0  0  0
 28 29  1  0  0  0
 28 30  4  0  0  0
 30 31  4  0  0  0
 32 33  1  0  0  0
 32 34  1  0  0  0
 34 35  4  0  0  0
 34 40  4  0  0  0
 35 36  4  0  0  0
 36 37  4  0  0  0
 37 38  1  0  0  0
 37 39  4  0  0  0
 39 40  4  0  0  0
  4 41  1  0  0  0
  4 42  1  0  0  0
  7 43  1  0  0  0
  8 44  1  0  0  0
  8 45  1  0  0  0
  9 46  1  0  0  0
  9 47  1  0  0  0
 13 48  1  0  0  0
 14 49  1  0  0  0
 17 50  1  0  0  0
 18 51  1  0  0  0
 18 52  1  0  0  0
 18 53  1  0  0  0
 19 54  1  0  0  0
 19 55  1  0  0  0
 19 56  1  0  0  0
 20 57  1  0  0  0
 23 58  1  0  0  0
 23 59  1  0  0  0
 23 60  1  0  0  0
 24 61  1  0  0  0
 26 62  1  0  0  0
 27 63  1  0  0  0
 30 64  1  0  0  0
 31 65  1  0  0  0
 32 66  1  0  0  0
 35 67  1  0  0  0
 36 68  1  0  0  0
 39 69  1  0  0  0
 40 70  1  0  0  0
M  END
$$$$
