5yjb_ligand
  -I-interpret- 

 55 58  0  0  0  0  0  0  0  0999 V2000
    7.2720  -51.2260  -39.9550 C   0  0  0  0  0
    6.6260  -51.4320  -38.7520 C   0  0  0  0  0
    7.2580  -51.1490  -37.5380 C   0  0  0  0  0
   -0.0780  -53.1700  -31.1020 N   0  3  0  0  0
    6.6330  -51.5350  -36.2410 C   0  0  0  0  0
    6.3070  -52.8750  -35.9130 C   0  0  0  0  0
    6.3250  -50.5090  -35.4310 N   0  0  0  0  0
    6.6890  -54.0570  -36.7340 C   0  0  0  0  0
    5.7280  -54.9970  -37.1140 C   0  0  0  0  0
    6.0710  -56.1160  -37.8530 C   0  0  0  0  0
    7.3950  -56.3170  -38.2460 C   0  0  0  0  0
    7.7360  -57.4390  -39.0860 C   0  0  0  0  0
    8.3680  -55.3860  -37.8740 C   0  0  0  0  0
    8.0140  -54.2720  -37.1270 C   0  0  0  0  0
    7.9720  -58.3320  -39.7630 N   0  0  0  0  0
    9.2420  -50.4470  -41.3250 C   0  0  0  0  0
    4.5550  -52.0670  -32.7400 O   0  0  0  0  0
    8.5580  -50.7150  -40.0050 C   0  0  0  0  0
    5.5900  -53.0920  -34.7370 C   0  0  0  0  0
    5.2600  -52.0220  -33.9250 C   0  0  0  0  0
    4.0760  -53.3210  -32.2380 C   0  0  0  0  0
    2.5680  -53.2630  -32.2520 C   0  0  0  0  0
    9.1820  -50.4100  -38.8030 C   0  0  0  0  0
    1.9580  -54.4740  -31.5660 C   0  0  0  0  0
    0.4490  -54.4010  -31.7140 C   0  0  0  0  0
    0.5320  -51.9850  -31.7100 C   0  0  0  0  0
    2.0430  -52.0130  -31.5720 C   0  0  0  0  0
    5.6550  -50.7560  -34.2980 C   0  0  0  0  0
    8.5410  -50.6130  -37.5930 C   0  0  0  0  0
    6.7587  -51.4708  -40.8849 H   0  0  0  0  0
    5.6078  -51.8212  -38.7492 H   0  0  0  0  0
    0.1406  -53.1782  -30.1057 H   0  0  0  0  0
   -1.0864  -53.1341  -31.2509 H   0  0  0  0  0
    4.6884  -54.8464  -36.8231 H   0  0  0  0  0
    5.3056  -56.8415  -38.1285 H   0  0  0  0  0
    9.4061  -55.5351  -38.1710 H   0  0  0  0  0
    8.7812  -53.5522  -36.8416 H   0  0  0  0  0
    9.3176  -51.3767  -41.8889 H   0  0  0  0  0
    8.6599  -49.7219  -41.8938 H   0  0  0  0  0
   10.2403  -50.0497  -41.1414 H   0  0  0  0  0
    5.2903  -54.1023  -34.4583 H   0  0  0  0  0
    4.4433  -53.4942  -31.2265 H   0  0  0  0  0
    4.4335  -54.1434  -32.8576 H   0  0  0  0  0
    2.2772  -53.2500  -33.3024 H   0  0  0  0  0
   10.1935  -50.0039  -38.8122 H   0  0  0  0  0
    2.2288  -54.4796  -30.5102 H   0  0  0  0  0
    2.3332  -55.3894  -32.0235 H   0  0  0  0  0
    0.1998  -54.4003  -32.7751 H   0  0  0  0  0
    0.0049  -55.2607  -31.2122 H   0  0  0  0  0
    0.1527  -51.0988  -31.2012 H   0  0  0  0  0
    0.2799  -51.9694  -32.7703 H   0  0  0  0  0
    2.4747  -51.1276  -32.0386 H   0  0  0  0  0
    2.3193  -52.0203  -30.5176 H   0  0  0  0  0
    5.4118  -49.9195  -33.6429 H   0  0  0  0  0
    9.0505  -50.3482  -36.6665 H   0  0  0  0  0
  2  1  4  0  0  0
  1 18  4  0  0  0
  3  2  4  0  0  0
  5  3  1  0  0  0
  3 29  4  0  0  0
 25  4  1  0  0  0
  4 26  1  0  0  0
  6  5  4  0  0  0
  7  5  4  0  0  0
  6  8  1  0  0  0
 19  6  4  0  0  0
 28  7  4  0  0  0
  8  9  4  0  0  0
  8 14  4  0  0  0
  9 10  4  0  0  0
 10 11  4  0  0  0
 11 12  1  0  0  0
 13 11  4  0  0  0
 12 15  3  0  0  0
 14 13  4  0  0  0
 18 16  1  0  0  0
 17 20  1  0  0  0
 21 17  1  0  0  0
 23 18  4  0  0  0
 20 19  4  0  0  0
 20 28  4  0  0  0
 22 21  1  0  0  0
 24 22  1  0  0  0
 22 27  1  0  0  0
 29 23  4  0  0  0
 24 25  1  0  0  0
 26 27  1  0  0  0
  1 30  1  0  0  0
  2 31  1  0  0  0
  4 32  1  0  0  0
  4 33  1  0  0  0
  9 34  1  0  0  0
 10 35  1  0  0  0
 13 36  1  0  0  0
 14 37  1  0  0  0
 16 38  1  0  0  0
 16 39  1  0  0  0
 16 40  1  0  0  0
 19 41  1  0  0  0
 21 42  1  0  0  0
 21 43  1  0  0  0
 22 44  1  0  0  0
 23 45  1  0  0  0
 24 46  1  0  0  0
 24 47  1  0  0  0
 25 48  1  0  0  0
 25 49  1  0  0  0
 26 50  1  0  0  0
 26 51  1  0  0  0
 27 52  1  0  0  0
 27 53  1  0  0  0
 28 54  1  0  0  0
 29 55  1  0  0  0
M  END
$$$$
