5lc0_ligand
  -I-interpret- 

 73 75  0  0  0  0  0  0  0  0999 V2000
   82.6750   49.8610  152.0880 O   0  0  0  0  0
   81.5620   50.3290  151.9410 C   0  0  0  0  0
   80.4340   49.3510  151.7670 C   0  0  0  0  0
   80.7110   48.0420  151.4470 C   0  0  0  0  0
   79.7190   47.0820  151.3480 C   0  0  0  0  0
   78.4130   47.4220  151.5690 C   0  0  0  0  0
   78.0930   48.7220  151.8650 C   0  0  0  0  0
   79.0940   49.6890  152.0160 C   0  0  0  0  0
   81.3170   51.6250  152.1480 N   0  0  0  0  0
   82.1960   52.4920  152.8920 C   0  0  0  0  0
   81.7650   53.9460  152.7030 C   0  0  0  0  0
   81.8760   54.4930  151.2940 C   0  0  0  0  0
   81.2340   55.7080  151.1020 C   0  0  0  0  0
   81.2530   56.3390  149.8750 C   0  0  0  0  0
   81.9230   55.7640  148.8100 C   0  0  0  0  0
   81.8700   56.5720  147.5360 C   0  0  0  0  0
   82.4940   55.8840  146.4060 N   0  3  0  0  0
   82.5820   54.5330  148.9850 C   0  0  0  0  0
   82.5590   53.8940  150.2260 C   0  0  0  0  0
   82.1360   52.2280  154.3890 C   0  0  0  0  0
   81.1050   52.5060  154.9450 O   0  0  0  0  0
   83.2180   51.8150  155.0780 N   0  0  0  0  0
   83.3230   51.9520  156.5380 C   0  0  0  0  0
   84.0680   53.3170  156.8700 B   0  0  0  0  0
   84.1050   53.7160  158.2300 O   0  0  0  0  0
   83.9750   54.3890  155.9430 O   0  0  0  0  0
   84.1030   50.8250  157.2140 C   0  0  0  0  0
   83.1730   49.8510  157.9060 C   0  0  0  0  0
   82.9160   48.6530  157.0180 C   0  0  0  0  0
   81.5930   48.1130  157.2750 N   0  0  0  0  0
   81.3190   46.8780  157.6750 C   0  0  0  0  0
   82.2470   45.9820  158.0270 N   0  0  0  0  0
   80.1010   46.5430  157.6620 N   0  0  0  0  0
   83.4040   55.6390  156.3340 C   0  0  0  0  0
   83.5930   54.9990  158.6120 C   0  0  0  0  0
   82.6060   55.4550  157.5770 C   0  0  0  0  0
   81.6210   54.4480  157.3320 O   0  0  0  0  0
   81.7457   47.7514  151.2655 H   0  0  0  0  0
   79.9788   46.0544  151.0937 H   0  0  0  0  0
   77.6315   46.6645  151.5102 H   0  0  0  0  0
   77.0473   49.0058  151.9841 H   0  0  0  0  0
   78.8340   50.7012  152.3259 H   0  0  0  0  0
   80.4622   52.0229  151.7589 H   0  0  0  0  0
   83.2026   52.3013  152.5199 H   0  0  0  0  0
   82.4347   54.5466  153.3185 H   0  0  0  0  0
   80.7081   53.9890  152.9660 H   0  0  0  0  0
   80.7055   56.1720  151.9348 H   0  0  0  0  0
   80.7395   57.2916  149.7447 H   0  0  0  0  0
   82.4151   57.5006  147.7053 H   0  0  0  0  0
   80.8217   56.7395  147.2888 H   0  0  0  0  0
   82.4306   56.4716  145.5747 H   0  0  0  0  0
   83.4742   55.7007  146.6203 H   0  0  0  0  0
   82.0108   55.0016  146.2378 H   0  0  0  0  0
   83.1121   54.0769  148.1489 H   0  0  0  0  0
   83.0668   52.9393  150.3633 H   0  0  0  0  0
   83.9930   51.3916  154.5676 H   0  0  0  0  0
   82.3034   51.9208  156.9222 H   0  0  0  0  0
   84.7666   51.2614  157.9605 H   0  0  0  0  0
   84.6652   50.2860  156.4514 H   0  0  0  0  0
   82.2265   50.3492  158.1157 H   0  0  0  0  0
   83.6351   49.5146  158.8341 H   0  0  0  0  0
   83.6615   47.8862  157.2287 H   0  0  0  0  0
   82.9787   48.9622  155.9747 H   0  0  0  0  0
   80.8014   48.7408  157.1352 H   0  0  0  0  0
   81.9698   45.0344  158.2830 H   0  0  0  0  0
   83.2321   46.2461  158.0395 H   0  0  0  0  0
   79.3921   47.2091  157.3552 H   0  0  0  0  0
   82.7561   56.0065  155.5382 H   0  0  0  0  0
   84.2006   56.3599  156.5179 H   0  0  0  0  0
   84.4107   55.7162  158.6833 H   0  0  0  0  0
   83.1026   54.9264  159.5827 H   0  0  0  0  0
   82.0902   56.3589  157.9009 H   0  0  0  0  0
   81.0959   54.3159  158.1248 H   0  0  0  0  0
  1  2  2  0  0  0
  2  3  1  0  0  0
  2  9  1  0  0  0
  3  4  4  0  0  0
  3  8  4  0  0  0
  4  5  4  0  0  0
  5  6  4  0  0  0
  6  7  4  0  0  0
  7  8  4  0  0  0
  9 10  1  0  0  0
 10 11  1  0  0  0
 10 20  1  0  0  0
 11 12  1  0  0  0
 12 13  4  0  0  0
 12 19  4  0  0  0
 13 14  4  0  0  0
 14 15  4  0  0  0
 15 16  1  0  0  0
 15 18  4  0  0  0
 16 17  1  0  0  0
 18 19  4  0  0  0
 20 21  2  0  0  0
 20 22  1  0  0  0
 22 23  1  0  0  0
 23 24  1  0  0  0
 23 27  1  0  0  0
 24 25  1  0  0  0
 24 26  1  0  0  0
 25 35  1  0  0  0
 26 34  1  0  0  0
 27 28  1  0  0  0
 28 29  1  0  0  0
 29 30  1  0  0  0
 30 31  1  0  0  0
 31 32  1  0  0  0
 31 33  2  0  0  0
 34 36  1  0  0  0
 35 36  1  0  0  0
 36 37  1  0  0  0
  4 38  1  0  0  0
  5 39  1  0  0  0
  6 40  1  0  0  0
  7 41  1  0  0  0
  8 42  1  0  0  0
  9 43  1  0  0  0
 10 44  1  0  0  0
 11 45  1  0  0  0
 11 46  1  0  0  0
 13 47  1  0  0  0
 14 48  1  0  0  0
 16 49  1  0  0  0
 16 50  1  0  0  0
 17 51  1  0  0  0
 17 52  1  0  0  0
 17 53  1  0  0  0
 18 54  1  0  0  0
 19 55  1  0  0  0
 22 56  1  0  0  0
 23 57  1  0  0  0
 27 58  1  0  0  0
 27 59  1  0  0  0
 28 60  1  0  0  0
 28 61  1  0  0  0
 29 62  1  0  0  0
 29 63  1  0  0  0
 30 64  1  0  0  0
 32 65  1  0  0  0
 32 66  1  0  0  0
 33 67  1  0  0  0
 34 68  1  0  0  0
 34 69  1  0  0  0
 35 70  1  0  0  0
 35 71  1  0  0  0
 36 72  1  0  0  0
 37 73  1  0  0  0
M  END
$$$$
