3u8j_ligand
  -I-interpret- 

 29 30  0  0  0  0  0  0  0  0999 V2000
    3.7060   18.3200   37.9020 C   0  0  0  0  0
    4.5620   18.8070   36.7110 C   0  0  0  0  0
    5.5780   17.8000   36.3150 N   0  3  0  0  0
    6.8930   17.9220   37.0030 C   0  0  0  0  0
    6.9100   17.5160   38.4990 C   0  0  0  0  0
    5.7150   18.0200   39.3330 C   0  0  0  0  0
    4.4430   17.4530   38.8370 N   0  0  0  0  0
    2.5700   13.9780   40.1520 C   0  0  0  0  0
    1.8470   14.8870   39.4650 N   0  0  0  0  0
    2.4990   16.0000   39.0510 C   0  0  0  0  0
    3.8830   16.2870   39.2750 C   0  0  0  0  0
    4.6090   15.3110   39.9950 C   0  0  0  0  0
    3.9380   14.1500   40.4360 C   0  0  0  0  0
    2.8796   17.7369   37.4956 H   0  0  0  0  0
    3.3833   19.2012   38.4564 H   0  0  0  0  0
    5.0806   19.7175   37.0112 H   0  0  0  0  0
    3.9010   18.9795   35.8616 H   0  0  0  0  0
    5.7542   17.9374   35.3198 H   0  0  0  0  0
    5.1992   16.8870   36.5668 H   0  0  0  0  0
    7.1633   18.9773   36.9667 H   0  0  0  0  0
    7.5733   17.2414   36.4910 H   0  0  0  0  0
    7.8041   17.9632   38.9333 H   0  0  0  0  0
    6.8726   16.4270   38.5270 H   0  0  0  0  0
    5.6674   19.1060   39.2533 H   0  0  0  0  0
    5.8558   17.7083   40.3680 H   0  0  0  0  0
    2.0739   13.0726   40.5017 H   0  0  0  0  0
    1.9196   16.7407   38.4998 H   0  0  0  0  0
    5.6690   15.4525   40.2061 H   0  0  0  0  0
    4.4788   13.3872   40.9961 H   0  0  0  0  0
  1  2  1  0  0  0
  7  1  1  0  0  0
  2  3  1  0  0  0
  4  3  1  0  0  0
  5  4  1  0  0  0
  6  5  1  0  0  0
  7  6  1  0  0  0
 11  7  1  0  0  0
  9  8  4  0  0  0
  8 13  4  0  0  0
 10  9  4  0  0  0
 10 11  4  0  0  0
 11 12  4  0  0  0
 12 13  4  0  0  0
  1 14  1  0  0  0
  1 15  1  0  0  0
  2 16  1  0  0  0
  2 17  1  0  0  0
  3 18  1  0  0  0
  3 19  1  0  0  0
  4 20  1  0  0  0
  4 21  1  0  0  0
  5 22  1  0  0  0
  5 23  1  0  0  0
  6 24  1  0  0  0
  6 25  1  0  0  0
  8 26  1  0  0  0
 10 27  1  0  0  0
 12 28  1  0  0  0
 13 29  1  0  0  0
M  END
$$$$
