2yb9_ligand
  -I-interpret- 

 62 64  0  0  0  0  0  0  0  0999 V2000
   30.2360   43.2290   35.1230 C   0  0  0  0  0
   29.2320   43.0360   36.0120 N   0  0  0  0  0
   31.2550   42.5490   34.9840 O   0  0  0  0  0
   29.3080   40.6310   36.2670 C   0  0  0  0  0
   30.5670   40.1670   36.3760 O   0  0  0  0  0
   28.8450   40.8130   39.9910 N   0  0  0  0  0
   31.2630   44.9330   33.5270 C   0  0  0  0  0
   29.7030   45.7400   35.2070 C   0  0  0  0  0
   31.0280   41.3130   40.1940 O   0  0  0  0  0
   28.6480   42.8650   32.5890 C   0  0  0  0  0
   29.4180   40.1800   41.2280 C   0  0  0  0  0
   25.8050   40.5790   31.2640 C   0  0  0  0  0
   27.2130   41.0850   31.5640 C   0  0  0  0  0
   30.0150   42.3270   38.1990 C   0  0  0  0  0
   29.0790   41.9900   37.0120 C   0  0  0  0  0
   31.5950   39.3050   43.3960 C   0  0  0  0  0
   32.6720   39.0000   44.2800 C   0  0  0  0  0
   33.9870   39.5090   44.0080 C   0  0  0  0  0
   29.9560   44.4950   34.2850 C   0  0  0  0  0
   27.2660   42.4580   32.1900 C   0  0  0  0  0
   29.4710   43.1400   31.3540 C   0  0  0  0  0
   31.8290   40.1540   42.2550 C   0  0  0  0  0
   33.1710   40.6550   42.0490 C   0  0  0  0  0
   32.0110   45.9980   34.3770 C   0  0  0  0  0
   29.5540   44.1210   30.6230 O   0  0  0  0  0
   31.1140   46.2290   35.6070 C   0  0  0  0  0
   30.2240   42.1190   31.2630 O   0  0  0  0  0
   30.7490   40.5230   41.2660 C   0  0  0  0  0
   28.7030   44.2040   33.4010 C   0  0  0  0  0
   28.4490   40.1060   35.5840 O   0  0  0  0  0
   29.9020   41.4570   39.4680 C   0  0  0  0  0
   34.2490   40.3390   42.9230 C   0  0  0  0  0
   28.4767   43.7206   35.9751 H   0  0  0  0  0
   31.0671   40.7370   36.9648 H   0  0  0  0  0
   31.0003   45.3561   32.5574 H   0  0  0  0  0
   31.9068   44.0666   33.3753 H   0  0  0  0  0
   29.1004   45.4837   36.0784 H   0  0  0  0  0
   29.1351   46.5161   34.6938 H   0  0  0  0  0
   29.0186   42.0416   33.1996 H   0  0  0  0  0
   28.8825   39.5680   41.9538 H   0  0  0  0  0
   25.2337   40.5273   32.1909 H   0  0  0  0  0
   25.3146   41.2627   30.5711 H   0  0  0  0  0
   25.8645   39.5869   30.8165 H   0  0  0  0  0
   27.7384   41.1488   30.6111 H   0  0  0  0  0
   27.6551   40.3915   32.2793 H   0  0  0  0  0
   29.7412   43.3351   38.5102 H   0  0  0  0  0
   31.0274   42.1708   37.8266 H   0  0  0  0  0
   28.0926   41.9105   37.4689 H   0  0  0  0  0
   30.6009   38.8985   43.5822 H   0  0  0  0  0
   32.4972   38.3817   45.1605 H   0  0  0  0  0
   34.8062   39.2361   44.6732 H   0  0  0  0  0
   26.9095   43.1744   31.4499 H   0  0  0  0  0
   26.6531   42.4360   33.0911 H   0  0  0  0  0
   33.3637   41.2994   41.1912 H   0  0  0  0  0
   32.1741   46.9192   33.8176 H   0  0  0  0  0
   33.0074   45.6601   34.6618 H   0  0  0  0  0
   31.4878   45.6853   36.4746 H   0  0  0  0  0
   31.1000   47.2810   35.8921 H   0  0  0  0  0
   29.9770   41.4797   31.9352 H   0  0  0  0  0
   27.8702   44.1443   34.1017 H   0  0  0  0  0
   28.6990   44.9919   32.6478 H   0  0  0  0  0
   35.2491   40.7352   42.7475 H   0  0  0  0  0
  2  1  1  0  0  0
  1  3  2  0  0  0
  1 19  1  0  0  0
 15  2  1  0  0  0
  4  5  1  0  0  0
 15  4  1  0  0  0
  4 30  2  0  0  0
 11  6  4  0  0  0
  6 31  4  0  0  0
 19  7  1  0  0  0
  7 24  1  0  0  0
 19  8  1  0  0  0
  8 26  1  0  0  0
 28  9  4  0  0  0
  9 31  4  0  0  0
 10 20  1  0  0  0
 10 21  1  0  0  0
 29 10  1  0  0  0
 28 11  4  0  0  0
 13 12  1  0  0  0
 20 13  1  0  0  0
 14 15  1  0  0  0
 31 14  1  0  0  0
 16 17  4  0  0  0
 22 16  4  0  0  0
 17 18  4  0  0  0
 18 32  4  0  0  0
 19 29  1  0  0  0
 21 25  2  0  0  0
 21 27  1  0  0  0
 22 23  4  0  0  0
 22 28  1  0  0  0
 23 32  4  0  0  0
 24 26  1  0  0  0
  2 33  1  0  0  0
  5 34  1  0  0  0
  7 35  1  0  0  0
  7 36  1  0  0  0
  8 37  1  0  0  0
  8 38  1  0  0  0
 10 39  1  0  0  0
 11 40  1  0  0  0
 12 41  1  0  0  0
 12 42  1  0  0  0
 12 43  1  0  0  0
 13 44  1  0  0  0
 13 45  1  0  0  0
 14 46  1  0  0  0
 14 47  1  0  0  0
 15 48  1  0  0  0
 16 49  1  0  0  0
 17 50  1  0  0  0
 18 51  1  0  0  0
 20 52  1  0  0  0
 20 53  1  0  0  0
 23 54  1  0  0  0
 24 55  1  0  0  0
 24 56  1  0  0  0
 26 57  1  0  0  0
 26 58  1  0  0  0
 27 59  1  0  0  0
 29 60  1  0  0  0
 29 61  1  0  0  0
 32 62  1  0  0  0
M  END
$$$$
