3wmb_ligand
  -I-interpret- 

 47 50  0  0  0  0  0  0  0  0999 V2000
   32.1420    1.6440   14.1680 O   0  0  0  0  0
   33.3680    2.2800   14.1380 C   0  0  0  0  0
   33.5550    3.5480   14.9180 C   0  0  0  0  0
   34.8350    4.1760   14.8670 C   0  0  0  0  0
   32.4910    4.1420   15.7200 C   0  0  0  0  0
   32.7310    5.3440   16.4420 C   0  0  0  0  0
   34.0020    5.9680   16.3870 C   0  0  0  0  0
   35.0710    5.3690   15.5830 C   0  0  0  0  0
   36.3910    6.0130   15.5200 C   0  0  0  0  0
   37.4270    5.4220   14.7380 C   0  0  0  0  0
   37.1940    4.2150   14.0140 C   0  0  0  0  0
   35.8830    3.5750   14.0730 C   0  0  0  0  0
   35.6350    2.3170   13.3190 C   0  0  0  0  0
   36.6550    1.7230   12.5400 O   0  0  0  0  0
   34.3840    1.7310   13.3970 N   0  3  0  0  0
   34.1130    0.4780   12.6420 C   0  0  0  0  0
   34.9480   -0.7550   12.8730 C   0  0  0  0  0
   35.5720   -1.3480   11.6590 N   0  3  0  0  0
   35.5850   -2.7750   11.7340 C   0  0  0  0  0
   36.8630   -3.4130   11.3270 C   0  0  0  0  0
   37.2050   -4.2640    9.8780 S   0  0  0  0  0
   38.0310   -3.4230   12.0370 N   0  0  0  0  0
   39.0860   -4.0570   11.4600 N   0  0  0  0  0
   38.8760   -4.6140   10.2520 C   0  0  0  0  0
   39.8790   -5.3710    9.4160 C   0  0  0  0  0
   31.5377    2.1424   14.7231 H   0  0  0  0  0
   34.2648    2.8965   14.0762 H   0  0  0  0  0
   31.5121    3.6648   15.7660 H   0  0  0  0  0
   31.9342    5.7866   17.0397 H   0  0  0  0  0
   34.1839    6.8894   16.9402 H   0  0  0  0  0
   36.5769    6.9368   16.0678 H   0  0  0  0  0
   38.4068    5.8974   14.6930 H   0  0  0  0  0
   37.9923    3.7719   13.4186 H   0  0  0  0  0
   36.4938    2.2003   12.6580 H   0  0  0  0  0
   36.3174    0.9242   12.1282 H   0  0  0  0  0
   34.9164    2.2662   14.0830 H   0  0  0  0  0
   34.3113    0.7439   11.6037 H   0  0  0  0  0
   33.1122    0.1860   12.9601 H   0  0  0  0  0
   34.2756   -1.5124   13.2759 H   0  0  0  0  0
   35.7674   -0.4552   13.5263 H   0  0  0  0  0
   36.5338   -1.0154   11.5901 H   0  0  0  0  0
   35.0286   -1.0684   10.8423 H   0  0  0  0  0
   34.8206   -3.1334   11.0445 H   0  0  0  0  0
   35.4214   -3.0368   12.7794 H   0  0  0  0  0
   39.5159   -6.3843    9.2443 H   0  0  0  0  0
   40.0099   -4.8638    8.4601 H   0  0  0  0  0
   40.8330   -5.4097    9.9419 H   0  0  0  0  0
  1  2  1  0  0  0
  2  3  1  0  0  0
  2 15  1  0  0  0
  3  4  4  0  0  0
  3  5  4  0  0  0
  4  8  4  0  0  0
  4 12  4  0  0  0
  5  6  4  0  0  0
  6  7  4  0  0  0
  7  8  4  0  0  0
  8  9  4  0  0  0
  9 10  4  0  0  0
 10 11  4  0  0  0
 11 12  4  0  0  0
 12 13  1  0  0  0
 13 14  1  0  0  0
 13 15  1  0  0  0
 15 16  1  0  0  0
 16 17  1  0  0  0
 17 18  1  0  0  0
 18 19  1  0  0  0
 19 20  1  0  0  0
 20 21  4  0  0  0
 20 22  4  0  0  0
 21 24  4  0  0  0
 22 23  4  0  0  0
 23 24  4  0  0  0
 24 25  1  0  0  0
  1 26  1  0  0  0
  2 27  1  0  0  0
  5 28  1  0  0  0
  6 29  1  0  0  0
  7 30  1  0  0  0
  9 31  1  0  0  0
 10 32  1  0  0  0
 11 33  1  0  0  0
 13 34  1  0  0  0
 14 35  1  0  0  0
 15 36  1  0  0  0
 16 37  1  0  0  0
 16 38  1  0  0  0
 17 39  1  0  0  0
 17 40  1  0  0  0
 18 41  1  0  0  0
 18 42  1  0  0  0
 19 43  1  0  0  0
 19 44  1  0  0  0
 25 45  1  0  0  0
 25 46  1  0  0  0
 25 47  1  0  0  0
M  END
$$$$
