### 
### Created by X-TOOL on Mon Sep 10 21:13:28 2018
### 

@<TRIPOS>MOLECULE
5ekg_ligand
  109   108     1     0     0
SMALL
GAST_HUCK


@<TRIPOS>ATOM
      1 N          43.8690   51.9310   39.0250 N.4       1 ARG         0.2379
      2 CA         42.4600   52.2280   38.7840 C.3       1 ARG         0.0651
      3 C          41.9820   53.4160   39.6620 C.2       1 ARG         0.2267
      4 O          41.1640   54.2370   39.2020 O.2       1 ARG        -0.3907
      5 CB         41.5920   50.9730   39.0400 C.3       1 ARG         0.0110
      6 CG         41.4820   49.9470   37.9070 C.3       1 ARG        -0.0125
      7 CD         40.9140   48.6310   38.4700 C.3       1 ARG         0.0629
      8 NE         41.1090   47.4470   37.6090 N.pl3     1 ARG        -0.2723
      9 CZ         41.4620   46.2280   38.0460 C.cat     1 ARG         0.2882
     10 NH1        41.6860   46.0040   39.3480 N.pl3     1 ARG        -0.2849
     11 NH2        41.6020   45.2220   37.1810 N.pl3     1 ARG        -0.2849
     12 N          42.4900   53.4990   40.9060 N.am      1 LYS        -0.2610
     13 CA         42.0720   54.5290   41.8840 C.3       1 LYS         0.1311
     14 C          42.5740   55.9220   41.5110 C.2       1 LYS         0.2039
     15 O          43.7140   56.0800   41.0640 O.2       1 LYS        -0.3944
     16 CB         42.5630   54.2060   43.3110 C.3       1 LYS        -0.0122
     17 CG         42.1590   52.8390   43.8620 C.3       1 LYS        -0.0440
     18 CD         41.0550   52.8980   44.9060 C.3       1 LYS        -0.0124
     19 CE         40.6490   51.4960   45.3590 C.3       1 LYS        -0.0354
     20 NZ         39.4030   51.4220   46.1860 N.4       1 LYS         0.2185
     21 N          41.7320   56.9310   41.7210 N.am      1 ARG        -0.2637
     22 CA         42.0660   58.2930   41.3290 C.3       1 ARG         0.1311
     23 C          41.9390   59.3290   42.4570 C.2       1 ARG         0.2039
     24 O          40.8370   59.8110   42.7720 O.2       1 ARG        -0.3944
     25 CB         41.1890   58.7330   40.1590 C.3       1 ARG        -0.0092
     26 CG         41.2870   57.8840   38.9240 C.3       1 ARG        -0.0156
     27 CD         40.0200   58.0400   38.0940 C.3       1 ARG         0.0627
     28 NE         39.7190   59.4390   37.7820 N.pl3     1 ARG        -0.2723
     29 CZ         38.5390   60.0180   38.0080 C.cat     1 ARG         0.2882
     30 NH1        37.5530   59.3110   38.5620 N.pl3     1 ARG        -0.2849
     31 NH2        38.3430   61.2980   37.6810 N.pl3     1 ARG        -0.2849
     32 N          43.0790   59.6880   43.0370 N.am      1 LYS        -0.2637
     33 CA         43.1720   60.8140   43.9600 C.3       1 LYS         0.1309
     34 C          43.0450   62.1440   43.1650 C.2       1 LYS         0.2034
     35 O          43.3110   62.1510   41.9590 O.2       1 LYS        -0.3944
     36 CB         44.4960   60.7130   44.7370 C.3       1 LYS        -0.0122
     37 CG         44.5020   59.6160   45.8070 C.3       1 LYS        -0.0440
     38 CD         45.8660   59.4760   46.4640 C.3       1 LYS        -0.0124
     39 CE         45.9860   58.1900   47.2850 C.3       1 LYS        -0.0354
     40 NZ         45.1720   58.2170   48.5340 N.4       1 LYS         0.2185
     41 N          42.6120   63.2560   43.7780 N.am      1 THR        -0.2670
     42 CA         42.1600   63.3450   45.1740 C.3       1 THR         0.1198
     43 C          41.2320   64.5670   45.4000 C.2       1 THR         0.0626
     44 O          41.4950   65.6880   44.9360 O.co2     1 THR        -0.5665
     45 CB         43.3700   63.4190   46.1710 C.3       1 THR         0.0869
     46 OG1        42.9310   63.1330   47.5110 O.3       1 THR        -0.3880
     47 CG2        44.1580   64.7650   46.0560 C.3       1 THR        -0.0352
     48 OXT        40.1810   64.4830   46.0560 O.co2     1 THR        -0.5665
     49 H1         44.1535   51.1579   38.4441 H         1 ARG         0.2015
     50 H2         44.0003   51.6888   39.9946 H         1 ARG         0.2015
     51 H3         44.4260   52.7411   38.8026 H         1 ARG         0.2015
     52 H4         42.3459   52.5156   37.7284 H         1 ARG         0.1098
     53 H5         40.5737   51.3181   39.2722 H         1 ARG         0.0347
     54 H6         42.0118   50.4545   39.9146 H         1 ARG         0.0347
     55 H7         42.4783   49.7641   37.4781 H         1 ARG         0.0302
     56 H8         40.8113   50.3326   37.1251 H         1 ARG         0.0302
     57 H9         39.8334   48.7650   38.6259 H         1 ARG         0.0689
     58 H10        41.4023   48.4344   39.4359 H         1 ARG         0.0689
     59 H11        40.9630   47.5657   36.5963 H         1 ARG         0.2642
     60 H12        41.9563   45.0636   39.6697 H         1 ARG         0.2615
     61 H13        41.5879   46.7722   40.0271 H         1 ARG         0.2615
     62 H14        41.4333   45.3788   36.1771 H         1 ARG         0.2615
     63 H15        41.8788   44.2886   37.5171 H         1 ARG         0.2615
     64 H16        43.1828   52.8331   41.1827 H         1 LYS         0.1884
     65 H17        40.9722   54.5498   41.8931 H         1 LYS         0.0800
     66 H18        42.1611   54.9744   43.9878 H         1 LYS         0.0312
     67 H19        43.6618   54.2573   43.3092 H         1 LYS         0.0312
     68 H20        43.0446   52.3746   44.3202 H         1 LYS         0.0269
     69 H21        41.8107   52.2169   43.0243 H         1 LYS         0.0269
     70 H22        40.1788   53.4034   44.4738 H         1 LYS         0.0317
     71 H23        41.4140   53.4666   45.7765 H         1 LYS         0.0317
     72 H24        41.4755   51.0791   45.9532 H         1 LYS         0.0813
     73 H25        40.4964   50.8803   44.4604 H         1 LYS         0.0813
     74 H26        39.2206   50.4620   46.4335 H         1 LYS         0.1994
     75 H27        38.6262   51.7859   45.6566 H         1 LYS         0.1994
     76 H28        39.5234   51.9681   47.0246 H         1 LYS         0.1994
     77 H29        40.8507   56.7498   42.1575 H         1 ARG         0.1883
     78 H30        43.1146   58.2903   40.9966 H         1 ARG         0.0800
     79 H31        41.4752   59.7600   39.8881 H         1 ARG         0.0313
     80 H32        40.1421   58.7210   40.4965 H         1 ARG         0.0313
     81 H33        41.4073   56.8296   39.2134 H         1 ARG         0.0301
     82 H34        42.1557   58.2024   38.3290 H         1 ARG         0.0301
     83 H35        39.1757   57.6152   38.6568 H         1 ARG         0.0689
     84 H36        40.1466   57.4883   37.1509 H         1 ARG         0.0689
     85 H37        40.4652   60.0114   37.3618 H         1 ARG         0.2642
     86 H38        36.6394   59.7524   38.7391 H         1 ARG         0.2615
     87 H39        37.7052   58.3236   38.8127 H         1 ARG         0.2615
     88 H40        39.1053   61.8428   37.2532 H         1 ARG         0.2615
     89 H41        37.4295   61.7403   37.8566 H         1 ARG         0.2615
     90 H42        43.9067   59.1654   42.8327 H         1 LYS         0.1883
     91 H43        42.3414   60.7596   44.6791 H         1 LYS         0.0800
     92 H44        44.6841   61.6786   45.2291 H         1 LYS         0.0312
     93 H45        45.3037   60.5031   44.0204 H         1 LYS         0.0312
     94 H46        44.2332   58.6585   45.3369 H         1 LYS         0.0269
     95 H47        43.7592   59.8670   46.5785 H         1 LYS         0.0269
     96 H48        46.0282   60.3368   47.1293 H         1 LYS         0.0317
     97 H49        46.6373   59.4682   45.6798 H         1 LYS         0.0317
     98 H50        47.0418   58.0458   47.5580 H         1 LYS         0.0813
     99 H51        45.6489   57.3460   46.6654 H         1 LYS         0.0813
    100 H52        45.2902   57.3480   49.0309 H         1 LYS         0.1994
    101 H53        44.1996   58.3399   48.2988 H         1 LYS         0.1994
    102 H54        45.4760   58.9812   49.1167 H         1 LYS         0.1994
    103 H55        42.5953   64.0977   43.2383 H         1 THR         0.1876
    104 H56        41.5866   62.4335   45.3983 H         1 THR         0.0752
    105 H57        44.0717   62.6210   45.8867 H         1 THR         0.0632
    106 H58        43.6724   63.1812   48.1030 H         1 THR         0.2100
    107 H59        44.9918   64.7642   46.7735 H         1 THR         0.0256
    108 H60        43.4835   65.6049   46.2786 H         1 THR         0.0256
    109 H61        44.5530   64.8726   45.0350 H         1 THR         0.0256
@<TRIPOS>BOND
     1    1    2 1  
     2    2    3 1  
     3    2    5 1  
     4    3    4 2  
     5    3   12 am 
     6    5    6 1  
     7    6    7 1  
     8    7    8 1  
     9    8    9 ar 
    10    9   10 ar 
    11    9   11 ar 
    12   12   13 1  
    13   13   14 1  
    14   13   16 1  
    15   14   15 2  
    16   14   21 am 
    17   16   17 1  
    18   17   18 1  
    19   18   19 1  
    20   19   20 1  
    21   21   22 1  
    22   22   23 1  
    23   22   25 1  
    24   23   24 2  
    25   23   32 am 
    26   25   26 1  
    27   26   27 1  
    28   27   28 1  
    29   28   29 ar 
    30   29   30 ar 
    31   29   31 ar 
    32   32   33 1  
    33   33   34 1  
    34   33   36 1  
    35   34   35 2  
    36   34   41 am 
    37   36   37 1  
    38   37   38 1  
    39   38   39 1  
    40   39   40 1  
    41   41   42 1  
    42   42   43 1  
    43   42   45 1  
    44   43   44 ar 
    45   43   48 ar 
    46   45   46 1  
    47   45   47 1  
    48    1   49 1  
    49    1   50 1  
    50    1   51 1  
    51    2   52 1  
    52    5   53 1  
    53    5   54 1  
    54    6   55 1  
    55    6   56 1  
    56    7   57 1  
    57    7   58 1  
    58    8   59 1  
    59   10   60 1  
    60   10   61 1  
    61   11   62 1  
    62   11   63 1  
    63   12   64 1  
    64   13   65 1  
    65   16   66 1  
    66   16   67 1  
    67   17   68 1  
    68   17   69 1  
    69   18   70 1  
    70   18   71 1  
    71   19   72 1  
    72   19   73 1  
    73   20   74 1  
    74   20   75 1  
    75   20   76 1  
    76   21   77 1  
    77   22   78 1  
    78   25   79 1  
    79   25   80 1  
    80   26   81 1  
    81   26   82 1  
    82   27   83 1  
    83   27   84 1  
    84   28   85 1  
    85   30   86 1  
    86   30   87 1  
    87   31   88 1  
    88   31   89 1  
    89   32   90 1  
    90   33   91 1  
    91   36   92 1  
    92   36   93 1  
    93   37   94 1  
    94   37   95 1  
    95   38   96 1  
    96   38   97 1  
    97   39   98 1  
    98   39   99 1  
    99   40  100 1  
   100   40  101 1  
   101   40  102 1  
   102   41  103 1  
   103   42  104 1  
   104   45  105 1  
   105   46  106 1  
   106   47  107 1  
   107   47  108 1  
   108   47  109 1  
@<TRIPOS>SUBSTRUCTURE
     1 ARG         1

