5ekg_ligand
  -I-interpret- 

108107  0  0  0  0  0  0  0  0999 V2000
   43.8690   51.9310   39.0250 N   0  3  0  0  0
   42.4600   52.2280   38.7840 C   0  0  0  0  0
   41.9820   53.4160   39.6620 C   0  0  0  0  0
   41.1640   54.2370   39.2020 O   0  0  0  0  0
   41.5920   50.9730   39.0400 C   0  0  0  0  0
   41.4820   49.9470   37.9070 C   0  0  0  0  0
   40.9140   48.6310   38.4700 C   0  0  0  0  0
   41.1090   47.4470   37.6090 N   0  0  0  0  0
   41.4620   46.2280   38.0460 C   0  0  0  0  0
   41.6860   46.0040   39.3480 N   0  0  0  0  0
   41.6020   45.2220   37.1810 N   0  0  0  0  0
   42.4900   53.4990   40.9060 N   0  0  0  0  0
   42.0720   54.5290   41.8840 C   0  0  0  0  0
   42.5740   55.9220   41.5110 C   0  0  0  0  0
   43.7140   56.0800   41.0640 O   0  0  0  0  0
   42.5630   54.2060   43.3110 C   0  0  0  0  0
   42.1590   52.8390   43.8620 C   0  0  0  0  0
   41.0550   52.8980   44.9060 C   0  0  0  0  0
   40.6490   51.4960   45.3590 C   0  0  0  0  0
   39.4030   51.4220   46.1860 N   0  3  0  0  0
   41.7320   56.9310   41.7210 N   0  0  0  0  0
   42.0660   58.2930   41.3290 C   0  0  0  0  0
   41.9390   59.3290   42.4570 C   0  0  0  0  0
   40.8370   59.8110   42.7720 O   0  0  0  0  0
   41.1890   58.7330   40.1590 C   0  0  0  0  0
   41.2870   57.8840   38.9240 C   0  0  0  0  0
   40.0200   58.0400   38.0940 C   0  0  0  0  0
   39.7190   59.4390   37.7820 N   0  0  0  0  0
   38.5390   60.0180   38.0080 C   0  0  0  0  0
   37.5530   59.3110   38.5620 N   0  0  0  0  0
   38.3430   61.2980   37.6810 N   0  0  0  0  0
   43.0790   59.6880   43.0370 N   0  0  0  0  0
   43.1720   60.8140   43.9600 C   0  0  0  0  0
   43.0450   62.1440   43.1650 C   0  0  0  0  0
   43.3110   62.1510   41.9590 O   0  0  0  0  0
   44.4960   60.7130   44.7370 C   0  0  0  0  0
   44.5020   59.6160   45.8070 C   0  0  0  0  0
   45.8660   59.4760   46.4640 C   0  0  0  0  0
   45.9860   58.1900   47.2850 C   0  0  0  0  0
   45.1720   58.2170   48.5340 N   0  3  0  0  0
   42.6120   63.2560   43.7780 N   0  0  0  0  0
   42.1600   63.3450   45.1740 C   0  0  0  0  0
   41.2320   64.5670   45.4000 C   0  0  0  0  0
   41.4950   65.6880   44.9360 O   0  0  0  0  0
   43.3700   63.4190   46.1710 C   0  0  0  0  0
   42.9310   63.1330   47.5110 O   0  0  0  0  0
   44.1580   64.7650   46.0560 C   0  0  0  0  0
   40.1810   64.4830   46.0560 O   0  0  0  0  0
   44.4260   52.7677   38.8519 H   0  0  0  0  0
   43.9918   51.6336   39.9929 H   0  0  0  0  0
   44.1701   51.1849   38.3980 H   0  0  0  0  0
   42.3478   52.5187   37.7395 H   0  0  0  0  0
   40.5795   51.3437   39.1999 H   0  0  0  0  0
   42.0712   50.4479   39.8663 H   0  0  0  0  0
   42.4683   49.7667   37.4794 H   0  0  0  0  0
   40.8195   50.3290   37.1303 H   0  0  0  0  0
   39.8379   48.7714   38.5724 H   0  0  0  0  0
   41.4441   48.4329   39.4016 H   0  0  0  0  0
   40.9644   47.5646   36.6062 H   0  0  0  0  0
   41.9596   45.0742   39.6658 H   0  0  0  0  0
   41.5830   46.7633   40.0212 H   0  0  0  0  0
   41.4407   45.3787   36.1861 H   0  0  0  0  0
   43.1967   52.8198   41.1883 H   0  0  0  0  0
   40.9823   54.5204   41.8608 H   0  0  0  0  0
   42.1087   54.9482   43.9674 H   0  0  0  0  0
   43.6522   54.2107   43.2694 H   0  0  0  0  0
   43.0381   52.4105   44.3433 H   0  0  0  0  0
   41.7831   52.2502   43.0253 H   0  0  0  0  0
   40.1858   53.3875   44.4666 H   0  0  0  0  0
   41.4224   53.4507   45.7706 H   0  0  0  0  0
   41.4601   51.1250   45.9855 H   0  0  0  0  0
   40.4554   50.9209   44.4535 H   0  0  0  0  0
   39.2194   50.4503   46.4358 H   0  0  0  0  0
   39.5260   51.9750   47.0342 H   0  0  0  0  0
   38.6178   51.7905   45.6493 H   0  0  0  0  0
   40.8331   56.7462   42.1663 H   0  0  0  0  0
   43.1186   58.2610   41.0476 H   0  0  0  0  0
   41.5243   59.7312   39.8774 H   0  0  0  0  0
   40.1565   58.6651   40.5017 H   0  0  0  0  0
   41.4049   56.8392   39.2115 H   0  0  0  0  0
   42.1472   58.2009   38.3343 H   0  0  0  0  0
   39.1882   57.6394   38.6735 H   0  0  0  0  0
   40.1688   57.5111   37.1526 H   0  0  0  0  0
   40.4579   60.0058   37.3659 H   0  0  0  0  0
   37.7037   58.3332   38.8103 H   0  0  0  0  0
   37.4384   61.7360   37.8549 H   0  0  0  0  0
   39.0979   61.8375   37.2574 H   0  0  0  0  0
   43.9233   59.1549   42.8286 H   0  0  0  0  0
   42.3593   60.7935   44.6861 H   0  0  0  0  0
   44.6480   61.6648   45.2460 H   0  0  0  0  0
   45.2778   60.4699   44.0174 H   0  0  0  0  0
   44.2534   58.6689   45.3282 H   0  0  0  0  0
   43.7771   59.8832   46.5759 H   0  0  0  0  0
   46.0052   60.3215   47.1377 H   0  0  0  0  0
   46.6191   59.4460   45.6766 H   0  0  0  0  0
   47.0312   58.0764   47.5726 H   0  0  0  0  0
   45.6213   57.3680   46.6691 H   0  0  0  0  0
   45.2924   57.3372   49.0359 H   0  0  0  0  0
   45.4805   58.9907   49.1228 H   0  0  0  0  0
   44.1883   58.3415   48.2947 H   0  0  0  0  0
   42.5949   64.1145   43.2275 H   0  0  0  0  0
   41.5954   62.4340   45.3724 H   0  0  0  0  0
   44.0878   62.6478   45.8917 H   0  0  0  0  0
   43.6802   63.1817   48.1092 H   0  0  0  0  0
   44.5488   64.8704   45.0439 H   0  0  0  0  0
   43.4886   65.5964   46.2768 H   0  0  0  0  0
   44.9838   64.7630   46.7674 H   0  0  0  0  0
   40.0710   63.5818   46.3679 H   0  0  0  0  0
  1  2  1  0  0  0
  2  3  1  0  0  0
  2  5  1  0  0  0
  3  4  2  0  0  0
  3 12  1  0  0  0
  5  6  1  0  0  0
  6  7  1  0  0  0
  7  8  1  0  0  0
  8  9  1  0  0  0
  9 10  1  0  0  0
  9 11  2  0  0  0
 12 13  1  0  0  0
 13 14  1  0  0  0
 13 16  1  0  0  0
 14 15  2  0  0  0
 14 21  1  0  0  0
 16 17  1  0  0  0
 17 18  1  0  0  0
 18 19  1  0  0  0
 19 20  1  0  0  0
 21 22  1  0  0  0
 22 23  1  0  0  0
 22 25  1  0  0  0
 23 24  2  0  0  0
 23 32  1  0  0  0
 25 26  1  0  0  0
 26 27  1  0  0  0
 27 28  1  0  0  0
 28 29  1  0  0  0
 29 30  2  0  0  0
 29 31  1  0  0  0
 32 33  1  0  0  0
 33 34  1  0  0  0
 33 36  1  0  0  0
 34 35  2  0  0  0
 34 41  1  0  0  0
 36 37  1  0  0  0
 37 38  1  0  0  0
 38 39  1  0  0  0
 39 40  1  0  0  0
 41 42  1  0  0  0
 42 43  1  0  0  0
 42 45  1  0  0  0
 43 44  2  0  0  0
 43 48  1  0  0  0
 45 46  1  0  0  0
 45 47  1  0  0  0
  1 49  1  0  0  0
  1 50  1  0  0  0
  1 51  1  0  0  0
  2 52  1  0  0  0
  5 53  1  0  0  0
  5 54  1  0  0  0
  6 55  1  0  0  0
  6 56  1  0  0  0
  7 57  1  0  0  0
  7 58  1  0  0  0
  8 59  1  0  0  0
 10 60  1  0  0  0
 10 61  1  0  0  0
 11 62  1  0  0  0
 12 63  1  0  0  0
 13 64  1  0  0  0
 16 65  1  0  0  0
 16 66  1  0  0  0
 17 67  1  0  0  0
 17 68  1  0  0  0
 18 69  1  0  0  0
 18 70  1  0  0  0
 19 71  1  0  0  0
 19 72  1  0  0  0
 20 73  1  0  0  0
 20 74  1  0  0  0
 20 75  1  0  0  0
 21 76  1  0  0  0
 22 77  1  0  0  0
 25 78  1  0  0  0
 25 79  1  0  0  0
 26 80  1  0  0  0
 26 81  1  0  0  0
 27 82  1  0  0  0
 27 83  1  0  0  0
 28 84  1  0  0  0
 30 85  1  0  0  0
 31 86  1  0  0  0
 31 87  1  0  0  0
 32 88  1  0  0  0
 33 89  1  0  0  0
 36 90  1  0  0  0
 36 91  1  0  0  0
 37 92  1  0  0  0
 37 93  1  0  0  0
 38 94  1  0  0  0
 38 95  1  0  0  0
 39 96  1  0  0  0
 39 97  1  0  0  0
 40 98  1  0  0  0
 40 99  1  0  0  0
 40100  1  0  0  0
 41101  1  0  0  0
 42102  1  0  0  0
 45103  1  0  0  0
 46104  1  0  0  0
 47105  1  0  0  0
 47106  1  0  0  0
 47107  1  0  0  0
 48108  1  0  0  0
M  END
$$$$
