3tkw_ligand
  -I-interpret- 

 75 78  0  0  0  0  0  0  0  0999 V2000
  -16.8750   26.1950  -21.1310 N   0  0  0  0  0
  -15.9990   25.5120  -20.4360 C   0  0  0  0  0
  -15.5820   24.3470  -21.0680 C   0  0  0  0  0
  -14.6470   23.5180  -20.4380 C   0  0  0  0  0
  -14.1450   23.8660  -19.1950 C   0  0  0  0  0
  -14.5510   25.0220  -18.5550 C   0  0  0  0  0
  -15.4810   25.8450  -19.1810 C   0  0  0  0  0
  -12.9690   22.8620  -18.3610 S   0  0  0  0  0
  -11.9750   22.3610  -19.3540 O   0  0  0  0  0
  -12.3610   23.6910  -17.2770 O   0  0  0  0  0
  -13.7060   21.5720  -17.7020 N   0  0  0  0  0
  -14.8000   21.8230  -16.7950 C   0  0  0  0  0
  -14.7620   20.8190  -15.6420 C   0  0  0  0  0
  -13.4030   20.8610  -14.9230 C   0  0  0  0  0
  -15.9180   21.0490  -14.6610 C   0  0  0  0  0
  -13.9340   20.5210  -18.6830 C   0  0  0  0  0
  -13.1620   19.2550  -18.3170 C   0  0  0  0  0
  -13.6170   18.1480  -19.1090 O   0  0  0  0  0
  -11.6500   19.3880  -18.5590 C   0  0  0  0  0
  -11.0230   18.2120  -17.9500 N   0  0  0  0  0
  -10.1500   18.2790  -16.9390 C   0  0  0  0  0
   -9.8550   19.3480  -16.4010 O   0  0  0  0  0
   -9.6010   17.1200  -16.5390 O   0  0  0  0  0
   -8.5260   17.0920  -15.6360 C   0  0  0  0  0
   -8.7100   15.8470  -14.7530 C   0  0  0  0  0
   -8.2900   14.7780  -15.6160 O   0  0  0  0  0
   -7.1900   15.2470  -16.3940 C   0  0  0  0  0
   -7.3580   14.8840  -17.7770 O   0  0  0  0  0
   -7.6450   16.0470  -18.5340 C   0  0  0  0  0
   -7.0730   17.2360  -17.7570 C   0  0  0  0  0
   -7.1770   16.7660  -16.2940 C   0  0  0  0  0
  -11.3390   19.4330  -20.0590 C   0  0  0  0  0
   -9.1180   18.4550  -20.7980 C   0  0  0  0  0
   -7.7400   18.5460  -20.9540 C   0  0  0  0  0
   -7.0640   19.6970  -20.5670 C   0  0  0  0  0
   -7.7860   20.7660  -20.0520 C   0  0  0  0  0
   -9.1640   20.6950  -19.8970 C   0  0  0  0  0
   -9.8250   19.5350  -20.2800 C   0  0  0  0  0
  -17.1822   25.8529  -22.0415 H   0  0  0  0  0
  -17.2497   27.0688  -20.7615 H   0  0  0  0  0
  -15.9801   24.0808  -22.0471 H   0  0  0  0  0
  -14.3147   22.6008  -20.9243 H   0  0  0  0  0
  -14.1491   25.2841  -17.5763 H   0  0  0  0  0
  -15.8096   26.7597  -18.6877 H   0  0  0  0  0
  -15.7429   21.7182  -17.3317 H   0  0  0  0  0
  -14.7105   22.8330  -16.3950 H   0  0  0  0  0
  -14.8874   19.8220  -16.0644 H   0  0  0  0  0
  -12.6114   20.6137  -15.6303 H   0  0  0  0  0
  -13.2355   21.8612  -14.5234 H   0  0  0  0  0
  -13.4023   20.1378  -14.1075 H   0  0  0  0  0
  -15.8468   22.0548  -14.2470 H   0  0  0  0  0
  -16.8664   20.9373  -15.1865 H   0  0  0  0  0
  -15.8595   20.3178  -13.8547 H   0  0  0  0  0
  -13.5912   20.8708  -19.6568 H   0  0  0  0  0
  -14.9985   20.2877  -18.7050 H   0  0  0  0  0
  -13.3426   19.0936  -17.2542 H   0  0  0  0  0
  -13.1239   17.3601  -18.8688 H   0  0  0  0  0
  -11.2707   20.3122  -18.1229 H   0  0  0  0  0
  -11.2656   17.2918  -18.3172 H   0  0  0  0  0
   -8.5192   18.0684  -15.1516 H   0  0  0  0  0
   -9.7334   15.7273  -14.3974 H   0  0  0  0  0
   -8.1357   15.8951  -13.8278 H   0  0  0  0  0
   -6.2631   14.8075  -16.0255 H   0  0  0  0  0
   -8.7197   16.1597  -18.6772 H   0  0  0  0  0
   -7.1983   15.9825  -19.5262 H   0  0  0  0  0
   -7.6114   18.1650  -17.9444 H   0  0  0  0  0
   -6.0538   17.4860  -18.0519 H   0  0  0  0  0
   -6.3772   17.2349  -15.7208 H   0  0  0  0  0
  -11.8244   20.3041  -20.4991 H   0  0  0  0  0
  -11.7086   18.5214  -20.5286 H   0  0  0  0  0
   -9.6421   17.5419  -21.0802 H   0  0  0  0  0
   -7.1865   17.7103  -21.3821 H   0  0  0  0  0
   -5.9804   19.7601  -20.6664 H   0  0  0  0  0
   -7.2614   21.6771  -19.7643 H   0  0  0  0  0
   -9.7183   21.5364  -19.4813 H   0  0  0  0  0
  2  1  1  0  0  0
  3  2  4  0  0  0
  7  2  4  0  0  0
  4  3  4  0  0  0
  5  4  4  0  0  0
  5  6  4  0  0  0
  8  5  1  0  0  0
  6  7  4  0  0  0
  8  9  2  0  0  0
  8 10  2  0  0  0
 11  8  1  0  0  0
 11 12  1  0  0  0
 16 11  1  0  0  0
 12 13  1  0  0  0
 13 14  1  0  0  0
 13 15  1  0  0  0
 17 16  1  0  0  0
 17 18  1  0  0  0
 19 17  1  0  0  0
 19 20  1  0  0  0
 32 19  1  0  0  0
 20 21  1  0  0  0
 21 22  2  0  0  0
 21 23  1  0  0  0
 23 24  1  0  0  0
 24 25  1  0  0  0
 24 31  1  0  0  0
 25 26  1  0  0  0
 27 26  1  0  0  0
 27 28  1  0  0  0
 31 27  1  0  0  0
 29 28  1  0  0  0
 30 29  1  0  0  0
 31 30  1  0  0  0
 38 32  1  0  0  0
 33 34  4  0  0  0
 33 38  4  0  0  0
 34 35  4  0  0  0
 35 36  4  0  0  0
 36 37  4  0  0  0
 37 38  4  0  0  0
  1 39  1  0  0  0
  1 40  1  0  0  0
  3 41  1  0  0  0
  4 42  1  0  0  0
  6 43  1  0  0  0
  7 44  1  0  0  0
 12 45  1  0  0  0
 12 46  1  0  0  0
 13 47  1  0  0  0
 14 48  1  0  0  0
 14 49  1  0  0  0
 14 50  1  0  0  0
 15 51  1  0  0  0
 15 52  1  0  0  0
 15 53  1  0  0  0
 16 54  1  0  0  0
 16 55  1  0  0  0
 17 56  1  0  0  0
 18 57  1  0  0  0
 19 58  1  0  0  0
 20 59  1  0  0  0
 24 60  1  0  0  0
 25 61  1  0  0  0
 25 62  1  0  0  0
 27 63  1  0  0  0
 29 64  1  0  0  0
 29 65  1  0  0  0
 30 66  1  0  0  0
 30 67  1  0  0  0
 31 68  1  0  0  0
 32 69  1  0  0  0
 32 70  1  0  0  0
 33 71  1  0  0  0
 34 72  1  0  0  0
 35 73  1  0  0  0
 36 74  1  0  0  0
 37 75  1  0  0  0
M  END
$$$$
