6g84_ligand
  -I-interpret- 

108110  0  0  0  0  0  0  0  0999 V2000
   19.1620  -61.0790   20.5110 N   0  3  0  0  0
   19.1100  -60.3610   19.2430 C   0  0  0  0  0
   18.4980  -61.2420   18.1600 C   0  0  0  0  0
   19.0830  -62.2530   17.7710 O   0  0  0  0  0
   20.5070  -59.8730   18.8210 C   0  0  0  0  0
   20.4330  -59.1500   17.4850 C   0  0  0  0  0
   21.0990  -58.9690   19.8920 C   0  0  0  0  0
   17.3170  -60.8610   17.6780 N   0  0  0  0  0
   16.6650  -61.6420   16.6230 C   0  0  0  0  0
   17.4630  -61.6130   15.3290 C   0  0  0  0  0
   18.0980  -60.6140   14.9810 O   0  0  0  0  0
   15.3070  -60.9500   16.4530 C   0  0  0  0  0
   15.0970  -60.1990   17.7310 C   0  0  0  0  0
   16.4620  -59.7650   18.1630 C   0  0  0  0  0
   17.4200  -62.7330   14.6120 N   0  0  0  0  0
   18.1380  -62.8760   13.3470 C   0  0  0  0  0
   17.3820  -62.1140   12.2670 C   0  0  0  0  0
   16.3940  -62.6050   11.7160 O   0  0  0  0  0
   18.2950  -64.3480   12.9820 C   0  0  0  0  0
   17.8460  -60.9040   11.9630 N   0  0  0  0  0
   17.2510  -60.0560   10.9370 C   0  0  0  0  0
   18.3010  -59.6300    9.9220 C   0  0  0  0  0
   18.3030  -58.4940    9.4390 O   0  0  0  0  0
   16.5760  -58.8360   11.5590 C   0  0  0  0  0
   15.4380  -59.1040   12.5450 C   0  0  0  0  0
   14.8740  -57.7950   13.0750 C   0  0  0  0  0
   14.3470  -59.9370   11.8930 C   0  0  0  0  0
   19.2130  -60.5380    9.5850 N   0  0  0  0  0
   20.2480  -60.2320    8.6130 C   0  0  0  0  0
   19.6520  -60.1260    7.2120 C   0  0  0  0  0
   18.5710  -60.6490    6.9230 O   0  0  0  0  0
   21.3430  -61.2990    8.6410 C   0  0  0  0  0
   20.3730  -59.4360    6.3370 N   0  0  0  0  0
   19.8990  -59.2310    4.9730 C   0  0  0  0  0
   20.0550  -60.5180    4.1700 C   0  0  0  0  0
   21.1560  -61.0760    4.1170 O   0  0  0  0  0
   20.6660  -58.0960    4.3030 C   0  0  0  0  0
   20.0680  -57.6400    2.9910 C   0  0  0  0  0
   19.0460  -56.7000    2.9630 C   0  0  0  0  0
   20.5260  -58.1460    1.7800 C   0  0  0  0  0
   18.4950  -56.2780    1.7680 C   0  0  0  0  0
   19.9810  -57.7290    0.5790 C   0  0  0  0  0
   18.9650  -56.7950    0.5800 C   0  0  0  0  0
   18.4180  -56.3750   -0.6120 O   0  0  0  0  0
   18.9770  -61.0280    3.5500 N   0  0  0  0  0
   18.9410  -62.2360    2.7160 C   0  0  0  0  0
   20.1370  -62.3750    1.7760 C   0  0  0  0  0
   20.3520  -61.4940    0.9430 O   0  0  0  0  0
   17.6510  -62.0620    1.9080 C   0  0  0  0  0
   16.8040  -61.0920    2.6920 C   0  0  0  0  0
   17.6240  -60.5080    3.8080 C   0  0  0  0  0
   20.8630  -63.3650    1.8700 O   0  0  0  0  0
   18.2236  -61.3890   20.7635 H   0  0  0  0  0
   19.7751  -61.8887   20.4170 H   0  0  0  0  0
   19.5235  -60.4597   21.2364 H   0  0  0  0  0
   18.4782  -59.4830   19.3772 H   0  0  0  0  0
   21.1596  -60.7384   18.7063 H   0  0  0  0  0
   19.8041  -58.2655   17.5863 H   0  0  0  0  0
   21.4356  -58.8513   17.1789 H   0  0  0  0  0
   20.0065  -59.8168   16.7356 H   0  0  0  0  0
   22.1048  -58.6695   19.5975 H   0  0  0  0  0
   20.4733  -58.0837   20.0049 H   0  0  0  0  0
   21.1416  -59.5085   20.8382 H   0  0  0  0  0
   16.5764  -62.6981   16.8778 H   0  0  0  0  0
   14.5070  -61.6668   16.2677 H   0  0  0  0  0
   15.2947  -60.2882   15.5870 H   0  0  0  0  0
   14.6156  -60.8198   18.4866 H   0  0  0  0  0
   14.4310  -59.3476   17.5911 H   0  0  0  0  0
   16.7469  -58.7928   17.7607 H   0  0  0  0  0
   16.5386  -59.6095   19.2391 H   0  0  0  0  0
   16.8675  -63.5181   14.9567 H   0  0  0  0  0
   19.1410  -62.4598   13.4413 H   0  0  0  0  0
   18.8550  -64.8577   13.7660 H   0  0  0  0  0
   17.3097  -64.8035   12.8828 H   0  0  0  0  0
   18.8321  -64.4315   12.0372 H   0  0  0  0  0
   18.6570  -60.5531   12.4724 H   0  0  0  0  0
   16.4864  -60.6357   10.4198 H   0  0  0  0  0
   16.1301  -58.2861   10.7302 H   0  0  0  0  0
   17.3511  -58.3238   12.1292 H   0  0  0  0  0
   15.8379  -59.6700   13.3863 H   0  0  0  0  0
   15.6623  -57.2412   13.5848 H   0  0  0  0  0
   14.4913  -57.2027   12.2438 H   0  0  0  0  0
   14.0655  -58.0061   13.7749 H   0  0  0  0  0
   13.9485  -59.4012   11.0315 H   0  0  0  0  0
   14.7644  -60.8902   11.5685 H   0  0  0  0  0
   13.5483  -60.1150   12.6131 H   0  0  0  0  0
   19.1850  -61.4623   10.0154 H   0  0  0  0  0
   20.6910  -59.2716    8.8768 H   0  0  0  0  0
   21.7894  -61.3337    9.6348 H   0  0  0  0  0
   20.9087  -62.2698    8.4023 H   0  0  0  0  0
   22.1087  -61.0514    7.9058 H   0  0  0  0  0
   21.2704  -59.0439    6.6222 H   0  0  0  0  0
   18.8442  -58.9586    5.0078 H   0  0  0  0  0
   21.6692  -58.4652    4.0901 H   0  0  0  0  0
   20.6420  -57.2442    4.9827 H   0  0  0  0  0
   18.6719  -56.2878    3.9002 H   0  0  0  0  0
   21.3282  -58.8839    1.7768 H   0  0  0  0  0
   17.6928  -55.5401    1.7650 H   0  0  0  0  0
   20.3516  -58.1354   -0.3621 H   0  0  0  0  0
   18.8526  -56.8268   -1.3390 H   0  0  0  0  0
   18.9778  -63.1368    3.3286 H   0  0  0  0  0
   19.6836  -60.8096    1.0229 H   0  0  0  0  0
   17.1385  -63.0139    1.7688 H   0  0  0  0  0
   17.8581  -61.6876    0.9055 H   0  0  0  0  0
   15.9410  -61.6129    3.1067 H   0  0  0  0  0
   16.4600  -60.2934    2.0348 H   0  0  0  0  0
   17.5915  -59.4186    3.8240 H   0  0  0  0  0
   17.2495  -60.7889    4.7924 H   0  0  0  0  0
  1  2  1  0  0  0
  2  3  1  0  0  0
  2  5  1  0  0  0
  3  4  2  0  0  0
  3  8  1  0  0  0
  5  6  1  0  0  0
  5  7  1  0  0  0
  8  9  1  0  0  0
  8 14  1  0  0  0
  9 10  1  0  0  0
  9 12  1  0  0  0
 10 11  2  0  0  0
 10 15  1  0  0  0
 12 13  1  0  0  0
 13 14  1  0  0  0
 15 16  1  0  0  0
 16 17  1  0  0  0
 16 19  1  0  0  0
 17 18  2  0  0  0
 17 20  1  0  0  0
 20 21  1  0  0  0
 21 22  1  0  0  0
 21 24  1  0  0  0
 22 23  2  0  0  0
 22 28  1  0  0  0
 24 25  1  0  0  0
 25 26  1  0  0  0
 25 27  1  0  0  0
 28 29  1  0  0  0
 29 30  1  0  0  0
 29 32  1  0  0  0
 30 31  2  0  0  0
 30 33  1  0  0  0
 33 34  1  0  0  0
 34 35  1  0  0  0
 34 37  1  0  0  0
 35 36  2  0  0  0
 35 45  1  0  0  0
 37 38  1  0  0  0
 38 39  4  0  0  0
 38 40  4  0  0  0
 39 41  4  0  0  0
 40 42  4  0  0  0
 41 43  4  0  0  0
 42 43  4  0  0  0
 43 44  1  0  0  0
 45 46  1  0  0  0
 45 51  1  0  0  0
 46 47  1  0  0  0
 46 49  1  0  0  0
 47 48  1  0  0  0
 47 52  2  0  0  0
 49 50  1  0  0  0
 50 51  1  0  0  0
  1 53  1  0  0  0
  1 54  1  0  0  0
  1 55  1  0  0  0
  2 56  1  0  0  0
  5 57  1  0  0  0
  6 58  1  0  0  0
  6 59  1  0  0  0
  6 60  1  0  0  0
  7 61  1  0  0  0
  7 62  1  0  0  0
  7 63  1  0  0  0
  9 64  1  0  0  0
 12 65  1  0  0  0
 12 66  1  0  0  0
 13 67  1  0  0  0
 13 68  1  0  0  0
 14 69  1  0  0  0
 14 70  1  0  0  0
 15 71  1  0  0  0
 16 72  1  0  0  0
 19 73  1  0  0  0
 19 74  1  0  0  0
 19 75  1  0  0  0
 20 76  1  0  0  0
 21 77  1  0  0  0
 24 78  1  0  0  0
 24 79  1  0  0  0
 25 80  1  0  0  0
 26 81  1  0  0  0
 26 82  1  0  0  0
 26 83  1  0  0  0
 27 84  1  0  0  0
 27 85  1  0  0  0
 27 86  1  0  0  0
 28 87  1  0  0  0
 29 88  1  0  0  0
 32 89  1  0  0  0
 32 90  1  0  0  0
 32 91  1  0  0  0
 33 92  1  0  0  0
 34 93  1  0  0  0
 37 94  1  0  0  0
 37 95  1  0  0  0
 39 96  1  0  0  0
 40 97  1  0  0  0
 41 98  1  0  0  0
 42 99  1  0  0  0
 44100  1  0  0  0
 46101  1  0  0  0
 48102  1  0  0  0
 49103  1  0  0  0
 49104  1  0  0  0
 50105  1  0  0  0
 50106  1  0  0  0
 51107  1  0  0  0
 51108  1  0  0  0
M  END
$$$$
