3snd_ligand
  -I-interpret- 

 41 40  0  0  0  0  0  0  0  0999 V2000
  -17.3060  -30.9410    5.4030 N   0  3  0  0  0
  -17.9530  -30.0670    6.4930 C   0  0  0  0  0
  -17.0460  -28.9820    7.1200 C   0  0  0  0  0
  -16.5350  -29.0330    8.2720 O   0  0  0  0  0
  -18.6260  -30.9160    7.5850 C   0  0  0  0  0
  -19.9320  -30.3270    8.1780 C   0  0  0  0  0
  -21.1280  -30.4290    7.1740 C   0  0  0  0  0
  -20.3300  -30.9150    9.5430 C   0  0  0  0  0
  -15.4050  -26.0990    7.1100 C   0  0  0  0  0
  -16.3340  -28.2700    6.3530 N   0  0  0  0  0
  -14.3270  -25.1510    7.0140 O   0  0  0  0  0
  -15.1170  -27.4430    6.4340 C   0  0  0  0  0
  -14.5590  -27.3270    5.0170 C   0  0  0  0  0
  -13.7170  -28.6830    3.0990 C   0  0  0  0  0
  -14.0290  -28.6940    4.5820 C   0  0  0  0  0
  -14.5300  -28.2720    2.2900 O   0  0  0  0  0
  -12.5190  -29.1600    2.7340 N   0  0  0  0  0
  -16.8725  -30.3414    4.7009 H   0  0  0  0  0
  -16.5964  -31.5396    5.8256 H   0  0  0  0  0
  -18.0220  -31.5191    4.9629 H   0  0  0  0  0
  -18.7138  -29.5078    5.9484 H   0  0  0  0  0
  -17.9145  -30.9841    8.4079 H   0  0  0  0  0
  -18.8963  -31.8636    7.1190 H   0  0  0  0  0
  -19.7024  -29.2758    8.3519 H   0  0  0  0  0
  -21.4040  -31.4755    7.0448 H   0  0  0  0  0
  -21.9793  -29.8733    7.5673 H   0  0  0  0  0
  -20.8309  -30.0090    6.2131 H   0  0  0  0  0
  -21.1792  -30.3605    9.9423 H   0  0  0  0  0
  -20.6040  -31.9628    9.4199 H   0  0  0  0  0
  -19.4877  -30.8368   10.2304 H   0  0  0  0  0
  -16.2657  -25.6613    6.6043 H   0  0  0  0  0
  -15.5659  -26.2985    8.1694 H   0  0  0  0  0
  -16.7116  -28.2681    5.4055 H   0  0  0  0  0
  -14.5776  -24.3372    7.4574 H   0  0  0  0  0
  -14.3580  -27.9020    7.0676 H   0  0  0  0  0
  -13.7519  -26.5947    4.9969 H   0  0  0  0  0
  -15.3456  -27.0022    4.3359 H   0  0  0  0  0
  -14.7861  -29.4519    4.7829 H   0  0  0  0  0
  -13.1185  -28.9183    5.1377 H   0  0  0  0  0
  -12.2602  -29.1881    1.7478 H   0  0  0  0  0
  -11.8660  -29.4949    3.4424 H   0  0  0  0  0
  2  1  1  0  0  0
  3  2  1  0  0  0
  2  5  1  0  0  0
  3  4  2  0  0  0
 10  3  1  0  0  0
  5  6  1  0  0  0
  6  7  1  0  0  0
  6  8  1  0  0  0
  9 11  1  0  0  0
 12  9  1  0  0  0
 10 12  1  0  0  0
 12 13  1  0  0  0
 13 15  1  0  0  0
 15 14  1  0  0  0
 14 16  2  0  0  0
 14 17  1  0  0  0
  1 18  1  0  0  0
  1 19  1  0  0  0
  1 20  1  0  0  0
  2 21  1  0  0  0
  5 22  1  0  0  0
  5 23  1  0  0  0
  6 24  1  0  0  0
  7 25  1  0  0  0
  7 26  1  0  0  0
  7 27  1  0  0  0
  8 28  1  0  0  0
  8 29  1  0  0  0
  8 30  1  0  0  0
  9 31  1  0  0  0
  9 32  1  0  0  0
 10 33  1  0  0  0
 11 34  1  0  0  0
 12 35  1  0  0  0
 13 36  1  0  0  0
 13 37  1  0  0  0
 15 38  1  0  0  0
 15 39  1  0  0  0
 17 40  1  0  0  0
 17 41  1  0  0  0
M  END
$$$$
