2jdk_ligand
  -I-interpret- 

 61 63  0  0  0  0  0  0  0  0999 V2000
   38.8400    4.5800   -3.5280 C   0  0  0  0  0
   37.4890    4.3580   -2.8660 C   0  0  0  0  0
   36.6660    3.3830   -3.6420 C   0  0  0  0  0
   37.4240    2.0860   -3.8690 C   0  0  0  0  0
   38.8010    2.3680   -4.4740 C   0  0  0  0  0
   39.6740    1.1260   -4.5860 C   0  0  0  0  0
   36.6750    5.5510   -2.7300 O   0  0  0  0  0
   35.4580    3.0890   -2.9250 O   0  0  0  0  0
   37.5550    1.4640   -2.5450 O   0  0  0  0  0
   39.5200    3.3320   -3.6640 O   0  0  0  0  0
   40.9810    7.5790   -7.2470 C   0  0  0  0  0
   41.4030    6.1310   -7.1670 C   0  0  0  0  0
   40.2760    5.2640   -6.6000 C   0  0  0  0  0
   39.8090    5.8700   -5.2860 C   0  0  0  0  0
   39.4150    7.3430   -5.4790 C   0  0  0  0  0
   38.9790    8.0390   -4.2510 C   0  0  0  0  0
   43.0160    5.4540   -8.8610 C   0  0  0  0  0
   43.2760    5.0810  -10.2950 C   0  0  0  0  0
   41.7400    5.6490   -8.4950 N   0  0  0  0  0
   40.8010    3.9530   -6.3550 O   0  0  0  0  0
   38.6370    5.2040   -4.7840 O   0  0  0  0  0
   40.5530    8.0630   -6.0070 O   0  0  0  0  0
   39.8450    7.9140   -3.2270 O   0  0  0  0  0
   43.9830    5.5600   -8.0690 O   0  0  0  0  0
   46.1150    9.4730   -7.0350 O   0  0  0  0  0
   45.2450   10.0550   -7.6840 C   0  0  0  0  0
   45.5710   11.3210   -8.3270 O   0  0  0  0  0
   46.1470   11.4240   -9.6360 C   0  0  0  0  0
   43.8700    9.4780   -7.8690 C   0  0  0  0  0
   43.1590    9.6660   -8.9920 N   0  0  0  0  0
   41.9420    8.9930   -8.8790 N   0  0  0  0  0
   41.9590    8.3610   -7.6440 N   0  0  0  0  0
   43.1090    8.6620   -7.0150 C   0  0  0  0  0
   39.4634    5.2308   -2.9148 H   0  0  0  0  0
   37.7475    3.9938   -1.8717 H   0  0  0  0  0
   36.4348    3.8332   -4.6074 H   0  0  0  0  0
   36.9020    1.4316   -4.5671 H   0  0  0  0  0
   38.6080    2.7498   -5.4765 H   0  0  0  0  0
   40.6209    1.3903   -5.0568 H   0  0  0  0  0
   39.8616    0.7243   -3.5902 H   0  0  0  0  0
   39.1625    0.3772   -5.1908 H   0  0  0  0  0
   37.1615    6.2142   -2.2349 H   0  0  0  0  0
   34.9700    3.9021   -2.7755 H   0  0  0  0  0
   36.6816    1.2958   -2.1839 H   0  0  0  0  0
   40.1662    7.5986   -7.9707 H   0  0  0  0  0
   42.2685    6.0642   -6.5077 H   0  0  0  0  0
   39.4406    5.2112   -7.2982 H   0  0  0  0  0
   40.6402    5.7646   -4.5888 H   0  0  0  0  0
   38.5602    7.3310   -6.1553 H   0  0  0  0  0
   38.0351    7.5923   -3.9385 H   0  0  0  0  0
   38.9003    9.1004   -4.4861 H   0  0  0  0  0
   43.9205    5.8312  -10.7531 H   0  0  0  0  0
   43.7653    4.1077  -10.3329 H   0  0  0  0  0
   42.3299    5.0347  -10.8343 H   0  0  0  0  0
   40.9928    5.4552   -9.1617 H   0  0  0  0  0
   40.1074    3.3933   -5.9983 H   0  0  0  0  0
   39.5057    8.3860   -2.4630 H   0  0  0  0  0
   47.1074   10.9087   -9.6505 H   0  0  0  0  0
   45.4766   10.9664  -10.3636 H   0  0  0  0  0
   46.2933   12.4749   -9.8855 H   0  0  0  0  0
   43.3996    8.3311   -6.0179 H   0  0  0  0  0
  1  2  1  0  0  0
  1 10  1  0  0  0
 21  1  1  0  0  0
  2  3  1  0  0  0
  2  7  1  0  0  0
  3  4  1  0  0  0
  3  8  1  0  0  0
  5  4  1  0  0  0
  4  9  1  0  0  0
  5  6  1  0  0  0
 10  5  1  0  0  0
 11 12  1  0  0  0
 11 22  1  0  0  0
 32 11  1  0  0  0
 12 13  1  0  0  0
 12 19  1  0  0  0
 13 14  1  0  0  0
 13 20  1  0  0  0
 15 14  1  0  0  0
 14 21  1  0  0  0
 15 16  1  0  0  0
 22 15  1  0  0  0
 16 23  1  0  0  0
 17 18  1  0  0  0
 19 17  1  0  0  0
 17 24  2  0  0  0
 26 25  2  0  0  0
 26 27  1  0  0  0
 29 26  1  0  0  0
 27 28  1  0  0  0
 30 29  4  0  0  0
 29 33  4  0  0  0
 31 30  4  0  0  0
 31 32  4  0  0  0
 32 33  4  0  0  0
  1 34  1  0  0  0
  2 35  1  0  0  0
  3 36  1  0  0  0
  4 37  1  0  0  0
  5 38  1  0  0  0
  6 39  1  0  0  0
  6 40  1  0  0  0
  6 41  1  0  0  0
  7 42  1  0  0  0
  8 43  1  0  0  0
  9 44  1  0  0  0
 11 45  1  0  0  0
 12 46  1  0  0  0
 13 47  1  0  0  0
 14 48  1  0  0  0
 15 49  1  0  0  0
 16 50  1  0  0  0
 16 51  1  0  0  0
 18 52  1  0  0  0
 18 53  1  0  0  0
 18 54  1  0  0  0
 19 55  1  0  0  0
 20 56  1  0  0  0
 23 57  1  0  0  0
 28 58  1  0  0  0
 28 59  1  0  0  0
 28 60  1  0  0  0
 33 61  1  0  0  0
M  END
$$$$
