4r91_ligand
  -I-interpret- 

 72 75  0  0  0  0  0  0  0  0999 V2000
   24.9890   10.9550   20.6120 C   0  0  0  0  0
   22.5380   10.5100   20.4660 C   0  0  0  0  0
   21.1820   11.8200   23.2630 C   0  0  0  0  0
   22.0180    9.8910   24.1130 C   0  0  0  0  0
   20.7250   10.6920   22.3600 C   0  0  0  0  0
   21.1330   10.9090   20.9060 C   0  0  0  0  0
   21.8810   11.2350   24.2880 N   0  0  0  0  0
   19.2100   10.5510   22.3800 C   0  0  0  0  0
   22.5810   12.0080   25.3070 C   0  0  0  0  0
   22.6900    9.1440   24.9190 N   0  0  0  0  0
   21.3420    9.5230   22.9820 N   0  0  0  0  0
   20.9090   13.0080   23.1500 O   0  0  0  0  0
   26.0170   11.6560   21.4630 N   0  3  0  0  0
   23.6260   11.3260   21.1670 C   0  0  0  0  0
   18.5540   10.6240   23.7540 C   0  0  0  0  0
   27.4260   11.6000   20.9710 C   0  0  0  0  0
   17.0940   10.1950   23.7480 C   0  0  0  0  0
   23.9940   10.5510   18.3860 C   0  0  0  0  0
   25.0620   11.3430   19.1340 C   0  0  0  0  0
   22.6040   10.8020   18.9710 C   0  0  0  0  0
   27.8730   10.1460   20.8780 C   0  0  0  0  0
   28.2620   12.2710   22.0340 C   0  0  0  0  0
   16.1860   11.2190   23.0640 C   0  0  0  0  0
   16.6510    9.9690   25.1890 C   0  0  0  0  0
   15.1850    9.5510   25.2970 C   0  0  0  0  0
   28.9370    9.9160   21.9190 C   0  0  0  0  0
   29.1900   11.2290   22.6030 C   0  0  0  0  0
   14.7400   10.7320   23.1180 C   0  0  0  0  0
   14.2710   10.5090   24.5490 C   0  0  0  0  0
   25.1766    9.8820   20.6520 H   0  0  0  0  0
   22.7149    9.4635   20.7142 H   0  0  0  0  0
   20.4653   10.2700   20.3282 H   0  0  0  0  0
   21.0883   11.9882   20.7594 H   0  0  0  0  0
   18.9883    9.5593   21.9858 H   0  0  0  0  0
   18.8156   11.3895   21.8061 H   0  0  0  0  0
   22.3159   11.6296   26.2942 H   0  0  0  0  0
   23.6566   11.9142   25.1573 H   0  0  0  0  0
   22.2919   13.0560   25.2286 H   0  0  0  0  0
   23.1491    9.5548   25.7319 H   0  0  0  0  0
   21.2780    8.5698   22.6246 H   0  0  0  0  0
   26.0109   11.1825   22.3664 H   0  0  0  0  0
   25.7564   12.6421   21.4714 H   0  0  0  0  0
   23.4453   12.3873   20.9964 H   0  0  0  0  0
   23.6029   11.1125   22.2356 H   0  0  0  0  0
   18.5906   11.6630   24.0815 H   0  0  0  0  0
   19.0941    9.9445   24.4133 H   0  0  0  0  0
   27.5228   12.0741   19.9943 H   0  0  0  0  0
   17.0075    9.2738   23.1718 H   0  0  0  0  0
   24.2221    9.4891   18.4773 H   0  0  0  0  0
   23.9938   10.8681   17.3431 H   0  0  0  0  0
   26.0497   11.1155   18.7331 H   0  0  0  0  0
   24.8894   12.4128   19.0163 H   0  0  0  0  0
   22.3620   11.8544   18.8230 H   0  0  0  0  0
   21.9022   10.1373   18.4673 H   0  0  0  0  0
   28.2687    9.9375   19.8840 H   0  0  0  0  0
   27.0271    9.4810   21.0522 H   0  0  0  0  0
   27.6252   12.6833   22.8167 H   0  0  0  0  0
   28.8311   13.0969   21.6072 H   0  0  0  0  0
   16.4910   11.3383   22.0243 H   0  0  0  0  0
   16.2665   12.1769   23.5778 H   0  0  0  0  0
   16.7714   10.9091   25.7274 H   0  0  0  0  0
   17.2595    9.1655   25.6040 H   0  0  0  0  0
   14.9024    9.5578   26.3497 H   0  0  0  0  0
   15.0771    8.5594   24.8575 H   0  0  0  0  0
   29.8510    9.5455   21.4548 H   0  0  0  0  0
   28.6094    9.1672   22.6402 H   0  0  0  0  0
   29.0106   11.1246   23.6731 H   0  0  0  0  0
   30.2242   11.5326   22.4409 H   0  0  0  0  0
   14.6783    9.7829   22.5856 H   0  0  0  0  0
   14.1052   11.4931   22.6643 H   0  0  0  0  0
   14.2804   11.4680   25.0671 H   0  0  0  0  0
   13.2707   10.0770   24.5194 H   0  0  0  0  0
  1 13  1  0  0  0
 14  1  1  0  0  0
  1 19  1  0  0  0
  6  2  1  0  0  0
  2 14  1  0  0  0
  2 20  1  0  0  0
  5  3  1  0  0  0
  3  7  1  0  0  0
  3 12  2  0  0  0
  7  4  4  0  0  0
  4 10  2  0  0  0
  4 11  1  0  0  0
  5  6  1  0  0  0
  5  8  1  0  0  0
  5 11  1  0  0  0
  7  9  1  0  0  0
  8 15  1  0  0  0
 13 16  1  0  0  0
 15 17  1  0  0  0
 16 21  1  0  0  0
 16 22  1  0  0  0
 17 23  1  0  0  0
 17 24  1  0  0  0
 19 18  1  0  0  0
 18 20  1  0  0  0
 21 26  1  0  0  0
 22 27  1  0  0  0
 23 28  1  0  0  0
 24 25  1  0  0  0
 25 29  1  0  0  0
 26 27  1  0  0  0
 28 29  1  0  0  0
  1 30  1  0  0  0
  2 31  1  0  0  0
  6 32  1  0  0  0
  6 33  1  0  0  0
  8 34  1  0  0  0
  8 35  1  0  0  0
  9 36  1  0  0  0
  9 37  1  0  0  0
  9 38  1  0  0  0
 10 39  1  0  0  0
 11 40  1  0  0  0
 13 41  1  0  0  0
 13 42  1  0  0  0
 14 43  1  0  0  0
 14 44  1  0  0  0
 15 45  1  0  0  0
 15 46  1  0  0  0
 16 47  1  0  0  0
 17 48  1  0  0  0
 18 49  1  0  0  0
 18 50  1  0  0  0
 19 51  1  0  0  0
 19 52  1  0  0  0
 20 53  1  0  0  0
 20 54  1  0  0  0
 21 55  1  0  0  0
 21 56  1  0  0  0
 22 57  1  0  0  0
 22 58  1  0  0  0
 23 59  1  0  0  0
 23 60  1  0  0  0
 24 61  1  0  0  0
 24 62  1  0  0  0
 25 63  1  0  0  0
 25 64  1  0  0  0
 26 65  1  0  0  0
 26 66  1  0  0  0
 27 67  1  0  0  0
 27 68  1  0  0  0
 28 69  1  0  0  0
 28 70  1  0  0  0
 29 71  1  0  0  0
 29 72  1  0  0  0
M  END
$$$$
