4gly_ligand
  -I-interpret- 

189191  0  0  0  0  0  0  0  0999 V2000
  -26.8630    4.7040    9.9020 N   0  3  0  0  0
  -26.0130    5.3930   10.9000 C   0  0  0  0  0
  -26.7070    6.7140   11.3720 C   0  0  0  0  0
  -27.6680    7.1820   10.7160 O   0  0  0  0  0
  -24.6140    5.6050   10.3160 C   0  0  0  0  0
  -23.6850    4.1340    9.7390 S   0  0  0  0  0
  -26.2080    7.3240   12.4560 N   0  0  0  0  0
  -26.9720    8.3210   13.2050 C   0  0  0  0  0
  -27.2120    9.6090   12.3330 C   0  0  0  0  0
  -26.2660   10.1330   11.7490 O   0  0  0  0  0
  -26.2610    8.5920   14.5490 C   0  0  0  0  0
  -27.2440    9.6720   15.5850 S   0  0  0  0  0
  -28.4590   10.0830   12.2250 N   0  0  0  0  0
  -28.8170   11.3010   11.4270 C   0  0  0  0  0
  -29.1630   12.3670   12.4380 C   0  0  0  0  0
  -29.6110   12.0330   13.5400 O   0  0  0  0  0
  -30.0650   11.0680   10.6020 C   0  0  0  0  0
  -30.0020    9.8260    9.7370 C   0  0  0  0  0
  -31.4060    9.3380    9.3450 C   0  0  0  0  0
  -29.1010   10.1540    8.5230 C   0  0  0  0  0
  -29.0250   13.6230   12.0550 N   0  0  0  0  0
  -29.4930   14.7650   12.8300 C   0  0  0  0  0
  -28.4990   15.1730   13.8980 C   0  0  0  0  0
  -27.3260   14.8000   13.8750 O   0  0  0  0  0
  -28.9780   15.9250   14.8690 N   0  0  0  0  0
  -28.0500   16.5940   15.8570 C   0  0  0  0  0
  -27.6390   15.7560   17.0470 C   0  0  0  0  0
  -26.6770   16.0810   17.7210 O   0  0  0  0  0
  -28.6650   17.8640   16.3570 C   0  0  0  0  0
  -29.8390   17.6850   17.3210 C   0  0  0  0  0
  -30.4840   19.0380   17.6460 C   0  0  0  0  0
  -31.2730   19.5630   16.5270 N   0  0  0  0  0
  -32.2340   20.4280   16.6860 C   0  0  0  0  0
  -32.4710   20.9090   17.9330 N   0  0  0  0  0
  -32.9750   20.8130   15.6400 N   0  0  0  0  0
  -28.3570   14.6620   17.2850 N   0  0  0  0  0
  -28.1250   13.8560   18.4540 C   0  0  0  0  0
  -27.1850   12.6830   18.1700 C   0  0  0  0  0
  -27.5040   11.5550   18.4680 O   0  0  0  0  0
  -25.9970   12.9380   17.6120 N   0  0  0  0  0
  -25.1430   11.8300   17.1390 C   0  0  0  0  0
  -23.6770   11.9650   17.5880 C   0  0  0  0  0
  -22.7590   11.4820   16.9010 O   0  0  0  0  0
  -25.1660   11.8790   15.6140 C   0  0  0  0  0
  -26.8310   11.6120   14.9250 S   0  0  0  0  0
  -23.4570   12.6630   18.7060 N   0  0  0  0  0
  -22.1290   12.8170   19.2070 C   0  0  0  0  0
  -21.4960   11.4520   19.5220 C   0  0  0  0  0
  -22.1900   10.4770   19.8970 O   0  0  0  0  0
  -22.1190   13.6710   20.5040 C   0  0  0  0  0
  -22.6530   15.1120   20.3680 C   0  0  0  0  0
  -24.1720   15.1960   20.4980 C   0  0  0  0  0
  -24.8580   14.1260   20.4800 O   0  0  0  0  0
  -24.7460   16.2740   20.5900 O   0  0  0  0  0
  -20.1580   11.4310   19.4180 N   0  0  0  0  0
  -19.3800   10.2860   19.9320 C   0  0  0  0  0
  -19.8780    8.9400   19.3650 C   0  0  0  0  0
  -19.9500    7.9370   20.0560 O   0  0  0  0  0
  -19.4170   10.2930   21.4540 C   0  0  0  0  0
  -18.3810    9.3710   22.0630 C   0  0  0  0  0
  -17.2400    9.2420   21.5650 O   0  0  0  0  0
  -18.7600    8.7400   23.1420 N   0  0  0  0  0
  -20.2310    8.9580   18.0800 N   0  0  0  0  0
  -20.6570    7.7640   17.3500 C   0  0  0  0  0
  -19.5200    7.2010   16.4830 C   0  0  0  0  0
  -18.7460    7.9830   15.9280 O   0  0  0  0  0
  -21.8890    8.0860   16.5090 C   0  0  0  0  0
  -23.1970    7.8600   17.2830 C   0  0  0  0  0
  -23.4900    8.5440   18.4610 N   0  0  0  0  0
  -24.2110    6.9650   17.1010 C   0  0  0  0  0
  -24.6630    8.1180   18.9440 C   0  0  0  0  0
  -25.1210    7.1440   18.1400 N   0  0  0  0  0
  -19.4750    5.8690   16.3420 N   0  0  0  0  0
  -18.4650    5.1850   15.5400 C   0  0  0  0  0
  -18.7060    5.5330   14.0360 C   0  0  0  0  0
  -17.7500    5.7950   13.2800 O   0  0  0  0  0
  -18.6020    3.6750   15.8710 C   0  0  0  0  0
  -17.5500    2.7090   15.3500 C   0  0  0  0  0
  -17.8220    1.2770   15.8190 C   0  0  0  0  0
  -19.2550    0.9460   15.7590 N   0  0  0  0  0
  -20.0700    0.8180   16.8110 C   0  0  0  0  0
  -19.6150    0.9630   18.0680 N   0  0  0  0  0
  -21.3420    0.5250   16.5940 N   0  0  0  0  0
  -19.9490    5.5900   13.5800 N   0  0  0  0  0
  -20.1700    5.7350   12.0910 C   0  0  0  0  0
  -20.2750    7.2430   11.6850 C   0  0  0  0  0
  -19.2740    7.9080   11.8760 O   0  0  0  0  0
  -21.1830    4.6780   11.4900 C   0  0  0  0  0
  -21.7070    4.7140    9.7310 S   0  0  0  0  0
  -21.3770    7.8890   11.2330 N   0  0  0  0  0
  -22.7810    7.7560   11.6590 C   0  0  0  0  0
  -23.0280    6.7030   12.7570 C   0  0  0  0  0
  -23.9500    6.8510   13.5970 O   0  0  0  0  0
  -23.7300    7.6590   10.4440 C   0  0  0  0  0
  -23.8170    8.8950    9.4980 C   0  0  0  0  0
  -22.9100    8.8420    8.2580 C   0  0  0  0  0
  -25.2500    9.2270    9.1010 C   0  0  0  0  0
  -22.3540    5.6460   12.8370 N   0  0  0  0  0
  -27.7953    4.5626   10.2909 H   0  0  0  0  0
  -26.9277    5.2757    9.0597 H   0  0  0  0  0
  -26.4493    3.8009    9.6704 H   0  0  0  0  0
  -25.8904    4.7802   11.7930 H   0  0  0  0  0
  -24.0211    6.0178   11.1322 H   0  0  0  0  0
  -24.7632    6.2179    9.4271 H   0  0  0  0  0
  -25.2666    7.0856   12.7681 H   0  0  0  0  0
  -27.9683    7.9465   13.4402 H   0  0  0  0  0
  -25.3041    9.0739   14.3485 H   0  0  0  0  0
  -26.1177    7.6439   15.0673 H   0  0  0  0  0
  -29.2066    9.5888   12.7121 H   0  0  0  0  0
  -27.9936   11.5637   10.7629 H   0  0  0  0  0
  -30.1789   11.9231    9.9357 H   0  0  0  0  0
  -30.8949   10.9388   11.2968 H   0  0  0  0  0
  -29.5664    8.9906   10.2851 H   0  0  0  0  0
  -31.9721    9.1022   10.2462 H   0  0  0  0  0
  -31.9188   10.1213    8.7868 H   0  0  0  0  0
  -31.3192    8.4457    8.7251 H   0  0  0  0  0
  -29.5321   10.9863    7.9666 H   0  0  0  0  0
  -28.1057   10.4266    8.8740 H   0  0  0  0  0
  -29.0326    9.2794    7.8761 H   0  0  0  0  0
  -28.5634   13.8048   11.1638 H   0  0  0  0  0
  -30.4246   14.4843   13.3213 H   0  0  0  0  0
  -29.6266   15.6063   12.1499 H   0  0  0  0  0
  -29.9858   16.0569   14.9546 H   0  0  0  0  0
  -27.1365   16.7740   15.2902 H   0  0  0  0  0
  -29.0545   18.3875   15.4839 H   0  0  0  0  0
  -27.8866   18.3927   16.9072 H   0  0  0  0  0
  -29.4716   17.2386   18.2450 H   0  0  0  0  0
  -30.5847   17.0423   16.8530 H   0  0  0  0  0
  -29.6865   19.7495   17.8600 H   0  0  0  0  0
  -31.1534   18.8978   18.4947 H   0  0  0  0  0
  -31.0603   19.2371   15.5842 H   0  0  0  0  0
  -33.2261   21.5773   18.0869 H   0  0  0  0  0
  -31.8940   20.6021   18.7162 H   0  0  0  0  0
  -32.7883   20.4289   14.7137 H   0  0  0  0  0
  -29.0862   14.3892   16.6260 H   0  0  0  0  0
  -29.0824   13.4515   18.7825 H   0  0  0  0  0
  -27.6616   14.4857   19.2135 H   0  0  0  0  0
  -25.6792   13.9021   17.5126 H   0  0  0  0  0
  -25.5275   10.8982   17.5538 H   0  0  0  0  0
  -24.5199   11.0827   15.2444 H   0  0  0  0  0
  -24.8322   12.8700   15.3066 H   0  0  0  0  0
  -24.2403   13.0871   19.2030 H   0  0  0  0  0
  -21.5522   13.3194   18.4305 H   0  0  0  0  0
  -21.0751   13.7582   20.8054 H   0  0  0  0  0
  -22.7786   13.1651   21.2091 H   0  0  0  0  0
  -22.3826   15.4756   19.3767 H   0  0  0  0  0
  -22.2163   15.7065   21.1705 H   0  0  0  0  0
  -24.2696   13.3712   20.4047 H   0  0  0  0  0
  -19.6735   12.2141   18.9793 H   0  0  0  0  0
  -18.3486   10.3949   19.5966 H   0  0  0  0  0
  -20.4017    9.9470   21.7683 H   0  0  0  0  0
  -19.2043   11.3075   21.7911 H   0  0  0  0  0
  -18.1146    8.1089   23.6170 H   0  0  0  0  0
  -19.7013    8.8783   23.5096 H   0  0  0  0  0
  -20.2028    9.8474   17.5814 H   0  0  0  0  0
  -20.9190    6.9902   18.0716 H   0  0  0  0  0
  -21.8897    7.4249   15.6424 H   0  0  0  0  0
  -21.8404    9.1375   16.2258 H   0  0  0  0  0
  -24.2937    6.2415   16.2899 H   0  0  0  0  0
  -25.1613    8.4963   19.8365 H   0  0  0  0  0
  -20.1802    5.3062   16.8178 H   0  0  0  0  0
  -17.4426    5.4933   15.7588 H   0  0  0  0  0
  -19.5304    3.3651   15.3914 H   0  0  0  0  0
  -18.5240    3.6169   16.9567 H   0  0  0  0  0
  -16.5773    3.0187   15.7322 H   0  0  0  0  0
  -17.5748    2.7261   14.2604 H   0  0  0  0  0
  -17.4922    1.1866   16.8540 H   0  0  0  0  0
  -17.2843    0.5931   15.1623 H   0  0  0  0  0
  -19.6614    0.8018   14.8347 H   0  0  0  0  0
  -20.2509    0.8471   18.8571 H   0  0  0  0  0
  -18.6340    1.1889   18.2324 H   0  0  0  0  0
  -21.6814    0.4019   15.6400 H   0  0  0  0  0
  -20.7410    5.5371   14.2206 H   0  0  0  0  0
  -19.2817    5.4189   11.5440 H   0  0  0  0  0
  -22.1069    4.8731   12.0345 H   0  0  0  0  0
  -20.6457    3.7335   11.5760 H   0  0  0  0  0
  -21.2101    8.5665   10.4890 H   0  0  0  0  0
  -23.0334    8.6835   12.1729 H   0  0  0  0  0
  -24.7296    7.5382   10.8615 H   0  0  0  0  0
  -23.3392    6.8471    9.8306 H   0  0  0  0  0
  -23.4246    9.7064   10.1110 H   0  0  0  0  0
  -21.8694    8.7672    8.5735 H   0  0  0  0  0
  -23.1716    7.9725    7.6550 H   0  0  0  0  0
  -23.0482    9.7489    7.6693 H   0  0  0  0  0
  -25.6885    8.3749    8.5816 H   0  0  0  0  0
  -25.8319    9.4473    9.9960 H   0  0  0  0  0
  -25.2513   10.0955    8.4423 H   0  0  0  0  0
  -22.5675    4.9584   13.5595 H   0  0  0  0  0
  -21.5932    5.4753   12.1794 H   0  0  0  0  0
  1  2  1  0  0  0
  2  3  1  0  0  0
  2  5  1  0  0  0
  3  4  2  0  0  0
  3  7  1  0  0  0
  5  6  1  0  0  0
  6 89  1  0  0  0
  7  8  1  0  0  0
  8  9  1  0  0  0
  8 11  1  0  0  0
  9 10  2  0  0  0
  9 13  1  0  0  0
 11 12  1  0  0  0
 12 45  1  0  0  0
 13 14  1  0  0  0
 14 15  1  0  0  0
 14 17  1  0  0  0
 15 16  2  0  0  0
 15 21  1  0  0  0
 17 18  1  0  0  0
 18 19  1  0  0  0
 18 20  1  0  0  0
 21 22  1  0  0  0
 22 23  1  0  0  0
 23 24  2  0  0  0
 23 25  1  0  0  0
 25 26  1  0  0  0
 26 27  1  0  0  0
 26 29  1  0  0  0
 27 28  2  0  0  0
 27 36  1  0  0  0
 29 30  1  0  0  0
 30 31  1  0  0  0
 31 32  1  0  0  0
 32 33  1  0  0  0
 33 34  1  0  0  0
 33 35  2  0  0  0
 36 37  1  0  0  0
 37 38  1  0  0  0
 38 39  2  0  0  0
 38 40  1  0  0  0
 40 41  1  0  0  0
 41 42  1  0  0  0
 41 44  1  0  0  0
 42 43  2  0  0  0
 42 46  1  0  0  0
 44 45  1  0  0  0
 46 47  1  0  0  0
 47 48  1  0  0  0
 47 50  1  0  0  0
 48 49  2  0  0  0
 48 55  1  0  0  0
 50 51  1  0  0  0
 51 52  1  0  0  0
 52 53  1  0  0  0
 52 54  2  0  0  0
 55 56  1  0  0  0
 56 57  1  0  0  0
 56 59  1  0  0  0
 57 58  2  0  0  0
 57 63  1  0  0  0
 59 60  1  0  0  0
 60 61  2  0  0  0
 60 62  1  0  0  0
 63 64  1  0  0  0
 64 65  1  0  0  0
 64 67  1  0  0  0
 65 66  2  0  0  0
 65 73  1  0  0  0
 67 68  1  0  0  0
 68 69  4  0  0  0
 68 70  4  0  0  0
 69 71  4  0  0  0
 70 72  4  0  0  0
 71 72  4  0  0  0
 73 74  1  0  0  0
 74 75  1  0  0  0
 74 77  1  0  0  0
 75 76  2  0  0  0
 75 84  1  0  0  0
 77 78  1  0  0  0
 78 79  1  0  0  0
 79 80  1  0  0  0
 80 81  1  0  0  0
 81 82  1  0  0  0
 81 83  2  0  0  0
 84 85  1  0  0  0
 85 86  1  0  0  0
 85 88  1  0  0  0
 86 87  2  0  0  0
 86 90  1  0  0  0
 88 89  1  0  0  0
 90 91  1  0  0  0
 91 92  1  0  0  0
 91 94  1  0  0  0
 92 93  2  0  0  0
 92 98  1  0  0  0
 94 95  1  0  0  0
 95 96  1  0  0  0
 95 97  1  0  0  0
  1 99  1  0  0  0
  1100  1  0  0  0
  1101  1  0  0  0
  2102  1  0  0  0
  5103  1  0  0  0
  5104  1  0  0  0
  7105  1  0  0  0
  8106  1  0  0  0
 11107  1  0  0  0
 11108  1  0  0  0
 13109  1  0  0  0
 14110  1  0  0  0
 17111  1  0  0  0
 17112  1  0  0  0
 18113  1  0  0  0
 19114  1  0  0  0
 19115  1  0  0  0
 19116  1  0  0  0
 20117  1  0  0  0
 20118  1  0  0  0
 20119  1  0  0  0
 21120  1  0  0  0
 22121  1  0  0  0
 22122  1  0  0  0
 25123  1  0  0  0
 26124  1  0  0  0
 29125  1  0  0  0
 29126  1  0  0  0
 30127  1  0  0  0
 30128  1  0  0  0
 31129  1  0  0  0
 31130  1  0  0  0
 32131  1  0  0  0
 34132  1  0  0  0
 34133  1  0  0  0
 35134  1  0  0  0
 36135  1  0  0  0
 37136  1  0  0  0
 37137  1  0  0  0
 40138  1  0  0  0
 41139  1  0  0  0
 44140  1  0  0  0
 44141  1  0  0  0
 46142  1  0  0  0
 47143  1  0  0  0
 50144  1  0  0  0
 50145  1  0  0  0
 51146  1  0  0  0
 51147  1  0  0  0
 53148  1  0  0  0
 55149  1  0  0  0
 56150  1  0  0  0
 59151  1  0  0  0
 59152  1  0  0  0
 62153  1  0  0  0
 62154  1  0  0  0
 63155  1  0  0  0
 64156  1  0  0  0
 67157  1  0  0  0
 67158  1  0  0  0
 70159  1  0  0  0
 71160  1  0  0  0
 73161  1  0  0  0
 74162  1  0  0  0
 77163  1  0  0  0
 77164  1  0  0  0
 78165  1  0  0  0
 78166  1  0  0  0
 79167  1  0  0  0
 79168  1  0  0  0
 80169  1  0  0  0
 82170  1  0  0  0
 82171  1  0  0  0
 83172  1  0  0  0
 84173  1  0  0  0
 85174  1  0  0  0
 88175  1  0  0  0
 88176  1  0  0  0
 90177  1  0  0  0
 91178  1  0  0  0
 94179  1  0  0  0
 94180  1  0  0  0
 95181  1  0  0  0
 96182  1  0  0  0
 96183  1  0  0  0
 96184  1  0  0  0
 97185  1  0  0  0
 97186  1  0  0  0
 97187  1  0  0  0
 98188  1  0  0  0
 98189  1  0  0  0
M  END
$$$$
