### 
### Created by X-TOOL on Mon Sep 10 21:13:12 2018
### 

@<TRIPOS>MOLECULE
4gly_ligand
  191   193     1     0     0
SMALL
GAST_HUCK


@<TRIPOS>ATOM
      1 N         -26.8630    4.7040    9.9020 N.4       1 CYS         0.2385
      2 CA        -26.0130    5.3930   10.9000 C.3       1 CYS         0.0749
      3 C         -26.7070    6.7140   11.3720 C.2       1 CYS         0.2276
      4 O         -27.6680    7.1820   10.7160 O.2       1 CYS        -0.3907
      5 CB        -24.6140    5.6050   10.3160 C.3       1 CYS         0.0643
      6 SG        -23.6850    4.1340    9.7390 S.3       1 CYS        -0.0848
      7 N         -26.2080    7.3240   12.4560 N.am      1 CYS        -0.2602
      8 CA        -26.9720    8.3210   13.2050 C.3       1 CYS         0.1408
      9 C         -27.2120    9.6090   12.3330 C.2       1 CYS         0.2047
     10 O         -26.2660   10.1330   11.7490 O.2       1 CYS        -0.3944
     11 CB        -26.2610    8.5920   14.5490 C.3       1 CYS         0.0443
     12 SG        -27.2440    9.6720   15.5850 S.3       1 CYS        -0.0882
     13 N         -28.4590   10.0830   12.2250 N.am      1 LEU        -0.2637
     14 CA        -28.8170   11.3010   11.4270 C.3       1 LEU         0.1312
     15 C         -29.1630   12.3670   12.4380 C.2       1 LEU         0.2037
     16 O         -29.6110   12.0330   13.5400 O.2       1 LEU        -0.3944
     17 CB        -30.0650   11.0680   10.6020 C.3       1 LEU        -0.0101
     18 CG        -30.0020    9.8260    9.7370 C.3       1 LEU        -0.0425
     19 CD1       -31.4060    9.3380    9.3450 C.3       1 LEU        -0.0625
     20 CD2       -29.1010   10.1540    8.5230 C.3       1 LEU        -0.0625
     21 N         -29.0250   13.6230   12.0550 N.am      1 GLY        -0.2664
     22 CA        -29.4930   14.7650   12.8300 C.3       1 GLY         0.1201
     23 C         -28.4990   15.1730   13.8980 C.2       1 GLY         0.2007
     24 O         -27.3260   14.8000   13.8750 O.2       1 GLY        -0.3947
     25 N         -28.9780   15.9250   14.8690 N.am      1 ARG        -0.2640
     26 CA        -28.0500   16.5940   15.8570 C.3       1 ARG         0.1311
     27 C         -27.6390   15.7560   17.0470 C.2       1 ARG         0.2037
     28 O         -26.6770   16.0810   17.7210 O.2       1 ARG        -0.3944
     29 CB        -28.6650   17.8640   16.3570 C.3       1 ARG        -0.0092
     30 CG        -29.8390   17.6850   17.3210 C.3       1 ARG        -0.0156
     31 CD        -30.4840   19.0380   17.6460 C.3       1 ARG         0.0627
     32 NE        -31.2730   19.5630   16.5270 N.pl3     1 ARG        -0.2723
     33 CZ        -32.2340   20.4280   16.6860 C.cat     1 ARG         0.2882
     34 NH1       -32.4710   20.9090   17.9330 N.pl3     1 ARG        -0.2849
     35 NH2       -32.9750   20.8130   15.6400 N.pl3     1 ARG        -0.2849
     36 N         -28.3570   14.6620   17.2850 N.am      1 GLY        -0.2664
     37 CA        -28.1250   13.8560   18.4540 C.3       1 GLY         0.1201
     38 C         -27.1850   12.6830   18.1700 C.2       1 GLY         0.2008
     39 O         -27.5040   11.5550   18.4680 O.2       1 GLY        -0.3947
     40 N         -25.9970   12.9380   17.6120 N.am      1 CYS        -0.2631
     41 CA        -25.1430   11.8300   17.1390 C.3       1 CYS         0.1406
     42 C         -23.6770   11.9650   17.5880 C.2       1 CYS         0.2047
     43 O         -22.7590   11.4820   16.9010 O.2       1 CYS        -0.3944
     44 CB        -25.1660   11.8790   15.6140 C.3       1 CYS         0.0443
     45 SG        -26.8310   11.6120   14.9250 S.3       1 CYS        -0.0882
     46 N         -23.4570   12.6630   18.7060 N.am      1 GLU        -0.2636
     47 CA        -22.1290   12.8170   19.2070 C.3       1 GLU         0.1325
     48 C         -21.4960   11.4520   19.5220 C.2       1 GLU         0.2041
     49 O         -22.1900   10.4770   19.8970 O.2       1 GLU        -0.3944
     50 CB        -22.1190   13.6710   20.5040 C.3       1 GLU        -0.0008
     51 CG        -22.6530   15.1120   20.3680 C.3       1 GLU         0.0044
     52 CD        -24.1720   15.1960   20.4980 C.2       1 GLU         0.0350
     53 OE1       -24.8580   14.1260   20.4800 O.co2     1 GLU        -0.5690
     54 OE2       -24.7460   16.2740   20.5900 O.co2     1 GLU        -0.5690
     55 N         -20.1580   11.4310   19.4180 N.am      1 ASN        -0.2616
     56 CA        -19.3800   10.2860   19.9320 C.3       1 ASN         0.1476
     57 C         -19.8780    8.9400   19.3650 C.2       1 ASN         0.2063
     58 O         -19.9500    7.9370   20.0560 O.2       1 ASN        -0.3942
     59 CB        -19.4170   10.2930   21.4540 C.3       1 ASN         0.0773
     60 CG        -18.3810    9.3710   22.0630 C.2       1 ASN         0.1780
     61 OD1       -17.2400    9.2420   21.5650 O.2       1 ASN        -0.3970
     62 ND2       -18.7600    8.7400   23.1420 N.am      1 ASN        -0.3007
     63 N         -20.2310    8.9580   18.0800 N.am      1 HIS        -0.2623
     64 CA        -20.6570    7.7640   17.3500 C.3       1 HIS         0.1369
     65 C         -19.5200    7.2010   16.4830 C.2       1 HIS         0.2054
     66 O         -18.7460    7.9830   15.9280 O.2       1 HIS        -0.3942
     67 CB        -21.8890    8.0860   16.5090 C.3       1 HIS         0.0145
     68 CG        -23.1970    7.8600   17.2830 C.2       1 HIS        -0.0027
     69 ND1       -23.4900    8.5440   18.4610 N.2       1 HIS        -0.3252
     70 CD2       -24.2110    6.9650   17.1010 C.2       1 HIS         0.0291
     71 CE1       -24.6630    8.1180   18.9440 C.2       1 HIS         0.0907
     72 NE2       -25.1210    7.1440   18.1400 N.pl3     1 HIS        -0.2752
     73 N         -19.4750    5.8690   16.3420 N.am      1 ARG        -0.2636
     74 CA        -18.4650    5.1850   15.5400 C.3       1 ARG         0.1311
     75 C         -18.7060    5.5330   14.0360 C.2       1 ARG         0.2039
     76 O         -17.7500    5.7950   13.2800 O.2       1 ARG        -0.3944
     77 CB        -18.6020    3.6750   15.8710 C.3       1 ARG        -0.0092
     78 CG        -17.5500    2.7090   15.3500 C.3       1 ARG        -0.0156
     79 CD        -17.8220    1.2770   15.8190 C.3       1 ARG         0.0627
     80 NE        -19.2550    0.9460   15.7590 N.pl3     1 ARG        -0.2723
     81 CZ        -20.0700    0.8180   16.8110 C.cat     1 ARG         0.2882
     82 NH1       -19.6150    0.9630   18.0680 N.pl3     1 ARG        -0.2849
     83 NH2       -21.3420    0.5250   16.5940 N.pl3     1 ARG        -0.2849
     84 N         -19.9490    5.5900   13.5800 N.am      1 CYS        -0.2629
     85 CA        -20.1700    5.7350   12.0910 C.3       1 CYS         0.1406
     86 C         -20.2750    7.2430   11.6850 C.2       1 CYS         0.2047
     87 O         -19.2740    7.9080   11.8760 O.2       1 CYS        -0.3944
     88 CB        -21.1830    4.6780   11.4900 C.3       1 CYS         0.0443
     89 SG        -21.7070    4.7140    9.7310 S.3       1 CYS        -0.0880
     90 N         -21.3770    7.8890   11.2330 N.am      1 LEU        -0.2637
     91 CA        -22.7810    7.7560   11.6590 C.3       1 LEU         0.1309
     92 C         -23.0280    6.7030   12.7570 C.2       1 LEU         0.1992
     93 O         -23.9500    6.8510   13.5970 O.2       1 LEU        -0.3947
     94 CB        -23.7300    7.6590   10.4440 C.3       1 LEU        -0.0101
     95 CG        -23.8170    8.8950    9.4980 C.3       1 LEU        -0.0425
     96 CD1       -22.9100    8.8420    8.2580 C.3       1 LEU        -0.0625
     97 CD2       -25.2500    9.2270    9.1010 C.3       1 LEU        -0.0625
     98 N         -22.3540    5.6460   12.8370 N.am      1 NH2        -0.2990
     99 H1        -26.4093    3.8549    9.6033 H         1 CYS         0.2015
    100 H2        -27.0039    5.3073    9.1069 H         1 CYS         0.2015
    101 H3        -27.7543    4.4808   10.3166 H         1 CYS         0.2015
    102 H4        -25.9114    4.7400   11.7793 H         1 CYS         0.1107
    103 H5        -24.0060    6.0905   11.0935 H         1 CYS         0.0466
    104 H6        -24.7187    6.2827    9.4559 H         1 CYS         0.0466
    105 H7        -25.2851    7.0903   12.7620 H         1 CYS         0.1885
    106 H8        -27.9602    7.8953   13.4337 H         1 CYS         0.0808
    107 H9        -25.2889    9.0679   14.3527 H         1 CYS         0.0432
    108 H10       -26.1029    7.6372   15.0719 H         1 CYS         0.0432
    109 H11       -29.1919    9.5985   12.7025 H         1 LEU         0.1883
    110 H12       -27.9786   11.6064   10.7837 H         1 LEU         0.0800
    111 H13       -30.2161   11.9392    9.9477 H         1 LEU         0.0315
    112 H14       -30.9204   10.9709   11.2867 H         1 LEU         0.0315
    113 H15       -29.5229    9.0208   10.3132 H         1 LEU         0.0298
    114 H16       -31.3197    8.4374    8.7193 H         1 LEU         0.0232
    115 H17       -31.9246   10.1276    8.7815 H         1 LEU         0.0232
    116 H18       -31.9783    9.0996   10.2536 H         1 LEU         0.0232
    117 H19       -28.1173   10.4951    8.8780 H         1 LEU         0.0232
    118 H20       -29.5695   10.9477    7.9225 H         1 LEU         0.0232
    119 H21       -28.9755    9.2525    7.9053 H         1 LEU         0.0232
    120 H22       -28.5725   13.8012   11.1812 H         1 GLY         0.1881
    121 H23       -30.4447   14.4998   13.3136 H         1 GLY         0.0763
    122 H24       -29.6517   15.6147   12.1497 H         1 GLY         0.0763
    123 H25       -29.9661   16.0543   14.9529 H         1 ARG         0.1883
    124 H26       -27.1312   16.8487   15.3084 H         1 ARG         0.0800
    125 H27       -29.0232   18.4339   15.4870 H         1 ARG         0.0313
    126 H28       -27.8838   18.4390   16.8757 H         1 ARG         0.0313
    127 H29       -29.4752   17.2255   18.2518 H         1 ARG         0.0301
    128 H30       -30.5903   17.0288   16.8573 H         1 ARG         0.0301
    129 H31       -29.6895   19.7595   17.8875 H         1 ARG         0.0689
    130 H32       -31.1444   18.9147   18.5170 H         1 ARG         0.0689
    131 H33       -31.0583   19.2339   15.5749 H         1 ARG         0.2642
    132 H34       -33.2249   21.5939   18.0861 H         1 ARG         0.2615
    133 H35       -31.8969   20.5891   18.7261 H         1 ARG         0.2615
    134 H36       -32.7777   20.4353   14.7023 H         1 ARG         0.2615
    135 H37       -33.7425   21.4870   15.7728 H         1 ARG         0.2615
    136 H38       -29.0719   14.3945   16.6390 H         1 GLY         0.1881
    137 H39       -29.0882   13.4602   18.8083 H         1 GLY         0.0763
    138 H40       -27.6778   14.4869   19.2362 H         1 GLY         0.0763
    139 H41       -25.6854   13.8832   17.5145 H         1 CYS         0.1884
    140 H42       -25.5480   10.8737   17.5016 H         1 CYS         0.0808
    141 H43       -24.4959   11.0973   15.2270 H         1 CYS         0.0432
    142 H44       -24.8049   12.8657   15.2884 H         1 CYS         0.0432
    143 H45       -24.2249   13.0788   19.1933 H         1 GLU         0.1883
    144 H46       -21.5242   13.3235   18.4404 H         1 GLU         0.0801
    145 H47       -21.0801   13.7292   20.8608 H         1 GLU         0.0330
    146 H48       -22.7356   13.1528   21.2532 H         1 GLU         0.0330
    147 H49       -22.3628   15.5025   19.3814 H         1 GLU         0.0433
    148 H50       -22.1984   15.7309   21.1556 H         1 GLU         0.0433
    149 H51       -19.6830   12.1988   18.9879 H         1 ASN         0.1885
    150 H52       -18.3350   10.4150   19.6137 H         1 ASN         0.0826
    151 H53       -20.4151    9.9693   21.7842 H         1 ASN         0.0551
    152 H54       -19.2284   11.3176   21.8069 H         1 ASN         0.0551
    153 H55       -18.1309    8.1132   23.6017 H         1 ASN         0.1814
    154 H56       -19.6793    8.8837   23.5084 H         1 ASN         0.1814
    155 H57       -20.2033    9.8299   17.5912 H         1 HIS         0.1885
    156 H58       -20.9344    6.9936   18.0845 H         1 HIS         0.0817
    157 H59       -21.8885    7.4401   15.6186 H         1 HIS         0.0420
    158 H60       -21.8395    9.1398   16.1976 H         1 HIS         0.0420
    159 H61       -24.2936    6.2422   16.2906 H         1 HIS         0.0729
    160 H62       -25.1609    8.4960   19.8357 H         1 HIS         0.1199
    161 H63       -25.9972    6.6184   18.2700 H         1 HIS         0.2361
    162 H64       -20.1664    5.3173   16.8085 H         1 ARG         0.1883
    163 H65       -17.4583    5.5261   15.8232 H         1 ARG         0.0800
    164 H66       -19.5711    3.3435   15.4699 H         1 ARG         0.0313
    165 H67       -18.6084    3.5843   16.9672 H         1 ARG         0.0313
    166 H68       -16.5622    3.0239   15.7175 H         1 ARG         0.0301
    167 H69       -17.5566    2.7323   14.2503 H         1 ARG         0.0301
    168 H70       -17.4750    1.1702   16.8573 H         1 ARG         0.0689
    169 H71       -17.2680    0.5795   15.1736 H         1 ARG         0.0689
    170 H72       -19.6654    0.8004   14.8256 H         1 ARG         0.2642
    171 H73       -20.2602    0.8602   18.8643 H         1 ARG         0.2615
    172 H74       -18.6213    1.1769   18.2346 H         1 ARG         0.2615
    173 H75       -21.6878    0.4145   15.6301 H         1 ARG         0.2615
    174 H76       -21.9863    0.4074   17.3890 H         1 ARG         0.2615
    175 H77       -20.7254    5.5382   14.2081 H         1 CYS         0.1884
    176 H78       -19.2133    5.4257   11.6448 H         1 CYS         0.0808
    177 H79       -22.1037    4.7622   12.0860 H         1 CYS         0.0432
    178 H80       -20.7287    3.6898   11.6545 H         1 CYS         0.0432
    179 H81       -21.2133    8.5532   10.5036 H         1 LEU         0.1883
    180 H82       -23.0267    8.7149   12.1387 H         1 LEU         0.0800
    181 H83       -24.7420    7.4683   10.8307 H         1 LEU         0.0315
    182 H84       -23.4018    6.8022    9.8372 H         1 LEU         0.0315
    183 H85       -23.4568    9.7456   10.0953 H         1 LEU         0.0298
    184 H86       -23.0486    9.7568    7.6630 H         1 LEU         0.0232
    185 H87       -23.1730    7.9649    7.6485 H         1 LEU         0.0232
    186 H88       -21.8594    8.7665    8.5751 H         1 LEU         0.0232
    187 H89       -25.8815    9.2600   10.0011 H         1 LEU         0.0232
    188 H90       -25.6289    8.4547    8.4154 H         1 LEU         0.0232
    189 H91       -25.2743   10.2060    8.6000 H         1 LEU         0.0232
    190 H92       -22.5436    4.9859   13.5639 H         1 NH2         0.1815
    191 H93       -21.6278    5.4646   12.1738 H         1 NH2         0.1815
@<TRIPOS>BOND
     1    1    2 1  
     2    2    3 1  
     3    2    5 1  
     4    3    4 2  
     5    3    7 am 
     6    5    6 1  
     7    6   89 1  
     8    7    8 1  
     9    8    9 1  
    10    8   11 1  
    11    9   10 2  
    12    9   13 am 
    13   11   12 1  
    14   12   45 1  
    15   13   14 1  
    16   14   15 1  
    17   14   17 1  
    18   15   16 2  
    19   15   21 am 
    20   17   18 1  
    21   18   19 1  
    22   18   20 1  
    23   21   22 1  
    24   22   23 1  
    25   23   24 2  
    26   23   25 am 
    27   25   26 1  
    28   26   27 1  
    29   26   29 1  
    30   27   28 2  
    31   27   36 am 
    32   29   30 1  
    33   30   31 1  
    34   31   32 1  
    35   32   33 ar 
    36   33   34 ar 
    37   33   35 ar 
    38   36   37 1  
    39   37   38 1  
    40   38   39 2  
    41   38   40 am 
    42   40   41 1  
    43   41   42 1  
    44   41   44 1  
    45   42   43 2  
    46   42   46 am 
    47   44   45 1  
    48   46   47 1  
    49   47   48 1  
    50   47   50 1  
    51   48   49 2  
    52   48   55 am 
    53   50   51 1  
    54   51   52 1  
    55   52   53 ar 
    56   52   54 ar 
    57   55   56 1  
    58   56   57 1  
    59   56   59 1  
    60   57   58 2  
    61   57   63 am 
    62   59   60 1  
    63   60   61 2  
    64   60   62 am 
    65   63   64 1  
    66   64   65 1  
    67   64   67 1  
    68   65   66 2  
    69   65   73 am 
    70   67   68 1  
    71   68   69 1  
    72   68   70 2  
    73   69   71 2  
    74   70   72 1  
    75   71   72 1  
    76   73   74 1  
    77   74   75 1  
    78   74   77 1  
    79   75   76 2  
    80   75   84 am 
    81   77   78 1  
    82   78   79 1  
    83   79   80 1  
    84   80   81 ar 
    85   81   82 ar 
    86   81   83 ar 
    87   84   85 1  
    88   85   86 1  
    89   85   88 1  
    90   86   87 2  
    91   86   90 am 
    92   88   89 1  
    93   90   91 1  
    94   91   92 1  
    95   91   94 1  
    96   92   93 2  
    97   92   98 am 
    98   94   95 1  
    99   95   96 1  
   100   95   97 1  
   101    1   99 1  
   102    1  100 1  
   103    1  101 1  
   104    2  102 1  
   105    5  103 1  
   106    5  104 1  
   107    7  105 1  
   108    8  106 1  
   109   11  107 1  
   110   11  108 1  
   111   13  109 1  
   112   14  110 1  
   113   17  111 1  
   114   17  112 1  
   115   18  113 1  
   116   19  114 1  
   117   19  115 1  
   118   19  116 1  
   119   20  117 1  
   120   20  118 1  
   121   20  119 1  
   122   21  120 1  
   123   22  121 1  
   124   22  122 1  
   125   25  123 1  
   126   26  124 1  
   127   29  125 1  
   128   29  126 1  
   129   30  127 1  
   130   30  128 1  
   131   31  129 1  
   132   31  130 1  
   133   32  131 1  
   134   34  132 1  
   135   34  133 1  
   136   35  134 1  
   137   35  135 1  
   138   36  136 1  
   139   37  137 1  
   140   37  138 1  
   141   40  139 1  
   142   41  140 1  
   143   44  141 1  
   144   44  142 1  
   145   46  143 1  
   146   47  144 1  
   147   50  145 1  
   148   50  146 1  
   149   51  147 1  
   150   51  148 1  
   151   55  149 1  
   152   56  150 1  
   153   59  151 1  
   154   59  152 1  
   155   62  153 1  
   156   62  154 1  
   157   63  155 1  
   158   64  156 1  
   159   67  157 1  
   160   67  158 1  
   161   70  159 1  
   162   71  160 1  
   163   72  161 1  
   164   73  162 1  
   165   74  163 1  
   166   77  164 1  
   167   77  165 1  
   168   78  166 1  
   169   78  167 1  
   170   79  168 1  
   171   79  169 1  
   172   80  170 1  
   173   82  171 1  
   174   82  172 1  
   175   83  173 1  
   176   83  174 1  
   177   84  175 1  
   178   85  176 1  
   179   88  177 1  
   180   88  178 1  
   181   90  179 1  
   182   91  180 1  
   183   94  181 1  
   184   94  182 1  
   185   95  183 1  
   186   96  184 1  
   187   96  185 1  
   188   96  186 1  
   189   97  187 1  
   190   97  188 1  
   191   97  189 1  
   192   98  190 1  
   193   98  191 1  
@<TRIPOS>SUBSTRUCTURE
     1 CYS         1

