3wzk_ligand
  -I-interpret- 

 47 51  0  0  0  0  0  0  0  0999 V2000
    5.3130  -34.4040  -16.5480 O   0  0  0  0  0
    4.2520  -33.7880  -16.4980 C   0  0  0  0  0
    3.7900  -33.1340  -17.5710 N   0  0  0  0  0
    4.6200  -33.0470  -18.7650 C   0  0  0  0  0
    4.2780  -31.8320  -19.6250 C   0  0  0  0  0
    5.4780  -31.7930  -18.6800 C   0  0  0  0  0
    3.4760  -33.7770  -15.2050 C   0  0  0  0  0
    2.6790  -32.6800  -14.8730 C   0  0  0  0  0
    1.9620  -32.6740  -13.6690 C   0  0  0  0  0
    2.0290  -33.7580  -12.7920 C   0  0  0  0  0
    2.8440  -34.8430  -13.1220 C   0  0  0  0  0
    3.5570  -34.8610  -14.3270 C   0  0  0  0  0
    1.2430  -33.6920  -11.5120 C   0  0  0  0  0
    0.7050  -34.8130  -10.9790 N   0  0  0  0  0
    0.6900  -36.1280  -11.3170 C   0  0  0  0  0
    0.0260  -37.0870  -10.5240 C   0  0  0  0  0
   -0.6260  -36.7360   -9.3880 N   0  0  0  0  0
   -0.6370  -35.4360   -9.0070 C   0  0  0  0  0
    0.0640  -34.4210   -9.8560 C   0  0  0  0  0
    0.1850  -33.0790   -9.7040 N   0  0  0  0  0
    0.9230  -32.5930  -10.7310 C   0  0  0  0  0
   -1.2740  -35.0140   -7.8940 N   0  0  0  0  0
   -1.9050  -35.9340   -6.9690 C   0  0  0  0  0
   -0.9140  -36.4260   -5.9370 C   0  0  0  0  0
   -0.2750  -35.2420   -4.8350 S   0  0  0  0  0
    0.7150  -36.3820   -3.9760 C   0  0  0  0  0
    0.5190  -37.6310   -4.5770 C   0  0  0  0  0
   -0.3720  -37.6760   -5.6570 C   0  0  0  0  0
    2.8666  -32.7012  -17.5526 H   0  0  0  0  0
    4.7759  -34.1048  -18.9769 H   0  0  0  0  0
    3.4097  -31.2215  -19.8727 H   0  0  0  0  0
    4.0462  -31.6033  -20.6652 H   0  0  0  0  0
    6.5333  -31.5219  -18.7109 H   0  0  0  0  0
    5.8933  -31.1381  -17.9141 H   0  0  0  0  0
    2.6144  -31.8283  -15.5502 H   0  0  0  0  0
    1.3446  -31.8126  -13.4142 H   0  0  0  0  0
    2.9259  -35.6847  -12.4343 H   0  0  0  0  0
    4.1760  -35.7217  -14.5804 H   0  0  0  0  0
    1.2034  -36.4502  -12.2229 H   0  0  0  0  0
    0.0372  -38.1328  -10.8309 H   0  0  0  0  0
    1.2058  -31.5550  -10.9062 H   0  0  0  0  0
   -1.3125  -34.0138   -7.6975 H   0  0  0  0  0
   -2.2826  -36.7899   -7.5285 H   0  0  0  0  0
   -2.7159  -35.4157   -6.4573 H   0  0  0  0  0
    1.3659  -36.1656   -3.1289 H   0  0  0  0  0
    1.0339  -38.5238   -4.2223 H   0  0  0  0  0
   -0.6121  -38.5829   -6.2120 H   0  0  0  0  0
  1  2  2  0  0  0
  2  3  1  0  0  0
  2  7  1  0  0  0
  3  4  1  0  0  0
  4  5  1  0  0  0
  4  6  1  0  0  0
  5  6  1  0  0  0
  7  8  4  0  0  0
  7 12  4  0  0  0
  8  9  4  0  0  0
  9 10  4  0  0  0
 10 11  4  0  0  0
 10 13  1  0  0  0
 11 12  4  0  0  0
 13 14  4  0  0  0
 13 21  4  0  0  0
 14 15  4  0  0  0
 14 19  4  0  0  0
 15 16  4  0  0  0
 16 17  4  0  0  0
 17 18  4  0  0  0
 18 19  4  0  0  0
 18 22  1  0  0  0
 19 20  4  0  0  0
 20 21  4  0  0  0
 22 23  1  0  0  0
 23 24  1  0  0  0
 24 25  4  0  0  0
 24 28  4  0  0  0
 25 26  4  0  0  0
 26 27  4  0  0  0
 27 28  4  0  0  0
  3 29  1  0  0  0
  4 30  1  0  0  0
  5 31  1  0  0  0
  5 32  1  0  0  0
  6 33  1  0  0  0
  6 34  1  0  0  0
  8 35  1  0  0  0
  9 36  1  0  0  0
 11 37  1  0  0  0
 12 38  1  0  0  0
 15 39  1  0  0  0
 16 40  1  0  0  0
 21 41  1  0  0  0
 22 42  1  0  0  0
 23 43  1  0  0  0
 23 44  1  0  0  0
 26 45  1  0  0  0
 27 46  1  0  0  0
 28 47  1  0  0  0
M  END
$$$$
