5een_ligand
  -I-interpret- 

 34 35  0  0  0  0  0  0  0  0999 V2000
   28.3030   98.2600   28.4070 O   0  0  0  0  0
   27.7090   98.8410   29.2420 C   0  0  0  0  0
   26.2840   98.7420   29.3640 N   0  0  0  0  0
   25.6580   97.9840   28.4970 O   0  0  0  0  0
   28.3390   99.7190   30.2840 C   0  0  0  0  0
   29.5380   99.4540   30.7560 C   0  0  0  0  0
   30.1800   99.9720   31.9680 C   0  0  0  0  0
   31.3560   99.4140   32.4460 C   0  0  0  0  0
   29.6630  101.0420   32.7010 C   0  0  0  0  0
   30.3030  101.5010   33.8430 C   0  0  0  0  0
   31.4720  100.9130   34.2780 C   0  0  0  0  0
   32.0080   99.8310   33.5760 C   0  0  0  0  0
   33.5290   99.1400   34.1640 S   0  0  0  0  0
   33.3760   98.3310   35.5670 O   0  0  0  0  0
   33.9750   97.8910   33.2500 O   0  0  0  0  0
   34.7950  100.1640   34.1440 N   0  0  0  0  0
   35.0470  101.1380   33.1600 C   0  0  0  0  0
   35.7410  100.8250   31.9730 C   0  0  0  0  0
   35.9560  101.7860   31.0100 C   0  0  0  0  0
   35.4750  103.0750   31.1720 C   0  0  0  0  0
   34.7720  103.3880   32.3170 C   0  0  0  0  0
   34.5500  102.4410   33.2930 C   0  0  0  0  0
   27.7955  100.5881   30.6546 H   0  0  0  0  0
   30.1336   98.7562   30.1675 H   0  0  0  0  0
   31.7911   98.5874   31.8843 H   0  0  0  0  0
   28.7427  101.5239   32.3710 H   0  0  0  0  0
   29.8777  102.3346   34.4019 H   0  0  0  0  0
   31.9763  101.2915   35.1671 H   0  0  0  0  0
   35.4634  100.0933   34.9113 H   0  0  0  0  0
   36.1112   99.8119   31.8159 H   0  0  0  0  0
   36.5120  101.5289   30.1084 H   0  0  0  0  0
   35.6494  103.8307   30.4061 H   0  0  0  0  0
   34.3867  104.3987   32.4515 H   0  0  0  0  0
   33.9792  102.7097   34.1818 H   0  0  0  0  0
  1  2  2  0  0  0
  2  3  1  0  0  0
  2  5  1  0  0  0
  3  4  2  0  0  0
  5  6  2  0  0  0
  6  7  1  0  0  0
  7  8  4  0  0  0
  7  9  4  0  0  0
  8 12  4  0  0  0
  9 10  4  0  0  0
 10 11  4  0  0  0
 11 12  4  0  0  0
 12 13  1  0  0  0
 13 14  2  0  0  0
 13 15  2  0  0  0
 13 16  1  0  0  0
 16 17  1  0  0  0
 17 18  4  0  0  0
 17 22  4  0  0  0
 18 19  4  0  0  0
 19 20  4  0  0  0
 20 21  4  0  0  0
 21 22  4  0  0  0
  5 23  1  0  0  0
  6 24  1  0  0  0
  8 25  1  0  0  0
  9 26  1  0  0  0
 10 27  1  0  0  0
 11 28  1  0  0  0
 16 29  1  0  0  0
 18 30  1  0  0  0
 19 31  1  0  0  0
 20 32  1  0  0  0
 21 33  1  0  0  0
 22 34  1  0  0  0
M  END
$$$$
