4g0p_ligand
  -I-interpret- 

 36 37  0  0  0  0  0  0  0  0999 V2000
   28.6990   29.2940   37.7390 N   0  0  0  0  0
   28.3450   27.8800   37.5700 C   0  0  0  0  0
   28.1870   27.3230   36.2050 N   0  0  0  0  0
   28.5410   28.1140   35.0440 C   0  0  0  0  0
   28.8120   29.5920   35.1920 C   0  0  0  0  0
   28.8820   30.1800   36.5800 C   0  0  0  0  0
   28.1100   27.1920   38.5520 O   0  0  0  0  0
   28.5460   27.5870   33.9430 O   0  0  0  0  0
   28.7280   29.9910   38.9830 C   0  0  0  0  0
   29.9400   30.7840   39.2230 C   0  0  0  0  0
   31.0760   30.0830   39.6360 O   0  0  0  0  0
   29.4770   31.8720   40.1160 C   0  0  0  0  0
   28.0180   32.0320   39.8140 C   0  0  0  0  0
   30.1320   32.2800   41.3560 O   0  0  0  0  0
   27.5820   30.8440   39.1720 O   0  0  0  0  0
   27.3900   33.3410   39.4520 C   0  0  0  0  0
   26.0640   33.2460   39.0960 O   0  0  0  0  0
   25.3660   34.3980   38.3100 P   0  0  0  0  0
   25.9180   35.7390   38.7160 O   0  0  0  0  0
   25.6470   34.1770   36.8000 O   0  0  0  0  0
   23.8370   34.3230   38.6030 O   0  0  0  0  0
   27.8267   26.3766   36.0826 H   0  0  0  0  0
   27.9631   30.0847   34.7179 H   0  0  0  0  0
   29.8060   29.7415   34.7703 H   0  0  0  0  0
   29.8998   30.5586   36.6737 H   0  0  0  0  0
   28.0504   30.8829   36.6296 H   0  0  0  0  0
   28.7154   29.1800   39.7111 H   0  0  0  0  0
   30.3518   31.1737   38.2920 H   0  0  0  0  0
   31.8022   30.6982   39.7616 H   0  0  0  0  0
   30.0419   32.7966   39.9970 H   0  0  0  0  0
   27.5339   32.1677   40.7811 H   0  0  0  0  0
   29.6420   33.0044   41.7521 H   0  0  0  0  0
   27.9295   33.7308   38.5888 H   0  0  0  0  0
   27.4432   33.9800   40.3334 H   0  0  0  0  0
   25.2981   33.3236   36.5323 H   0  0  0  0  0
   23.5034   33.4627   38.3382 H   0  0  0  0  0
  1  2  1  0  0  0
  1  6  1  0  0  0
  1  9  1  0  0  0
  2  3  1  0  0  0
  2  7  2  0  0  0
  3  4  1  0  0  0
  4  5  1  0  0  0
  4  8  2  0  0  0
  5  6  1  0  0  0
  9 10  1  0  0  0
  9 15  1  0  0  0
 10 11  1  0  0  0
 10 12  1  0  0  0
 12 13  1  0  0  0
 12 14  1  0  0  0
 13 15  1  0  0  0
 13 16  1  0  0  0
 16 17  1  0  0  0
 17 18  1  0  0  0
 18 19  2  0  0  0
 18 20  1  0  0  0
 18 21  1  0  0  0
  3 22  1  0  0  0
  5 23  1  0  0  0
  5 24  1  0  0  0
  6 25  1  0  0  0
  6 26  1  0  0  0
  9 27  1  0  0  0
 10 28  1  0  0  0
 11 29  1  0  0  0
 12 30  1  0  0  0
 13 31  1  0  0  0
 14 32  1  0  0  0
 16 33  1  0  0  0
 16 34  1  0  0  0
 20 35  1  0  0  0
 21 36  1  0  0  0
M  END
$$$$
