3atk_ligand
  -I-interpret- 

 24 24  0  0  0  0  0  0  0  0999 V2000
   -1.6220  -12.9070   17.7580 N   0  3  0  0  0
   -1.4040  -14.0480   16.8800 C   0  0  0  0  0
   -1.4840  -13.5930   15.4220 C   0  0  0  0  0
   -0.5820  -14.4130   14.5030 C   0  0  0  0  0
   -1.1840  -15.7650   14.1450 C   0  0  0  0  0
   -1.4590  -16.5980   15.3930 C   0  0  0  0  0
   -2.7130  -16.1480   16.1270 C   0  0  0  0  0
   -2.4240  -15.1350   17.2340 C   0  0  0  0  0
   -0.9492  -12.1738   17.5340 H   0  0  0  0  0
   -2.5693  -12.5531   17.6248 H   0  0  0  0  0
   -1.4996  -13.1977   18.7280 H   0  0  0  0  0
   -0.4099  -14.4737   17.0166 H   0  0  0  0  0
   -1.1563  -12.5545   15.3755 H   0  0  0  0  0
   -2.5128  -13.7218   15.0856 H   0  0  0  0  0
    0.3567  -14.5922   15.0273 H   0  0  0  0  0
   -0.4457  -13.8514   13.5788 H   0  0  0  0  0
   -0.4752  -16.3048   13.5170 H   0  0  0  0  0
   -2.1272  -15.5978   13.6249 H   0  0  0  0  0
   -0.6124  -16.4809   16.0695 H   0  0  0  0  0
   -1.6035  -17.6327   15.0823 H   0  0  0  0  0
   -3.1612  -17.0273   16.5896 H   0  0  0  0  0
   -3.3695  -15.6688   15.4008 H   0  0  0  0  0
   -3.3642  -14.6240   17.4415 H   0  0  0  0  0
   -2.0034  -15.6968   18.0680 H   0  0  0  0  0
  1  2  1  0  0  0
  2  3  1  0  0  0
  2  8  1  0  0  0
  3  4  1  0  0  0
  4  5  1  0  0  0
  5  6  1  0  0  0
  6  7  1  0  0  0
  7  8  1  0  0  0
  1  9  1  0  0  0
  1 10  1  0  0  0
  1 11  1  0  0  0
  2 12  1  0  0  0
  3 13  1  0  0  0
  3 14  1  0  0  0
  4 15  1  0  0  0
  4 16  1  0  0  0
  5 17  1  0  0  0
  5 18  1  0  0  0
  6 19  1  0  0  0
  6 20  1  0  0  0
  7 21  1  0  0  0
  7 22  1  0  0  0
  8 23  1  0  0  0
  8 24  1  0  0  0
M  END
$$$$
