2xui_ligand
  -I-interpret- 

 92 99  0  0  0  0  0  0  0  0999 V2000
   35.7840   19.9500    4.7030 N   0  0  0  0  0
   35.6130   21.2780    5.0650 C   0  0  0  0  0
   35.4760   22.3420    4.1020 C   0  0  0  0  0
   35.2920   23.6620    4.5030 C   0  0  0  0  0
   35.2620   24.0430    5.9110 C   0  0  0  0  0
   35.5690   21.6260    6.4200 C   0  0  0  0  0
   35.3610   22.9730    6.8740 C   0  0  0  0  0
   35.5260   23.3320    8.2310 N   0  0  0  0  0
   35.6750   24.5840    8.7130 C   0  0  0  0  0
   35.8680   24.8270   10.1740 C   0  0  0  0  0
   37.1700   24.7180   10.7010 C   0  0  0  0  0
   37.3390   24.9660   12.0810 C   0  0  0  0  0
   36.2430   25.3040   12.9010 C   0  0  0  0  0
   34.9380   25.4140   12.3600 C   0  0  0  0  0
   34.7560   25.1650   10.9960 C   0  0  0  0  0
   35.6180   25.6820    7.8070 C   0  0  0  0  0
   35.3190   26.9890    8.3280 C   0  0  0  0  0
   35.4200   25.4320    6.3850 C   0  0  0  0  0
   34.9500   26.5470    5.6080 C   0  0  0  0  0
   34.6710   27.7850    6.1390 C   0  0  0  0  0
   34.8520   28.0180    7.5290 C   0  0  0  0  0
   34.5960   29.2650    8.0790 N   0  0  0  0  0
   35.5590   22.2210    9.2150 C   0  0  0  0  0
   34.2340   21.4630    9.3920 C   0  0  0  0  0
   32.9860   22.3460    9.2560 C   0  0  0  0  0
   31.7360   21.4940    9.3480 C   0  0  0  0  0
   30.6430   22.3660    9.9360 C   0  0  0  0  0
   29.4370   21.5750   10.4140 C   0  0  0  0  0
   29.7720   20.6110   11.5010 C   0  0  0  0  0
   30.4070   20.6800   12.6990 N   0  0  0  0  0
   30.4190   19.4950   13.2630 N   0  0  0  0  0
   29.8250   18.6020   12.5330 N   0  0  0  0  0
   29.4380   19.2730   11.4620 C   0  0  0  0  0
   30.9820   21.8940   13.2950 C   0  0  0  0  0
   29.9320   22.8600   13.8490 C   0  0  0  0  0
   29.0100   22.2310   14.8210 N   0  0  0  0  0
   27.7460   21.7750   14.4180 C   0  0  0  0  0
   26.8790   22.4390   13.4940 C   0  0  0  0  0
   27.0690   23.8210   13.0670 C   0  0  0  0  0
   25.6200   21.8180   13.1580 C   0  0  0  0  0
   24.6140   22.5240   12.3980 C   0  0  0  0  0
   24.8490   23.8290   12.0090 C   0  0  0  0  0
   26.0970   24.4790   12.3450 C   0  0  0  0  0
   25.2370   20.6490   13.6950 N   0  0  0  0  0
   26.0430   19.9970   14.5760 C   0  0  0  0  0
   25.6250   18.6680   15.0000 C   0  0  0  0  0
   27.3190   20.5310   14.9880 C   0  0  0  0  0
   28.1300   19.6980   15.8640 C   0  0  0  0  0
   27.6720   18.4400   16.2450 C   0  0  0  0  0
   26.5720   17.8310   15.5500 C   0  0  0  0  0
   35.8174   19.6904    3.7172 H   0  0  0  0  0
   35.8763   19.2331    5.4226 H   0  0  0  0  0
   35.5174   22.1080    3.0382 H   0  0  0  0  0
   35.1667   24.4334    3.7432 H   0  0  0  0  0
   35.6983   20.8399    7.1639 H   0  0  0  0  0
   36.5454   24.3426    9.3231 H   0  0  0  0  0
   38.0158   24.4520   10.0670 H   0  0  0  0  0
   38.3342   24.8949   12.5199 H   0  0  0  0  0
   36.4015   25.4829   13.9645 H   0  0  0  0  0
   34.0940   25.6869   12.9935 H   0  0  0  0  0
   33.7589   25.2300   10.5606 H   0  0  0  0  0
   35.4657   27.1759    9.3918 H   0  0  0  0  0
   34.8066   26.4030    4.5371 H   0  0  0  0  0
   34.3113   28.5866    5.4939 H   0  0  0  0  0
   34.7518   29.4252    9.0742 H   0  0  0  0  0
   34.2519   30.0220    7.4883 H   0  0  0  0  0
   35.7960   22.6661   10.1813 H   0  0  0  0  0
   36.2860   21.4977    8.8457 H   0  0  0  0  0
   34.2298   21.0509   10.4011 H   0  0  0  0  0
   34.1847   20.7104    8.6051 H   0  0  0  0  0
   33.0065   22.8496    8.2895 H   0  0  0  0  0
   32.9782   23.0823   10.0597 H   0  0  0  0  0
   31.9112   20.6210    9.9767 H   0  0  0  0  0
   31.4472   21.1276    8.3629 H   0  0  0  0  0
   30.3038   23.0433    9.1522 H   0  0  0  0  0
   31.0619   22.8828   10.7994 H   0  0  0  0  0
   29.0554   21.0041    9.5675 H   0  0  0  0  0
   28.7085   22.2832   10.8088 H   0  0  0  0  0
   28.9064   18.8137   10.6286 H   0  0  0  0  0
   31.5263   22.4179   12.5093 H   0  0  0  0  0
   31.6120   21.5826   14.1282 H   0  0  0  0  0
   29.3336   23.2122   13.0088 H   0  0  0  0  0
   30.4617   23.6589   14.3679 H   0  0  0  0  0
   29.2967   22.1279   15.7944 H   0  0  0  0  0
   27.9926   24.3403   13.3226 H   0  0  0  0  0
   23.6781   22.0316   12.1339 H   0  0  0  0  0
   24.0898   24.3717   11.4458 H   0  0  0  0  0
   26.2712   25.5054   12.0220 H   0  0  0  0  0
   24.5907   18.3438   14.8855 H   0  0  0  0  0
   29.0946   20.0589   16.2211 H   0  0  0  0  0
   28.1492   17.9156   17.0729 H   0  0  0  0  0
   26.4894   16.7478   15.4610 H   0  0  0  0  0
  1  2  1  0  0  0
  2  3  4  0  0  0
  2  6  4  0  0  0
  3  4  4  0  0  0
  4  5  4  0  0  0
  5  7  4  0  0  0
  5 18  1  0  0  0
  6  7  4  0  0  0
  7  8  1  0  0  0
  8  9  1  0  0  0
  8 23  1  0  0  0
  9 10  1  0  0  0
  9 16  1  0  0  0
 10 11  4  0  0  0
 10 15  4  0  0  0
 11 12  4  0  0  0
 12 13  4  0  0  0
 13 14  4  0  0  0
 14 15  4  0  0  0
 16 17  4  0  0  0
 16 18  4  0  0  0
 17 21  4  0  0  0
 18 19  4  0  0  0
 19 20  4  0  0  0
 20 21  4  0  0  0
 21 22  1  0  0  0
 23 24  1  0  0  0
 24 25  1  0  0  0
 25 26  1  0  0  0
 26 27  1  0  0  0
 27 28  1  0  0  0
 28 29  1  0  0  0
 29 30  4  0  0  0
 29 33  4  0  0  0
 30 31  4  0  0  0
 30 34  1  0  0  0
 31 32  4  0  0  0
 32 33  4  0  0  0
 34 35  1  0  0  0
 35 36  1  0  0  0
 36 37  1  0  0  0
 37 38  4  0  0  0
 37 47  4  0  0  0
 38 39  4  0  0  0
 38 40  4  0  0  0
 39 43  4  0  0  0
 40 41  4  0  0  0
 40 44  4  0  0  0
 41 42  4  0  0  0
 42 43  4  0  0  0
 44 45  4  0  0  0
 45 46  4  0  0  0
 45 47  4  0  0  0
 46 50  4  0  0  0
 47 48  4  0  0  0
 48 49  4  0  0  0
 49 50  4  0  0  0
  1 51  1  0  0  0
  1 52  1  0  0  0
  3 53  1  0  0  0
  4 54  1  0  0  0
  6 55  1  0  0  0
  9 56  1  0  0  0
 11 57  1  0  0  0
 12 58  1  0  0  0
 13 59  1  0  0  0
 14 60  1  0  0  0
 15 61  1  0  0  0
 17 62  1  0  0  0
 19 63  1  0  0  0
 20 64  1  0  0  0
 22 65  1  0  0  0
 22 66  1  0  0  0
 23 67  1  0  0  0
 23 68  1  0  0  0
 24 69  1  0  0  0
 24 70  1  0  0  0
 25 71  1  0  0  0
 25 72  1  0  0  0
 26 73  1  0  0  0
 26 74  1  0  0  0
 27 75  1  0  0  0
 27 76  1  0  0  0
 28 77  1  0  0  0
 28 78  1  0  0  0
 33 79  1  0  0  0
 34 80  1  0  0  0
 34 81  1  0  0  0
 35 82  1  0  0  0
 35 83  1  0  0  0
 36 84  1  0  0  0
 39 85  1  0  0  0
 41 86  1  0  0  0
 42 87  1  0  0  0
 43 88  1  0  0  0
 46 89  1  0  0  0
 48 90  1  0  0  0
 49 91  1  0  0  0
 50 92  1  0  0  0
M  END
$$$$
