5d25_ligand
  -I-interpret- 

 52 53  0  0  0  0  0  0  0  0999 V2000
    2.6800   56.4800   23.0050 C   0  0  0  0  0
    2.2720   55.4990   22.0920 C   0  0  0  0  0
    1.3720   54.4880   22.4890 C   0  0  0  0  0
    0.9050   54.4690   23.8040 C   0  0  0  0  0
    1.3150   55.4340   24.7190 C   0  0  0  0  0
    2.1970   56.4330   24.3090 C   0  0  0  0  0
    5.5760   61.1130   21.2530 C   0  0  0  0  0
    4.6330   60.2940   21.8570 C   0  0  0  0  0
    4.9180   58.9420   21.2740 C   0  0  0  0  0
    6.3940   60.2870   20.3410 C   0  0  0  0  0
    5.7730   62.5900   21.4080 C   0  0  0  0  0
    4.2060   57.6660   21.5760 C   0  0  0  0  0
    7.5420   60.7160   19.4600 C   0  0  0  0  0
    4.6580   63.3740   22.0320 C   0  0  0  0  0
    3.1130   51.0330   19.7480 C   0  0  0  0  0
    2.1090   50.8430   23.4740 C   0  0  0  0  0
    3.5730   60.6860   22.8620 C   0  0  0  0  0
    3.0510   52.2110   20.6940 C   0  0  0  0  0
    1.4280   50.9090   22.1340 C   0  0  0  0  0
    5.9400   59.0280   20.4190 N   0  0  0  0  0
    3.5370   57.4980   22.7160 N   0  0  0  0  0
    1.7930   52.1420   21.4360 N   0  0  0  0  0
    6.7970   63.1360   21.0020 O   0  0  0  0  0
    4.2860   56.7830   20.7350 O   0  0  0  0  0
    0.7150   53.9310   20.1690 O   0  0  0  0  0
   -0.4470   52.8870   21.9260 O   0  0  0  0  0
    2.5980   57.3920   25.1860 O   0  0  0  0  0
    0.8410   53.3440   21.4740 S   0  0  0  0  0
    2.6516   55.5170   21.0704 H   0  0  0  0  0
    0.2111   53.6893   24.1180 H   0  0  0  0  0
    0.9503   55.4091   25.7459 H   0  0  0  0  0
    7.1939   61.4688   18.7527 H   0  0  0  0  0
    8.3355   61.1358   20.0782 H   0  0  0  0  0
    7.9227   59.8521   18.9151 H   0  0  0  0  0
    5.0300   63.8915   22.9163 H   0  0  0  0  0
    4.2820   64.1029   21.3141 H   0  0  0  0  0
    3.8541   62.6956   22.3178 H   0  0  0  0  0
    3.0674   50.1064   20.3202 H   0  0  0  0  0
    2.2700   51.0776   19.0585 H   0  0  0  0  0
    4.0461   51.0688   19.1858 H   0  0  0  0  0
    3.1896   50.8647   23.3324 H   0  0  0  0  0
    1.8031   51.6972   24.0780 H   0  0  0  0  0
    1.8259   49.9194   23.9789 H   0  0  0  0  0
    4.0511   61.1020   23.7488 H   0  0  0  0  0
    2.9130   61.4322   22.4196 H   0  0  0  0  0
    2.9937   59.8053   23.1393 H   0  0  0  0  0
    3.1016   53.1435   20.1319 H   0  0  0  0  0
    3.8935   52.1791   21.3848 H   0  0  0  0  0
    0.3484   50.8921   22.2834 H   0  0  0  0  0
    1.7423   50.0551   21.5338 H   0  0  0  0  0
    3.6807   58.1996   23.4423 H   0  0  0  0  0
    2.1888   57.2344   26.0400 H   0  0  0  0  0
  2  1  4  0  0  0
  1  6  4  0  0  0
  1 21  1  0  0  0
  3  2  4  0  0  0
  3  4  4  0  0  0
 28  3  1  0  0  0
  4  5  4  0  0  0
  5  6  4  0  0  0
  6 27  1  0  0  0
  8  7  4  0  0  0
 10  7  4  0  0  0
  7 11  1  0  0  0
  9  8  4  0  0  0
  8 17  1  0  0  0
 12  9  1  0  0  0
  9 20  4  0  0  0
 10 13  1  0  0  0
 20 10  4  0  0  0
 11 14  1  0  0  0
 11 23  2  0  0  0
 21 12  1  0  0  0
 12 24  2  0  0  0
 18 15  1  0  0  0
 19 16  1  0  0  0
 22 18  1  0  0  0
 22 19  1  0  0  0
 22 28  1  0  0  0
 28 25  2  0  0  0
 28 26  2  0  0  0
  2 29  1  0  0  0
  4 30  1  0  0  0
  5 31  1  0  0  0
 13 32  1  0  0  0
 13 33  1  0  0  0
 13 34  1  0  0  0
 14 35  1  0  0  0
 14 36  1  0  0  0
 14 37  1  0  0  0
 15 38  1  0  0  0
 15 39  1  0  0  0
 15 40  1  0  0  0
 16 41  1  0  0  0
 16 42  1  0  0  0
 16 43  1  0  0  0
 17 44  1  0  0  0
 17 45  1  0  0  0
 17 46  1  0  0  0
 18 47  1  0  0  0
 18 48  1  0  0  0
 19 49  1  0  0  0
 19 50  1  0  0  0
 21 51  1  0  0  0
 27 52  1  0  0  0
M  END
$$$$
