4b6c_ligand
  -I-interpret- 

 71 74  0  0  0  0  0  0  0  0999 V2000
   27.6240   37.1060   78.4500 C   0  0  0  0  0
   26.5110   36.1060   78.1910 C   0  0  0  0  0
   25.3820   36.1080   79.0190 C   0  0  0  0  0
   24.3360   35.2280   78.8120 C   0  0  0  0  0
   24.3750   34.2820   77.7800 C   0  0  0  0  0
   25.4790   34.2910   76.9250 C   0  0  0  0  0
   26.5390   35.1920   77.0940 C   0  0  0  0  0
   27.6970   35.1160   76.1360 C   0  0  0  0  0
   23.2250   33.3690   77.5340 C   0  0  0  0  0
   23.3350   32.1500   76.8340 C   0  0  0  0  0
   22.2790   31.3340   76.6280 N   0  0  0  0  0
   21.0840   31.7600   77.1030 C   0  0  0  0  0
   20.9370   33.0150   77.7810 C   0  0  0  0  0
   22.0220   33.7900   77.9930 N   0  0  0  0  0
   19.6180   33.4950   78.3890 C   0  0  0  0  0
   18.5940   32.8090   78.2930 O   0  0  0  0  0
   19.6550   34.6520   79.0390 N   0  0  0  0  0
   19.9460   30.9980   76.9060 N   0  0  0  0  0
   19.7590   29.6520   76.4950 C   0  0  0  0  0
   20.6160   29.0230   75.5810 C   0  0  0  0  0
   20.3840   27.7110   75.1860 C   0  0  0  0  0
   19.2730   27.0220   75.6740 C   0  0  0  0  0
   18.3950   27.6530   76.5630 C   0  0  0  0  0
   18.6310   28.9690   76.9560 C   0  0  0  0  0
   18.9920   25.7230   75.2820 O   0  0  0  0  0
   19.6360   25.1590   74.1220 C   0  0  0  0  0
   19.0370   23.8220   73.7660 C   0  0  0  0  0
   19.2590   22.6550   74.7280 C   0  0  0  0  0
   20.6740   22.3480   75.0580 N   0  3  0  0  0
   20.7630   21.6820   76.3720 C   0  0  0  0  0
   22.2040   21.3390   76.7200 C   0  0  0  0  0
   22.8020   20.4920   75.6920 N   0  3  0  0  0
   22.7330   21.1700   74.3980 C   0  0  0  0  0
   21.2940   21.4880   74.0350 C   0  0  0  0  0
   24.1860   20.1630   76.0320 C   0  0  0  0  0
   27.2281   38.1181   78.3663 H   0  0  0  0  0
   28.0228   36.9522   79.4527 H   0  0  0  0  0
   28.4172   36.9630   77.7162 H   0  0  0  0  0
   25.3266   36.8182   79.8440 H   0  0  0  0  0
   23.4641   35.2713   79.4646 H   0  0  0  0  0
   25.5174   33.5767   76.1025 H   0  0  0  0  0
   27.8262   36.0815   75.6468 H   0  0  0  0  0
   28.6040   34.8606   76.6839 H   0  0  0  0  0
   27.4966   34.3511   75.3858 H   0  0  0  0  0
   24.3094   31.8552   76.4444 H   0  0  0  0  0
   18.8128   35.0120   79.4878 H   0  0  0  0  0
   20.5257   35.1809   79.0896 H   0  0  0  0  0
   19.0765   31.4982   77.0912 H   0  0  0  0  0
   21.4701   29.5668   75.1774 H   0  0  0  0  0
   21.0696   27.2203   74.4952 H   0  0  0  0  0
   17.5279   27.1158   76.9473 H   0  0  0  0  0
   17.9316   29.4681   77.6267 H   0  0  0  0  0
   20.6942   25.0197   74.3433 H   0  0  0  0  0
   19.4978   25.8385   73.2810 H   0  0  0  0  0
   19.5235   23.5262   72.8365 H   0  0  0  0  0
   17.9591   23.9833   73.7521 H   0  0  0  0  0
   18.8594   21.7693   74.2341 H   0  0  0  0  0
   18.7783   22.9339   75.6657 H   0  0  0  0  0
   21.1786   23.2340   75.0861 H   0  0  0  0  0
   20.1856   20.7583   76.3332 H   0  0  0  0  0
   20.3738   22.3595   77.1320 H   0  0  0  0  0
   22.2167   20.8010   77.6679 H   0  0  0  0  0
   22.7771   22.2636   76.7888 H   0  0  0  0  0
   22.2794   19.6178   75.6368 H   0  0  0  0  0
   23.1526   20.5152   73.6343 H   0  0  0  0  0
   23.2954   22.1018   74.4580 H   0  0  0  0  0
   21.2803   22.0126   73.0796 H   0  0  0  0  0
   20.7330   20.5555   73.9728 H   0  0  0  0  0
   24.7670   21.0817   76.1136 H   0  0  0  0  0
   24.2086   19.6316   76.9834 H   0  0  0  0  0
   24.6102   19.5314   75.2515 H   0  0  0  0  0
  1  2  1  0  0  0
  2  3  4  0  0  0
  2  7  4  0  0  0
  3  4  4  0  0  0
  4  5  4  0  0  0
  5  6  4  0  0  0
  5  9  1  0  0  0
  6  7  4  0  0  0
  7  8  1  0  0  0
  9 10  4  0  0  0
  9 14  4  0  0  0
 10 11  4  0  0  0
 11 12  4  0  0  0
 12 13  4  0  0  0
 12 18  1  0  0  0
 13 14  4  0  0  0
 13 15  1  0  0  0
 15 16  2  0  0  0
 15 17  1  0  0  0
 18 19  1  0  0  0
 19 20  4  0  0  0
 19 24  4  0  0  0
 20 21  4  0  0  0
 21 22  4  0  0  0
 22 23  4  0  0  0
 22 25  1  0  0  0
 23 24  4  0  0  0
 25 26  1  0  0  0
 26 27  1  0  0  0
 27 28  1  0  0  0
 28 29  1  0  0  0
 29 30  1  0  0  0
 29 34  1  0  0  0
 30 31  1  0  0  0
 31 32  1  0  0  0
 32 33  1  0  0  0
 32 35  1  0  0  0
 33 34  1  0  0  0
  1 36  1  0  0  0
  1 37  1  0  0  0
  1 38  1  0  0  0
  3 39  1  0  0  0
  4 40  1  0  0  0
  6 41  1  0  0  0
  8 42  1  0  0  0
  8 43  1  0  0  0
  8 44  1  0  0  0
 10 45  1  0  0  0
 17 46  1  0  0  0
 17 47  1  0  0  0
 18 48  1  0  0  0
 20 49  1  0  0  0
 21 50  1  0  0  0
 23 51  1  0  0  0
 24 52  1  0  0  0
 26 53  1  0  0  0
 26 54  1  0  0  0
 27 55  1  0  0  0
 27 56  1  0  0  0
 28 57  1  0  0  0
 28 58  1  0  0  0
 29 59  1  0  0  0
 30 60  1  0  0  0
 30 61  1  0  0  0
 31 62  1  0  0  0
 31 63  1  0  0  0
 32 64  1  0  0  0
 33 65  1  0  0  0
 33 66  1  0  0  0
 34 67  1  0  0  0
 34 68  1  0  0  0
 35 69  1  0  0  0
 35 70  1  0  0  0
 35 71  1  0  0  0
M  END
$$$$
