### 
### Created by X-TOOL on Mon Sep 10 21:12:46 2018
### 

@<TRIPOS>MOLECULE
3vgc_ligand
   35    36     1     0     0
SMALL
GAST_HUCK


@<TRIPOS>ATOM
      1 C1         27.5050    3.0220   40.4200 C.ar      1 SRB        -0.0314
      2 C2         27.0110    4.1600   41.0780 C.ar      1 SRB        -0.0121
      3 C3         26.9860    4.2150   42.4930 C.ar      1 SRB        -0.0243
      4 C4         27.4640    3.1500   43.2360 C.ar      1 SRB        -0.0631
      5 C5         27.9790    2.0360   42.5990 C.ar      1 SRB        -0.0707
      6 C6         27.9990    1.9760   41.2020 C.ar      1 SRB        -0.0607
      7 C7         26.6080    5.2750   40.3570 C.ar      1 SRB        -0.0548
      8 C8         26.1900    6.4180   41.0140 C.ar      1 SRB        -0.0625
      9 C9         26.1610    6.4560   42.4090 C.ar      1 SRB        -0.0629
     10 C10        26.5570    5.3540   43.1400 C.ar      1 SRB        -0.0569
     11 C7'        27.3440    2.8640   38.9210 C.3       1 SRB        -0.0026
     12 C8'        28.4220    2.0610   38.1990 C.3       1 SRB         0.0634
     13 C9'        32.1940    2.7370   38.3240 C.3       1 SRB         0.0256
     14 C          30.8560    1.9980   38.3990 C.2       1 SRB         0.1722
     15 N          29.7480    2.6420   38.0490 N.am      1 SRB        -0.2918
     16 O          30.8330    0.8210   38.7730 O.2       1 SRB        -0.3974
     17 O1B        28.8840    0.9770   35.9940 O.3       1 SRB        -0.4966
     18 O2B        26.5990    1.0590   36.7460 O.3       1 SRB        -0.4966
     19 B          27.9030    1.7790   36.7410 B         1 SRB         0.7187
     20 H1         27.4347    3.1891   44.3189 H         1 SRB         0.0542
     21 H2         28.3673    1.2091   43.1826 H         1 SRB         0.0595
     22 H3         28.4072    1.0977   40.7152 H         1 SRB         0.0530
     23 H4         26.6209    5.2501   39.2734 H         1 SRB         0.0628
     24 H5         25.8838    7.2874   40.4436 H         1 SRB         0.0601
     25 H6         25.8270    7.3523   42.9191 H         1 SRB         0.0616
     26 H7         26.5306    5.3844   44.2233 H         1 SRB         0.0609
     27 H8         27.3261    3.8712   38.4792 H         1 SRB         0.0448
     28 H9         26.3797    2.3668   38.7395 H         1 SRB         0.0448
     29 H10        28.5380    1.1116   38.7423 H         1 SRB         0.0456
     30 H11        33.0028    2.0645   38.6459 H         1 SRB         0.0467
     31 H12        32.1644    3.6168   38.9835 H         1 SRB         0.0467
     32 H13        32.3766    3.0607   37.2887 H         1 SRB         0.0467
     33 H14        29.8282    3.5628   37.6672 H         1 SRB         0.1841
     34 H15        29.7198    1.4286   35.9853 H         1 SRB         0.1667
     35 H16        26.3023    0.9374   35.8518 H         1 SRB         0.1667
@<TRIPOS>BOND
     1    1    2 ar 
     2    1    6 ar 
     3   11    1 1  
     4    2    3 ar 
     5    2    7 ar 
     6    3    4 ar 
     7    3   10 ar 
     8    5    4 ar 
     9    6    5 ar 
    10    7    8 ar 
    11    8    9 ar 
    12   10    9 ar 
    13   12   11 1  
    14   15   12 1  
    15   12   19 1  
    16   14   13 1  
    17   14   15 am 
    18   14   16 2  
    19   19   17 1  
    20   19   18 1  
    21    4   20 1  
    22    5   21 1  
    23    6   22 1  
    24    7   23 1  
    25    8   24 1  
    26    9   25 1  
    27   10   26 1  
    28   11   27 1  
    29   11   28 1  
    30   12   29 1  
    31   13   30 1  
    32   13   31 1  
    33   13   32 1  
    34   15   33 1  
    35   17   34 1  
    36   18   35 1  
@<TRIPOS>SUBSTRUCTURE
     1 SRB         1

