3vgc_ligand
  -I-interpret- 

 35 36  0  0  0  0  0  0  0  0999 V2000
   27.5050    3.0220   40.4200 C   0  0  0  0  0
   27.0110    4.1600   41.0780 C   0  0  0  0  0
   26.9860    4.2150   42.4930 C   0  0  0  0  0
   27.4640    3.1500   43.2360 C   0  0  0  0  0
   27.9790    2.0360   42.5990 C   0  0  0  0  0
   27.9990    1.9760   41.2020 C   0  0  0  0  0
   26.6080    5.2750   40.3570 C   0  0  0  0  0
   26.1900    6.4180   41.0140 C   0  0  0  0  0
   26.1610    6.4560   42.4090 C   0  0  0  0  0
   26.5570    5.3540   43.1400 C   0  0  0  0  0
   27.3440    2.8640   38.9210 C   0  0  0  0  0
   28.4220    2.0610   38.1990 C   0  0  0  0  0
   32.1940    2.7370   38.3240 C   0  0  0  0  0
   30.8560    1.9980   38.3990 C   0  0  0  0  0
   29.7480    2.6420   38.0490 N   0  0  0  0  0
   30.8330    0.8210   38.7730 O   0  0  0  0  0
   28.8840    0.9770   35.9940 O   0  0  0  0  0
   26.5990    1.0590   36.7460 O   0  0  0  0  0
   27.9030    1.7790   36.7410 B   0  0  0  0  0
   27.4345    3.1893   44.3249 H   0  0  0  0  0
   28.3694    1.2045   43.1858 H   0  0  0  0  0
   28.4095    1.0928   40.7125 H   0  0  0  0  0
   26.6209    5.2499   39.2674 H   0  0  0  0  0
   25.8821    7.2922   40.4404 H   0  0  0  0  0
   25.8251    7.3572   42.9219 H   0  0  0  0  0
   26.5304    5.3846   44.2292 H   0  0  0  0  0
   27.3897    3.8707   38.5056 H   0  0  0  0  0
   26.4125    2.3173   38.7743 H   0  0  0  0  0
   28.5675    1.1952   38.8450 H   0  0  0  0  0
   32.6513    2.7591   39.3132 H   0  0  0  0  0
   32.8548    2.2198   37.6283 H   0  0  0  0  0
   32.0255    3.7566   37.9773 H   0  0  0  0  0
   29.8298    3.5812   37.6596 H   0  0  0  0  0
   28.5535    0.8135   35.1076 H   0  0  0  0  0
   26.3160    0.9056   35.8416 H   0  0  0  0  0
  1  2  4  0  0  0
  1  6  4  0  0  0
 11  1  1  0  0  0
  2  3  4  0  0  0
  2  7  4  0  0  0
  3  4  4  0  0  0
  3 10  4  0  0  0
  5  4  4  0  0  0
  6  5  4  0  0  0
  7  8  4  0  0  0
  8  9  4  0  0  0
 10  9  4  0  0  0
 12 11  1  0  0  0
 15 12  1  0  0  0
 12 19  1  0  0  0
 14 13  1  0  0  0
 14 15  1  0  0  0
 14 16  2  0  0  0
 19 17  1  0  0  0
 19 18  1  0  0  0
  4 20  1  0  0  0
  5 21  1  0  0  0
  6 22  1  0  0  0
  7 23  1  0  0  0
  8 24  1  0  0  0
  9 25  1  0  0  0
 10 26  1  0  0  0
 11 27  1  0  0  0
 11 28  1  0  0  0
 12 29  1  0  0  0
 13 30  1  0  0  0
 13 31  1  0  0  0
 13 32  1  0  0  0
 15 33  1  0  0  0
 17 34  1  0  0  0
 18 35  1  0  0  0
M  END
$$$$
