### 
### Created by X-TOOL on Mon Aug  2 16:16:52 2021
### 

@<TRIPOS>MOLECULE
6ssy_ligand
   14    13     1     0     0
SMALL
GAST_HUCK


@<TRIPOS>ATOM
      1 NAA        -0.5690   96.0550  185.8650 N.4       1 P7I         0.2195
      2 OAB        -3.7590   96.1840  189.1570 O.co2     1 P7I        -0.5621
      3 OAC        -1.5040   95.1160  189.5560 O.co2     1 P7I        -0.5621
      4 OAD        -1.6560   97.2990  188.3020 O.co2     1 P7I        -0.5621
      5 CAE        -1.1850   94.8160  186.3380 C.3       1 P7I        -0.0201
      6 CAF        -2.5010   95.0700  187.0620 C.3       1 P7I         0.0595
      7 PAG        -2.3390   95.9760  188.6230 P.3       1 P7I         0.0628
      8 H1          0.2961   95.8415  185.3937 H         1 P7I         0.1995
      9 H2         -0.3835   96.6592  186.6503 H         1 P7I         0.1995
     10 H3         -1.1948   96.5184  185.2250 H         1 P7I         0.1995
     11 H4         -0.4907   94.3162  187.0294 H         1 P7I         0.0827
     12 H5         -1.3760   94.1626  185.4740 H         1 P7I         0.0827
     13 H6         -2.9682   94.0975  187.2764 H         1 P7I         0.0504
     14 H7         -3.1538   95.6511  186.3940 H         1 P7I         0.0504
@<TRIPOS>BOND
     1    5    1 1  
     2    7    2 ar 
     3    7    3 ar 
     4    7    4 ar 
     5    6    5 1  
     6    6    7 1  
     7    1    8 1  
     8    1    9 1  
     9    1   10 1  
    10    5   11 1  
    11    5   12 1  
    12    6   13 1  
    13    6   14 1  
@<TRIPOS>SUBSTRUCTURE
     1 P7I         1

