6ssy_ligand
  -I-interpret- 

 16 15  0  0  0  0  0  0  0  0999 V2000
   -0.5690   96.0550  185.8650 N   0  3  0  0  0
   -3.7590   96.1840  189.1570 O   0  0  0  0  0
   -1.5040   95.1160  189.5560 O   0  0  0  0  0
   -1.6560   97.2990  188.3020 O   0  0  0  0  0
   -1.1850   94.8160  186.3380 C   0  0  0  0  0
   -2.5010   95.0700  187.0620 C   0  0  0  0  0
   -2.3390   95.9760  188.6230 P   0  0  0  0  0
    0.3062   95.8378  185.3883 H   0  0  0  0  0
   -1.2032   96.5230  185.2175 H   0  0  0  0  0
   -0.3818   96.6655  186.6604 H   0  0  0  0  0
   -4.2540   96.7304  188.5422 H   0  0  0  0  0
   -2.2140   97.8110  187.7120 H   0  0  0  0  0
   -0.4981   94.3407  187.0382 H   0  0  0  0  0
   -1.3894   94.1860  185.4723 H   0  0  0  0  0
   -2.9258   94.0953  187.3020 H   0  0  0  0  0
   -3.1153   95.6815  186.4011 H   0  0  0  0  0
  5  1  1  0  0  0
  7  2  1  0  0  0
  7  3  2  0  0  0
  7  4  1  0  0  0
  6  5  1  0  0  0
  6  7  1  0  0  0
  1  8  1  0  0  0
  1  9  1  0  0  0
  1 10  1  0  0  0
  2 11  1  0  0  0
  4 12  1  0  0  0
  5 13  1  0  0  0
  5 14  1  0  0  0
  6 15  1  0  0  0
  6 16  1  0  0  0
M  END
$$$$
