6r8w_ligand
  -I-interpret- 

 58 63  0  0  0  0  0  0  0  0999 V2000
   -0.6310   -1.3510  -25.8250 C   0  0  0  0  0
   -2.0310    0.5500  -25.4320 C   0  0  0  0  0
   -3.4050    0.7470  -25.9610 C   0  0  0  0  0
   -5.2950    2.3060  -26.0740 C   0  0  0  0  0
   -8.1000    4.1440  -24.3620 C   0  0  0  0  0
   -8.3650    3.2800  -23.2820 C   0  0  0  0  0
   -9.4160    3.5420  -22.3670 N   0  0  0  0  0
  -10.2970    5.2300  -23.9390 C   0  0  0  0  0
   -8.8710    5.4400  -24.5220 C   0  0  0  0  0
   -9.4390    5.9160  -21.6820 C   0  0  0  0  0
   -7.6510    2.0930  -23.1610 C   0  0  0  0  0
   -0.3390   -2.7080  -25.2470 C   0  0  0  0  0
   -0.8630   -3.8590  -26.1460 C   0  0  0  0  0
   -2.3400   -3.9420  -25.6530 C   0  0  0  0  0
   -2.0560   -4.0770  -24.1390 C   0  0  0  0  0
   -1.0710   -5.2960  -24.1240 C   0  0  0  0  0
   -0.2500   -5.1350  -25.4850 C   0  0  0  0  0
   -0.1730   -0.8360  -26.8070 O   0  0  0  0  0
   -1.5730   -0.7740  -25.1020 N   0  0  0  0  0
   -3.8910   -0.0660  -26.7430 O   0  0  0  0  0
   -3.9940    1.8980  -25.5910 N   0  0  0  0  0
   -6.3550    2.6800  -25.0780 C   0  0  0  0  0
   -7.0790    3.8480  -25.2380 C   0  0  0  0  0
  -10.1630    4.8170  -22.4600 C   0  0  0  0  0
   -8.2370    6.4990  -23.7390 O   0  0  0  0  0
   -8.0860    6.2970  -22.3210 C   0  0  0  0  0
  -10.2880    7.0610  -21.6440 O   0  0  0  0  0
   -6.6260    1.8070  -24.0390 C   0  0  0  0  0
   -1.9630   -1.4860  -24.0520 C   0  0  0  0  0
   -2.8000   -1.1110  -23.2780 O   0  0  0  0  0
   -1.2080   -2.8020  -23.9370 C   0  0  0  0  0
   -2.0236    1.0865  -24.4832 H   0  0  0  0  0
   -1.3770    0.8716  -26.2425 H   0  0  0  0  0
   -5.6903    1.4315  -26.5907 H   0  0  0  0  0
   -5.1107    3.2165  -26.6441 H   0  0  0  0  0
   -9.6557    2.8572  -21.6500 H   0  0  0  0  0
  -10.8171    4.4518  -24.4976 H   0  0  0  0  0
  -10.8714    6.1530  -24.0176 H   0  0  0  0  0
   -8.8970    5.7152  -25.5764 H   0  0  0  0  0
   -9.2234    5.5459  -20.6797 H   0  0  0  0  0
   -7.9019    1.3863  -22.3700 H   0  0  0  0  0
    0.7384   -2.8084  -25.1158 H   0  0  0  0  0
   -0.6867   -3.7549  -27.2166 H   0  0  0  0  0
   -2.9359   -4.7426  -26.0912 H   0  0  0  0  0
   -2.9767   -3.1043  -25.9374 H   0  0  0  0  0
   -2.8845   -4.1896  -23.4398 H   0  0  0  0  0
   -1.5921   -6.2514  -24.0629 H   0  0  0  0  0
   -0.4250   -5.2982  -23.2461 H   0  0  0  0  0
    0.8218   -5.0371  -25.3124 H   0  0  0  0  0
   -0.3340   -6.0133  -26.1250 H   0  0  0  0  0
   -3.5014    2.5105  -24.9409 H   0  0  0  0  0
   -6.8425    4.5311  -26.0538 H   0  0  0  0  0
  -11.1542    4.6772  -22.0287 H   0  0  0  0  0
   -7.3745    5.4887  -22.1522 H   0  0  0  0  0
   -7.7281    7.2214  -21.8677 H   0  0  0  0  0
   -9.8519    7.7653  -21.1589 H   0  0  0  0  0
   -6.0340    0.9002  -23.9152 H   0  0  0  0  0
   -0.7418   -2.8956  -22.9562 H   0  0  0  0  0
  1 12  1  0  0  0
  1 18  2  0  0  0
 19  1  1  0  0  0
  3  2  1  0  0  0
  2 19  1  0  0  0
  3 20  2  0  0  0
 21  3  1  0  0  0
  4 21  1  0  0  0
 22  4  1  0  0  0
  5  6  4  0  0  0
  5  9  1  0  0  0
 23  5  4  0  0  0
  6  7  1  0  0  0
  6 11  4  0  0  0
  7 24  1  0  0  0
  9  8  1  0  0  0
  8 24  1  0  0  0
  9 25  1  0  0  0
 24 10  1  0  0  0
 10 26  1  0  0  0
 10 27  1  0  0  0
 11 28  4  0  0  0
 12 13  1  0  0  0
 12 31  1  0  0  0
 13 14  1  0  0  0
 13 17  1  0  0  0
 15 14  1  0  0  0
 15 16  1  0  0  0
 31 15  1  0  0  0
 17 16  1  0  0  0
 19 29  1  0  0  0
 22 23  4  0  0  0
 22 28  4  0  0  0
 25 26  1  0  0  0
 29 30  2  0  0  0
 29 31  1  0  0  0
  2 32  1  0  0  0
  2 33  1  0  0  0
  4 34  1  0  0  0
  4 35  1  0  0  0
  7 36  1  0  0  0
  8 37  1  0  0  0
  8 38  1  0  0  0
  9 39  1  0  0  0
 10 40  1  0  0  0
 11 41  1  0  0  0
 12 42  1  0  0  0
 13 43  1  0  0  0
 14 44  1  0  0  0
 14 45  1  0  0  0
 15 46  1  0  0  0
 16 47  1  0  0  0
 16 48  1  0  0  0
 17 49  1  0  0  0
 17 50  1  0  0  0
 21 51  1  0  0  0
 23 52  1  0  0  0
 24 53  1  0  0  0
 26 54  1  0  0  0
 26 55  1  0  0  0
 27 56  1  0  0  0
 28 57  1  0  0  0
 31 58  1  0  0  0
M  END
$$$$
