5txy_ligand
  -I-interpret- 

 20 21  0  0  0  0  0  0  0  0999 V2000
   16.4810    5.8350   13.9510 C   0  0  0  0  0
   17.7050    5.2250   13.9140 C   0  0  0  0  0
   17.9370    4.0130   14.5480 C   0  0  0  0  0
   16.8930    3.3420   15.1950 C   0  0  0  0  0
   15.6230    3.9330   15.2090 C   0  0  0  0  0
   15.4520    5.1570   14.5510 C   0  0  0  0  0
   17.1580    1.9940   15.8320 C   0  0  0  0  0
   16.4790    0.9360   15.0430 C   0  0  0  0  0
   16.7370    0.6260   13.8800 O   0  0  0  0  0
   15.5190    0.2690   15.8000 N   0  0  0  0  0
   15.5440    0.9310   17.0390 C   0  0  0  0  0
   14.8730    0.6490   18.0190 O   0  0  0  0  0
   16.5620    1.9060   17.1120 O   0  0  0  0  0
   16.3296    6.8242   13.5190 H   0  0  0  0  0
   18.5201    5.7042   13.3717 H   0  0  0  0  0
   18.9377    3.5810   14.5422 H   0  0  0  0  0
   14.7887    3.4519   15.7195 H   0  0  0  0  0
   14.4530    5.5914   14.5142 H   0  0  0  0  0
   18.2405    1.8757   15.8808 H   0  0  0  0  0
   14.9334   -0.5178   15.5199 H   0  0  0  0  0
  1  2  4  0  0  0
  1  6  4  0  0  0
  2  3  4  0  0  0
  3  4  4  0  0  0
  4  5  4  0  0  0
  4  7  1  0  0  0
  5  6  4  0  0  0
  7  8  1  0  0  0
  7 13  1  0  0  0
  8  9  2  0  0  0
  8 10  1  0  0  0
 10 11  1  0  0  0
 11 12  2  0  0  0
 11 13  1  0  0  0
  1 14  1  0  0  0
  2 15  1  0  0  0
  3 16  1  0  0  0
  5 17  1  0  0  0
  6 18  1  0  0  0
  7 19  1  0  0  0
 10 20  1  0  0  0
M  END
$$$$
