3feg_ligand
  -I-interpret- 

 69 71  0  0  0  0  0  0  0  0999 V2000
   25.7660   61.1140   -2.7830 C   0  0  0  0  0
   26.6970   61.5850   -3.8190 N   0  3  0  0  0
   27.7750   60.5930   -4.0070 C   0  0  0  0  0
   25.9360   61.7600   -5.0630 C   0  0  0  0  0
   27.2840   62.8770   -3.4400 C   0  0  0  0  0
   27.8980   62.7970   -2.0390 C   0  0  0  0  0
   26.9030   62.4080   -1.0860 O   0  0  0  0  0
   26.4510   61.0840   -1.4170 C   0  0  0  0  0
   27.5650   60.1940   -1.4400 O   0  0  0  0  0
   25.4330   60.5900   -0.3850 C   0  0  0  0  0
   24.9950   59.2710   -0.3850 C   0  0  0  0  0
   24.0630   58.8370    0.5760 C   0  0  0  0  0
   24.9390   61.4790    0.5580 C   0  0  0  0  0
   24.0110   61.0450    1.5070 C   0  0  0  0  0
   23.5710   59.7220    1.5370 C   0  0  0  0  0
   22.6120   59.3000    2.4940 C   0  0  0  0  0
   22.6050   58.0250    3.0560 C   0  0  0  0  0
   21.6380   57.6350    4.0030 C   0  0  0  0  0
   21.6110   60.1740    2.8920 C   0  0  0  0  0
   20.6410   59.7820    3.8060 C   0  0  0  0  0
   20.6410   58.5160    4.3760 C   0  0  0  0  0
   19.5690   58.1230    5.3960 C   0  0  0  0  0
   18.6240   58.8880    5.6160 O   0  0  0  0  0
   19.7050   56.8040    6.1670 C   0  0  0  0  0
   18.9070   56.7610    7.4260 N   0  3  0  0  0
   19.2350   55.4800    8.0670 C   0  0  0  0  0
   17.4550   56.7790    7.1450 C   0  0  0  0  0
   19.2100   57.8820    8.3410 C   0  0  0  0  0
   20.5630   57.8090    9.0430 C   0  0  0  0  0
   21.5790   57.8080    8.1160 O   0  0  0  0  0
   23.0400   57.3140    8.5230 P   0  0  0  0  0
   23.5390   58.2550    9.6700 O   0  0  0  0  0
   23.8220   57.5840    7.2220 O   0  0  0  0  0
   23.0460   55.8450    8.8490 O   0  0  0  0  0
   25.4376   60.1058   -3.0355 H   0  0  0  0  0
   24.9157   61.7944   -2.7367 H   0  0  0  0  0
   28.4470   60.9335   -4.7948 H   0  0  0  0  0
   28.3312   60.4819   -3.0762 H   0  0  0  0  0
   27.3396   59.6341   -4.2883 H   0  0  0  0  0
   25.1459   62.4938   -4.9039 H   0  0  0  0  0
   26.6043   62.1088   -5.8503 H   0  0  0  0  0
   25.4950   60.8068   -5.3548 H   0  0  0  0  0
   26.5012   63.6355   -3.4408 H   0  0  0  0  0
   28.0655   63.1342   -4.1550 H   0  0  0  0  0
   28.2918   63.7758   -1.7651 H   0  0  0  0  0
   28.6987   62.0575   -2.0415 H   0  0  0  0  0
   27.2625   59.3101   -1.6611 H   0  0  0  0  0
   25.3739   58.5717   -1.1304 H   0  0  0  0  0
   23.7226   57.8015    0.5699 H   0  0  0  0  0
   25.2749   62.5159    0.5584 H   0  0  0  0  0
   23.6231   61.7540    2.2384 H   0  0  0  0  0
   23.3695   57.3091    2.7542 H   0  0  0  0  0
   21.6762   56.6379    4.4417 H   0  0  0  0  0
   21.5851   61.1834    2.4815 H   0  0  0  0  0
   19.8582   60.4880    4.0833 H   0  0  0  0  0
   20.7540   56.6937    6.4419 H   0  0  0  0  0
   19.3360   56.0084    5.5197 H   0  0  0  0  0
   18.9648   54.6616    7.3997 H   0  0  0  0  0
   20.3042   55.4427    8.2754 H   0  0  0  0  0
   18.6784   55.3889    8.9997 H   0  0  0  0  0
   17.2020   57.6915    6.6052 H   0  0  0  0  0
   17.1928   55.9120    6.5386 H   0  0  0  0  0
   16.9039   56.7467    8.0849 H   0  0  0  0  0
   18.4521   57.8573    9.1240 H   0  0  0  0  0
   19.2249   58.7853    7.7312 H   0  0  0  0  0
   20.6126   56.8906    9.6280 H   0  0  0  0  0
   20.6746   58.6760    9.6941 H   0  0  0  0  0
   23.5004   59.1673    9.3735 H   0  0  0  0  0
   23.8073   58.5246    7.0305 H   0  0  0  0  0
  1  2  1  0  0  0
  1  8  1  0  0  0
  2  3  1  0  0  0
  2  4  1  0  0  0
  2  5  1  0  0  0
  5  6  1  0  0  0
  6  7  1  0  0  0
  7  8  1  0  0  0
  8  9  1  0  0  0
  8 10  1  0  0  0
 10 11  4  0  0  0
 10 13  4  0  0  0
 11 12  4  0  0  0
 12 15  4  0  0  0
 13 14  4  0  0  0
 14 15  4  0  0  0
 15 16  1  0  0  0
 16 17  4  0  0  0
 16 19  4  0  0  0
 17 18  4  0  0  0
 18 21  4  0  0  0
 19 20  4  0  0  0
 20 21  4  0  0  0
 21 22  1  0  0  0
 22 23  2  0  0  0
 22 24  1  0  0  0
 24 25  1  0  0  0
 25 26  1  0  0  0
 25 27  1  0  0  0
 25 28  1  0  0  0
 28 29  1  0  0  0
 29 30  1  0  0  0
 30 31  1  0  0  0
 31 32  1  0  0  0
 31 33  1  0  0  0
 31 34  2  0  0  0
  1 35  1  0  0  0
  1 36  1  0  0  0
  3 37  1  0  0  0
  3 38  1  0  0  0
  3 39  1  0  0  0
  4 40  1  0  0  0
  4 41  1  0  0  0
  4 42  1  0  0  0
  5 43  1  0  0  0
  5 44  1  0  0  0
  6 45  1  0  0  0
  6 46  1  0  0  0
  9 47  1  0  0  0
 11 48  1  0  0  0
 12 49  1  0  0  0
 13 50  1  0  0  0
 14 51  1  0  0  0
 17 52  1  0  0  0
 18 53  1  0  0  0
 19 54  1  0  0  0
 20 55  1  0  0  0
 24 56  1  0  0  0
 24 57  1  0  0  0
 26 58  1  0  0  0
 26 59  1  0  0  0
 26 60  1  0  0  0
 27 61  1  0  0  0
 27 62  1  0  0  0
 27 63  1  0  0  0
 28 64  1  0  0  0
 28 65  1  0  0  0
 29 66  1  0  0  0
 29 67  1  0  0  0
 32 68  1  0  0  0
 33 69  1  0  0  0
M  END
$$$$
