### 
### Created by X-TOOL on Mon Sep 10 21:12:57 2018
### 

@<TRIPOS>MOLECULE
3feg_ligand
   67    69     1     0     0
SMALL
GAST_HUCK


@<TRIPOS>ATOM
      1 CAW        25.7660   61.1140   -2.7830 C.3       1 HC7        -0.0009
      2 NBG        26.6970   61.5850   -3.8190 N.4       1 HC7         0.2376
      3 CAC        27.7750   60.5930   -4.0070 C.3       1 HC7        -0.0421
      4 CAD        25.9360   61.7600   -5.0630 C.3       1 HC7        -0.0421
      5 CAT        27.2840   62.8770   -3.4400 C.3       1 HC7        -0.0084
      6 CAR        27.8980   62.7970   -2.0390 C.3       1 HC7         0.0783
      7 OAX        26.9030   62.4080   -1.0860 O.3       1 HC7        -0.3815
      8 CBE        26.4510   61.0840   -1.4170 C.3       1 HC7         0.1949
      9 OAG        27.5650   60.1940   -1.4400 O.3       1 HC7        -0.4033
     10 CBD        25.4330   60.5900   -0.3850 C.ar      1 HC7         0.0042
     11 CAQ        24.9950   59.2710   -0.3850 C.ar      1 HC7        -0.0362
     12 CAO        24.0630   58.8370    0.5760 C.ar      1 HC7        -0.0252
     13 CAP        24.9390   61.4790    0.5580 C.ar      1 HC7        -0.0362
     14 CAN        24.0110   61.0450    1.5070 C.ar      1 HC7        -0.0252
     15 CBC        23.5710   59.7220    1.5370 C.ar      1 HC7         0.0124
     16 CBB        22.6120   59.3000    2.4940 C.ar      1 HC7         0.0059
     17 CAM        22.6050   58.0250    3.0560 C.ar      1 HC7        -0.0403
     18 CAK        21.6380   57.6350    4.0030 C.ar      1 HC7        -0.0371
     19 CAL        21.6110   60.1740    2.8920 C.ar      1 HC7        -0.0403
     20 CAJ        20.6410   59.7820    3.8060 C.ar      1 HC7        -0.0371
     21 CBA        20.6410   58.5160    4.3760 C.ar      1 HC7         0.0427
     22 CAZ        19.5690   58.1230    5.3960 C.2       1 HC7         0.1806
     23 OAE        18.6240   58.8880    5.6160 O.2       1 HC7        -0.3706
     24 CAV        19.7050   56.8040    6.1670 C.3       1 HC7         0.0453
     25 NBF        18.9070   56.7610    7.4260 N.4       1 HC7         0.2564
     26 CAA        19.2350   55.4800    8.0670 C.3       1 HC7        -0.0397
     27 CAB        17.4550   56.7790    7.1450 C.3       1 HC7        -0.0397
     28 CAU        19.2100   57.8820    8.3410 C.3       1 HC7        -0.0003
     29 CAS        20.5630   57.8090    9.0430 C.3       1 HC7         0.1182
     30 OAY        21.5790   57.8080    8.1160 O.3       1 HC7        -0.2708
     31 PBH        23.0400   57.3140    8.5230 P.3       1 HC7         0.2009
     32 OAH        23.5390   58.2550    9.6700 O.co2     1 HC7        -0.5537
     33 OAI        23.8220   57.5840    7.2220 O.co2     1 HC7        -0.5537
     34 OAF        23.0460   55.8450    8.8490 O.co2     1 HC7        -0.5537
     35 H          25.4376   60.1058   -3.0355 H         1 HC7         0.0751
     36 H          24.9157   61.7944   -2.7367 H         1 HC7         0.0751
     37 H          28.4470   60.9335   -4.7948 H         1 HC7         0.0778
     38 H          28.3312   60.4819   -3.0762 H         1 HC7         0.0778
     39 H          27.3396   59.6341   -4.2883 H         1 HC7         0.0778
     40 H          25.1459   62.4938   -4.9039 H         1 HC7         0.0778
     41 H          26.6043   62.1088   -5.8503 H         1 HC7         0.0778
     42 H          25.4950   60.8068   -5.3548 H         1 HC7         0.0778
     43 H          26.5012   63.6355   -3.4408 H         1 HC7         0.0837
     44 H          28.0655   63.1342   -4.1550 H         1 HC7         0.0837
     45 H          28.2918   63.7758   -1.7651 H         1 HC7         0.0602
     46 H          28.6987   62.0575   -2.0415 H         1 HC7         0.0602
     47 H          28.1971   60.4912   -2.0987 H         1 HC7         0.1968
     48 H          25.3739   58.5717   -1.1304 H         1 HC7         0.0840
     49 H          23.7226   57.8015    0.5699 H         1 HC7         0.0704
     50 H          25.2749   62.5159    0.5584 H         1 HC7         0.0840
     51 H          23.6231   61.7540    2.2384 H         1 HC7         0.0704
     52 H          23.3695   57.3091    2.7542 H         1 HC7         0.0681
     53 H          21.6762   56.6379    4.4417 H         1 HC7         0.0684
     54 H          21.5851   61.1834    2.4815 H         1 HC7         0.0681
     55 H          19.8582   60.4880    4.0833 H         1 HC7         0.0684
     56 H          20.7540   56.6937    6.4419 H         1 HC7         0.1046
     57 H          19.3360   56.0084    5.5197 H         1 HC7         0.1046
     58 H          18.9648   54.6616    7.3997 H         1 HC7         0.0778
     59 H          20.3042   55.4427    8.2754 H         1 HC7         0.0778
     60 H          18.6784   55.3889    8.9997 H         1 HC7         0.0778
     61 H          17.2020   57.6915    6.6052 H         1 HC7         0.0778
     62 H          17.1928   55.9120    6.5386 H         1 HC7         0.0778
     63 H          16.9039   56.7467    8.0849 H         1 HC7         0.0778
     64 H          18.4521   57.8573    9.1240 H         1 HC7         0.0841
     65 H          19.2249   58.7853    7.7312 H         1 HC7         0.0841
     66 H          20.6126   56.8906    9.6280 H         1 HC7         0.0666
     67 H          20.6746   58.6760    9.6941 H         1 HC7         0.0666
@<TRIPOS>BOND
     1    1    2 1  
     2    1    8 1  
     3    2    3 1  
     4    2    4 1  
     5    2    5 1  
     6    5    6 1  
     7    6    7 1  
     8    7    8 1  
     9    8    9 1  
    10    8   10 1  
    11   10   11 ar 
    12   10   13 ar 
    13   11   12 ar 
    14   12   15 ar 
    15   13   14 ar 
    16   14   15 ar 
    17   15   16 1  
    18   16   17 ar 
    19   16   19 ar 
    20   17   18 ar 
    21   18   21 ar 
    22   19   20 ar 
    23   20   21 ar 
    24   21   22 1  
    25   22   23 2  
    26   22   24 1  
    27   24   25 1  
    28   25   26 1  
    29   25   27 1  
    30   25   28 1  
    31   28   29 1  
    32   29   30 1  
    33   30   31 1  
    34   31   32 ar 
    35   31   33 ar 
    36   31   34 ar 
    37    1   35 1  
    38    1   36 1  
    39    3   37 1  
    40    3   38 1  
    41    3   39 1  
    42    4   40 1  
    43    4   41 1  
    44    4   42 1  
    45    5   43 1  
    46    5   44 1  
    47    6   45 1  
    48    6   46 1  
    49    9   47 1  
    50   11   48 1  
    51   12   49 1  
    52   13   50 1  
    53   14   51 1  
    54   17   52 1  
    55   18   53 1  
    56   19   54 1  
    57   20   55 1  
    58   24   56 1  
    59   24   57 1  
    60   26   58 1  
    61   26   59 1  
    62   26   60 1  
    63   27   61 1  
    64   27   62 1  
    65   27   63 1  
    66   28   64 1  
    67   28   65 1  
    68   29   66 1  
    69   29   67 1  
@<TRIPOS>SUBSTRUCTURE
     1 HC7         1

