6erv_ligand
  -I-interpret- 

276277  0  0  0  0  0  0  0  0999 V2000
   18.4660  -35.0880   25.5080 N   0  3  0  0  0
   17.6970  -34.6320   24.3480 C   0  0  0  0  0
   16.7280  -33.5160   24.7090 C   0  0  0  0  0
   16.3350  -33.3630   25.8730 O   0  0  0  0  0
   16.8870  -35.7740   23.7200 C   0  0  0  0  0
   15.7600  -36.0440   24.5430 O   0  0  0  0  0
   17.7370  -37.0310   23.6140 C   0  0  0  0  0
   16.3260  -32.7530   23.6930 N   0  0  0  0  0
   15.3710  -31.6650   23.9040 C   0  0  0  0  0
   14.0540  -32.1870   24.4760 C   0  0  0  0  0
   13.5180  -31.6250   25.4390 O   0  0  0  0  0
   15.1260  -30.9390   22.5930 C   0  0  0  0  0
   16.3930  -30.5790   22.0300 O   0  0  0  0  0
   14.2670  -29.6780   22.8330 C   0  0  0  0  0
   13.5240  -33.2740   23.9040 N   0  0  0  0  0
   12.2850  -33.8610   24.4320 C   0  0  0  0  0
   12.4160  -34.2470   25.9040 C   0  0  0  0  0
   11.4900  -34.0180   26.7000 O   0  0  0  0  0
   11.8940  -35.0830   23.6050 C   0  0  0  0  0
   10.6770  -35.8170   24.1250 C   0  0  0  0  0
   10.7920  -37.0400   24.7720 C   0  0  0  0  0
    9.4070  -35.2750   23.9690 C   0  0  0  0  0
    9.6540  -37.7070   25.2300 C   0  0  0  0  0
    8.2980  -35.9080   24.4130 C   0  0  0  0  0
    8.4040  -37.1180   25.0460 C   0  0  0  0  0
    7.2450  -37.7240   25.4860 O   0  0  0  0  0
   13.5360  -34.8840   26.2750 N   0  0  0  0  0
   13.7530  -35.2250   27.6840 C   0  0  0  0  0
   13.8040  -33.9670   28.5280 C   0  0  0  0  0
   13.2640  -33.9380   29.6390 O   0  0  0  0  0
   15.0390  -36.0310   27.8640 C   0  0  0  0  0
   14.4310  -32.9050   27.9990 N   0  0  0  0  0
   14.4560  -31.6270   28.7090 C   0  0  0  0  0
   13.0440  -31.0760   28.8810 C   0  0  0  0  0
   12.7050  -30.5020   29.9210 O   0  0  0  0  0
   15.3160  -30.6100   27.9600 C   0  0  0  0  0
   16.8040  -30.9890   27.9100 C   0  0  0  0  0
   17.2570  -31.8270   28.7250 O   0  0  0  0  0
   17.5180  -30.4280   27.0430 O   0  0  0  0  0
   12.2010  -31.2530   27.8770 N   0  0  0  0  0
   10.8370  -30.7500   27.9950 C   0  0  0  0  0
   10.1090  -31.4490   29.1350 C   0  0  0  0  0
    9.4680  -30.8080   29.9720 O   0  0  0  0  0
   10.1110  -30.9580   26.6720 C   0  0  0  0  0
    8.6710  -30.5380   26.6830 C   0  0  0  0  0
    7.6890  -31.4000   26.2350 C   0  0  0  0  0
    8.3030  -29.2660   27.0780 C   0  0  0  0  0
    6.3390  -31.0010   26.2080 C   0  0  0  0  0
    6.9730  -28.8700   27.0680 C   0  0  0  0  0
    5.9890  -29.7350   26.6330 C   0  0  0  0  0
   10.1900  -32.7740   29.1660 N   0  0  0  0  0
    9.5940  -33.5470   30.2530 C   0  0  0  0  0
   10.1400  -33.0810   31.5940 C   0  0  0  0  0
    9.3840  -32.8330   32.5350 O   0  0  0  0  0
    9.8560  -35.0440   30.0300 C   0  0  0  0  0
    9.2240  -35.5110   28.7270 C   0  0  0  0  0
    9.3090  -35.8830   31.1840 C   0  0  0  0  0
    9.5220  -36.9650   28.5240 C   0  0  0  0  0
   11.4670  -32.9260   31.6970 N   0  0  0  0  0
   12.0420  -32.5320   32.9760 C   0  0  0  0  0
   11.6170  -31.1290   33.3810 C   0  0  0  0  0
   11.8160  -30.7450   34.5370 O   0  0  0  0  0
   13.5700  -32.6240   32.9260 C   0  0  0  0  0
   11.0610  -30.3440   32.4500 N   0  0  0  0  0
   10.7120  -28.9700   32.7770 C   0  0  0  0  0
    9.5480  -28.8790   33.7480 C   0  0  0  0  0
    9.3760  -27.8370   34.3710 O   0  0  0  0  0
   10.3560  -28.1710   31.5240 C   0  0  0  0  0
    9.0350  -28.4510   31.0950 O   0  0  0  0  0
    8.7520  -29.9300   33.8940 N   0  0  0  0  0
    7.5200  -29.8080   34.6480 C   0  0  0  0  0
    6.4310  -28.9970   33.9610 C   0  0  0  0  0
    5.3810  -28.7750   34.5690 O   0  0  0  0  0
    6.6420  -28.5410   32.7210 N   0  0  0  0  0
    5.6760  -27.6930   32.0160 C   0  0  0  0  0
    5.0790  -28.3870   30.7900 C   0  0  0  0  0
    4.8800  -27.7750   29.7380 O   0  0  0  0  0
    6.3110  -26.3570   31.6290 C   0  0  0  0  0
    6.7200  -25.5250   32.9000 C   0  0  0  0  0
    7.1910  -24.0990   32.6030 C   0  0  0  0  0
    6.1830  -23.2410   31.9670 N   0  0  0  0  0
    5.2110  -22.5970   32.6100 C   0  0  0  0  0
    5.0750  -22.7030   33.9100 N   0  0  0  0  0
    4.3720  -21.8210   31.9410 N   0  0  0  0  0
    4.7830  -29.6770   30.9230 N   0  0  0  0  0
    4.1330  -30.4390   29.8710 C   0  0  0  0  0
    2.6100  -30.4260   29.9800 C   0  0  0  0  0
    1.9420  -30.8070   29.0100 O   0  0  0  0  0
    4.6340  -31.8920   29.8750 C   0  0  0  0  0
    4.0680  -32.5870   30.9840 O   0  0  0  0  0
    6.1560  -31.9160   30.0020 C   0  0  0  0  0
    2.0520  -29.9940   31.1300 N   0  0  0  0  0
    0.6130  -29.8980   31.3080 C   0  0  0  0  0
    0.0260  -28.5900   30.7830 C   0  0  0  0  0
    0.7180  -27.7260   30.2340 O   0  0  0  0  0
   -1.2880  -28.4620   30.9390 N   0  0  0  0  0
   -1.9570  -27.2320   30.5230 C   0  0  0  0  0
   -1.3250  -26.0540   31.2360 C   0  0  0  0  0
   -1.0490  -26.1240   32.4410 O   0  0  0  0  0
   -3.4660  -27.2940   30.8270 C   0  0  0  0  0
   -4.2040  -28.3270   29.9300 C   0  0  0  0  0
   -5.7390  -28.3250   30.1080 C   0  0  0  0  0
   -6.3560  -27.2120   29.3800 N   0  0  0  0  0
   -6.7600  -26.0820   29.9520 C   0  0  0  0  0
   -6.6280  -25.9220   31.2620 N   0  0  0  0  0
   -7.3130  -25.1150   29.2280 N   0  0  0  0  0
   -1.0480  -24.9840   30.4810 N   0  0  0  0  0
   -0.3230  -23.8370   30.9970 C   0  0  0  0  0
   -1.2900  -22.6880   31.2600 C   0  0  0  0  0
   -2.1080  -22.3470   30.3940 O   0  0  0  0  0
    0.7700  -23.3830   30.0170 C   0  0  0  0  0
    1.8970  -24.4110   29.8950 C   0  0  0  0  0
    2.5700  -24.3710   28.5250 C   0  0  0  0  0
    1.6550  -24.7060   27.4070 N   0  0  0  0  0
    2.0550  -25.0760   26.1850 C   0  0  0  0  0
    3.3670  -25.2050   25.8990 N   0  0  0  0  0
    1.1420  -25.3340   25.2360 N   0  0  0  0  0
   -1.1720  -22.0900   32.4380 N   0  0  0  0  0
   -1.9590  -20.9220   32.8160 C   0  0  0  0  0
   -1.3710  -19.6590   32.2090 C   0  0  0  0  0
   -0.1520  -19.5430   32.0570 O   0  0  0  0  0
   -1.9820  -20.7630   34.3400 C   0  0  0  0  0
   -2.7750  -21.8480   35.0000 C   0  0  0  0  0
   -3.6840  -22.3760   34.3920 O   0  0  0  0  0
   -2.4160  -22.2160   36.2250 N   0  0  0  0  0
   -2.2460  -18.7100   31.8680 N   0  0  0  0  0
   -1.7780  -17.3600   31.6000 C   0  0  0  0  0
   -1.1980  -16.7550   32.8790 C   0  0  0  0  0
   -1.5060  -17.1870   34.0000 O   0  0  0  0  0
   -2.9150  -16.4770   31.0710 C   0  0  0  0  0
   -0.3300  -15.7600   32.6990 N   0  0  0  0  0
    0.3240  -15.0950   33.8160 C   0  0  0  0  0
   -0.6680  -14.1470   34.4530 C   0  0  0  0  0
   -0.4270  -13.6460   35.5460 O   0  0  0  0  0
    1.5900  -14.3160   33.3890 C   0  0  0  0  0
    1.2240  -13.2370   32.3830 C   0  0  0  0  0
    2.6300  -15.2250   32.7870 C   0  0  0  0  0
    2.4190  -12.4580   31.8710 C   0  0  0  0  0
   -1.7130  -13.8370   33.8820 O   0  0  0  0  0
   18.9895  -34.3038   25.8970 H   0  0  0  0  0
   17.8283  -35.4561   26.2138 H   0  0  0  0  0
   19.1139  -35.8206   25.2183 H   0  0  0  0  0
   18.4330  -34.2614   23.6345 H   0  0  0  0  0
   16.5674  -35.4780   22.7208 H   0  0  0  0  0
   15.2198  -35.2535   24.6133 H   0  0  0  0  0
   18.0705  -37.3275   24.6085 H   0  0  0  0  0
   17.1441  -37.8329   23.1741 H   0  0  0  0  0
   18.6033  -36.8302   22.9837 H   0  0  0  0  0
   16.6888  -32.9299   22.7563 H   0  0  0  0  0
   15.7951  -30.9700   24.6287 H   0  0  0  0  0
   14.5865  -31.5886   21.9037 H   0  0  0  0  0
   16.2535  -30.1184   21.1993 H   0  0  0  0  0
   13.3093  -29.9691   23.2644 H   0  0  0  0  0
   14.7880  -29.0102   23.5190 H   0  0  0  0  0
   14.0997  -29.1680   21.8843 H   0  0  0  0  0
   13.9824  -33.6974   23.0972 H   0  0  0  0  0
   11.5049  -33.1032   24.3595 H   0  0  0  0  0
   12.7315  -35.7796   23.6430 H   0  0  0  0  0
   11.6539  -34.7303   22.6020 H   0  0  0  0  0
   11.7767  -37.4822   24.9234 H   0  0  0  0  0
    9.3017  -34.3099   23.4735 H   0  0  0  0  0
    9.7418  -38.6745   25.7244 H   0  0  0  0  0
    7.3176  -35.4546   24.2670 H   0  0  0  0  0
    6.4926  -37.1687   25.2689 H   0  0  0  0  0
   14.2371  -35.1313   25.5767 H   0  0  0  0  0
   12.9164  -35.8409   28.0138 H   0  0  0  0  0
   14.9715  -36.9539   27.2880 H   0  0  0  0  0
   15.8869  -35.4431   27.5126 H   0  0  0  0  0
   15.1725  -36.2688   28.9193 H   0  0  0  0  0
   14.8940  -32.9900   27.0941 H   0  0  0  0  0
   14.8895  -31.8013   29.6938 H   0  0  0  0  0
   15.2364  -29.6598   28.4881 H   0  0  0  0  0
   14.9534  -30.5658   26.9330 H   0  0  0  0  0
   16.9777  -29.8263   26.5257 H   0  0  0  0  0
   12.5014  -31.7357   27.0301 H   0  0  0  0  0
   10.8592  -29.6842   28.2224 H   0  0  0  0  0
   10.1309  -32.0272   26.4608 H   0  0  0  0  0
   10.6180  -30.3429   25.9286 H   0  0  0  0  0
    7.9622  -32.4002   25.8987 H   0  0  0  0  0
    9.0696  -28.5624   27.4026 H   0  0  0  0  0
    5.5725  -31.6897   25.8526 H   0  0  0  0  0
    6.7035  -27.8693   27.4059 H   0  0  0  0  0
    4.9452  -29.4213   26.6252 H   0  0  0  0  0
   10.6784  -33.2622   28.4154 H   0  0  0  0  0
    8.5158  -33.3870   30.2617 H   0  0  0  0  0
   10.9363  -35.1797   29.9795 H   0  0  0  0  0
    9.6334  -34.9357   27.8966 H   0  0  0  0  0
    8.1450  -35.3629   28.7717 H   0  0  0  0  0
    9.7932  -35.5808   32.1126 H   0  0  0  0  0
    8.2333  -35.7277   31.2664 H   0  0  0  0  0
    9.5117  -36.9369   30.9933 H   0  0  0  0  0
   10.6013  -37.1105   28.4790 H   0  0  0  0  0
    9.1111  -37.5383   29.3551 H   0  0  0  0  0
    9.0696  -37.3004   27.5908 H   0  0  0  0  0
   12.0683  -33.0823   30.8881 H   0  0  0  0  0
   11.6641  -33.2236   33.7289 H   0  0  0  0  0
   13.8639  -33.6501   32.7052 H   0  0  0  0  0
   13.9473  -31.9611   32.1474 H   0  0  0  0  0
   13.9824  -32.3260   33.8900 H   0  0  0  0  0
   10.8826  -30.7081   31.5141 H   0  0  0  0  0
   11.5986  -28.5479   33.2501 H   0  0  0  0  0
   11.0463  -28.4480   30.7273 H   0  0  0  0  0
   10.4280  -27.1086   31.7570 H   0  0  0  0  0
    8.8394  -27.9366   30.3084 H   0  0  0  0  0
    9.0070  -30.8245   33.4755 H   0  0  0  0  0
    7.7654  -29.2887   35.5744 H   0  0  0  0  0
    7.1283  -30.8165   34.7807 H   0  0  0  0  0
    7.5094  -28.7934   32.2474 H   0  0  0  0  0
    4.8535  -27.5027   32.7055 H   0  0  0  0  0
    5.5830  -25.7807   31.0580 H   0  0  0  0  0
    7.2083  -26.5574   31.0435 H   0  0  0  0  0
    7.5564  -26.0460   33.3659 H   0  0  0  0  0
    5.8316  -25.4429   33.5262 H   0  0  0  0  0
    8.0256  -24.1787   31.9064 H   0  0  0  0  0
    7.4399  -23.6408   33.5602 H   0  0  0  0  0
    6.2312  -23.1298   30.9542 H   0  0  0  0  0
    5.7195  -23.2857   34.4444 H   0  0  0  0  0
    3.6360  -21.3185   32.4373 H   0  0  0  0  0
    4.4617  -21.7257   30.9294 H   0  0  0  0  0
    5.0212  -30.1483   31.7956 H   0  0  0  0  0
    4.3966  -29.9537   28.9313 H   0  0  0  0  0
    4.3369  -32.3724   28.9428 H   0  0  0  0  0
    4.3816  -33.4943   30.9854 H   0  0  0  0  0
    6.5981  -31.3847   29.1592 H   0  0  0  0  0
    6.4493  -31.4311   30.9331 H   0  0  0  0  0
    6.5029  -32.9493   30.0041 H   0  0  0  0  0
    2.6620  -29.7252   31.9020 H   0  0  0  0  0
    0.4094  -29.9447   32.3778 H   0  0  0  0  0
    0.1563  -30.7130   30.7465 H   0  0  0  0  0
   -1.8292  -29.2230   31.3493 H   0  0  0  0  0
   -1.8390  -27.1135   29.4459 H   0  0  0  0  0
   -3.8919  -26.3099   30.6316 H   0  0  0  0  0
   -3.5902  -27.5977   31.8665 H   0  0  0  0  0
   -3.8457  -29.3169   30.2125 H   0  0  0  0  0
   -3.9971  -28.0629   28.8929 H   0  0  0  0  0
   -5.9660  -28.2154   31.1684 H   0  0  0  0  0
   -6.1360  -29.2607   29.7144 H   0  0  0  0  0
   -6.4831  -27.3107   28.3728 H   0  0  0  0  0
   -6.2174  -26.6648   31.8277 H   0  0  0  0  0
   -7.6320  -24.2582   29.6802 H   0  0  0  0  0
   -7.4185  -25.2294   28.2199 H   0  0  0  0  0
   -1.3572  -24.9742   29.5090 H   0  0  0  0  0
    0.1572  -24.1315   31.9302 H   0  0  0  0  0
    1.1974  -22.4528   30.3915 H   0  0  0  0  0
    0.3152  -23.2589   29.0342 H   0  0  0  0  0
    1.4668  -25.4031   30.0322 H   0  0  0  0  0
    2.6495  -24.1797   30.6489 H   0  0  0  0  0
    3.3675  -25.1140   28.5297 H   0  0  0  0  0
    2.9254  -23.3532   28.3640 H   0  0  0  0  0
    0.6516  -24.6505   27.5817 H   0  0  0  0  0
    3.6594  -25.4969   24.9664 H   0  0  0  0  0
    4.0666  -25.0106   26.6153 H   0  0  0  0  0
    0.1480  -25.2477   25.4477 H   0  0  0  0  0
   -0.5010  -22.4637   33.1093 H   0  0  0  0  0
   -2.9722  -21.0708   32.4427 H   0  0  0  0  0
   -2.4464  -19.8060   34.5778 H   0  0  0  0  0
   -0.9566  -20.8170   34.7057 H   0  0  0  0  0
   -2.9113  -22.9732   36.6958 H   0  0  0  0  0
   -1.6450  -21.7413   36.6948 H   0  0  0  0  0
   -3.2391  -18.9314   31.7958 H   0  0  0  0  0
   -1.0034  -17.4084   30.8346 H   0  0  0  0  0
   -3.3033  -16.9025   30.1456 H   0  0  0  0  0
   -3.7120  -16.4297   31.8131 H   0  0  0  0  0
   -2.5350  -15.4735   30.8796 H   0  0  0  0  0
   -0.1175  -15.4552   31.7491 H   0  0  0  0  0
    0.6491  -15.8589   34.5223 H   0  0  0  0  0
    2.0116  -13.8624   34.2860 H   0  0  0  0  0
    0.5633  -12.5307   32.8857 H   0  0  0  0  0
    0.7628  -13.7298   31.5271 H   0  0  0  0  0
    2.9214  -15.9773   33.5200 H   0  0  0  0  0
    2.2159  -15.7155   31.9061 H   0  0  0  0  0
    3.5024  -14.6375   32.5010 H   0  0  0  0  0
    2.9182  -11.9694   32.7078 H   0  0  0  0  0
    3.1131  -13.1406   31.3806 H   0  0  0  0  0
    2.0822  -11.7058   31.1577 H   0  0  0  0  0
   -1.7684  -14.3017   33.0438 H   0  0  0  0  0
  1  2  1  0  0  0
  2  3  1  0  0  0
  2  5  1  0  0  0
  3  4  2  0  0  0
  3  8  1  0  0  0
  5  6  1  0  0  0
  5  7  1  0  0  0
  8  9  1  0  0  0
  9 10  1  0  0  0
  9 12  1  0  0  0
 10 11  2  0  0  0
 10 15  1  0  0  0
 12 13  1  0  0  0
 12 14  1  0  0  0
 15 16  1  0  0  0
 16 17  1  0  0  0
 16 19  1  0  0  0
 17 18  2  0  0  0
 17 27  1  0  0  0
 19 20  1  0  0  0
 20 21  4  0  0  0
 20 22  4  0  0  0
 21 23  4  0  0  0
 22 24  4  0  0  0
 23 25  4  0  0  0
 24 25  4  0  0  0
 25 26  1  0  0  0
 27 28  1  0  0  0
 28 29  1  0  0  0
 28 31  1  0  0  0
 29 30  2  0  0  0
 29 32  1  0  0  0
 32 33  1  0  0  0
 33 34  1  0  0  0
 33 36  1  0  0  0
 34 35  2  0  0  0
 34 40  1  0  0  0
 36 37  1  0  0  0
 37 38  2  0  0  0
 37 39  1  0  0  0
 40 41  1  0  0  0
 41 42  1  0  0  0
 41 44  1  0  0  0
 42 43  2  0  0  0
 42 51  1  0  0  0
 44 45  1  0  0  0
 45 46  4  0  0  0
 45 47  4  0  0  0
 46 48  4  0  0  0
 47 49  4  0  0  0
 48 50  4  0  0  0
 49 50  4  0  0  0
 51 52  1  0  0  0
 52 53  1  0  0  0
 52 55  1  0  0  0
 53 54  2  0  0  0
 53 59  1  0  0  0
 55 56  1  0  0  0
 55 57  1  0  0  0
 56 58  1  0  0  0
 59 60  1  0  0  0
 60 61  1  0  0  0
 60 63  1  0  0  0
 61 62  2  0  0  0
 61 64  1  0  0  0
 64 65  1  0  0  0
 65 66  1  0  0  0
 65 68  1  0  0  0
 66 67  2  0  0  0
 66 70  1  0  0  0
 68 69  1  0  0  0
 70 71  1  0  0  0
 71 72  1  0  0  0
 72 73  2  0  0  0
 72 74  1  0  0  0
 74 75  1  0  0  0
 75 76  1  0  0  0
 75 78  1  0  0  0
 76 77  2  0  0  0
 76 85  1  0  0  0
 78 79  1  0  0  0
 79 80  1  0  0  0
 80 81  1  0  0  0
 81 82  1  0  0  0
 82 83  2  0  0  0
 82 84  1  0  0  0
 85 86  1  0  0  0
 86 87  1  0  0  0
 86 89  1  0  0  0
 87 88  2  0  0  0
 87 92  1  0  0  0
 89 90  1  0  0  0
 89 91  1  0  0  0
 92 93  1  0  0  0
 93 94  1  0  0  0
 94 95  2  0  0  0
 94 96  1  0  0  0
 96 97  1  0  0  0
 97 98  1  0  0  0
 97100  1  0  0  0
 98 99  2  0  0  0
 98107  1  0  0  0
100101  1  0  0  0
101102  1  0  0  0
102103  1  0  0  0
103104  1  0  0  0
104105  2  0  0  0
104106  1  0  0  0
107108  1  0  0  0
108109  1  0  0  0
108111  1  0  0  0
109110  2  0  0  0
109118  1  0  0  0
111112  1  0  0  0
112113  1  0  0  0
113114  1  0  0  0
114115  1  0  0  0
115116  1  0  0  0
115117  2  0  0  0
118119  1  0  0  0
119120  1  0  0  0
119122  1  0  0  0
120121  2  0  0  0
120126  1  0  0  0
122123  1  0  0  0
123124  2  0  0  0
123125  1  0  0  0
126127  1  0  0  0
127128  1  0  0  0
127130  1  0  0  0
128129  2  0  0  0
128131  1  0  0  0
131132  1  0  0  0
132133  1  0  0  0
132135  1  0  0  0
133134  2  0  0  0
133139  1  0  0  0
135136  1  0  0  0
135137  1  0  0  0
136138  1  0  0  0
  1140  1  0  0  0
  1141  1  0  0  0
  1142  1  0  0  0
  2143  1  0  0  0
  5144  1  0  0  0
  6145  1  0  0  0
  7146  1  0  0  0
  7147  1  0  0  0
  7148  1  0  0  0
  8149  1  0  0  0
  9150  1  0  0  0
 12151  1  0  0  0
 13152  1  0  0  0
 14153  1  0  0  0
 14154  1  0  0  0
 14155  1  0  0  0
 15156  1  0  0  0
 16157  1  0  0  0
 19158  1  0  0  0
 19159  1  0  0  0
 21160  1  0  0  0
 22161  1  0  0  0
 23162  1  0  0  0
 24163  1  0  0  0
 26164  1  0  0  0
 27165  1  0  0  0
 28166  1  0  0  0
 31167  1  0  0  0
 31168  1  0  0  0
 31169  1  0  0  0
 32170  1  0  0  0
 33171  1  0  0  0
 36172  1  0  0  0
 36173  1  0  0  0
 39174  1  0  0  0
 40175  1  0  0  0
 41176  1  0  0  0
 44177  1  0  0  0
 44178  1  0  0  0
 46179  1  0  0  0
 47180  1  0  0  0
 48181  1  0  0  0
 49182  1  0  0  0
 50183  1  0  0  0
 51184  1  0  0  0
 52185  1  0  0  0
 55186  1  0  0  0
 56187  1  0  0  0
 56188  1  0  0  0
 57189  1  0  0  0
 57190  1  0  0  0
 57191  1  0  0  0
 58192  1  0  0  0
 58193  1  0  0  0
 58194  1  0  0  0
 59195  1  0  0  0
 60196  1  0  0  0
 63197  1  0  0  0
 63198  1  0  0  0
 63199  1  0  0  0
 64200  1  0  0  0
 65201  1  0  0  0
 68202  1  0  0  0
 68203  1  0  0  0
 69204  1  0  0  0
 70205  1  0  0  0
 71206  1  0  0  0
 71207  1  0  0  0
 74208  1  0  0  0
 75209  1  0  0  0
 78210  1  0  0  0
 78211  1  0  0  0
 79212  1  0  0  0
 79213  1  0  0  0
 80214  1  0  0  0
 80215  1  0  0  0
 81216  1  0  0  0
 83217  1  0  0  0
 84218  1  0  0  0
 84219  1  0  0  0
 85220  1  0  0  0
 86221  1  0  0  0
 89222  1  0  0  0
 90223  1  0  0  0
 91224  1  0  0  0
 91225  1  0  0  0
 91226  1  0  0  0
 92227  1  0  0  0
 93228  1  0  0  0
 93229  1  0  0  0
 96230  1  0  0  0
 97231  1  0  0  0
100232  1  0  0  0
100233  1  0  0  0
101234  1  0  0  0
101235  1  0  0  0
102236  1  0  0  0
102237  1  0  0  0
103238  1  0  0  0
105239  1  0  0  0
106240  1  0  0  0
106241  1  0  0  0
107242  1  0  0  0
108243  1  0  0  0
111244  1  0  0  0
111245  1  0  0  0
112246  1  0  0  0
112247  1  0  0  0
113248  1  0  0  0
113249  1  0  0  0
114250  1  0  0  0
116251  1  0  0  0
116252  1  0  0  0
117253  1  0  0  0
118254  1  0  0  0
119255  1  0  0  0
122256  1  0  0  0
122257  1  0  0  0
125258  1  0  0  0
125259  1  0  0  0
126260  1  0  0  0
127261  1  0  0  0
130262  1  0  0  0
130263  1  0  0  0
130264  1  0  0  0
131265  1  0  0  0
132266  1  0  0  0
135267  1  0  0  0
136268  1  0  0  0
136269  1  0  0  0
137270  1  0  0  0
137271  1  0  0  0
137272  1  0  0  0
138273  1  0  0  0
138274  1  0  0  0
138275  1  0  0  0
139276  1  0  0  0
M  END
$$$$
