### 
### Created by X-TOOL on Mon Aug  2 16:13:18 2021
### 

@<TRIPOS>MOLECULE
6erv_ligand
  277   278     1     0     0
SMALL
GAST_HUCK


@<TRIPOS>ATOM
      1 N          18.4660  -35.0880   25.5080 N.4       1 THR         0.2398
      2 CA         17.6970  -34.6320   24.3480 C.3       1 THR         0.0910
      3 C          16.7280  -33.5160   24.7090 C.2       1 THR         0.2293
      4 O          16.3350  -33.3630   25.8730 O.2       1 THR        -0.3906
      5 CB         16.8870  -35.7740   23.7200 C.3       1 THR         0.1120
      6 OG1        15.7600  -36.0440   24.5430 O.3       1 THR        -0.3840
      7 CG2        17.7370  -37.0310   23.6140 C.3       1 THR        -0.0314
      8 N          16.3260  -32.7530   23.6930 N.am      1 THR        -0.2585
      9 CA         15.3710  -31.6650   23.9040 C.3       1 THR         0.1566
     10 C          14.0540  -32.1870   24.4760 C.2       1 THR         0.2066
     11 O          13.5180  -31.6250   25.4390 O.2       1 THR        -0.3943
     12 CB         15.1260  -30.9390   22.5930 C.3       1 THR         0.0924
     13 OG1        16.3930  -30.5790   22.0300 O.3       1 THR        -0.3874
     14 CG2        14.2670  -29.6780   22.8330 C.3       1 THR        -0.0346
     15 N          13.5240  -33.2740   23.9040 N.am      1 THR        -0.2621
     16 CA         12.2850  -33.8610   24.4320 C.3       1 THR         0.1390
     17 C          12.4160  -34.2470   25.9040 C.2       1 THR         0.2057
     18 O          11.4900  -34.0180   26.7000 O.2       1 THR        -0.3942
     19 CB         11.8940  -35.0830   23.6050 C.3       1 THR         0.0163
     20 CG         10.6770  -35.8170   24.1250 C.ar      1 THR        -0.0493
     21 CD1        10.7920  -37.0400   24.7720 C.ar      1 THR        -0.0685
     22 CD2         9.4070  -35.2750   23.9690 C.ar      1 THR        -0.0685
     23 CE1         9.6540  -37.7070   25.2300 C.ar      1 THR        -0.0398
     24 CE2         8.2980  -35.9080   24.4130 C.ar      1 THR        -0.0398
     25 CZ          8.4040  -37.1180   25.0460 C.ar      1 THR         0.0805
     26 OH          7.2450  -37.7240   25.4860 O.3       1 THR        -0.3376
     27 N          13.5360  -34.8840   26.2750 N.am      1 THR        -0.2639
     28 CA         13.7530  -35.2250   27.6840 C.3       1 THR         0.1282
     29 C          13.8040  -33.9670   28.5280 C.2       1 THR         0.2037
     30 O          13.2640  -33.9380   29.6390 O.2       1 THR        -0.3944
     31 CB         15.0390  -36.0310   27.8640 C.3       1 THR        -0.0244
     32 N          14.4310  -32.9050   27.9990 N.am      1 THR        -0.2622
     33 CA         14.4560  -31.6270   28.7090 C.3       1 THR         0.1423
     34 C          13.0440  -31.0760   28.8810 C.2       1 THR         0.2057
     35 O          12.7050  -30.5020   29.9210 O.2       1 THR        -0.3943
     36 CB         15.3160  -30.6100   27.9600 C.3       1 THR         0.0406
     37 CG         16.8040  -30.9890   27.9100 C.2       1 THR         0.0393
     38 OD1        17.2570  -31.8270   28.7250 O.co2     1 THR        -0.5688
     39 OD2        17.5180  -30.4280   27.0430 O.co2     1 THR        -0.5688
     40 N          12.2010  -31.2530   27.8770 N.am      1 THR        -0.2618
     41 CA         10.8370  -30.7500   27.9950 C.3       1 THR         0.1404
     42 C          10.1090  -31.4490   29.1350 C.2       1 THR         0.2060
     43 O           9.4680  -30.8080   29.9720 O.2       1 THR        -0.3942
     44 CB         10.1110  -30.9580   26.6720 C.3       1 THR         0.0214
     45 CG          8.6710  -30.5380   26.6830 C.ar      1 THR        -0.0386
     46 CD1         7.6890  -31.4000   26.2350 C.ar      1 THR        -0.0601
     47 CD2         8.3030  -29.2660   27.0780 C.ar      1 THR        -0.0601
     48 CE1         6.3390  -31.0010   26.2080 C.ar      1 THR        -0.0686
     49 CE2         6.9730  -28.8700   27.0680 C.ar      1 THR        -0.0686
     50 CZ          5.9890  -29.7350   26.6330 C.ar      1 THR        -0.0687
     51 N          10.1900  -32.7740   29.1660 N.am      1 THR        -0.2633
     52 CA          9.5940  -33.5470   30.2530 C.3       1 THR         0.1335
     53 C          10.1400  -33.0810   31.5940 C.2       1 THR         0.2041
     54 O           9.3840  -32.8330   32.5350 O.2       1 THR        -0.3944
     55 CB          9.8560  -35.0440   30.0300 C.3       1 THR        -0.0037
     56 CG1         9.2240  -35.5110   28.7270 C.3       1 THR        -0.0491
     57 CG2         9.3090  -35.8830   31.1840 C.3       1 THR        -0.0582
     58 CD1         9.5220  -36.9650   28.5240 C.3       1 THR        -0.0648
     59 N          11.4670  -32.9260   31.6970 N.am      1 THR        -0.2640
     60 CA         12.0420  -32.5320   32.9760 C.3       1 THR         0.1282
     61 C          11.6170  -31.1290   33.3810 C.2       1 THR         0.2037
     62 O          11.8160  -30.7450   34.5370 O.2       1 THR        -0.3944
     63 CB         13.5700  -32.6240   32.9260 C.3       1 THR        -0.0244
     64 N          11.0610  -30.3440   32.4500 N.am      1 THR        -0.2616
     65 CA         10.7120  -28.9700   32.7770 C.3       1 THR         0.1539
     66 C           9.5480  -28.8790   33.7480 C.2       1 THR         0.2060
     67 O           9.3760  -27.8370   34.3710 O.2       1 THR        -0.3943
     68 CB         10.3560  -28.1710   31.5240 C.3       1 THR         0.0843
     69 OG          9.0350  -28.4510   31.0950 O.3       1 THR        -0.3903
     70 N           8.7520  -29.9300   33.8940 N.am      1 THR        -0.2663
     71 CA          7.5200  -29.8080   34.6480 C.3       1 THR         0.1201
     72 C           6.4310  -28.9970   33.9610 C.2       1 THR         0.2007
     73 O           5.3810  -28.7750   34.5690 O.2       1 THR        -0.3947
     74 N           6.6420  -28.5410   32.7210 N.am      1 THR        -0.2640
     75 CA          5.6760  -27.6930   32.0160 C.3       1 THR         0.1311
     76 C           5.0790  -28.3870   30.7900 C.2       1 THR         0.2040
     77 O           4.8800  -27.7750   29.7380 O.2       1 THR        -0.3944
     78 CB          6.3110  -26.3570   31.6290 C.3       1 THR        -0.0092
     79 CG          6.7200  -25.5250   32.9000 C.3       1 THR        -0.0156
     80 CD          7.1910  -24.0990   32.6030 C.3       1 THR         0.0627
     81 NE          6.1830  -23.2410   31.9670 N.pl3     1 THR        -0.2723
     82 CZ          5.2110  -22.5970   32.6100 C.cat     1 THR         0.2882
     83 NH1         5.0750  -22.7030   33.9100 N.pl3     1 THR        -0.2849
     84 NH2         4.3720  -21.8210   31.9410 N.pl3     1 THR        -0.2849
     85 N           4.7830  -29.6770   30.9230 N.am      1 THR        -0.2613
     86 CA          4.1330  -30.4390   29.8710 C.3       1 THR         0.1565
     87 C           2.6100  -30.4260   29.9800 C.2       1 THR         0.2063
     88 O           1.9420  -30.8070   29.0100 O.2       1 THR        -0.3943
     89 CB          4.6340  -31.8920   29.8750 C.3       1 THR         0.0924
     90 OG1         4.0680  -32.5870   30.9840 O.3       1 THR        -0.3874
     91 CG2         6.1560  -31.9160   30.0020 C.3       1 THR        -0.0346
     92 N           2.0520  -29.9940   31.1300 N.am      1 THR        -0.2663
     93 CA          0.6130  -29.8980   31.3080 C.3       1 THR         0.1201
     94 C           0.0260  -28.5900   30.7830 C.2       1 THR         0.2007
     95 O           0.7180  -27.7260   30.2340 O.2       1 THR        -0.3947
     96 N          -1.2880  -28.4620   30.9390 N.am      1 THR        -0.2640
     97 CA         -1.9570  -27.2320   30.5230 C.3       1 THR         0.1311
     98 C          -1.3250  -26.0540   31.2360 C.2       1 THR         0.2039
     99 O          -1.0490  -26.1240   32.4410 O.2       1 THR        -0.3944
    100 CB         -3.4660  -27.2940   30.8270 C.3       1 THR        -0.0092
    101 CG         -4.2040  -28.3270   29.9300 C.3       1 THR        -0.0156
    102 CD         -5.7390  -28.3250   30.1080 C.3       1 THR         0.0627
    103 NE         -6.3560  -27.2120   29.3800 N.pl3     1 THR        -0.2723
    104 CZ         -6.7600  -26.0820   29.9520 C.cat     1 THR         0.2882
    105 NH1        -6.6280  -25.9220   31.2620 N.pl3     1 THR        -0.2849
    106 NH2        -7.3130  -25.1150   29.2280 N.pl3     1 THR        -0.2849
    107 N          -1.0480  -24.9840   30.4810 N.am      1 THR        -0.2637
    108 CA         -0.3230  -23.8370   30.9970 C.3       1 THR         0.1311
    109 C          -1.2900  -22.6880   31.2600 C.2       1 THR         0.2040
    110 O          -2.1080  -22.3470   30.3940 O.2       1 THR        -0.3944
    111 CB          0.7700  -23.3830   30.0170 C.3       1 THR        -0.0092
    112 CG          1.8970  -24.4110   29.8950 C.3       1 THR        -0.0156
    113 CD          2.5700  -24.3710   28.5250 C.3       1 THR         0.0627
    114 NE          1.6550  -24.7060   27.4070 N.pl3     1 THR        -0.2723
    115 CZ          2.0550  -25.0760   26.1850 C.cat     1 THR         0.2882
    116 NH1         3.3670  -25.2050   25.8990 N.pl3     1 THR        -0.2849
    117 NH2         1.1420  -25.3340   25.2360 N.pl3     1 THR        -0.2849
    118 N          -1.1720  -22.0900   32.4380 N.am      1 THR        -0.2616
    119 CA         -1.9590  -20.9220   32.8160 C.3       1 THR         0.1476
    120 C          -1.3710  -19.6590   32.2090 C.2       1 THR         0.2062
    121 O          -0.1520  -19.5430   32.0570 O.2       1 THR        -0.3942
    122 CB         -1.9820  -20.7630   34.3400 C.3       1 THR         0.0773
    123 CG         -2.7750  -21.8480   35.0000 C.2       1 THR         0.1780
    124 OD1        -3.6840  -22.3760   34.3920 O.2       1 THR        -0.3970
    125 ND2        -2.4160  -22.2160   36.2250 N.am      1 THR        -0.3007
    126 N          -2.2460  -18.7100   31.8680 N.am      1 THR        -0.2639
    127 CA         -1.7780  -17.3600   31.6000 C.3       1 THR         0.1282
    128 C          -1.1980  -16.7550   32.8790 C.2       1 THR         0.2031
    129 O          -1.5060  -17.1870   34.0000 O.2       1 THR        -0.3944
    130 CB         -2.9150  -16.4770   31.0710 C.3       1 THR        -0.0244
    131 N          -0.3300  -15.7600   32.6990 N.am      1 THR        -0.2692
    132 CA          0.3240  -15.0950   33.8160 C.3       1 THR         0.0969
    133 C          -0.6680  -14.1470   34.4530 C.2       1 THR         0.0604
    134 O          -0.4270  -13.6460   35.5460 O.co2     1 THR        -0.5666
    135 CB          1.5900  -14.3160   33.3890 C.3       1 THR        -0.0092
    136 CG1         1.2240  -13.2370   32.3830 C.3       1 THR        -0.0497
    137 CG2         2.6300  -15.2250   32.7870 C.3       1 THR        -0.0588
    138 CD1         2.4190  -12.4580   31.8710 C.3       1 THR        -0.0649
    139 OXT        -1.7130  -13.8370   33.8820 O.co2     1 THR        -0.5666
    140 H1         18.9838  -34.3137   25.8933 H         1 THR         0.2016
    141 H2         19.1067  -35.8120   25.2229 H         1 THR         0.2016
    142 H3         17.8368  -35.4520   26.2063 H         1 THR         0.2016
    143 H4         18.4081  -34.2515   23.6000 H         1 THR         0.1125
    144 H5         16.5503  -35.4751   22.7164 H         1 THR         0.0674
    145 H6         15.2214  -35.2640   24.6064 H         1 THR         0.2102
    146 H7         17.1423  -37.8387   23.1625 H         1 THR         0.0258
    147 H8         18.0673  -37.3361   24.6179 H         1 THR         0.0258
    148 H9         18.6160  -36.8273   22.9849 H         1 THR         0.0258
    149 H10        16.6817  -32.9264   22.7746 H         1 THR         0.1885
    150 H11        15.8043  -30.9552   24.6240 H         1 THR         0.0826
    151 H12        14.5952  -31.6074   21.8991 H         1 THR         0.0639
    152 H13        16.2550  -30.1232   21.2079 H         1 THR         0.2101
    153 H14        14.0974  -29.1624   21.8763 H         1 THR         0.0257
    154 H15        14.7918  -29.0031   23.5252 H         1 THR         0.0257
    155 H16        13.3001  -29.9704   23.2683 H         1 THR         0.0257
    156 H17        13.9734  -33.6891   23.1130 H         1 THR         0.1885
    157 H18        11.4862  -33.1098   24.3450 H         1 THR         0.0821
    158 H19        12.7430  -35.7824   23.5993 H         1 THR         0.0453
    159 H20        11.6847  -34.7520   22.5771 H         1 THR         0.0453
    160 H21        11.7713  -37.4798   24.9225 H         1 THR         0.0530
    161 H22         9.3023  -34.3152   23.4762 H         1 THR         0.0530
    162 H23         9.7413  -38.6691   25.7216 H         1 THR         0.0525
    163 H24         7.3230  -35.4571   24.2678 H         1 THR         0.0525
    164 H25         6.6709  -37.8820   24.7458 H         1 THR         0.2458
    165 H26        14.2234  -35.1265   25.5904 H         1 THR         0.1883
    166 H27        12.9076  -35.8406   28.0250 H         1 THR         0.0797
    167 H28        15.1749  -36.2716   28.9287 H         1 THR         0.0277
    168 H29        15.8956  -35.4387   27.5098 H         1 THR         0.0277
    169 H30        14.9721  -36.9627   27.2832 H         1 THR         0.0277
    170 H31        14.8849  -32.9883   27.1119 H         1 THR         0.1884
    171 H32        14.8929  -31.7912   29.7051 H         1 THR         0.0819
    172 H33        15.2210  -29.6359   28.4620 H         1 THR         0.0478
    173 H34        14.9419  -30.5291   26.9287 H         1 THR         0.0478
    174 H35        12.4955  -31.7262   27.0467 H         1 THR         0.1885
    175 H36        10.8728  -29.6724   28.2128 H         1 THR         0.0823
    176 H37        10.1555  -32.0277   26.4195 H         1 THR         0.0474
    177 H38        10.6331  -30.3765   25.8979 H         1 THR         0.0474
    178 H39         7.9607  -32.3947   25.9005 H         1 THR         0.0557
    179 H40         9.0654  -28.5663   27.4008 H         1 THR         0.0557
    180 H41         5.5767  -31.6859   25.8545 H         1 THR         0.0599
    181 H42         6.7050  -27.8748   27.4040 H         1 THR         0.0599
    182 H43         4.9509  -29.4230   26.6252 H         1 THR         0.0559
    183 H44        10.6689  -33.2527   28.4301 H         1 THR         0.1883
    184 H45         8.5067  -33.3805   30.2468 H         1 THR         0.0803
    185 H46        10.9434  -35.1986   29.9697 H         1 THR         0.0345
    186 H47         9.6383  -34.9308   27.8893 H         1 THR         0.0267
    187 H48         8.1351  -35.3623   28.7730 H         1 THR         0.0267
    188 H49         9.7636  -35.5484   32.1282 H         1 THR         0.0235
    189 H50         9.5526  -36.9423   31.0149 H         1 THR         0.0235
    190 H51         8.2171  -35.7622   31.2398 H         1 THR         0.0235
    191 H52         9.0660  -37.3047   27.5824 H         1 THR         0.0230
    192 H53         9.1078  -37.5447   29.3621 H         1 THR         0.0230
    193 H54        10.6110  -37.1132   28.4783 H         1 THR         0.0230
    194 H55        12.0565  -33.0793   30.9039 H         1 THR         0.1883
    195 H56        11.6781  -33.2326   33.7419 H         1 THR         0.0797
    196 H57        13.9874  -32.3235   33.8984 H         1 THR         0.0277
    197 H58        13.9521  -31.9554   32.1406 H         1 THR         0.0277
    198 H59        13.8679  -33.6592   32.7033 H         1 THR         0.0277
    199 H60        10.8861  -30.7010   31.5324 H         1 THR         0.1884
    200 H61        11.5909  -28.5060   33.2484 H         1 THR         0.0823
    201 H62        11.0579  -28.4345   30.7191 H         1 THR         0.0606
    202 H63        10.4405  -27.0972   31.7473 H         1 THR         0.0606
    203 H64         8.9572  -29.3768   30.8967 H         1 THR         0.2097
    204 H65         9.0020  -30.8070   33.4837 H         1 THR         0.1881
    205 H66         7.7526  -29.3247   35.6084 H         1 THR         0.0763
    206 H67         7.1292  -30.8197   34.8317 H         1 THR         0.0763
    207 H68         7.4924  -28.7884   32.2566 H         1 THR         0.1883
    208 H69         4.8501  -27.4836   32.7118 H         1 THR         0.0800
    209 H70         5.5882  -25.7753   31.0381 H         1 THR         0.0313
    210 H71         7.2089  -26.5498   31.0236 H         1 THR         0.0313
    211 H72         7.5366  -26.0568   33.4102 H         1 THR         0.0301
    212 H73         5.8474  -25.4662   33.5672 H         1 THR         0.0301
    213 H74         8.0623  -24.1580   31.9341 H         1 THR         0.0689
    214 H75         7.4890  -23.6315   33.5530 H         1 THR         0.0689
    215 H76         6.2317  -23.1287   30.9443 H         1 THR         0.2642
    216 H77         4.3174  -22.1979   34.3914 H         1 THR         0.2615
    217 H78         5.7258  -23.2914   34.4496 H         1 THR         0.2615
    218 H79         4.4626  -21.7248   30.9195 H         1 THR         0.2615
    219 H80         3.6288  -21.3136   32.4421 H         1 THR         0.2615
    220 H81         5.0165  -30.1391   31.7785 H         1 THR         0.1884
    221 H82         4.4062  -29.9807   28.9091 H         1 THR         0.0826
    222 H83         4.3349  -32.3849   28.9382 H         1 THR         0.0639
    223 H84         4.3291  -32.1592   31.7911 H         1 THR         0.2101
    224 H85         6.5073  -32.9584   30.0042 H         1 THR         0.0257
    225 H86         6.4533  -31.4269   30.9413 H         1 THR         0.0257
    226 H87         6.6034  -31.3801   29.1519 H         1 THR         0.0257
    227 H88         2.6501  -29.7305   31.8869 H         1 THR         0.1881
    228 H89         0.3880  -29.9755   32.3819 H         1 THR         0.0763
    229 H90         0.1383  -30.7335   30.7726 H         1 THR         0.0763
    230 H91        -1.8186  -29.2081   31.3413 H         1 THR         0.1883
    231 H92        -1.8233  -27.1058   29.4385 H         1 THR         0.0800
    232 H93        -3.9032  -26.2994   30.6550 H         1 THR         0.0313
    233 H94        -3.6037  -27.5778   31.8808 H         1 THR         0.0313
    234 H95        -3.8279  -29.3310   30.1761 H         1 THR         0.0301
    235 H96        -3.9768  -28.0978   28.8784 H         1 THR         0.0301
    236 H97        -5.9760  -28.2291   31.1779 H         1 THR         0.0689
    237 H98        -6.1457  -29.2729   29.7259 H         1 THR         0.0689
    238 H99        -6.4843  -27.3117   28.3629 H         1 THR         0.2642
    239 H100       -6.9401  -25.0476   31.7081 H         1 THR         0.2615
    240 H101       -6.2134  -26.6721   31.8333 H         1 THR         0.2615
    241 H102       -7.4196  -25.2305   28.2101 H         1 THR         0.2615
    242 H103       -7.6352  -24.2498   29.6846 H         1 THR         0.2615
    243 H104       -1.3511  -24.9744   29.5281 H         1 THR         0.1883
    244 H105        0.1546  -24.1231   31.9457 H         1 THR         0.0800
    245 H106        1.1939  -22.4327   30.3738 H         1 THR         0.0313
    246 H107        0.3176  -23.2334   29.0256 H         1 THR         0.0313
    247 H108        1.4786  -25.4157   30.0546 H         1 THR         0.0301
    248 H109        2.6524  -24.2015   30.6667 H         1 THR         0.0301
    249 H110        3.4003  -25.0925   28.5236 H         1 THR         0.0689
    250 H111        2.9646  -23.3575   28.3603 H         1 THR         0.0689
    251 H112        0.6418  -24.6500   27.5834 H         1 THR         0.2642
    252 H113        3.6626  -25.4905   24.9545 H         1 THR         0.2615
    253 H114        4.0732  -25.0180   26.6251 H         1 THR         0.2615
    254 H115        0.1385  -25.2377   25.4471 H         1 THR         0.2615
    255 H116        1.4448  -25.6284   24.2965 H         1 THR         0.2615
    256 H117       -0.5142  -22.4563   33.0961 H         1 THR         0.1885
    257 H118       -2.9878  -21.0541   32.4498 H         1 THR         0.0826
    258 H119       -2.4319  -19.7908   34.5899 H         1 THR         0.0551
    259 H120       -0.9493  -20.7970   34.7172 H         1 THR         0.0551
    260 H121       -2.9213  -22.9373   36.6986 H         1 THR         0.1814
    261 H122       -1.6404  -21.7717   36.6734 H         1 THR         0.1814
    262 H123       -3.2196  -18.9270   31.7972 H         1 THR         0.1883
    263 H124       -0.9865  -17.4066   30.8375 H         1 THR         0.0797
    264 H125       -2.5327  -15.4639   30.8775 H         1 THR         0.0277
    265 H126       -3.7200  -16.4284   31.8191 H         1 THR         0.0277
    266 H127       -3.3077  -16.9053   30.1370 H         1 THR         0.0277
    267 H128       -0.1217  -15.4611   31.7677 H         1 THR         0.1875
    268 H129        0.6195  -15.8567   34.5525 H         1 THR         0.0729
    269 H130        2.0195  -13.8380   34.2818 H         1 THR         0.0338
    270 H131        0.5297  -12.5328   32.8647 H         1 THR         0.0267
    271 H132        0.7263  -13.7143   31.5260 H         1 THR         0.0267
    272 H133        2.8973  -16.0074   33.5126 H         1 THR         0.0234
    273 H134        3.5257  -14.6395   32.5325 H         1 THR         0.0234
    274 H135        2.2262  -15.6919   31.8765 H         1 THR         0.0234
    275 H136        2.0804  -11.6985   31.1510 H         1 THR         0.0230
    276 H137        3.1202  -13.1458   31.3758 H         1 THR         0.0230
    277 H138        2.9237  -11.9643   32.7145 H         1 THR         0.0230
@<TRIPOS>BOND
     1    1    2 1  
     2    2    3 1  
     3    2    5 1  
     4    3    4 2  
     5    3    8 am 
     6    5    6 1  
     7    5    7 1  
     8    8    9 1  
     9    9   10 1  
    10    9   12 1  
    11   10   11 2  
    12   10   15 am 
    13   12   13 1  
    14   12   14 1  
    15   15   16 1  
    16   16   17 1  
    17   16   19 1  
    18   17   18 2  
    19   17   27 am 
    20   19   20 1  
    21   20   21 ar 
    22   20   22 ar 
    23   21   23 ar 
    24   22   24 ar 
    25   23   25 ar 
    26   24   25 ar 
    27   25   26 1  
    28   27   28 1  
    29   28   29 1  
    30   28   31 1  
    31   29   30 2  
    32   29   32 am 
    33   32   33 1  
    34   33   34 1  
    35   33   36 1  
    36   34   35 2  
    37   34   40 am 
    38   36   37 1  
    39   37   38 ar 
    40   37   39 ar 
    41   40   41 1  
    42   41   42 1  
    43   41   44 1  
    44   42   43 2  
    45   42   51 am 
    46   44   45 1  
    47   45   46 ar 
    48   45   47 ar 
    49   46   48 ar 
    50   47   49 ar 
    51   48   50 ar 
    52   49   50 ar 
    53   51   52 1  
    54   52   53 1  
    55   52   55 1  
    56   53   54 2  
    57   53   59 am 
    58   55   56 1  
    59   55   57 1  
    60   56   58 1  
    61   59   60 1  
    62   60   61 1  
    63   60   63 1  
    64   61   62 2  
    65   61   64 am 
    66   64   65 1  
    67   65   66 1  
    68   65   68 1  
    69   66   67 2  
    70   66   70 am 
    71   68   69 1  
    72   70   71 1  
    73   71   72 1  
    74   72   73 2  
    75   72   74 am 
    76   74   75 1  
    77   75   76 1  
    78   75   78 1  
    79   76   77 2  
    80   76   85 am 
    81   78   79 1  
    82   79   80 1  
    83   80   81 1  
    84   81   82 ar 
    85   82   83 ar 
    86   82   84 ar 
    87   85   86 1  
    88   86   87 1  
    89   86   89 1  
    90   87   88 2  
    91   87   92 am 
    92   89   90 1  
    93   89   91 1  
    94   92   93 1  
    95   93   94 1  
    96   94   95 2  
    97   94   96 am 
    98   96   97 1  
    99   97   98 1  
   100   97  100 1  
   101   98   99 2  
   102   98  107 am 
   103  100  101 1  
   104  101  102 1  
   105  102  103 1  
   106  103  104 ar 
   107  104  105 ar 
   108  104  106 ar 
   109  107  108 1  
   110  108  109 1  
   111  108  111 1  
   112  109  110 2  
   113  109  118 am 
   114  111  112 1  
   115  112  113 1  
   116  113  114 1  
   117  114  115 ar 
   118  115  116 ar 
   119  115  117 ar 
   120  118  119 1  
   121  119  120 1  
   122  119  122 1  
   123  120  121 2  
   124  120  126 am 
   125  122  123 1  
   126  123  124 2  
   127  123  125 am 
   128  126  127 1  
   129  127  128 1  
   130  127  130 1  
   131  128  129 2  
   132  128  131 am 
   133  131  132 1  
   134  132  133 1  
   135  132  135 1  
   136  133  134 ar 
   137  133  139 ar 
   138  135  136 1  
   139  135  137 1  
   140  136  138 1  
   141    1  140 1  
   142    1  141 1  
   143    1  142 1  
   144    2  143 1  
   145    5  144 1  
   146    6  145 1  
   147    7  146 1  
   148    7  147 1  
   149    7  148 1  
   150    8  149 1  
   151    9  150 1  
   152   12  151 1  
   153   13  152 1  
   154   14  153 1  
   155   14  154 1  
   156   14  155 1  
   157   15  156 1  
   158   16  157 1  
   159   19  158 1  
   160   19  159 1  
   161   21  160 1  
   162   22  161 1  
   163   23  162 1  
   164   24  163 1  
   165   26  164 1  
   166   27  165 1  
   167   28  166 1  
   168   31  167 1  
   169   31  168 1  
   170   31  169 1  
   171   32  170 1  
   172   33  171 1  
   173   36  172 1  
   174   36  173 1  
   175   40  174 1  
   176   41  175 1  
   177   44  176 1  
   178   44  177 1  
   179   46  178 1  
   180   47  179 1  
   181   48  180 1  
   182   49  181 1  
   183   50  182 1  
   184   51  183 1  
   185   52  184 1  
   186   55  185 1  
   187   56  186 1  
   188   56  187 1  
   189   57  188 1  
   190   57  189 1  
   191   57  190 1  
   192   58  191 1  
   193   58  192 1  
   194   58  193 1  
   195   59  194 1  
   196   60  195 1  
   197   63  196 1  
   198   63  197 1  
   199   63  198 1  
   200   64  199 1  
   201   65  200 1  
   202   68  201 1  
   203   68  202 1  
   204   69  203 1  
   205   70  204 1  
   206   71  205 1  
   207   71  206 1  
   208   74  207 1  
   209   75  208 1  
   210   78  209 1  
   211   78  210 1  
   212   79  211 1  
   213   79  212 1  
   214   80  213 1  
   215   80  214 1  
   216   81  215 1  
   217   83  216 1  
   218   83  217 1  
   219   84  218 1  
   220   84  219 1  
   221   85  220 1  
   222   86  221 1  
   223   89  222 1  
   224   90  223 1  
   225   91  224 1  
   226   91  225 1  
   227   91  226 1  
   228   92  227 1  
   229   93  228 1  
   230   93  229 1  
   231   96  230 1  
   232   97  231 1  
   233  100  232 1  
   234  100  233 1  
   235  101  234 1  
   236  101  235 1  
   237  102  236 1  
   238  102  237 1  
   239  103  238 1  
   240  105  239 1  
   241  105  240 1  
   242  106  241 1  
   243  106  242 1  
   244  107  243 1  
   245  108  244 1  
   246  111  245 1  
   247  111  246 1  
   248  112  247 1  
   249  112  248 1  
   250  113  249 1  
   251  113  250 1  
   252  114  251 1  
   253  116  252 1  
   254  116  253 1  
   255  117  254 1  
   256  117  255 1  
   257  118  256 1  
   258  119  257 1  
   259  122  258 1  
   260  122  259 1  
   261  125  260 1  
   262  125  261 1  
   263  126  262 1  
   264  127  263 1  
   265  130  264 1  
   266  130  265 1  
   267  130  266 1  
   268  131  267 1  
   269  132  268 1  
   270  135  269 1  
   271  136  270 1  
   272  136  271 1  
   273  137  272 1  
   274  137  273 1  
   275  137  274 1  
   276  138  275 1  
   277  138  276 1  
   278  138  277 1  
@<TRIPOS>SUBSTRUCTURE
     1 THR         1

