### 
### Created by X-TOOL on Mon Sep 10 21:13:04 2018
### 

@<TRIPOS>MOLECULE
2xng_ligand
   72    76     1     0     0
SMALL
GAST_HUCK


@<TRIPOS>ATOM
      1 CL          5.5990  -28.5660   -9.5890 Cl        1 A0H        -0.1410
      2 C02         4.6630  -29.9160   -9.0910 C.3       1 A0H         0.0286
      3 C03         3.8100  -30.8800   -9.9570 C.3       1 A0H        -0.0374
      4 N04         3.1920  -31.8440   -8.9670 N.4       1 A0H         0.2191
      5 C05         3.6780  -31.4480   -7.5890 C.3       1 A0H        -0.0010
      6 N06         4.5210  -30.3320   -7.7500 N.4       1 A0H         0.4589
      7 C07         5.1880  -29.6640   -6.5820 C.3       1 A0H        -0.0461
      8 C08         4.8910  -30.2000   -5.1690 C.3       1 A0H        -0.0067
      9 C09         5.5280  -29.6770   -3.9250 C.ar      1 A0H        -0.0043
     10 C10         5.2500  -30.3330   -2.7290 C.ar      1 A0H        -0.0524
     11 C11         5.8760  -29.8730   -1.4650 C.ar      1 A0H        -0.0313
     12 C12         5.5430  -30.5560   -0.1730 C.3       1 A0H         0.0583
     13 N13         5.8870  -31.9850    0.0360 N.am      1 A0H        -0.2409
     14 S14         4.5020  -32.8620    0.4230 S.o2      1 A0H         0.0379
     15 O15         4.3540  -33.9820   -0.4990 O.2       1 A0H        -0.1556
     16 C16         4.6220  -33.4450    2.0640 C.3       1 A0H         0.0734
     17 O17         3.3530  -31.9790    0.3460 O.2       1 A0H        -0.1556
     18 C18         6.8110  -28.6900   -1.5070 C.ar      1 A0H        -0.0657
     19 C19         7.1080  -28.0060   -2.7610 C.ar      1 A0H        -0.0750
     20 C20         6.5160  -28.4420   -3.9590 C.ar      1 A0H        -0.0620
     21 N21         4.0560  -31.3820   -5.0400 N.4       1 A0H         0.2602
     22 C22         3.4310  -32.0070   -6.2160 C.3       1 A0H         0.0802
     23 N23         2.5640  -33.1110   -5.9180 N.pl3     1 A0H        -0.2946
     24 C24         1.8710  -33.8610   -4.8920 C.2       1 A0H         0.0072
     25 C25         2.1460  -33.4420   -3.5280 C.2       1 A0H        -0.0884
     26 C26         1.5100  -34.1210   -2.4210 C.3       1 A0H        -0.0496
     27 C27         0.5220  -35.2990   -2.7240 C.3       1 A0H        -0.0651
     28 N28        -0.1320  -35.9880   -1.5990 N.4       1 A0H         0.4140
     29 C29         0.0290  -35.5150   -0.1990 C.3       1 A0H        -0.0851
     30 C30         0.0420  -36.6980    0.7660 C.3       1 A0H         0.0295
     31 O31         0.0460  -37.9930    0.1070 O.3       1 A0H        -0.3837
     32 C32        -1.0430  -38.1920   -0.8280 C.3       1 A0H         0.0295
     33 C33        -1.0600  -37.1350   -1.9230 C.3       1 A0H        -0.0851
     34 C34         0.2230  -35.7360   -4.1630 C.2       1 A0H        -0.0970
     35 C35         0.8250  -35.1020   -5.2120 C.2       1 A0H        -0.0624
     36 H           5.2490  -29.1934   -9.6589 H         1 A0H         0.0273
     37 H           4.4132  -31.3962  -10.7038 H         1 A0H         0.0807
     38 H           3.0525  -30.3469  -10.5315 H         1 A0H         0.0807
     39 H           3.4662  -32.8027   -9.1817 H         1 A0H         0.1998
     40 H           2.1739  -31.8017   -9.0136 H         1 A0H         0.1998
     41 H           3.1280  -32.2199   -7.0507 H         1 A0H         0.0668
     42 H           4.8145  -28.6400   -6.5851 H         1 A0H         0.0099
     43 H           6.2559  -29.8238   -6.7312 H         1 A0H         0.0099
     44 H           4.4942  -29.1857   -5.2129 H         1 A0H         0.0995
     45 H           4.5714  -31.1859   -2.7212 H         1 A0H         0.0496
     46 H           4.4540  -30.5337   -0.1311 H         1 A0H         0.0637
     47 H           6.1372  -30.0258    0.5712 H         1 A0H         0.0637
     48 H           6.8248  -32.3782   -0.0432 H         1 A0H         0.1695
     49 H           3.7191  -34.0003    2.3179 H         1 A0H         0.0482
     50 H           5.4895  -34.0989    2.1534 H         1 A0H         0.0482
     51 H           4.7321  -32.5985    2.7418 H         1 A0H         0.0482
     52 H           7.2730  -28.3399   -0.5839 H         1 A0H         0.0500
     53 H           7.7899  -27.1557   -2.7689 H         1 A0H         0.0582
     54 H           6.7348  -27.9357   -4.8992 H         1 A0H         0.0501
     55 H           3.2642  -31.0633   -4.4815 H         1 A0H         0.2055
     56 H           4.6950  -32.0971   -4.6925 H         1 A0H         0.2055
     57 H           3.5966  -32.3109   -7.2496 H         1 A0H         0.1158
     58 H           2.3413  -33.5571   -6.8078 H         1 A0H         0.1746
     59 H           2.8317  -32.6159   -3.3393 H         1 A0H         0.0274
     60 H           0.9002  -33.3591   -1.9354 H         1 A0H         0.0364
     61 H           2.3276  -34.5753   -1.8614 H         1 A0H         0.0364
     62 H           0.9758  -35.2362   -3.7131 H         1 A0H         0.0256
     63 H          -0.8063  -34.8615    0.0526 H         1 A0H         0.0043
     64 H           0.9731  -34.9770   -0.1130 H         1 A0H         0.0043
     65 H          -0.8681  -36.6402    1.3631 H         1 A0H         0.0539
     66 H           0.9583  -36.6290    1.3522 H         1 A0H         0.0539
     67 H          -1.9806  -38.1243   -0.2763 H         1 A0H         0.0539
     68 H          -0.9123  -39.1664   -1.2988 H         1 A0H         0.0539
     69 H          -0.7278  -37.5959   -2.8532 H         1 A0H         0.0043
     70 H          -2.0740  -36.7448   -2.0107 H         1 A0H         0.0043
     71 H          -0.4719  -36.5549   -4.3491 H         1 A0H         0.0629
     72 H           0.6207  -35.4071   -6.2383 H         1 A0H         0.0420
@<TRIPOS>BOND
     1    1    2 1  
     2    2    3 1  
     3    2    6 1  
     4    3    4 1  
     5    4    5 1  
     6    5    6 1  
     7    5   22 1  
     8    6    7 1  
     9    7    8 1  
    10    8    9 1  
    11    8   21 1  
    12    9   10 ar 
    13    9   20 ar 
    14   10   11 ar 
    15   11   12 1  
    16   11   18 ar 
    17   12   13 1  
    18   13   14 am 
    19   14   15 2  
    20   14   16 1  
    21   14   17 2  
    22   18   19 ar 
    23   19   20 ar 
    24   21   22 1  
    25   22   23 1  
    26   23   24 1  
    27   24   25 2  
    28   24   35 1  
    29   25   26 1  
    30   26   27 1  
    31   27   28 1  
    32   27   34 1  
    33   28   29 1  
    34   28   33 1  
    35   29   30 1  
    36   30   31 1  
    37   31   32 1  
    38   32   33 1  
    39   34   35 2  
    40    2   36 1  
    41    3   37 1  
    42    3   38 1  
    43    4   39 1  
    44    4   40 1  
    45    5   41 1  
    46    7   42 1  
    47    7   43 1  
    48    8   44 1  
    49   10   45 1  
    50   12   46 1  
    51   12   47 1  
    52   13   48 1  
    53   16   49 1  
    54   16   50 1  
    55   16   51 1  
    56   18   52 1  
    57   19   53 1  
    58   20   54 1  
    59   21   55 1  
    60   21   56 1  
    61   22   57 1  
    62   23   58 1  
    63   25   59 1  
    64   26   60 1  
    65   26   61 1  
    66   27   62 1  
    67   29   63 1  
    68   29   64 1  
    69   30   65 1  
    70   30   66 1  
    71   32   67 1  
    72   32   68 1  
    73   33   69 1  
    74   33   70 1  
    75   34   71 1  
    76   35   72 1  
@<TRIPOS>SUBSTRUCTURE
     1 A0H         1

