2xng_ligand
  -I-interpret- 

 74 78  0  0  0  0  0  0  0  0999 V2000
    5.5990  -28.5660   -9.5890 Cl  0  0  0  0  0
    4.6630  -29.9160   -9.0910 C   0  0  0  0  0
    3.8100  -30.8800   -9.9570 C   0  0  0  0  0
    3.1920  -31.8440   -8.9670 N   0  3  0  0  0
    3.6780  -31.4480   -7.5890 C   0  0  0  0  0
    4.5210  -30.3320   -7.7500 N   0  3  0  0  0
    5.1880  -29.6640   -6.5820 C   0  0  0  0  0
    4.8910  -30.2000   -5.1690 C   0  0  0  0  0
    5.5280  -29.6770   -3.9250 C   0  0  0  0  0
    5.2500  -30.3330   -2.7290 C   0  0  0  0  0
    5.8760  -29.8730   -1.4650 C   0  0  0  0  0
    5.5430  -30.5560   -0.1730 C   0  0  0  0  0
    5.8870  -31.9850    0.0360 N   0  0  0  0  0
    4.5020  -32.8620    0.4230 S   0  0  0  0  0
    4.3540  -33.9820   -0.4990 O   0  0  0  0  0
    4.6220  -33.4450    2.0640 C   0  0  0  0  0
    3.3530  -31.9790    0.3460 O   0  0  0  0  0
    6.8110  -28.6900   -1.5070 C   0  0  0  0  0
    7.1080  -28.0060   -2.7610 C   0  0  0  0  0
    6.5160  -28.4420   -3.9590 C   0  0  0  0  0
    4.0560  -31.3820   -5.0400 N   0  3  0  0  0
    3.4310  -32.0070   -6.2160 C   0  0  0  0  0
    2.5640  -33.1110   -5.9180 N   0  0  0  0  0
    1.8710  -33.8610   -4.8920 C   0  0  0  0  0
    2.1460  -33.4420   -3.5280 C   0  0  0  0  0
    1.5100  -34.1210   -2.4210 C   0  0  0  0  0
    0.5220  -35.2990   -2.7240 C   0  0  0  0  0
   -0.1320  -35.9880   -1.5990 N   0  3  0  0  0
    0.0290  -35.5150   -0.1990 C   0  0  0  0  0
    0.0420  -36.6980    0.7660 C   0  0  0  0  0
    0.0460  -37.9930    0.1070 O   0  0  0  0  0
   -1.0430  -38.1920   -0.8280 C   0  0  0  0  0
   -1.0600  -37.1350   -1.9230 C   0  0  0  0  0
    0.2230  -35.7360   -4.1630 C   0  0  0  0  0
    0.8250  -35.1020   -5.2120 C   0  0  0  0  0
    5.2490  -29.1934   -9.6589 H   0  0  0  0  0
    4.4132  -31.3962  -10.7038 H   0  0  0  0  0
    3.0525  -30.3469  -10.5315 H   0  0  0  0  0
    3.4662  -32.8027   -9.1817 H   0  0  0  0  0
    2.1739  -31.8017   -9.0136 H   0  0  0  0  0
    3.1280  -32.2199   -7.0507 H   0  0  0  0  0
    5.0980  -29.7647   -7.1290 H   0  0  0  0  0
    4.8145  -28.6400   -6.5851 H   0  0  0  0  0
    6.2559  -29.8238   -6.7312 H   0  0  0  0  0
    4.4942  -29.1857   -5.2129 H   0  0  0  0  0
    4.5714  -31.1859   -2.7212 H   0  0  0  0  0
    4.4540  -30.5337   -0.1311 H   0  0  0  0  0
    6.1372  -30.0258    0.5712 H   0  0  0  0  0
    6.8248  -32.3782   -0.0432 H   0  0  0  0  0
    3.7191  -34.0003    2.3179 H   0  0  0  0  0
    5.4895  -34.0989    2.1534 H   0  0  0  0  0
    4.7321  -32.5985    2.7418 H   0  0  0  0  0
    7.2730  -28.3399   -0.5839 H   0  0  0  0  0
    7.7899  -27.1557   -2.7689 H   0  0  0  0  0
    6.7348  -27.9357   -4.8992 H   0  0  0  0  0
    3.2642  -31.0633   -4.4815 H   0  0  0  0  0
    4.6950  -32.0971   -4.6925 H   0  0  0  0  0
    3.5966  -32.3109   -7.2496 H   0  0  0  0  0
    2.3413  -33.5571   -6.8078 H   0  0  0  0  0
    2.8317  -32.6159   -3.3393 H   0  0  0  0  0
    0.9002  -33.3591   -1.9354 H   0  0  0  0  0
    2.3276  -34.5753   -1.8614 H   0  0  0  0  0
    0.9758  -35.2362   -3.7131 H   0  0  0  0  0
    0.6900  -36.3441   -1.1112 H   0  0  0  0  0
   -0.8063  -34.8615    0.0526 H   0  0  0  0  0
    0.9731  -34.9770   -0.1130 H   0  0  0  0  0
   -0.8681  -36.6402    1.3631 H   0  0  0  0  0
    0.9583  -36.6290    1.3522 H   0  0  0  0  0
   -1.9806  -38.1243   -0.2763 H   0  0  0  0  0
   -0.9123  -39.1664   -1.2988 H   0  0  0  0  0
   -0.7278  -37.5959   -2.8532 H   0  0  0  0  0
   -2.0740  -36.7448   -2.0107 H   0  0  0  0  0
   -0.4719  -36.5549   -4.3491 H   0  0  0  0  0
    0.6207  -35.4071   -6.2383 H   0  0  0  0  0
  1  2  1  0  0  0
  2  3  1  0  0  0
  2  6  1  0  0  0
  3  4  1  0  0  0
  4  5  1  0  0  0
  5  6  1  0  0  0
  5 22  1  0  0  0
  6  7  1  0  0  0
  7  8  1  0  0  0
  8  9  1  0  0  0
  8 21  1  0  0  0
  9 10  4  0  0  0
  9 20  4  0  0  0
 10 11  4  0  0  0
 11 12  1  0  0  0
 11 18  4  0  0  0
 12 13  1  0  0  0
 13 14  1  0  0  0
 14 15  2  0  0  0
 14 16  1  0  0  0
 14 17  2  0  0  0
 18 19  4  0  0  0
 19 20  4  0  0  0
 21 22  1  0  0  0
 22 23  1  0  0  0
 23 24  1  0  0  0
 24 25  2  0  0  0
 24 35  1  0  0  0
 25 26  1  0  0  0
 26 27  1  0  0  0
 27 28  1  0  0  0
 27 34  1  0  0  0
 28 29  1  0  0  0
 28 33  1  0  0  0
 29 30  1  0  0  0
 30 31  1  0  0  0
 31 32  1  0  0  0
 32 33  1  0  0  0
 34 35  2  0  0  0
  2 36  1  0  0  0
  3 37  1  0  0  0
  3 38  1  0  0  0
  4 39  1  0  0  0
  4 40  1  0  0  0
  5 41  1  0  0  0
  6 42  1  0  0  0
  7 43  1  0  0  0
  7 44  1  0  0  0
  8 45  1  0  0  0
 10 46  1  0  0  0
 12 47  1  0  0  0
 12 48  1  0  0  0
 13 49  1  0  0  0
 16 50  1  0  0  0
 16 51  1  0  0  0
 16 52  1  0  0  0
 18 53  1  0  0  0
 19 54  1  0  0  0
 20 55  1  0  0  0
 21 56  1  0  0  0
 21 57  1  0  0  0
 22 58  1  0  0  0
 23 59  1  0  0  0
 25 60  1  0  0  0
 26 61  1  0  0  0
 26 62  1  0  0  0
 27 63  1  0  0  0
 28 64  1  0  0  0
 29 65  1  0  0  0
 29 66  1  0  0  0
 30 67  1  0  0  0
 30 68  1  0  0  0
 32 69  1  0  0  0
 32 70  1  0  0  0
 33 71  1  0  0  0
 33 72  1  0  0  0
 34 73  1  0  0  0
 35 74  1  0  0  0
M  END
$$$$
