6edr_ligand
  -I-interpret- 

 73 77  0  0  0  0  0  0  0  0999 V2000
  -17.6340   -0.7870   -1.6460 N   0  0  0  0  0
  -16.5490   -0.0120   -1.8220 C   0  0  0  0  0
  -16.4620    1.0830   -1.2600 O   0  0  0  0  0
  -15.4930   -0.4770   -2.6440 C   0  0  0  0  0
  -15.3310   -1.8270   -3.0040 C   0  0  0  0  0
  -14.5330    0.4310   -3.1300 C   0  0  0  0  0
  -13.4660    0.0080   -3.9310 C   0  0  0  0  0
  -13.3230   -1.3320   -4.2840 C   0  0  0  0  0
  -14.2680   -2.2560   -3.8320 N   0  0  0  0  0
  -14.2040   -3.7160   -4.1270 C   0  0  0  0  0
  -13.4170   -4.3990   -2.6430 S   0  0  0  0  0
  -13.2890   -4.2680   -5.2740 C   0  0  0  0  0
  -13.9080   -5.4530   -5.7930 O   0  0  0  0  0
  -11.9030   -4.6760   -4.7050 C   0  0  0  0  0
  -11.1940   -5.4990   -5.6580 O   0  0  0  0  0
  -12.2080   -5.4960   -3.4490 C   0  0  0  0  0
  -10.9820   -5.7040   -2.5550 C   0  0  0  0  0
  -11.0490   -4.9440   -1.3330 O   0  0  0  0  0
  -11.4470   -5.5860    0.1080 P   0  0  0  0  0
  -10.4200   -5.1510    1.0750 O   0  0  0  0  0
  -11.7640   -7.0320   -0.0140 O   0  0  0  0  0
  -12.8520   -4.8310    0.4150 O   0  0  0  0  0
  -13.0440   -3.5020    1.3080 P   0  0  0  0  0
  -12.3610   -3.6880    2.6040 O   0  0  0  0  0
  -14.4890   -3.1940    1.2990 O   0  0  0  0  0
  -12.2240   -2.3260    0.4980 O   0  0  0  0  0
  -12.7950   -1.5290   -0.5610 C   0  0  0  0  0
  -12.4350   -0.0290   -0.4350 C   0  0  0  0  0
  -12.5440    0.5270    0.8940 O   0  0  0  0  0
  -10.9750    0.2280   -0.7760 C   0  0  0  0  0
  -10.7100    0.0460   -2.1880 O   0  0  0  0  0
  -10.8690    1.6880   -0.3700 C   0  0  0  0  0
  -11.3150    2.5440   -1.4420 O   0  0  0  0  0
  -11.8290    1.8000    0.8360 C   0  0  0  0  0
  -11.0850    2.0460    2.1180 N   0  0  0  0  0
  -10.3910    1.1070    2.7570 C   0  0  0  0  0
   -9.8580    1.6490    3.8480 N   0  0  0  0  0
  -10.2150    2.9310    3.9000 C   0  0  0  0  0
  -10.9820    3.1800    2.8210 C   0  0  0  0  0
  -11.4900    4.4150    2.6140 N   0  0  0  0  0
  -11.2170    5.4480    3.5330 C   0  0  0  0  0
  -10.4120    5.1540    4.6490 N   0  0  0  0  0
   -9.9390    3.9000    4.7930 C   0  0  0  0  0
   -9.1710    3.5640    5.8310 N   0  0  0  0  0
  -18.3941   -0.4711   -1.0436 H   0  0  0  0  0
  -17.6968   -1.6907   -2.1149 H   0  0  0  0  0
  -16.0449   -2.5631   -2.6344 H   0  0  0  0  0
  -14.6228    1.4874   -2.8767 H   0  0  0  0  0
  -12.7367    0.7373   -4.2836 H   0  0  0  0  0
  -12.3841   -1.6441   -3.8267 H   0  0  0  0  0
  -13.4126   -1.3473   -5.3702 H   0  0  0  0  0
  -15.2199   -3.9771   -4.4236 H   0  0  0  0  0
  -13.1615   -3.5022   -6.0391 H   0  0  0  0  0
  -13.3663   -5.8126   -6.4993 H   0  0  0  0  0
  -11.2820   -3.8057   -4.4929 H   0  0  0  0  0
  -10.3399   -5.7441   -5.2945 H   0  0  0  0  0
  -12.5478   -6.5105   -3.6574 H   0  0  0  0  0
  -10.1041   -5.3708   -3.1084 H   0  0  0  0  0
  -10.9367   -6.7603   -2.2899 H   0  0  0  0  0
  -12.4460   -7.1540   -0.6786 H   0  0  0  0  0
  -14.7897   -3.1016    0.3920 H   0  0  0  0  0
  -13.8796   -1.6203   -0.5028 H   0  0  0  0  0
  -12.3952   -1.8921   -1.5078 H   0  0  0  0  0
  -13.1546    0.4296   -1.1132 H   0  0  0  0  0
  -10.2649   -0.4413   -0.2903 H   0  0  0  0  0
   -9.7816    0.2166   -2.3628 H   0  0  0  0  0
   -9.8481    1.9893   -0.1351 H   0  0  0  0  0
  -11.2415    3.4614   -1.1691 H   0  0  0  0  0
  -12.5077    2.6442    0.7141 H   0  0  0  0  0
  -10.2787    0.0702    2.4399 H   0  0  0  0  0
  -11.6195    6.4498    3.3830 H   0  0  0  0  0
   -8.8223    2.6095    5.9196 H   0  0  0  0  0
   -8.9325    4.2616    6.5359 H   0  0  0  0  0
  1  2  1  0  0  0
  2  3  2  0  0  0
  2  4  1  0  0  0
  4  5  2  0  0  0
  4  6  1  0  0  0
  5  9  1  0  0  0
  6  7  2  0  0  0
  7  8  1  0  0  0
  8  9  1  0  0  0
  9 10  1  0  0  0
 10 11  1  0  0  0
 10 12  1  0  0  0
 11 16  1  0  0  0
 12 13  1  0  0  0
 12 14  1  0  0  0
 14 15  1  0  0  0
 14 16  1  0  0  0
 16 17  1  0  0  0
 17 18  1  0  0  0
 18 19  1  0  0  0
 19 20  2  0  0  0
 19 21  1  0  0  0
 19 22  1  0  0  0
 22 23  1  0  0  0
 23 24  2  0  0  0
 23 25  1  0  0  0
 23 26  1  0  0  0
 26 27  1  0  0  0
 27 28  1  0  0  0
 28 29  1  0  0  0
 28 30  1  0  0  0
 29 34  1  0  0  0
 30 31  1  0  0  0
 30 32  1  0  0  0
 32 33  1  0  0  0
 32 34  1  0  0  0
 34 35  1  0  0  0
 35 36  4  0  0  0
 35 39  4  0  0  0
 36 37  4  0  0  0
 37 38  4  0  0  0
 38 39  4  0  0  0
 38 43  4  0  0  0
 39 40  4  0  0  0
 40 41  4  0  0  0
 41 42  4  0  0  0
 42 43  4  0  0  0
 43 44  1  0  0  0
  1 45  1  0  0  0
  1 46  1  0  0  0
  5 47  1  0  0  0
  6 48  1  0  0  0
  7 49  1  0  0  0
  8 50  1  0  0  0
  8 51  1  0  0  0
 10 52  1  0  0  0
 12 53  1  0  0  0
 13 54  1  0  0  0
 14 55  1  0  0  0
 15 56  1  0  0  0
 16 57  1  0  0  0
 17 58  1  0  0  0
 17 59  1  0  0  0
 21 60  1  0  0  0
 25 61  1  0  0  0
 27 62  1  0  0  0
 27 63  1  0  0  0
 28 64  1  0  0  0
 30 65  1  0  0  0
 31 66  1  0  0  0
 32 67  1  0  0  0
 33 68  1  0  0  0
 34 69  1  0  0  0
 36 70  1  0  0  0
 41 71  1  0  0  0
 44 72  1  0  0  0
 44 73  1  0  0  0
M  END
$$$$
