### 
### Created by X-TOOL on Wed Jan  1 15:39:38 2020
### 

@<TRIPOS>MOLECULE
6edr_ligand
   71    75     1     0     0
SMALL
GAST_HUCK


@<TRIPOS>ATOM
      1 N01       -17.6340   -0.7870   -1.6460 N.am      1 ZNA        -0.3066
      2 C02       -16.5490   -0.0120   -1.8220 C.2       1 ZNA         0.1728
      3 O03       -16.4620    1.0830   -1.2600 O.2       1 ZNA        -0.4055
      4 C04       -15.4930   -0.4770   -2.6440 C.2       1 ZNA         0.0352
      5 C44       -15.3310   -1.8270   -3.0040 C.2       1 ZNA         0.0366
      6 C05       -14.5330    0.4310   -3.1300 C.2       1 ZNA        -0.0855
      7 C06       -13.4660    0.0080   -3.9310 C.2       1 ZNA        -0.0766
      8 C07       -13.3230   -1.3320   -4.2840 C.3       1 ZNA         0.0541
      9 N08       -14.2680   -2.2560   -3.8320 N.pl3     1 ZNA        -0.2744
     10 C09       -14.2040   -3.7160   -4.1270 C.3       1 ZNA         0.1223
     11 S10       -13.4170   -4.3990   -2.6430 S.3       1 ZNA        -0.1201
     12 C42       -13.2890   -4.2680   -5.2740 C.3       1 ZNA         0.1159
     13 O43       -13.9080   -5.4530   -5.7930 O.3       1 ZNA        -0.3859
     14 C40       -11.9030   -4.6760   -4.7050 C.3       1 ZNA         0.0985
     15 O41       -11.1940   -5.4990   -5.6580 O.3       1 ZNA        -0.3879
     16 C11       -12.2080   -5.4960   -3.4490 C.3       1 ZNA         0.0645
     17 C12       -10.9820   -5.7040   -2.5550 C.3       1 ZNA         0.0984
     18 O13       -11.0490   -4.9440   -1.3330 O.3       1 ZNA        -0.2491
     19 P14       -11.4470   -5.5860    0.1080 P.3       1 ZNA         0.2971
     20 O15       -10.4200   -5.1510    1.0750 O.co2     1 ZNA        -0.6127
     21 O16       -11.7640   -7.0320   -0.0140 O.co2     1 ZNA        -0.6127
     22 O17       -12.8520   -4.8310    0.4150 O.3       1 ZNA        -0.1319
     23 P18       -13.0440   -3.5020    1.3080 P.3       1 ZNA         0.2972
     24 O19       -12.3610   -3.6880    2.6040 O.co2     1 ZNA        -0.6127
     25 O20       -14.4890   -3.1940    1.2990 O.co2     1 ZNA        -0.6127
     26 O21       -12.2240   -2.3260    0.4980 O.3       1 ZNA        -0.2476
     27 C22       -12.7950   -1.5290   -0.5610 C.3       1 ZNA         0.1128
     28 C23       -12.4350   -0.0290   -0.4350 C.3       1 ZNA         0.1189
     29 O24       -12.5440    0.5270    0.8940 O.3       1 ZNA        -0.3364
     30 C38       -10.9750    0.2280   -0.7760 C.3       1 ZNA         0.1149
     31 O39       -10.7100    0.0460   -2.1880 O.3       1 ZNA        -0.3864
     32 C36       -10.8690    1.6880   -0.3700 C.3       1 ZNA         0.1385
     33 O37       -11.3150    2.5440   -1.4420 O.3       1 ZNA        -0.3836
     34 C25       -11.8290    1.8000    0.8360 C.3       1 ZNA         0.2010
     35 N26       -11.0850    2.0460    2.1180 N.pl3     1 ZNA        -0.1919
     36 C27       -10.3910    1.1070    2.7570 C.2       1 ZNA         0.1123
     37 N28        -9.8580    1.6490    3.8480 N.2       1 ZNA        -0.2958
     38 C29       -10.2150    2.9310    3.9000 C.ar      1 ZNA         0.1045
     39 C35       -10.9820    3.1800    2.8210 C.ar      1 ZNA         0.1613
     40 N34       -11.4900    4.4150    2.6140 N.ar      1 ZNA        -0.2714
     41 C33       -11.2170    5.4480    3.5330 C.ar      1 ZNA         0.0533
     42 N32       -10.4120    5.1540    4.6490 N.ar      1 ZNA        -0.2698
     43 C30        -9.9390    3.9000    4.7930 C.ar      1 ZNA         0.1298
     44 N31        -9.1710    3.5640    5.8310 N.pl3     1 ZNA        -0.3152
     45 H1        -17.6955   -1.6730   -2.1057 H         1 ZNA         0.1794
     46 H2        -18.3792   -0.4773   -1.0555 H         1 ZNA         0.1794
     47 H3        -16.0442   -2.5625   -2.6347 H         1 ZNA         0.1118
     48 H4        -14.6227    1.4864   -2.8769 H         1 ZNA         0.0384
     49 H5        -12.7373    0.7367   -4.2832 H         1 ZNA         0.0492
     50 H6        -12.3437   -1.6619   -3.9070 H         1 ZNA         0.0679
     51 H7        -13.3273   -1.3781   -5.3830 H         1 ZNA         0.0679
     52 H8        -15.2270   -4.0919   -4.2756 H         1 ZNA         0.0721
     53 H9        -13.1697   -3.5115   -6.0636 H         1 ZNA         0.0653
     54 H10       -13.3719   -5.8088   -6.4919 H         1 ZNA         0.2100
     55 H11       -11.3047   -3.7865   -4.4584 H         1 ZNA         0.0632
     56 H12       -11.0684   -5.0118   -6.4638 H         1 ZNA         0.2099
     57 H13       -12.6444   -6.4734   -3.7025 H         1 ZNA         0.0466
     58 H14       -10.0844   -5.3966   -3.1116 H         1 ZNA         0.0632
     59 H15       -10.9085   -6.7719   -2.3015 H         1 ZNA         0.0632
     60 H16       -13.8896   -1.6327   -0.5294 H         1 ZNA         0.0648
     61 H17       -12.4190   -1.9020   -1.5251 H         1 ZNA         0.0648
     62 H18       -13.0896    0.5297   -1.1201 H         1 ZNA         0.0651
     63 H19       -10.2988   -0.4113   -0.1895 H         1 ZNA         0.0648
     64 H20       -11.2441    0.6505   -2.6898 H         1 ZNA         0.2100
     65 H21        -9.8388    1.9487   -0.0860 H         1 ZNA         0.0676
     66 H22       -10.7746    2.3964   -2.2093 H         1 ZNA         0.2101
     67 H23       -12.5387    2.6244    0.6725 H         1 ZNA         0.0996
     68 H24       -10.2788    0.0711    2.4402 H         1 ZNA         0.1349
     69 H25       -11.6172    6.4443    3.3838 H         1 ZNA         0.0996
     70 H26        -8.9302    4.2684    6.5428 H         1 ZNA         0.1820
     71 H27        -8.8189    2.6002    5.9205 H         1 ZNA         0.1820
@<TRIPOS>BOND
     1    1    2 am 
     2    2    3 2  
     3    2    4 1  
     4    4    5 2  
     5    4    6 1  
     6    5    9 1  
     7    6    7 2  
     8    7    8 1  
     9    8    9 1  
    10    9   10 1  
    11   10   11 1  
    12   10   12 1  
    13   11   16 1  
    14   12   13 1  
    15   12   14 1  
    16   14   15 1  
    17   14   16 1  
    18   16   17 1  
    19   17   18 1  
    20   18   19 1  
    21   19   20 ar 
    22   19   21 ar 
    23   19   22 1  
    24   22   23 1  
    25   23   24 ar 
    26   23   25 ar 
    27   23   26 1  
    28   26   27 1  
    29   27   28 1  
    30   28   29 1  
    31   28   30 1  
    32   29   34 1  
    33   30   31 1  
    34   30   32 1  
    35   32   33 1  
    36   32   34 1  
    37   34   35 1  
    38   35   36 1  
    39   35   39 1  
    40   36   37 2  
    41   37   38 1  
    42   38   39 ar 
    43   38   43 ar 
    44   39   40 ar 
    45   40   41 ar 
    46   41   42 ar 
    47   42   43 ar 
    48   43   44 1  
    49    1   45 1  
    50    1   46 1  
    51    5   47 1  
    52    6   48 1  
    53    7   49 1  
    54    8   50 1  
    55    8   51 1  
    56   10   52 1  
    57   12   53 1  
    58   13   54 1  
    59   14   55 1  
    60   15   56 1  
    61   16   57 1  
    62   17   58 1  
    63   17   59 1  
    64   27   60 1  
    65   27   61 1  
    66   28   62 1  
    67   30   63 1  
    68   31   64 1  
    69   32   65 1  
    70   33   66 1  
    71   34   67 1  
    72   36   68 1  
    73   41   69 1  
    74   44   70 1  
    75   44   71 1  
@<TRIPOS>SUBSTRUCTURE
     1 ZNA         1

