4joo_ligand
  -I-interpret- 

 36 38  0  0  0  0  0  0  0  0999 V2000
   25.0700   14.0570    8.7330 C   0  0  0  0  0
   25.7590   12.8500    8.4570 C   0  0  0  0  0
   27.1330   12.7480    8.7560 C   0  0  0  0  0
   27.8280   13.8320    9.3390 C   0  0  0  0  0
   27.1410   15.0340    9.6220 C   0  0  0  0  0
   25.7620   15.1400    9.3190 C   0  0  0  0  0
   23.5820   14.1840    8.3890 C   0  0  0  0  0
   22.9810   12.9320    7.7120 C   0  0  0  0  0
   23.6850   11.6130    8.1110 C   0  0  0  0  0
   25.0890   11.7810    7.8950 O   0  0  0  0  0
   23.4210   15.4070    7.4710 C   0  0  0  0  0
   22.6260   16.3370    8.1220 N   0  0  0  0  0
   22.2650   15.8240    9.3570 C   0  0  0  0  0
   22.7700   14.5970    9.5480 N   0  0  0  0  0
   23.9210   15.5760    6.3590 O   0  0  0  0  0
   21.4910   16.4480   10.2550 N   0  0  0  0  0
   22.2500   17.6520    7.5800 C   0  0  0  0  0
   28.0570   16.4980   10.4030 Br  0  0  0  0  0
   23.3730   11.2440    9.5880 C   0  0  0  0  0
   23.2330   10.4600    7.1940 C   0  0  0  0  0
   27.6653   11.8228    8.5351 H   0  0  0  0  0
   28.8895   13.7411    9.5693 H   0  0  0  0  0
   25.2298   16.0653    9.5398 H   0  0  0  0  0
   23.1010   13.0535    6.6355 H   0  0  0  0  0
   21.9411   12.8563    8.0299 H   0  0  0  0  0
   22.6140   14.0280   10.3800 H   0  0  0  0  0
   21.1186   17.3753   10.0505 H   0  0  0  0  0
   21.1641   17.7194    7.5141 H   0  0  0  0  0
   22.6247   18.4356    8.2385 H   0  0  0  0  0
   22.6837   17.7718    6.5872 H   0  0  0  0  0
   23.8747   10.3102    9.8416 H   0  0  0  0  0
   23.7296   12.0390   10.2429 H   0  0  0  0  0
   22.2966   11.1249    9.7118 H   0  0  0  0  0
   23.4384   10.7212    6.1559 H   0  0  0  0  0
   23.7783    9.5535    7.4566 H   0  0  0  0  0
   22.1637   10.2926    7.3231 H   0  0  0  0  0
  1  2  4  0  0  0
  1  6  4  0  0  0
  1  7  1  0  0  0
  2  3  4  0  0  0
  2 10  1  0  0  0
  3  4  4  0  0  0
  4  5  4  0  0  0
  5  6  4  0  0  0
  5 18  1  0  0  0
  7  8  1  0  0  0
  7 11  1  0  0  0
  7 14  1  0  0  0
  8  9  1  0  0  0
  9 10  1  0  0  0
  9 19  1  0  0  0
  9 20  1  0  0  0
 11 12  1  0  0  0
 11 15  2  0  0  0
 12 13  4  0  0  0
 12 17  1  0  0  0
 13 14  1  0  0  0
 13 16  2  0  0  0
  3 21  1  0  0  0
  4 22  1  0  0  0
  6 23  1  0  0  0
  8 24  1  0  0  0
  8 25  1  0  0  0
 14 26  1  0  0  0
 16 27  1  0  0  0
 17 28  1  0  0  0
 17 29  1  0  0  0
 17 30  1  0  0  0
 19 31  1  0  0  0
 19 32  1  0  0  0
 19 33  1  0  0  0
 20 34  1  0  0  0
 20 35  1  0  0  0
 20 36  1  0  0  0
M  END
$$$$
