1nym_ligand
  -I-interpret- 

 28 28  0  0  0  0  0  0  0  0999 V2000
   11.2940   13.0400   37.6420 C   0  0  0  0  0
   12.4410   12.2120   37.6320 O   0  0  0  0  0
   13.6050   11.9970   36.9950 N   0  0  0  0  0
   13.9000   10.7740   37.1970 C   0  0  0  0  0
   13.0300    9.7150   37.8180 C   0  0  0  0  0
   13.3210    9.3380   38.9290 O   0  0  0  0  0
   12.0730    9.2510   37.1080 N   0  0  0  0  0
   11.1490    8.2170   37.5760 C   0  0  0  0  0
   10.3560    7.6360   36.3000 B   0  0  0  0  0
   11.2450    7.1170   35.2320 O   0  0  0  0  0
    9.3900    8.5970   35.7140 O   0  0  0  0  0
   15.3080   10.3820   36.9080 C   0  0  0  0  0
   15.9100    9.2540   37.3880 C   0  0  0  0  0
   17.5650    9.1870   36.9100 S   0  0  0  0  0
   17.3300   10.6540   36.0700 C   0  0  0  0  0
   18.3910   11.2020   35.3630 N   0  0  0  0  0
   16.1150   11.1890   36.1320 N   0  0  0  0  0
   11.5960   14.0749   37.8027 H   0  0  0  0  0
   10.7778   12.9551   36.6857 H   0  0  0  0  0
   10.6276   12.7257   38.4452 H   0  0  0  0  0
   11.9470    9.6210   36.1659 H   0  0  0  0  0
   10.4458    8.6397   38.2936 H   0  0  0  0  0
   11.7006    7.4174   38.0704 H   0  0  0  0  0
   11.8701    6.4951   35.6116 H   0  0  0  0  0
    8.8148    8.9327   36.4055 H   0  0  0  0  0
   15.4106    8.4970   37.9927 H   0  0  0  0  0
   19.2944   10.7286   35.3508 H   0  0  0  0  0
   18.2674   12.0782   34.8556 H   0  0  0  0  0
  1  2  1  0  0  0
  2  3  1  0  0  0
  3  4  2  0  0  0
  4  5  1  0  0  0
  4 12  1  0  0  0
  5  6  2  0  0  0
  5  7  1  0  0  0
  7  8  1  0  0  0
  8  9  1  0  0  0
  9 10  1  0  0  0
  9 11  1  0  0  0
 12 13  4  0  0  0
 12 17  4  0  0  0
 13 14  4  0  0  0
 14 15  4  0  0  0
 15 16  1  0  0  0
 15 17  4  0  0  0
  1 18  1  0  0  0
  1 19  1  0  0  0
  1 20  1  0  0  0
  7 21  1  0  0  0
  8 22  1  0  0  0
  8 23  1  0  0  0
 10 24  1  0  0  0
 11 25  1  0  0  0
 13 26  1  0  0  0
 16 27  1  0  0  0
 16 28  1  0  0  0
M  END
$$$$
