### 
### Created by X-TOOL on Mon Sep 10 21:12:49 2018
### 

@<TRIPOS>MOLECULE
1nym_ligand
   28    28     1     0     0
SMALL
GAST_HUCK


@<TRIPOS>ATOM
      1 C18        11.2940   13.0400   37.6420 C.3       1 CXB         0.0864
      2 O17        12.4410   12.2120   37.6320 O.3       1 CXB        -0.2311
      3 N16        13.6050   11.9970   36.9950 N.2       1 CXB        -0.1297
      4 C13        13.9000   10.7740   37.1970 C.2       1 CXB         0.1484
      5 C11        13.0300    9.7150   37.8180 C.2       1 CXB         0.2154
      6 O12        13.3210    9.3380   38.9290 O.2       1 CXB        -0.3864
      7 N10        12.0730    9.2510   37.1080 N.am      1 CXB        -0.2959
      8 C7         11.1490    8.2170   37.5760 C.3       1 CXB         0.0411
      9 B          10.3560    7.6360   36.3000 B         1 CXB         0.7128
     10 OB1        11.2450    7.1170   35.2320 O.3       1 CXB        -0.4968
     11 OB2         9.3900    8.5970   35.7140 O.3       1 CXB        -0.4968
     12 C14        15.3080   10.3820   36.9080 C.2       1 CXB         0.0260
     13 C15        15.9100    9.2540   37.3880 C.2       1 CXB         0.0081
     14 S16        17.5650    9.1870   36.9100 S.3       1 CXB         0.0150
     15 C17        17.3300   10.6540   36.0700 C.2       1 CXB         0.1779
     16 N18        18.3910   11.2020   35.3630 N.pl3     1 CXB        -0.2979
     17 N19        16.1150   11.1890   36.1320 N.2       1 CXB        -0.3138
     18 H1         10.6206   12.7238   38.4523 H         1 CXB         0.0620
     19 H2         10.7721   12.9552   36.6774 H         1 CXB         0.0620
     20 H3         11.5974   14.0848   37.8042 H         1 CXB         0.0620
     21 H4         11.9495    9.6138   36.1843 H         1 CXB         0.1828
     22 H5         10.4355    8.6514   38.2917 H         1 CXB         0.0395
     23 H6         11.7119    7.4080   38.0646 H         1 CXB         0.0395
     24 H7         11.7170    7.8398   34.8354 H         1 CXB         0.1667
     25 H8          9.8639    9.3182   35.3169 H         1 CXB         0.1667
     26 H9         15.4111    8.4977   37.9922 H         1 CXB         0.0635
     27 H10        18.2662   12.0867   34.8506 H         1 CXB         0.1863
     28 H11        19.3033   10.7240   35.3507 H         1 CXB         0.1863
@<TRIPOS>BOND
     1    1    2 1  
     2    2    3 1  
     3    3    4 2  
     4    4    5 1  
     5    4   12 1  
     6    5    6 2  
     7    5    7 am 
     8    7    8 1  
     9    8    9 1  
    10    9   10 1  
    11    9   11 1  
    12   12   13 2  
    13   12   17 1  
    14   13   14 1  
    15   14   15 1  
    16   15   16 1  
    17   15   17 2  
    18    1   18 1  
    19    1   19 1  
    20    1   20 1  
    21    7   21 1  
    22    8   22 1  
    23    8   23 1  
    24   10   24 1  
    25   11   25 1  
    26   13   26 1  
    27   16   27 1  
    28   16   28 1  
@<TRIPOS>SUBSTRUCTURE
     1 CXB         1

