2pqb_ligand
  -I-interpret- 

 42 42  0  0  0  0  0  0  0  0999 V2000
 -127.7840   32.0210  127.7750 C   0  0  0  0  0
 -127.4180   32.3690  126.4040 C   0  0  0  0  0
 -128.5040   32.3270  125.3130 C   0  0  0  0  0
 -129.9960   32.3540  125.8790 C   0  0  0  0  0
 -130.1890   31.2700  126.9710 C   0  0  0  0  0
 -129.1940   31.6430  128.1630 C   0  0  0  0  0
 -126.6950   32.0350  128.8280 C   0  0  0  0  0
 -128.3580   31.1140  124.3810 O   0  0  0  0  0
 -130.8350   32.2050  124.7190 O   0  0  0  0  0
 -131.5660   31.2810  127.4530 O   0  0  0  0  0
 -125.5540   31.8580  128.4280 O   0  0  0  0  0
 -127.0170   32.1910  130.0050 O   0  0  0  0  0
 -127.3910   31.1220  123.0460 P   0  0  0  0  0
 -125.9160   31.1160  123.5140 O   0  0  0  0  0
 -127.8230   32.4300  122.3040 O   0  0  0  0  0
 -127.6420   29.7550  122.3860 O   0  0  0  0  0
 -132.5120   30.1670  127.2980 C   0  0  0  0  0
 -132.6890   29.6280  125.8300 C   0  0  0  0  0
 -133.8030   30.6710  127.9060 C   0  0  0  0  0
 -133.7180   30.7700  129.1780 O   0  0  0  0  0
 -134.8030   30.9360  127.2610 O   0  0  0  0  0
 -131.8170   27.7510  128.4630 P   0  0  0  0  0
 -131.9020   26.9290  127.2170 O   0  0  0  0  0
 -133.1220   27.6380  129.2280 O   0  0  0  0  0
 -130.6180   27.2610  129.3300 O   0  0  0  0  0
 -131.5780   29.3540  128.0870 O   0  0  0  0  0
 -131.5490   29.1990  125.3620 F   0  0  0  0  0
 -133.5370   28.6600  125.8580 F   0  0  0  0  0
 -126.3949   32.6532  126.1579 H   0  0  0  0  0
 -128.3381   33.2456  124.7502 H   0  0  0  0  0
 -130.2529   33.2794  126.3944 H   0  0  0  0  0
 -129.9813   30.2753  126.5767 H   0  0  0  0  0
 -129.6193   32.5231  128.6454 H   0  0  0  0  0
 -129.1070   30.7447  128.7743 H   0  0  0  0  0
 -130.6504   32.9141  124.0987 H   0  0  0  0  0
 -127.9677   32.3110  130.0623 H   0  0  0  0  0
 -125.7116   31.9543  123.9348 H   0  0  0  0  0
 -127.5990   33.1916  122.8438 H   0  0  0  0  0
 -133.0445   30.4298  125.1829 H   0  0  0  0  0
 -132.8385   30.5084  129.4601 H   0  0  0  0  0
 -133.0691   28.1653  130.0285 H   0  0  0  0  0
 -130.5653   27.7900  130.1293 H   0  0  0  0  0
  1  2  2  0  0  0
  6  1  1  0  0  0
  1  7  1  0  0  0
  3  2  1  0  0  0
  4  3  1  0  0  0
  3  8  1  0  0  0
  5  4  1  0  0  0
  4  9  1  0  0  0
  5  6  1  0  0  0
 10  5  1  0  0  0
  7 11  2  0  0  0
  7 12  1  0  0  0
  8 13  1  0  0  0
 17 10  1  0  0  0
 13 14  1  0  0  0
 13 15  1  0  0  0
 13 16  2  0  0  0
 17 18  1  0  0  0
 17 19  1  0  0  0
 26 17  1  0  0  0
 18 27  1  0  0  0
 18 28  1  0  0  0
 19 20  1  0  0  0
 19 21  2  0  0  0
 22 23  2  0  0  0
 22 24  1  0  0  0
 22 25  1  0  0  0
 22 26  1  0  0  0
  2 29  1  0  0  0
  3 30  1  0  0  0
  4 31  1  0  0  0
  5 32  1  0  0  0
  6 33  1  0  0  0
  6 34  1  0  0  0
  9 35  1  0  0  0
 12 36  1  0  0  0
 14 37  1  0  0  0
 15 38  1  0  0  0
 18 39  1  0  0  0
 20 40  1  0  0  0
 24 41  1  0  0  0
 25 42  1  0  0  0
M  END
$$$$
