### 
### Created by X-TOOL on Mon Aug  2 16:15:00 2021
### 

@<TRIPOS>MOLECULE
6ms1_ligand
  118   118     1     0     0
SMALL
GAST_HUCK


@<TRIPOS>ATOM
      1 N           0.4150  -13.4590   16.7650 N.4       1 GLY         0.2357
      2 CA          1.7560  -13.1430   16.3130 C.3       1 GLY         0.0545
      3 C           2.2700  -11.8380   16.8870 C.2       1 GLY         0.2237
      4 O           1.6000  -11.2080   17.7050 O.2       1 GLY        -0.3910
      5 N           3.4610  -11.4280   16.4560 N.am      1 GLY        -0.2591
      6 CA          4.0790  -10.2110   16.9600 C.3       1 GLY         0.1540
      7 C           4.7650   -9.4670   15.8260 C.2       1 GLY         0.2063
      8 O           5.3310  -10.0820   14.9180 O.2       1 GLY        -0.3943
      9 CB          5.1050  -10.5220   18.0620 C.3       1 GLY         0.0843
     10 OG          4.4870  -11.1300   19.1810 O.3       1 GLY        -0.3903
     11 N           4.7100   -8.1390   15.8920 N.am      1 GLY        -0.2621
     12 CA          5.3350   -7.2750   14.8940 C.3       1 GLY         0.1390
     13 C           6.7520   -6.9790   15.3600 C.2       1 GLY         0.2057
     14 O           6.9730   -6.1140   16.2130 O.2       1 GLY        -0.3942
     15 CB          4.5340   -5.9920   14.7250 C.3       1 GLY         0.0163
     16 CG          5.0840   -5.0720   13.6630 C.ar      1 GLY        -0.0493
     17 CD1         5.5310   -3.7980   13.9840 C.ar      1 GLY        -0.0685
     18 CD2         5.1590   -5.4790   12.3380 C.ar      1 GLY        -0.0685
     19 CE1         6.0310   -2.9530   13.0130 C.ar      1 GLY        -0.0398
     20 CE2         5.6580   -4.6420   11.3620 C.ar      1 GLY        -0.0398
     21 CZ          6.0940   -3.3810   11.7040 C.ar      1 GLY         0.0805
     22 OH          6.5930   -2.5430   10.7330 O.3       1 GLY        -0.3376
     23 N           7.7180   -7.6920   14.7910 N.am      1 GLY        -0.2636
     24 CA          9.0930   -7.6280   15.2560 C.3       1 GLY         0.1312
     25 C           9.8760   -6.6030   14.4500 C.2       1 GLY         0.2039
     26 O           9.7760   -6.5620   13.2210 O.2       1 GLY        -0.3944
     27 CB          9.7520   -8.9990   15.1220 C.3       1 GLY        -0.0101
     28 CG          9.1480  -10.1350   15.9410 C.3       1 GLY        -0.0425
     29 CD1         9.8780  -11.4360   15.6480 C.3       1 GLY        -0.0625
     30 CD2         9.2020   -9.8010   17.4200 C.3       1 GLY        -0.0625
     31 N          10.6530   -5.7830   15.1500 N.am      1 GLY        -0.2635
     32 CA         11.5840   -4.8450   14.5400 C.3       1 GLY         0.1333
     33 C          12.9220   -5.0080   15.2440 C.2       1 GLY         0.2042
     34 O          12.9750   -5.1450   16.4710 O.2       1 GLY        -0.3944
     35 CB         11.0780   -3.3940   14.6550 C.3       1 GLY        -0.0063
     36 CG1        12.1070   -2.4340   14.0840 C.3       1 GLY        -0.0584
     37 CG2         9.7410   -3.2530   13.9440 C.3       1 GLY        -0.0584
     38 N          14.0030   -5.0090   14.4710 N.am      1 GLY        -0.2613
     39 CA         15.3380   -5.1620   15.0350 C.3       1 GLY         0.1565
     40 C          16.2860   -4.1890   14.3530 C.2       1 GLY         0.2065
     41 O          16.3240   -4.1200   13.1210 O.2       1 GLY        -0.3943
     42 CB         15.8460   -6.6000   14.8630 C.3       1 GLY         0.0924
     43 OG1        14.9010   -7.5190   15.4240 O.3       1 GLY        -0.3874
     44 CG2        17.1890   -6.7740   15.5560 C.3       1 GLY        -0.0346
     45 N          17.0420   -3.4450   15.1590 N.am      1 GLY        -0.2615
     46 CA         18.0400   -2.5120   14.6700 C.3       1 GLY         0.1539
     47 C          19.3680   -3.2330   14.4860 C.2       1 GLY         0.2056
     48 O          19.7980   -4.0360   15.3200 O.2       1 GLY        -0.3943
     49 CB         18.2100   -1.3540   15.6440 C.3       1 GLY         0.0843
     50 OG         16.9950   -0.6220   15.7690 O.3       1 GLY        -0.3903
     51 N          20.0250   -2.9010   13.3930 N.am      1 GLY        -0.2692
     52 CA         20.9330   -3.8020   12.6830 C.3       1 GLY         0.0967
     53 C          21.9540   -2.8910   12.0220 C.2       1 GLY         0.0603
     54 O          21.7230   -1.6880   11.8730 O.co2     1 GLY        -0.5666
     55 CB         20.1900   -4.8000   11.7360 C.3       1 GLY        -0.0118
     56 CG1        20.7480   -4.7300   10.3920 C.3       1 GLY        -0.0590
     57 CG2        20.5310   -6.2230   12.2570 C.3       1 GLY        -0.0590
     58 OXT        23.1240   -3.2120   11.7870 O.co2     1 GLY        -0.5666
     59 H1          0.1200  -14.3323   16.3571 H         1 GLY         0.2012
     60 H2         -0.2164  -12.7259   16.4823 H         1 GLY         0.2012
     61 H3          0.4091  -13.5386   17.7698 H         1 GLY         0.2012
     62 H4          1.7496  -13.0673   15.2156 H         1 GLY         0.1061
     63 H5          2.4322  -13.9542   16.6207 H         1 GLY         0.1061
     64 H6          3.9433  -11.9704   15.7681 H         1 GLY         0.1885
     65 H7          3.2924   -9.5688   17.3829 H         1 GLY         0.0823
     66 H8          5.5831   -9.5844   18.3819 H         1 GLY         0.0606
     67 H9          5.8683  -11.2041   17.6593 H         1 GLY         0.0606
     68 H10         5.1427  -11.3105   19.8443 H         1 GLY         0.2097
     69 H11         4.2214   -7.7159   16.6551 H         1 GLY         0.1885
     70 H12         5.3720   -7.7990   13.9276 H         1 GLY         0.0821
     71 H13         4.5326   -5.4539   15.6844 H         1 GLY         0.0453
     72 H14         3.5023   -6.2594   14.4530 H         1 GLY         0.0453
     73 H15         5.4870   -3.4608   15.0133 H         1 GLY         0.0530
     74 H16         4.8195   -6.4718   12.0657 H         1 GLY         0.0530
     75 H17         6.3720   -1.9589   13.2785 H         1 GLY         0.0525
     76 H18         5.7068   -4.9747   10.3315 H         1 GLY         0.0525
     77 H19         6.8482   -1.7180   11.1289 H         1 GLY         0.2458
     78 H20         7.4924   -8.2893   14.0213 H         1 GLY         0.1883
     79 H21         9.0978   -7.3295   16.3147 H         1 GLY         0.0800
     80 H22        10.8043   -8.8935   15.4246 H         1 GLY         0.0315
     81 H23         9.7026   -9.2899   14.0623 H         1 GLY         0.0315
     82 H24         8.0939  -10.2548   15.6504 H         1 GLY         0.0298
     83 H25         9.4344  -12.2475   16.2436 H         1 GLY         0.0232
     84 H26        10.9407  -11.3273   15.9105 H         1 GLY         0.0232
     85 H27         9.7871  -11.6746   14.5781 H         1 GLY         0.0232
     86 H28         8.6673   -8.8572   17.6025 H         1 GLY         0.0232
     87 H29        10.2509   -9.6947   17.7339 H         1 GLY         0.0232
     88 H30         8.7269  -10.6088   17.9959 H         1 GLY         0.0232
     89 H31        10.5950   -5.8119   16.1479 H         1 GLY         0.1883
     90 H32        11.7005   -5.0916   13.4744 H         1 GLY         0.0802
     91 H33        10.9332   -3.1553   15.7190 H         1 GLY         0.0343
     92 H34        11.7346   -1.4027   14.1718 H         1 GLY         0.0234
     93 H35        12.2820   -2.6717   13.0243 H         1 GLY         0.0234
     94 H36        13.0497   -2.5322   14.6423 H         1 GLY         0.0234
     95 H37         9.0183   -3.9593   14.3786 H         1 GLY         0.0234
     96 H38         9.8698   -3.4724   12.8738 H         1 GLY         0.0234
     97 H39         9.3677   -2.2254   14.0654 H         1 GLY         0.0234
     98 H40        13.8982   -4.9026   13.4822 H         1 GLY         0.1884
     99 H41        15.2979   -4.9292   16.1093 H         1 GLY         0.0826
    100 H42        15.9644   -6.8122   13.7902 H         1 GLY         0.0639
    101 H43        14.0668   -7.4247   14.9792 H         1 GLY         0.2101
    102 H44        17.5387   -7.8085   15.4235 H         1 GLY         0.0257
    103 H45        17.0785   -6.5590   16.6291 H         1 GLY         0.0257
    104 H46        17.9210   -6.0804   15.1165 H         1 GLY         0.0257
    105 H47        16.9158   -3.5336   16.1470 H         1 GLY         0.1884
    106 H48        17.7104   -2.1142   13.6989 H         1 GLY         0.0823
    107 H49        18.9996   -0.6834   15.2742 H         1 GLY         0.0606
    108 H50        18.4967   -1.7496   16.6295 H         1 GLY         0.0606
    109 H51        16.7459   -0.2766   14.9198 H         1 GLY         0.2097
    110 H52        19.8953   -1.9793   13.0275 H         1 GLY         0.1875
    111 H53        21.4622   -4.4177   13.4252 H         1 GLY         0.0729
    112 H54        19.1066   -4.6098   11.7290 H         1 GLY         0.0336
    113 H55        20.2166   -5.4363    9.7372 H         1 GLY         0.0234
    114 H56        21.8158   -4.9922   10.4242 H         1 GLY         0.0234
    115 H57        20.6328   -3.7088    9.9998 H         1 GLY         0.0234
    116 H58        20.1354   -6.3449   13.2761 H         1 GLY         0.0234
    117 H59        21.6227   -6.3572   12.2691 H         1 GLY         0.0234
    118 H60        20.0764   -6.9746   11.5949 H         1 GLY         0.0234
@<TRIPOS>BOND
     1    1    2 1  
     2    2    3 1  
     3    3    4 2  
     4    3    5 am 
     5    5    6 1  
     6    6    7 1  
     7    6    9 1  
     8    7    8 2  
     9    7   11 am 
    10    9   10 1  
    11   11   12 1  
    12   12   13 1  
    13   12   15 1  
    14   13   14 2  
    15   13   23 am 
    16   15   16 1  
    17   16   17 ar 
    18   16   18 ar 
    19   17   19 ar 
    20   18   20 ar 
    21   19   21 ar 
    22   20   21 ar 
    23   21   22 1  
    24   23   24 1  
    25   24   25 1  
    26   24   27 1  
    27   25   26 2  
    28   25   31 am 
    29   27   28 1  
    30   28   29 1  
    31   28   30 1  
    32   31   32 1  
    33   32   33 1  
    34   32   35 1  
    35   33   34 2  
    36   33   38 am 
    37   35   36 1  
    38   35   37 1  
    39   38   39 1  
    40   39   40 1  
    41   39   42 1  
    42   40   41 2  
    43   40   45 am 
    44   42   43 1  
    45   42   44 1  
    46   45   46 1  
    47   46   47 1  
    48   46   49 1  
    49   47   48 2  
    50   47   51 am 
    51   49   50 1  
    52   51   52 1  
    53   52   53 1  
    54   52   55 1  
    55   53   54 ar 
    56   53   58 ar 
    57   55   56 1  
    58   55   57 1  
    59    1   59 1  
    60    1   60 1  
    61    1   61 1  
    62    2   62 1  
    63    2   63 1  
    64    5   64 1  
    65    6   65 1  
    66    9   66 1  
    67    9   67 1  
    68   10   68 1  
    69   11   69 1  
    70   12   70 1  
    71   15   71 1  
    72   15   72 1  
    73   17   73 1  
    74   18   74 1  
    75   19   75 1  
    76   20   76 1  
    77   22   77 1  
    78   23   78 1  
    79   24   79 1  
    80   27   80 1  
    81   27   81 1  
    82   28   82 1  
    83   29   83 1  
    84   29   84 1  
    85   29   85 1  
    86   30   86 1  
    87   30   87 1  
    88   30   88 1  
    89   31   89 1  
    90   32   90 1  
    91   35   91 1  
    92   36   92 1  
    93   36   93 1  
    94   36   94 1  
    95   37   95 1  
    96   37   96 1  
    97   37   97 1  
    98   38   98 1  
    99   39   99 1  
   100   42  100 1  
   101   43  101 1  
   102   44  102 1  
   103   44  103 1  
   104   44  104 1  
   105   45  105 1  
   106   46  106 1  
   107   49  107 1  
   108   49  108 1  
   109   50  109 1  
   110   51  110 1  
   111   52  111 1  
   112   55  112 1  
   113   56  113 1  
   114   56  114 1  
   115   56  115 1  
   116   57  116 1  
   117   57  117 1  
   118   57  118 1  
@<TRIPOS>SUBSTRUCTURE
     1 GLY         1

