6ms1_ligand
  -I-interpret- 

119119  0  0  0  0  0  0  0  0999 V2000
    0.4150  -13.4590   16.7650 N   0  3  0  0  0
    1.7560  -13.1430   16.3130 C   0  0  0  0  0
    2.2700  -11.8380   16.8870 C   0  0  0  0  0
    1.6000  -11.2080   17.7050 O   0  0  0  0  0
    3.4610  -11.4280   16.4560 N   0  0  0  0  0
    4.0790  -10.2110   16.9600 C   0  0  0  0  0
    4.7650   -9.4670   15.8260 C   0  0  0  0  0
    5.3310  -10.0820   14.9180 O   0  0  0  0  0
    5.1050  -10.5220   18.0620 C   0  0  0  0  0
    4.4870  -11.1300   19.1810 O   0  0  0  0  0
    4.7100   -8.1390   15.8920 N   0  0  0  0  0
    5.3350   -7.2750   14.8940 C   0  0  0  0  0
    6.7520   -6.9790   15.3600 C   0  0  0  0  0
    6.9730   -6.1140   16.2130 O   0  0  0  0  0
    4.5340   -5.9920   14.7250 C   0  0  0  0  0
    5.0840   -5.0720   13.6630 C   0  0  0  0  0
    5.5310   -3.7980   13.9840 C   0  0  0  0  0
    5.1590   -5.4790   12.3380 C   0  0  0  0  0
    6.0310   -2.9530   13.0130 C   0  0  0  0  0
    5.6580   -4.6420   11.3620 C   0  0  0  0  0
    6.0940   -3.3810   11.7040 C   0  0  0  0  0
    6.5930   -2.5430   10.7330 O   0  0  0  0  0
    7.7180   -7.6920   14.7910 N   0  0  0  0  0
    9.0930   -7.6280   15.2560 C   0  0  0  0  0
    9.8760   -6.6030   14.4500 C   0  0  0  0  0
    9.7760   -6.5620   13.2210 O   0  0  0  0  0
    9.7520   -8.9990   15.1220 C   0  0  0  0  0
    9.1480  -10.1350   15.9410 C   0  0  0  0  0
    9.8780  -11.4360   15.6480 C   0  0  0  0  0
    9.2020   -9.8010   17.4200 C   0  0  0  0  0
   10.6530   -5.7830   15.1500 N   0  0  0  0  0
   11.5840   -4.8450   14.5400 C   0  0  0  0  0
   12.9220   -5.0080   15.2440 C   0  0  0  0  0
   12.9750   -5.1450   16.4710 O   0  0  0  0  0
   11.0780   -3.3940   14.6550 C   0  0  0  0  0
   12.1070   -2.4340   14.0840 C   0  0  0  0  0
    9.7410   -3.2530   13.9440 C   0  0  0  0  0
   14.0030   -5.0090   14.4710 N   0  0  0  0  0
   15.3380   -5.1620   15.0350 C   0  0  0  0  0
   16.2860   -4.1890   14.3530 C   0  0  0  0  0
   16.3240   -4.1200   13.1210 O   0  0  0  0  0
   15.8460   -6.6000   14.8630 C   0  0  0  0  0
   14.9010   -7.5190   15.4240 O   0  0  0  0  0
   17.1890   -6.7740   15.5560 C   0  0  0  0  0
   17.0420   -3.4450   15.1590 N   0  0  0  0  0
   18.0400   -2.5120   14.6700 C   0  0  0  0  0
   19.3680   -3.2330   14.4860 C   0  0  0  0  0
   19.7980   -4.0360   15.3200 O   0  0  0  0  0
   18.2100   -1.3540   15.6440 C   0  0  0  0  0
   16.9950   -0.6220   15.7690 O   0  0  0  0  0
   20.0250   -2.9010   13.3930 N   0  0  0  0  0
   20.9330   -3.8020   12.6830 C   0  0  0  0  0
   21.9540   -2.8910   12.0220 C   0  0  0  0  0
   21.7230   -1.6880   11.8730 O   0  0  0  0  0
   20.1900   -4.8000   11.7360 C   0  0  0  0  0
   20.7480   -4.7300   10.3920 C   0  0  0  0  0
   20.5310   -6.2230   12.2570 C   0  0  0  0  0
   23.1240   -3.2120   11.7870 O   0  0  0  0  0
    0.1176  -14.3428   16.3516 H   0  0  0  0  0
    0.4103  -13.5392   17.7818 H   0  0  0  0  0
   -0.2229  -12.7165   16.4784 H   0  0  0  0  0
    1.7307  -13.0460   15.2276 H   0  0  0  0  0
    2.4197  -13.9411   16.6458 H   0  0  0  0  0
    3.9530  -11.9813   15.7544 H   0  0  0  0  0
    3.2923   -9.5884   17.3860 H   0  0  0  0  0
    5.5638   -9.5871   18.3836 H   0  0  0  0  0
    5.8494  -11.2092   17.6600 H   0  0  0  0  0
    5.1496  -11.3124   19.8513 H   0  0  0  0  0
    4.2117   -7.7075   16.6703 H   0  0  0  0  0
    5.3598   -7.7683   13.9223 H   0  0  0  0  0
    4.5717   -5.4559   15.6733 H   0  0  0  0  0
    3.5254   -6.2738   14.4228 H   0  0  0  0  0
    5.4867   -3.4590   15.0190 H   0  0  0  0  0
    4.8176   -6.4773   12.0642 H   0  0  0  0  0
    6.3739   -1.9534   13.2800 H   0  0  0  0  0
    5.7071   -4.9765   10.3258 H   0  0  0  0  0
    6.5681   -2.9890    9.8833 H   0  0  0  0  0
    7.4879   -8.3012   14.0059 H   0  0  0  0  0
    9.0930   -7.3285   16.3041 H   0  0  0  0  0
   10.7724   -8.8775   15.4855 H   0  0  0  0  0
    9.6337   -9.2872   14.0775 H   0  0  0  0  0
    8.1023  -10.2603   15.6599 H   0  0  0  0  0
    9.7872  -11.6712   14.5876 H   0  0  0  0  0
   10.9308  -11.3270   15.9084 H   0  0  0  0  0
    9.4376  -12.2393   16.2387 H   0  0  0  0  0
   10.2396   -9.6560   17.7208 H   0  0  0  0  0
    8.6375   -8.8872   17.6057 H   0  0  0  0  0
    8.7676  -10.6206   17.9924 H   0  0  0  0  0
   10.5939   -5.8125   16.1679 H   0  0  0  0  0
   11.6820   -5.0565   13.4752 H   0  0  0  0  0
   10.9328   -3.1458   15.7064 H   0  0  0  0  0
   13.0405   -2.5323   14.6380 H   0  0  0  0  0
   12.2795   -2.6706   13.0341 H   0  0  0  0  0
   11.7369   -1.4125   14.1715 H   0  0  0  0  0
    9.8618   -3.5095   12.8915 H   0  0  0  0  0
    9.0148   -3.9246   14.4019 H   0  0  0  0  0
    9.3915   -2.2242   14.0308 H   0  0  0  0  0
   13.8961   -4.9005   13.4624 H   0  0  0  0  0
   15.2945   -4.9459   16.1025 H   0  0  0  0  0
   15.9657   -6.8010   13.7984 H   0  0  0  0  0
   15.2243   -8.4161   15.3133 H   0  0  0  0  0
   17.9134   -6.0862   15.1197 H   0  0  0  0  0
   17.0782   -6.5606   16.6192 H   0  0  0  0  0
   17.5344   -7.7994   15.4240 H   0  0  0  0  0
   16.9133   -3.5354   16.1668 H   0  0  0  0  0
   17.7081   -2.1131   13.7114 H   0  0  0  0  0
   18.9868   -0.6878   15.2686 H   0  0  0  0  0
   18.4850   -1.7516   16.6209 H   0  0  0  0  0
   17.1213    0.1026   16.3859 H   0  0  0  0  0
   19.8927   -1.9608   13.0202 H   0  0  0  0  0
   21.4430   -4.4961   13.3510 H   0  0  0  0  0
   19.1241   -4.5727   11.7176 H   0  0  0  0  0
   20.6333   -3.7176   10.0046 H   0  0  0  0  0
   21.8060   -4.9899   10.4253 H   0  0  0  0  0
   20.2207   -5.4302    9.7441 H   0  0  0  0  0
   21.6099   -6.3736   12.2190 H   0  0  0  0  0
   20.1847   -6.3246   13.2855 H   0  0  0  0  0
   20.0369   -6.9659   11.6308 H   0  0  0  0  0
   23.2290   -4.1565   11.9229 H   0  0  0  0  0
  1  2  1  0  0  0
  2  3  1  0  0  0
  3  4  2  0  0  0
  3  5  1  0  0  0
  5  6  1  0  0  0
  6  7  1  0  0  0
  6  9  1  0  0  0
  7  8  2  0  0  0
  7 11  1  0  0  0
  9 10  1  0  0  0
 11 12  1  0  0  0
 12 13  1  0  0  0
 12 15  1  0  0  0
 13 14  2  0  0  0
 13 23  1  0  0  0
 15 16  1  0  0  0
 16 17  4  0  0  0
 16 18  4  0  0  0
 17 19  4  0  0  0
 18 20  4  0  0  0
 19 21  4  0  0  0
 20 21  4  0  0  0
 21 22  1  0  0  0
 23 24  1  0  0  0
 24 25  1  0  0  0
 24 27  1  0  0  0
 25 26  2  0  0  0
 25 31  1  0  0  0
 27 28  1  0  0  0
 28 29  1  0  0  0
 28 30  1  0  0  0
 31 32  1  0  0  0
 32 33  1  0  0  0
 32 35  1  0  0  0
 33 34  2  0  0  0
 33 38  1  0  0  0
 35 36  1  0  0  0
 35 37  1  0  0  0
 38 39  1  0  0  0
 39 40  1  0  0  0
 39 42  1  0  0  0
 40 41  2  0  0  0
 40 45  1  0  0  0
 42 43  1  0  0  0
 42 44  1  0  0  0
 45 46  1  0  0  0
 46 47  1  0  0  0
 46 49  1  0  0  0
 47 48  2  0  0  0
 47 51  1  0  0  0
 49 50  1  0  0  0
 51 52  1  0  0  0
 52 53  1  0  0  0
 52 55  1  0  0  0
 53 54  2  0  0  0
 53 58  1  0  0  0
 55 56  1  0  0  0
 55 57  1  0  0  0
  1 59  1  0  0  0
  1 60  1  0  0  0
  1 61  1  0  0  0
  2 62  1  0  0  0
  2 63  1  0  0  0
  5 64  1  0  0  0
  6 65  1  0  0  0
  9 66  1  0  0  0
  9 67  1  0  0  0
 10 68  1  0  0  0
 11 69  1  0  0  0
 12 70  1  0  0  0
 15 71  1  0  0  0
 15 72  1  0  0  0
 17 73  1  0  0  0
 18 74  1  0  0  0
 19 75  1  0  0  0
 20 76  1  0  0  0
 22 77  1  0  0  0
 23 78  1  0  0  0
 24 79  1  0  0  0
 27 80  1  0  0  0
 27 81  1  0  0  0
 28 82  1  0  0  0
 29 83  1  0  0  0
 29 84  1  0  0  0
 29 85  1  0  0  0
 30 86  1  0  0  0
 30 87  1  0  0  0
 30 88  1  0  0  0
 31 89  1  0  0  0
 32 90  1  0  0  0
 35 91  1  0  0  0
 36 92  1  0  0  0
 36 93  1  0  0  0
 36 94  1  0  0  0
 37 95  1  0  0  0
 37 96  1  0  0  0
 37 97  1  0  0  0
 38 98  1  0  0  0
 39 99  1  0  0  0
 42100  1  0  0  0
 43101  1  0  0  0
 44102  1  0  0  0
 44103  1  0  0  0
 44104  1  0  0  0
 45105  1  0  0  0
 46106  1  0  0  0
 49107  1  0  0  0
 49108  1  0  0  0
 50109  1  0  0  0
 51110  1  0  0  0
 52111  1  0  0  0
 55112  1  0  0  0
 56113  1  0  0  0
 56114  1  0  0  0
 56115  1  0  0  0
 57116  1  0  0  0
 57117  1  0  0  0
 57118  1  0  0  0
 58119  1  0  0  0
M  END
$$$$
