### 
### Created by X-TOOL on Mon Sep 10 21:13:32 2018
### 

@<TRIPOS>MOLECULE
5k1f_ligand
   34    36     1     0     0
SMALL
GAST_HUCK


@<TRIPOS>ATOM
      1 P          -0.6810    1.7380   18.5100 P.3       1 IMP         0.2008
      2 O1P        -1.8860    2.2060   17.7130 O.co2     1 IMP        -0.5537
      3 O2P        -0.0350    2.7970   19.3730 O.co2     1 IMP        -0.5537
      4 O3P         0.3540    1.0610   17.6090 O.co2     1 IMP        -0.5537
      5 O5'        -1.1590    0.6270   19.5490 O.3       1 IMP        -0.2734
      6 C5'        -2.2080    0.8940   20.4770 C.3       1 IMP         0.1072
      7 C4'        -1.9970    0.1660   21.7870 C.3       1 IMP         0.1182
      8 O4'        -2.3110   -1.2480   21.6220 O.3       1 IMP        -0.3362
      9 C3'        -0.5720    0.2220   22.3490 C.3       1 IMP         0.1149
     10 O3'        -0.6390    0.2960   23.7720 O.3       1 IMP        -0.3864
     11 C2'         0.0030   -1.1320   21.9370 C.3       1 IMP         0.1389
     12 O2'         1.1040   -1.5840   22.7080 O.3       1 IMP        -0.3835
     13 C1'        -1.2250   -2.0270   22.0910 C.3       1 IMP         0.2003
     14 N9         -1.1650   -3.2680   21.3150 N.pl3     1 IMP        -0.2045
     15 C8         -0.6000   -3.4480   20.0760 C.2       1 IMP         0.1004
     16 N7         -0.7670   -4.7390   19.7130 N.2       1 IMP        -0.3155
     17 C5         -1.4370   -5.3840   20.7010 C.2       1 IMP         0.1044
     18 C6         -1.8720   -6.7030   20.8450 C.2       1 IMP         0.2200
     19 O6         -1.5520   -7.5550   20.0080 O.2       1 IMP        -0.4066
     20 N1         -2.5550   -7.0690   21.9960 N.am      1 IMP        -0.2042
     21 C2         -2.8050   -6.1390   22.9890 C.2       1 IMP         0.1273
     22 N3         -2.3710   -4.8340   22.8430 N.2       1 IMP        -0.2683
     23 C4         -1.7000   -4.4660   21.7160 C.2       1 IMP         0.1354
     24 H1         -3.1629    0.5687   20.0385 H         1 IMP         0.0639
     25 H2         -2.2439    1.9759   20.6725 H         1 IMP         0.0639
     26 H3         -2.6787    0.6092   22.5279 H         1 IMP         0.0650
     27 H4          0.0068    1.0622   21.9379 H         1 IMP         0.0648
     28 H5          0.2411    0.3311   24.1280 H         1 IMP         0.2100
     29 H6          0.3241   -1.0973   20.8855 H         1 IMP         0.0677
     30 H7          0.8396   -1.6683   23.6165 H         1 IMP         0.2101
     31 H8         -1.3619   -2.2808   23.1525 H         1 IMP         0.1001
     32 H9         -0.1017   -2.6802   19.4860 H         1 IMP         0.1213
     33 H10        -2.8687   -8.0118   22.1085 H         1 IMP         0.2557
     34 H11        -3.3446   -6.4350   23.8874 H         1 IMP         0.1493
@<TRIPOS>BOND
     1    1    2 ar 
     2    1    3 ar 
     3    1    4 ar 
     4    1    5 1  
     5    5    6 1  
     6    6    7 1  
     7    7    8 1  
     8    7    9 1  
     9    8   13 1  
    10    9   10 1  
    11    9   11 1  
    12   11   12 1  
    13   11   13 1  
    14   13   14 1  
    15   14   15 1  
    16   14   23 1  
    17   15   16 2  
    18   16   17 1  
    19   17   18 1  
    20   17   23 2  
    21   18   19 2  
    22   18   20 am 
    23   20   21 1  
    24   21   22 2  
    25   22   23 1  
    26    6   24 1  
    27    6   25 1  
    28    7   26 1  
    29    9   27 1  
    30   10   28 1  
    31   11   29 1  
    32   12   30 1  
    33   13   31 1  
    34   15   32 1  
    35   20   33 1  
    36   21   34 1  
@<TRIPOS>SUBSTRUCTURE
     1 IMP         1

