5k1f_ligand
  -I-interpret- 

 36 38  0  0  0  0  0  0  0  0999 V2000
   -0.6810    1.7380   18.5100 P   0  0  0  0  0
   -1.8860    2.2060   17.7130 O   0  0  0  0  0
   -0.0350    2.7970   19.3730 O   0  0  0  0  0
    0.3540    1.0610   17.6090 O   0  0  0  0  0
   -1.1590    0.6270   19.5490 O   0  0  0  0  0
   -2.2080    0.8940   20.4770 C   0  0  0  0  0
   -1.9970    0.1660   21.7870 C   0  0  0  0  0
   -2.3110   -1.2480   21.6220 O   0  0  0  0  0
   -0.5720    0.2220   22.3490 C   0  0  0  0  0
   -0.6390    0.2960   23.7720 O   0  0  0  0  0
    0.0030   -1.1320   21.9370 C   0  0  0  0  0
    1.1040   -1.5840   22.7080 O   0  0  0  0  0
   -1.2250   -2.0270   22.0910 C   0  0  0  0  0
   -1.1650   -3.2680   21.3150 N   0  0  0  0  0
   -0.6000   -3.4480   20.0760 C   0  0  0  0  0
   -0.7670   -4.7390   19.7130 N   0  0  0  0  0
   -1.4370   -5.3840   20.7010 C   0  0  0  0  0
   -1.8720   -6.7030   20.8450 C   0  0  0  0  0
   -1.5520   -7.5550   20.0080 O   0  0  0  0  0
   -2.5550   -7.0690   21.9960 N   0  0  0  0  0
   -2.8050   -6.1390   22.9890 C   0  0  0  0  0
   -2.3710   -4.8340   22.8430 N   0  0  0  0  0
   -1.7000   -4.4660   21.7160 C   0  0  0  0  0
   -2.2308    1.4737   17.1968 H   0  0  0  0  0
   -0.0790    0.3937   17.0715 H   0  0  0  0  0
   -3.1466    0.5513   20.0415 H   0  0  0  0  0
   -2.2233    1.9651   20.6785 H   0  0  0  0  0
   -2.6539    0.6830   22.4865 H   0  0  0  0  0
    0.0133    1.0714   21.9968 H   0  0  0  0  0
    0.2504    0.3314   24.1317 H   0  0  0  0  0
    0.4435   -1.1119   20.9402 H   0  0  0  0  0
    1.3957   -2.4370   22.3779 H   0  0  0  0  0
   -1.3097   -2.3396   23.1318 H   0  0  0  0  0
   -0.1013   -2.6795   19.4854 H   0  0  0  0  0
   -2.8750   -8.0307   22.1107 H   0  0  0  0  0
   -3.3451   -6.4353   23.8882 H   0  0  0  0  0
  1  2  1  0  0  0
  1  3  2  0  0  0
  1  4  1  0  0  0
  1  5  1  0  0  0
  5  6  1  0  0  0
  6  7  1  0  0  0
  7  8  1  0  0  0
  7  9  1  0  0  0
  8 13  1  0  0  0
  9 10  1  0  0  0
  9 11  1  0  0  0
 11 12  1  0  0  0
 11 13  1  0  0  0
 13 14  1  0  0  0
 14 15  4  0  0  0
 14 23  4  0  0  0
 15 16  4  0  0  0
 16 17  4  0  0  0
 17 18  1  0  0  0
 17 23  4  0  0  0
 18 19  2  0  0  0
 18 20  1  0  0  0
 20 21  1  0  0  0
 21 22  2  0  0  0
 22 23  1  0  0  0
  2 24  1  0  0  0
  4 25  1  0  0  0
  6 26  1  0  0  0
  6 27  1  0  0  0
  7 28  1  0  0  0
  9 29  1  0  0  0
 10 30  1  0  0  0
 11 31  1  0  0  0
 12 32  1  0  0  0
 13 33  1  0  0  0
 15 34  1  0  0  0
 20 35  1  0  0  0
 21 36  1  0  0  0
M  END
$$$$
