3v2w_ligand
  -I-interpret- 

 51 51  0  0  0  0  0  0  0  0999 V2000
    3.0190   17.2820  -14.2220 O   0  0  0  0  0
    3.2070   15.7980  -14.4260 P   0  0  0  0  0
    1.9090   15.0400  -14.6140 O   0  0  0  0  0
    4.2630   15.4650  -15.4540 O   0  0  0  0  0
    3.8960   15.1750  -12.8640 C   0  0  0  0  0
    4.1710   16.3090  -11.8720 C   0  0  0  0  0
    3.1820   16.3580  -10.7010 C   0  0  0  0  0
    2.0350   15.4190  -10.8710 N   0  3  0  0  0
    3.8860   16.1340   -9.3930 C   0  0  0  0  0
    4.2760   15.0170   -9.1070 O   0  0  0  0  0
    3.9960   17.1980   -8.5890 N   0  0  0  0  0
    4.8580   17.2990   -7.5430 C   0  0  0  0  0
    4.9610   16.2860   -6.5810 C   0  0  0  0  0
    5.8340   16.4280   -5.5010 C   0  0  0  0  0
    6.5690   17.6060   -5.3420 C   0  0  0  0  0
    5.5870   18.4810   -7.3710 C   0  0  0  0  0
    6.4580   18.6300   -6.2860 C   0  0  0  0  0
    7.2400   19.9170   -6.1180 C   0  0  0  0  0
    8.7180   19.6340   -5.8640 C   0  0  0  0  0
    9.4560   20.9070   -5.4600 C   0  0  0  0  0
   10.9480   20.7850   -5.7430 C   0  0  0  0  0
   11.6390   22.1390   -5.6410 C   0  0  0  0  0
   13.1090   22.0440   -5.9860 C   0  0  0  0  0
    2.0995   14.1073  -14.7379 H   0  0  0  0  0
    4.3360   14.5115  -15.5388 H   0  0  0  0  0
    4.8390   14.6733  -13.0812 H   0  0  0  0  0
    3.1705   14.4960  -12.4160 H   0  0  0  0  0
    4.0772   17.2483  -12.4170 H   0  0  0  0  0
    5.1634   16.1419  -11.4533 H   0  0  0  0  0
    2.7553   17.3610  -10.6926 H   0  0  0  0  0
    1.5807   15.5978  -11.7666 H   0  0  0  0  0
    2.3772   14.4584  -10.8478 H   0  0  0  0  0
    1.3658   15.5612  -10.1145 H   0  0  0  0  0
    3.3863   17.9942   -8.7754 H   0  0  0  0  0
    4.3572   15.3835   -6.6761 H   0  0  0  0  0
    5.9427   15.6180   -4.7798 H   0  0  0  0  0
    7.2283   17.7258   -4.4823 H   0  0  0  0  0
    5.4753   19.2934   -8.0891 H   0  0  0  0  0
    6.8374   20.4602   -5.2631 H   0  0  0  0  0
    7.1495   20.5017   -7.0335 H   0  0  0  0  0
    9.1630   19.2475   -6.7809 H   0  0  0  0  0
    8.8015   18.9091   -5.0543 H   0  0  0  0  0
    9.3145   21.0696   -4.3915 H   0  0  0  0  0
    9.0572   21.7411   -6.0374 H   0  0  0  0  0
   11.0806   20.4014   -6.7546 H   0  0  0  0  0
   11.3885   20.1126   -5.0068 H   0  0  0  0  0
   11.5493   22.4940   -4.6144 H   0  0  0  0  0
   11.1640   22.8211   -6.3461 H   0  0  0  0  0
   13.5987   21.3553   -5.2975 H   0  0  0  0  0
   13.2184   21.6782   -7.0069 H   0  0  0  0  0
   13.5653   23.0303   -5.9012 H   0  0  0  0  0
  1  2  2  0  0  0
  2  3  1  0  0  0
  2  4  1  0  0  0
  2  5  1  0  0  0
  5  6  1  0  0  0
  6  7  1  0  0  0
  7  8  1  0  0  0
  7  9  1  0  0  0
  9 10  2  0  0  0
  9 11  1  0  0  0
 11 12  1  0  0  0
 12 13  4  0  0  0
 12 16  4  0  0  0
 13 14  4  0  0  0
 14 15  4  0  0  0
 15 17  4  0  0  0
 16 17  4  0  0  0
 17 18  1  0  0  0
 18 19  1  0  0  0
 19 20  1  0  0  0
 20 21  1  0  0  0
 21 22  1  0  0  0
 22 23  1  0  0  0
  3 24  1  0  0  0
  4 25  1  0  0  0
  5 26  1  0  0  0
  5 27  1  0  0  0
  6 28  1  0  0  0
  6 29  1  0  0  0
  7 30  1  0  0  0
  8 31  1  0  0  0
  8 32  1  0  0  0
  8 33  1  0  0  0
 11 34  1  0  0  0
 13 35  1  0  0  0
 14 36  1  0  0  0
 15 37  1  0  0  0
 16 38  1  0  0  0
 18 39  1  0  0  0
 18 40  1  0  0  0
 19 41  1  0  0  0
 19 42  1  0  0  0
 20 43  1  0  0  0
 20 44  1  0  0  0
 21 45  1  0  0  0
 21 46  1  0  0  0
 22 47  1  0  0  0
 22 48  1  0  0  0
 23 49  1  0  0  0
 23 50  1  0  0  0
 23 51  1  0  0  0
M  END
$$$$
