### 
### Created by X-TOOL on Mon Sep 10 21:13:11 2018
### 

@<TRIPOS>MOLECULE
3v2w_ligand
   49    49     1     0     0
SMALL
GAST_HUCK


@<TRIPOS>ATOM
      1 O4          3.0190   17.2820  -14.2220 O.co2     1 ML5        -0.5623
      2 P1          3.2070   15.7980  -14.4260 P.3       1 ML5         0.0582
      3 O2          1.9090   15.0400  -14.6140 O.co2     1 ML5        -0.5623
      4 O3          4.2630   15.4650  -15.4540 O.co2     1 ML5        -0.5623
      5 C16         3.8960   15.1750  -12.8640 C.3       1 ML5         0.0269
      6 C15         4.1710   16.3090  -11.8720 C.3       1 ML5         0.0233
      7 C14         3.1820   16.3580  -10.7010 C.3       1 ML5         0.0721
      8 N2          2.0350   15.4190  -10.8710 N.4       1 ML5         0.2383
      9 C13         3.8860   16.1340   -9.3930 C.2       1 ML5         0.2520
     10 O1          4.2760   15.0170   -9.1070 O.2       1 ML5        -0.3786
     11 N1          3.9960   17.1980   -8.5890 N.am      1 ML5        -0.2308
     12 C5          4.8580   17.2990   -7.5430 C.ar      1 ML5         0.0595
     13 C4          4.9610   16.2860   -6.5810 C.ar      1 ML5        -0.0481
     14 C3          5.8340   16.4280   -5.5010 C.ar      1 ML5        -0.0819
     15 C2          6.5690   17.6060   -5.3420 C.ar      1 ML5        -0.0756
     16 C6          5.5870   18.4810   -7.3710 C.ar      1 ML5        -0.0406
     17 C1          6.4580   18.6300   -6.2860 C.ar      1 ML5        -0.0568
     18 C7          7.2400   19.9170   -6.1180 C.3       1 ML5        -0.0226
     19 C8          8.7180   19.6340   -5.8640 C.3       1 ML5        -0.0435
     20 C9          9.4560   20.9070   -5.4600 C.3       1 ML5        -0.0513
     21 C10        10.9480   20.7850   -5.7430 C.3       1 ML5        -0.0532
     22 C11        11.6390   22.1390   -5.6410 C.3       1 ML5        -0.0559
     23 C12        13.1090   22.0440   -5.9860 C.3       1 ML5        -0.0653
     24 H1          4.8393   14.6499  -13.0751 H         1 ML5         0.0454
     25 H2          3.1788   14.4735  -12.4130 H         1 ML5         0.0454
     26 H3          4.1155   17.2649  -12.4134 H         1 ML5         0.0359
     27 H4          5.1843   16.1762  -11.4652 H         1 ML5         0.0359
     28 H5          2.7625   17.3745  -10.6765 H         1 ML5         0.1104
     29 H6          1.4197   15.4928  -10.0760 H         1 ML5         0.2015
     30 H7          2.3812   14.4749  -10.9414 H         1 ML5         0.2015
     31 H8          1.5292   15.6549  -11.7104 H         1 ML5         0.2015
     32 H9          3.3982   17.9786   -8.7717 H         1 ML5         0.2257
     33 H10         4.3605   15.3885   -6.6756 H         1 ML5         0.0447
     34 H11         5.9421   15.6224   -4.7838 H         1 ML5         0.0561
     35 H12         7.2246   17.7251   -4.4870 H         1 ML5         0.0430
     36 H13         5.4759   19.2889   -8.0851 H         1 ML5         0.0437
     37 H14         6.8300   20.4775   -5.2649 H         1 ML5         0.0423
     38 H15         7.1419   20.5189   -7.0335 H         1 ML5         0.0423
     39 H16         9.1705   19.2318   -6.7824 H         1 ML5         0.0287
     40 H17         8.8089   18.8934   -5.0557 H         1 ML5         0.0287
     41 H18         9.3070   21.0835   -4.3845 H         1 ML5         0.0267
     42 H19         9.0497   21.7551   -6.0306 H         1 ML5         0.0267
     43 H20        11.0895   20.3852   -6.7580 H         1 ML5         0.0265
     44 H21        11.3971   20.0967   -5.0119 H         1 ML5         0.0265
     45 H22        11.5378   22.5143   -4.6120 H         1 ML5         0.0263
     46 H23        11.1542   22.8400   -6.3363 H         1 ML5         0.0263
     47 H24        13.5706   23.0388   -5.9008 H         1 ML5         0.0230
     48 H25        13.2208   21.6750   -7.0162 H         1 ML5         0.0230
     49 H26        13.6044   21.3493   -5.2918 H         1 ML5         0.0230
@<TRIPOS>BOND
     1    1    2 ar 
     2    2    3 ar 
     3    2    4 ar 
     4    2    5 1  
     5    5    6 1  
     6    6    7 1  
     7    7    8 1  
     8    7    9 1  
     9    9   10 2  
    10    9   11 am 
    11   11   12 1  
    12   12   13 ar 
    13   12   16 ar 
    14   13   14 ar 
    15   14   15 ar 
    16   15   17 ar 
    17   16   17 ar 
    18   17   18 1  
    19   18   19 1  
    20   19   20 1  
    21   20   21 1  
    22   21   22 1  
    23   22   23 1  
    24    5   24 1  
    25    5   25 1  
    26    6   26 1  
    27    6   27 1  
    28    7   28 1  
    29    8   29 1  
    30    8   30 1  
    31    8   31 1  
    32   11   32 1  
    33   13   33 1  
    34   14   34 1  
    35   15   35 1  
    36   16   36 1  
    37   18   37 1  
    38   18   38 1  
    39   19   39 1  
    40   19   40 1  
    41   20   41 1  
    42   20   42 1  
    43   21   43 1  
    44   21   44 1  
    45   22   45 1  
    46   22   46 1  
    47   23   47 1  
    48   23   48 1  
    49   23   49 1  
@<TRIPOS>SUBSTRUCTURE
     1 ML5         1

