6mum_ligand
  -I-interpret- 

 61 65  0  0  0  0  0  0  0  0999 V2000
   -8.1050  -26.0750   28.0080 N   0  0  0  0  0
   -7.2450  -25.3840   27.0830 C   0  0  0  0  0
   -6.0750  -25.0700   27.6080 N   0  0  0  0  0
   -6.1500  -25.5290   28.9210 C   0  0  0  0  0
   -5.2680  -25.5150   30.0450 C   0  0  0  0  0
   -5.6200  -26.0460   31.2040 N   0  0  0  0  0
   -6.8350  -26.5960   31.2770 C   0  0  0  0  0
   -7.7700  -26.6890   30.3270 N   0  0  0  0  0
   -7.3710  -26.1360   29.1710 C   0  0  0  0  0
   -9.4560  -26.6000   27.8190 C   0  0  0  0  0
   -7.6020  -25.1470   25.6860 C   0  0  0  0  0
   -4.0650  -24.9410   29.8370 O   0  0  0  0  0
   -3.1600  -24.6690   30.9530 C   0  0  0  0  0
   -3.6350  -23.4430   31.7230 C   0  0  0  0  0
   -2.4220  -22.6550   31.9310 N   0  0  0  0  0
   -1.3780  -22.9630   30.9440 C   0  0  0  0  0
   -1.8880  -24.2190   30.2580 C   0  0  0  0  0
   -2.1390  -21.7410   32.8850 C   0  0  0  0  0
   -1.0540  -21.1850   32.9090 O   0  0  0  0  0
   -3.1180  -21.5230   34.0250 C   0  0  0  0  0
   -2.3260  -21.1370   35.2780 C   0  0  0  0  0
   -3.2460  -20.8920   36.4350 C   0  0  0  0  0
   -4.1610  -19.8480   36.1220 O   0  0  0  0  0
   -4.9130  -20.1730   34.9560 C   0  0  0  0  0
   -4.1110  -20.4070   33.7030 C   0  0  0  0  0
   -7.2560  -24.0670   24.8940 C   0  0  0  0  0
   -7.7630  -24.2910   23.6580 N   0  0  0  0  0
   -8.4030  -25.5020   23.6040 N   0  0  0  0  0
   -8.2830  -26.0120   24.8160 C   0  0  0  0  0
   -6.4910  -22.8450   25.2570 C   0  0  0  0  0
   -7.6460  -23.3800   22.4600 C   0  0  0  0  0
   -8.6960  -23.5450   21.4040 C   0  0  0  0  0
   -7.0996  -27.0274   32.2424 H   0  0  0  0  0
  -10.1275  -25.7840   27.5519 H   0  0  0  0  0
   -9.4478  -27.3416   27.0203 H   0  0  0  0  0
   -9.7967  -27.0645   28.7444 H   0  0  0  0  0
   -3.0735  -25.5249   31.6224 H   0  0  0  0  0
   -4.1170  -23.7104   32.6634 H   0  0  0  0  0
   -4.3976  -22.8864   31.1783 H   0  0  0  0  0
   -0.4010  -23.1091   31.4048 H   0  0  0  0  0
   -1.2146  -22.1443   30.2432 H   0  0  0  0  0
   -2.0930  -24.0107   29.2079 H   0  0  0  0  0
   -1.1353  -25.0052   30.3168 H   0  0  0  0  0
   -3.6800  -22.4436   34.1825 H   0  0  0  0  0
   -1.7680  -20.2233   35.0733 H   0  0  0  0  0
   -1.6512  -21.9542   35.5327 H   0  0  0  0  0
   -2.6565  -20.6013   37.3045 H   0  0  0  0  0
   -3.8039  -21.8041   36.6469 H   0  0  0  0  0
   -5.5551  -19.3154   34.7549 H   0  0  0  0  0
   -5.4266  -21.1098   35.1722 H   0  0  0  0  0
   -4.7583  -20.6884   32.8724 H   0  0  0  0  0
   -3.5915  -19.4989   33.3970 H   0  0  0  0  0
   -8.6676  -26.9897   25.1064 H   0  0  0  0  0
   -7.0141  -22.3131   26.0517 H   0  0  0  0  0
   -5.4968  -23.1293   25.6016 H   0  0  0  0  0
   -6.4032  -22.1998   24.3829 H   0  0  0  0  0
   -6.6944  -23.6194   21.9854 H   0  0  0  0  0
   -7.7492  -22.3628   22.8379 H   0  0  0  0  0
   -8.6619  -24.5628   21.0154 H   0  0  0  0  0
   -9.6778  -23.3526   21.8365 H   0  0  0  0  0
   -8.5095  -22.8392   20.5946 H   0  0  0  0  0
  1  2  4  0  0  0
  1  9  4  0  0  0
  1 10  1  0  0  0
  2  3  4  0  0  0
  2 11  1  0  0  0
  3  4  4  0  0  0
  4  5  4  0  0  0
  4  9  4  0  0  0
  5  6  4  0  0  0
  5 12  1  0  0  0
  6  7  4  0  0  0
  7  8  4  0  0  0
  8  9  4  0  0  0
 11 26  4  0  0  0
 11 29  4  0  0  0
 12 13  1  0  0  0
 13 14  1  0  0  0
 13 17  1  0  0  0
 14 15  1  0  0  0
 15 16  1  0  0  0
 15 18  1  0  0  0
 16 17  1  0  0  0
 18 19  2  0  0  0
 18 20  1  0  0  0
 20 21  1  0  0  0
 20 25  1  0  0  0
 21 22  1  0  0  0
 22 23  1  0  0  0
 23 24  1  0  0  0
 24 25  1  0  0  0
 26 27  4  0  0  0
 26 30  1  0  0  0
 27 28  4  0  0  0
 27 31  1  0  0  0
 28 29  4  0  0  0
 31 32  1  0  0  0
  7 33  1  0  0  0
 10 34  1  0  0  0
 10 35  1  0  0  0
 10 36  1  0  0  0
 13 37  1  0  0  0
 14 38  1  0  0  0
 14 39  1  0  0  0
 16 40  1  0  0  0
 16 41  1  0  0  0
 17 42  1  0  0  0
 17 43  1  0  0  0
 20 44  1  0  0  0
 21 45  1  0  0  0
 21 46  1  0  0  0
 22 47  1  0  0  0
 22 48  1  0  0  0
 24 49  1  0  0  0
 24 50  1  0  0  0
 25 51  1  0  0  0
 25 52  1  0  0  0
 29 53  1  0  0  0
 30 54  1  0  0  0
 30 55  1  0  0  0
 30 56  1  0  0  0
 31 57  1  0  0  0
 31 58  1  0  0  0
 32 59  1  0  0  0
 32 60  1  0  0  0
 32 61  1  0  0  0
M  END
$$$$
