1r17_ligand
  -I-interpret- 

165168  0  0  0  0  0  0  0  0999 V2000
   48.4420   17.9430  106.3910 N   0  3  0  0  0
   49.6600   17.0840  106.5350 C   0  0  0  0  0
   49.9880   16.3580  105.2440 C   0  0  0  0  0
   50.5100   15.2410  105.2580 O   0  0  0  0  0
   49.6800   16.9890  104.1160 N   0  0  0  0  0
   49.9480   16.3860  102.8170 C   0  0  0  0  0
   51.0420   17.1380  102.0580 C   0  0  0  0  0
   51.0850   18.3690  102.0680 O   0  0  0  0  0
   48.6650   16.3580  101.9860 C   0  0  0  0  0
   51.9250   16.3910  101.4040 N   0  0  0  0  0
   53.0010   16.9860  100.6120 C   0  0  0  0  0
   52.7110   16.6270   99.1530 C   0  0  0  0  0
   52.6040   15.4560   98.7970 O   0  0  0  0  0
   54.3560   16.4590  101.0880 C   0  0  0  0  0
   54.5890   16.6840  102.5570 C   0  0  0  0  0
   54.0320   15.8230  103.4980 C   0  0  0  0  0
   55.2980   17.7960  103.0020 C   0  0  0  0  0
   54.1710   16.0650  104.8630 C   0  0  0  0  0
   55.4450   18.0510  104.3600 C   0  0  0  0  0
   54.8780   17.1820  105.2970 C   0  0  0  0  0
   52.5780   17.6600   98.3280 N   0  0  0  0  0
   52.1980   17.5290   96.9280 C   0  0  0  0  0
   53.2460   17.5830   95.8240 C   0  0  0  0  0
   54.2780   18.2420   95.9440 O   0  0  0  0  0
   51.1610   18.6090   96.5960 C   0  0  0  0  0
   49.8950   18.5050   97.3900 C   0  0  0  0  0
   48.9030   17.6050   97.0190 C   0  0  0  0  0
   49.6920   19.3080   98.5090 C   0  0  0  0  0
   47.7240   17.5000   97.7540 C   0  0  0  0  0
   48.5130   19.2080   99.2540 C   0  0  0  0  0
   47.5310   18.3040   98.8700 C   0  0  0  0  0
   52.9180   16.8920   94.7340 N   0  0  0  0  0
   53.7100   16.8620   93.5090 C   0  0  0  0  0
   52.7090   16.4900   92.4110 C   0  0  0  0  0
   51.4950   16.5560   92.6290 O   0  0  0  0  0
   54.8410   15.8390   93.5770 C   0  0  0  0  0
   55.7550   16.0580   92.5060 O   0  0  0  0  0
   53.1960   16.1050   91.2370 N   0  0  0  0  0
   52.2860   15.7550   90.1530 C   0  0  0  0  0
   52.9170   14.8190   89.1310 C   0  0  0  0  0
   54.1410   14.7720   88.9780 O   0  0  0  0  0
   51.8000   17.0210   89.4660 C   0  0  0  0  0
   52.0590   14.0830   88.4320 N   0  0  0  0  0
   52.4800   13.1360   87.4100 C   0  0  0  0  0
   52.1460   13.6630   86.0160 C   0  0  0  0  0
   51.2740   14.5210   85.8510 O   0  0  0  0  0
   51.7550   11.7950   87.5840 C   0  0  0  0  0
   52.0660   11.0150   88.8420 C   0  0  0  0  0
   51.5110    9.6020   88.6770 C   0  0  0  0  0
   52.0510    8.6470   89.6420 N   0  0  0  0  0
   52.5690    7.4660   89.3120 C   0  0  0  0  0
   52.6230    7.0910   88.0390 N   0  0  0  0  0
   53.0190    6.6510   90.2530 N   0  0  0  0  0
   52.8420   13.1230   85.0210 N   0  0  0  0  0
   52.6050   13.4870   83.6370 C   0  0  0  0  0
   52.2910   12.2060   82.8840 C   0  0  0  0  0
   52.8060   11.1410   83.2340 O   0  0  0  0  0
   51.4390   12.3000   81.8700 N   0  0  0  0  0
   51.0490   11.1430   81.0750 C   0  0  0  0  0
   50.9250   11.4840   79.6040 C   0  0  0  0  0
   50.4140   12.5470   79.2380 O   0  0  0  0  0
   49.7110   10.5800   81.5590 C   0  0  0  0  0
   49.0780    9.6160   80.6050 C   0  0  0  0  0
   49.6080    8.3600   80.3570 N   0  0  0  0  0
   47.9800    9.7150   79.8210 C   0  0  0  0  0
   48.8500    7.7380   79.4600 C   0  0  0  0  0
   47.8630    8.5420   79.1250 N   0  0  0  0  0
   51.3780   10.5640   78.7550 N   0  0  0  0  0
   51.3130   10.7670   77.2920 C   0  0  0  0  0
   50.4040    9.7620   76.5700 C   0  0  0  0  0
   50.7700    8.6080   76.4070 O   0  0  0  0  0
   52.7090   10.6660   76.6890 C   0  0  0  0  0
   53.6440   11.8170   77.0130 C   0  0  0  0  0
   54.9600   11.7230   76.2380 C   0  0  0  0  0
   55.8770   10.7540   76.8260 N   0  0  0  0  0
   56.9600   10.2860   76.2100 C   0  0  0  0  0
   57.2620   10.6960   74.9770 N   0  0  0  0  0
   57.7520    9.4110   76.8260 N   0  0  0  0  0
   49.2140   10.2120   76.1040 N   0  0  0  0  0
   48.2550    9.3460   75.3820 C   0  0  0  0  0
   48.7810    9.2370   73.9110 C   0  0  0  0  0
   49.8370    9.8310   73.6790 O   0  0  0  0  0
   46.8980   10.1140   75.5120 C   0  0  0  0  0
   47.1560   11.1810   76.6310 C   0  0  0  0  0
   48.6130   11.5100   76.4750 C   0  0  0  0  0
   48.1327    8.5501   72.9746 O   0  0  0  0  0
   48.2529   18.4138  107.2759 H   0  0  0  0  0
   48.6020   18.6382  105.6620 H   0  0  0  0  0
   47.6443   17.3600  106.1374 H   0  0  0  0  0
   49.4673   16.3406  107.3085 H   0  0  0  0  0
   50.5036   17.7238  106.7939 H   0  0  0  0  0
   49.2482   17.9120  104.1602 H   0  0  0  0  0
   50.3008   15.3688  102.9870 H   0  0  0  0  0
   48.3348   17.3791  101.7953 H   0  0  0  0  0
   48.8580   15.8543  101.0388 H   0  0  0  0  0
   47.8907   15.8206  102.5335 H   0  0  0  0  0
   51.8504   15.3750  101.4557 H   0  0  0  0  0
   53.0444   18.0695  100.7227 H   0  0  0  0  0
   55.1321   16.9954  100.5420 H   0  0  0  0  0
   54.3766   15.3840  100.9087 H   0  0  0  0  0
   53.4786   14.9461  103.1620 H   0  0  0  0  0
   55.7437   18.4757  102.2757 H   0  0  0  0  0
   53.7278   15.3822  105.5878 H   0  0  0  0  0
   56.0013   18.9268  104.6941 H   0  0  0  0  0
   54.9894   17.3788  106.3633 H   0  0  0  0  0
   52.7515   18.5957   98.6951 H   0  0  0  0  0
   51.8577   16.4938   96.9032 H   0  0  0  0  0
   50.8943   18.4884   95.5460 H   0  0  0  0  0
   51.6119   19.5728   96.8323 H   0  0  0  0  0
   49.0491   16.9737   96.1425 H   0  0  0  0  0
   50.4598   20.0218   98.8073 H   0  0  0  0  0
   46.9548   16.7884   97.4538 H   0  0  0  0  0
   48.3653   19.8366  100.1321 H   0  0  0  0  0
   46.6082   18.2254   99.4448 H   0  0  0  0  0
   52.0558   16.3475   94.7570 H   0  0  0  0  0
   54.1987   17.8196   93.3295 H   0  0  0  0  0
   54.4243   14.8351   93.4955 H   0  0  0  0  0
   55.3661   15.9449   94.5263 H   0  0  0  0  0
   56.4634   15.4120   92.5542 H   0  0  0  0  0
   54.2046   16.0543   91.0940 H   0  0  0  0  0
   51.4463   15.2198   90.5964 H   0  0  0  0  0
   51.2785   17.6480   90.1892 H   0  0  0  0  0
   52.6541   17.5641   89.0615 H   0  0  0  0  0
   51.1201   16.7554   88.6564 H   0  0  0  0  0
   51.0618   14.1863   88.6200 H   0  0  0  0  0
   53.5565   13.0024   87.5167 H   0  0  0  0  0
   52.0788   11.1679   86.7533 H   0  0  0  0  0
   50.6921   12.0316   87.6317 H   0  0  0  0  0
   51.6089   11.4986   89.7053 H   0  0  0  0  0
   53.1434   10.9779   89.0031 H   0  0  0  0  0
   51.7894    9.2549   87.6819 H   0  0  0  0  0
   50.4336    9.6529   88.8344 H   0  0  0  0  0
   52.0297    8.9010   90.6296 H   0  0  0  0  0
   53.0094    6.1800   87.7916 H   0  0  0  0  0
   52.2780    7.7140   87.3087 H   0  0  0  0  0
   52.9693    6.9274   91.2336 H   0  0  0  0  0
   53.5625   12.4338   85.2364 H   0  0  0  0  0
   53.4817   13.9767   83.2131 H   0  0  0  0  0
   51.7756   14.1902   83.5614 H   0  0  0  0  0
   51.0446   13.2121   81.6401 H   0  0  0  0  0
   51.8357   10.3989   81.1995 H   0  0  0  0  0
   49.0270   11.4212   81.6715 H   0  0  0  0  0
   49.9029   10.0398   82.4861 H   0  0  0  0  0
   47.3104   10.5726   79.7554 H   0  0  0  0  0
   49.0169    6.7344   79.0688 H   0  0  0  0  0
   51.7785    9.7006   79.1217 H   0  0  0  0  0
   50.8872   11.7601   77.1489 H   0  0  0  0  0
   52.5808   10.6648   75.6066 H   0  0  0  0  0
   53.1642    9.7684   77.1075 H   0  0  0  0  0
   53.8727   11.7806   78.0781 H   0  0  0  0  0
   53.1493   12.7469   76.7326 H   0  0  0  0  0
   55.4390   12.7018   76.2628 H   0  0  0  0  0
   54.7329   11.4017   75.2215 H   0  0  0  0  0
   55.6764   10.4141   77.7665 H   0  0  0  0  0
   58.0962   10.3392   74.5109 H   0  0  0  0  0
   56.6587   11.3663   74.5003 H   0  0  0  0  0
   57.5291    9.0986   77.7710 H   0  0  0  0  0
   48.1372    8.3285   75.7546 H   0  0  0  0  0
   46.0740    9.4471   75.7658 H   0  0  0  0  0
   46.5973   10.5740   74.5707 H   0  0  0  0  0
   46.5169   12.0578   76.5266 H   0  0  0  0  0
   46.9170   10.8074   77.6267 H   0  0  0  0  0
   48.7918   12.2847   75.7294 H   0  0  0  0  0
   49.0484   11.9315   77.3810 H   0  0  0  0  0
   47.3392    8.1649   73.3536 H   0  0  0  0  0
  2  1  1  0  0  0
  3  2  1  0  0  0
  3  4  2  0  0  0
  6  5  1  0  0  0
  6  9  1  0  0  0
  7  6  1  0  0  0
  7  8  2  0  0  0
  5  3  1  0  0  0
 11 10  1  0  0  0
 11 14  1  0  0  0
 12 11  1  0  0  0
 12 13  2  0  0  0
 14 15  1  0  0  0
 15 16  4  0  0  0
 15 17  4  0  0  0
 17 19  4  0  0  0
 19 20  4  0  0  0
 18 20  4  0  0  0
 16 18  4  0  0  0
 10  7  1  0  0  0
 22 21  1  0  0  0
 22 25  1  0  0  0
 23 22  1  0  0  0
 23 24  2  0  0  0
 25 26  1  0  0  0
 26 27  4  0  0  0
 26 28  4  0  0  0
 28 30  4  0  0  0
 30 31  4  0  0  0
 29 31  4  0  0  0
 27 29  4  0  0  0
 21 12  1  0  0  0
 33 32  1  0  0  0
 33 36  1  0  0  0
 34 33  1  0  0  0
 34 35  2  0  0  0
 36 37  1  0  0  0
 32 23  1  0  0  0
 39 38  1  0  0  0
 39 42  1  0  0  0
 40 39  1  0  0  0
 40 41  2  0  0  0
 38 34  1  0  0  0
 44 43  1  0  0  0
 44 47  1  0  0  0
 45 44  1  0  0  0
 45 46  2  0  0  0
 47 48  1  0  0  0
 48 49  1  0  0  0
 49 50  1  0  0  0
 50 51  1  0  0  0
 51 53  2  0  0  0
 51 52  1  0  0  0
 43 40  1  0  0  0
 55 54  1  0  0  0
 56 55  1  0  0  0
 56 57  2  0  0  0
 54 45  1  0  0  0
 59 58  1  0  0  0
 59 62  1  0  0  0
 60 59  1  0  0  0
 60 61  2  0  0  0
 62 63  1  0  0  0
 63 64  4  0  0  0
 63 65  4  0  0  0
 65 67  4  0  0  0
 67 66  4  0  0  0
 64 66  4  0  0  0
 58 56  1  0  0  0
 69 68  1  0  0  0
 69 72  1  0  0  0
 70 69  1  0  0  0
 70 71  2  0  0  0
 72 73  1  0  0  0
 73 74  1  0  0  0
 74 75  1  0  0  0
 75 76  1  0  0  0
 76 78  2  0  0  0
 76 77  1  0  0  0
 68 60  1  0  0  0
 80 81  1  0  0  0
 80 83  1  0  0  0
 79 80  1  0  0  0
 79 85  1  0  0  0
 85 84  1  0  0  0
 84 83  1  0  0  0
 81 82  2  0  0  0
 70 79  1  0  0  0
 81 86  1  0  0  0
  1 87  1  0  0  0
  1 88  1  0  0  0
  1 89  1  0  0  0
  2 90  1  0  0  0
  2 91  1  0  0  0
  5 92  1  0  0  0
  6 93  1  0  0  0
  9 94  1  0  0  0
  9 95  1  0  0  0
  9 96  1  0  0  0
 10 97  1  0  0  0
 11 98  1  0  0  0
 14 99  1  0  0  0
 14100  1  0  0  0
 16101  1  0  0  0
 17102  1  0  0  0
 18103  1  0  0  0
 19104  1  0  0  0
 20105  1  0  0  0
 21106  1  0  0  0
 22107  1  0  0  0
 25108  1  0  0  0
 25109  1  0  0  0
 27110  1  0  0  0
 28111  1  0  0  0
 29112  1  0  0  0
 30113  1  0  0  0
 31114  1  0  0  0
 32115  1  0  0  0
 33116  1  0  0  0
 36117  1  0  0  0
 36118  1  0  0  0
 37119  1  0  0  0
 38120  1  0  0  0
 39121  1  0  0  0
 42122  1  0  0  0
 42123  1  0  0  0
 42124  1  0  0  0
 43125  1  0  0  0
 44126  1  0  0  0
 47127  1  0  0  0
 47128  1  0  0  0
 48129  1  0  0  0
 48130  1  0  0  0
 49131  1  0  0  0
 49132  1  0  0  0
 50133  1  0  0  0
 52134  1  0  0  0
 52135  1  0  0  0
 53136  1  0  0  0
 54137  1  0  0  0
 55138  1  0  0  0
 55139  1  0  0  0
 58140  1  0  0  0
 59141  1  0  0  0
 62142  1  0  0  0
 62143  1  0  0  0
 65144  1  0  0  0
 66145  1  0  0  0
 68146  1  0  0  0
 69147  1  0  0  0
 72148  1  0  0  0
 72149  1  0  0  0
 73150  1  0  0  0
 73151  1  0  0  0
 74152  1  0  0  0
 74153  1  0  0  0
 75154  1  0  0  0
 77155  1  0  0  0
 77156  1  0  0  0
 78157  1  0  0  0
 80158  1  0  0  0
 83159  1  0  0  0
 83160  1  0  0  0
 84161  1  0  0  0
 84162  1  0  0  0
 85163  1  0  0  0
 85164  1  0  0  0
 86165  1  0  0  0
M  END
$$$$
