### 
### Created by X-TOOL on Mon Sep 10 21:12:50 2018
### 

@<TRIPOS>MOLECULE
1r17_ligand
  168   171     1     0     0
SMALL
GAST_HUCK


@<TRIPOS>ATOM
      1 N          48.4420   17.9430  106.3910 N.4       1 GLY         0.2357
      2 CA         49.6600   17.0840  106.5350 C.3       1 GLY         0.0545
      3 C          49.9880   16.3580  105.2440 C.2       1 GLY         0.2236
      4 O          50.5100   15.2410  105.2580 O.2       1 GLY        -0.3910
      5 N          49.6800   16.9890  104.1160 N.am      1 PHE        -0.2615
      6 CA         49.9480   16.3860  102.8170 C.3       1 PHE         0.1283
      7 C          51.0420   17.1380  102.0580 C.2       1 PHE         0.2037
      8 O          51.0850   18.3690  102.0680 O.2       1 PHE        -0.3944
      9 CB         48.6650   16.3580  101.9860 C.3       1 PHE        -0.0244
     10 N          51.9250   16.3910  101.4040 N.am      1 PHE        -0.2619
     11 CA         53.0010   16.9860  100.6120 C.3       1 PHE         0.1404
     12 C          52.7110   16.6270   99.1530 C.2       1 PHE         0.2061
     13 O          52.6040   15.4560   98.7970 O.2       1 PHE        -0.3942
     14 CB         54.3560   16.4590  101.0880 C.3       1 PHE         0.0214
     15 CG         54.5890   16.6840  102.5570 C.ar      1 PHE        -0.0386
     16 CD1        54.0320   15.8230  103.4980 C.ar      1 PHE        -0.0601
     17 CD2        55.2980   17.7960  103.0020 C.ar      1 PHE        -0.0601
     18 CE1        54.1710   16.0650  104.8630 C.ar      1 PHE        -0.0686
     19 CE2        55.4450   18.0510  104.3600 C.ar      1 PHE        -0.0686
     20 CZ         54.8780   17.1820  105.2970 C.ar      1 PHE        -0.0687
     21 N          52.5780   17.6600   98.3280 N.am      1 PHE        -0.2618
     22 CA         52.1980   17.5290   96.9280 C.3       1 PHE         0.1404
     23 C          53.2460   17.5830   95.8240 C.2       1 PHE         0.2060
     24 O          54.2780   18.2420   95.9440 O.2       1 PHE        -0.3942
     25 CB         51.1610   18.6090   96.5960 C.3       1 PHE         0.0214
     26 CG         49.8950   18.5050   97.3900 C.ar      1 PHE        -0.0386
     27 CD1        48.9030   17.6050   97.0190 C.ar      1 PHE        -0.0601
     28 CD2        49.6920   19.3080   98.5090 C.ar      1 PHE        -0.0601
     29 CE1        47.7240   17.5000   97.7540 C.ar      1 PHE        -0.0686
     30 CE2        48.5130   19.2080   99.2540 C.ar      1 PHE        -0.0686
     31 CZ         47.5310   18.3040   98.8700 C.ar      1 PHE        -0.0687
     32 N          52.9180   16.8920   94.7340 N.am      1 SER        -0.2614
     33 CA         53.7100   16.8620   93.5090 C.3       1 SER         0.1539
     34 C          52.7090   16.4900   92.4110 C.2       1 SER         0.2062
     35 O          51.4950   16.5560   92.6290 O.2       1 SER        -0.3943
     36 CB         54.8410   15.8390   93.5770 C.3       1 SER         0.0843
     37 OG         55.7550   16.0580   92.5060 O.3       1 SER        -0.3903
     38 N          53.1960   16.1050   91.2370 N.am      1 ALA        -0.2639
     39 CA         52.2860   15.7550   90.1530 C.3       1 ALA         0.1282
     40 C          52.9170   14.8190   89.1310 C.2       1 ALA         0.2036
     41 O          54.1410   14.7720   88.9780 O.2       1 ALA        -0.3944
     42 CB         51.8000   17.0210   89.4660 C.3       1 ALA        -0.0244
     43 N          52.0590   14.0830   88.4320 N.am      1 ARG        -0.2637
     44 CA         52.4800   13.1360   87.4100 C.3       1 ARG         0.1311
     45 C          52.1460   13.6630   86.0160 C.2       1 ARG         0.2037
     46 O          51.2740   14.5210   85.8510 O.2       1 ARG        -0.3944
     47 CB         51.7550   11.7950   87.5840 C.3       1 ARG        -0.0092
     48 CG         52.0660   11.0150   88.8420 C.3       1 ARG        -0.0156
     49 CD         51.5110    9.6020   88.6770 C.3       1 ARG         0.0627
     50 NE         52.0510    8.6470   89.6420 N.pl3     1 ARG        -0.2723
     51 CZ         52.5690    7.4660   89.3120 C.cat     1 ARG         0.2882
     52 NH1        52.6230    7.0910   88.0390 N.pl3     1 ARG        -0.2849
     53 NH2        53.0190    6.6510   90.2530 N.pl3     1 ARG        -0.2849
     54 N          52.8420   13.1230   85.0210 N.am      1 GLY        -0.2664
     55 CA         52.6050   13.4870   83.6370 C.3       1 GLY         0.1201
     56 C          52.2910   12.2060   82.8840 C.2       1 GLY         0.2009
     57 O          52.8060   11.1410   83.2340 O.2       1 GLY        -0.3947
     58 N          51.4390   12.3000   81.8700 N.am      1 HIS        -0.2621
     59 CA         51.0490   11.1430   81.0750 C.3       1 HIS         0.1421
     60 C          50.9250   11.4840   79.6040 C.2       1 HIS         0.2060
     61 O          50.4140   12.5470   79.2380 O.2       1 HIS        -0.3942
     62 CB         49.7110   10.5800   81.5590 C.3       1 HIS         0.0427
     63 CG         49.0780    9.6160   80.6050 C.2       1 HIS         0.0561
     64 ND1        49.6080    8.3600   80.3570 N.pl3     1 HIS        -0.2623
     65 CD2        47.9800    9.7150   79.8210 C.2       1 HIS        -0.0276
     66 CE1        48.8500    7.7380   79.4600 C.2       1 HIS         0.0875
     67 NE2        47.8630    8.5420   79.1250 N.2       1 HIS        -0.3437
     68 N          51.3780   10.5640   78.7550 N.am      1 ARG        -0.2636
     69 CA         51.3130   10.7670   77.2920 C.3       1 ARG         0.1313
     70 C          50.4040    9.7620   76.5700 C.2       1 ARG         0.2065
     71 O          50.7700    8.6080   76.4070 O.2       1 ARG        -0.3942
     72 CB         52.7090   10.6660   76.6890 C.3       1 ARG        -0.0092
     73 CG         53.6440   11.8170   77.0130 C.3       1 ARG        -0.0156
     74 CD         54.9600   11.7230   76.2380 C.3       1 ARG         0.0627
     75 NE         55.8770   10.7540   76.8260 N.pl3     1 ARG        -0.2723
     76 CZ         56.9600   10.2860   76.2100 C.cat     1 ARG         0.2882
     77 NH1        57.2620   10.6960   74.9770 N.pl3     1 ARG        -0.2849
     78 NH2        57.7520    9.4110   76.8260 N.pl3     1 ARG        -0.2849
     79 N          49.2140   10.2120   76.1040 N.am      1 PRO        -0.2485
     80 CA         48.2550    9.3460   75.3820 C.3       1 PRO         0.1448
     81 C          48.7810    9.2370   73.9110 C.2       1 PRO         0.2573
     82 O          49.8370    9.8310   73.6790 O.2       1 PRO        -0.3680
     83 CB         46.8980   10.1140   75.5120 C.3       1 PRO        -0.0090
     84 CG         47.1560   11.1810   76.6310 C.3       1 PRO        -0.0280
     85 CD         48.6130   11.5100   76.4750 C.3       1 PRO         0.0371
     86 O1         48.1327    8.5501   72.9746 O.3       1 PRO        -0.2910
     87 H1         48.2542   18.4088  107.2649 H         1 GLY         0.2012
     88 H2         47.6530   17.3679  106.1404 H         1 GLY         0.2012
     89 H3         48.5989   18.6305  105.6708 H         1 GLY         0.2012
     90 H4         49.4814   16.3413  107.3265 H         1 GLY         0.1061
     91 H5         50.5137   17.7191  106.8140 H         1 GLY         0.1061
     92 H6         49.2567   17.8939  104.1594 H         1 PHE         0.1884
     93 H7         50.2871   15.3521  102.9783 H         1 PHE         0.0797
     94 H8         48.8724   15.9021  101.0067 H         1 PHE         0.0277
     95 H9         48.2989   17.3852  101.8420 H         1 PHE         0.0277
     96 H10        47.9007   15.7665  102.5113 H         1 PHE         0.0277
     97 H11        51.8519   15.3950  101.4547 H         1 PHE         0.1885
     98 H12        52.9892   18.0798  100.7274 H         1 PHE         0.0823
     99 H13        55.1495   16.9715  100.5244 H         1 PHE         0.0474
    100 H14        54.4026   15.3786  100.8868 H         1 PHE         0.0474
    101 H15        53.4817   14.9509  103.1638 H         1 PHE         0.0557
    102 H16        55.7413   18.4719  102.2797 H         1 PHE         0.0557
    103 H17        53.7302   15.3859  105.5838 H         1 PHE         0.0599
    104 H18        55.9982   18.9220  104.6922 H         1 PHE         0.0599
    105 H19        54.9888   17.3777  106.3574 H         1 PHE         0.0559
    106 H20        52.7481   18.5774   98.6879 H         1 PHE         0.1885
    107 H21        51.7165   16.5437   96.8424 H         1 PHE         0.0823
    108 H22        50.9072   18.5280   95.5288 H         1 PHE         0.0474
    109 H23        51.6119   19.5930   96.7920 H         1 PHE         0.0474
    110 H24        49.0483   16.9772   96.1473 H         1 PHE         0.0557
    111 H25        50.4556   20.0179   98.8057 H         1 PHE         0.0557
    112 H26        46.9590   16.7924   97.4555 H         1 PHE         0.0599
    113 H27        48.3661   19.8332  100.1273 H         1 PHE         0.0599
    114 H28        46.6133   18.2259   99.4417 H         1 PHE         0.0559
    115 H29        52.0727   16.3582   94.7565 H         1 SER         0.1884
    116 H30        54.1405   17.8553   93.3139 H         1 SER         0.0823
    117 H31        54.4217   14.8252   93.4976 H         1 SER         0.0606
    118 H32        55.3702   15.9429   94.5357 H         1 SER         0.0606
    119 H33        56.4561   15.4186   92.5537 H         1 SER         0.2097
    120 H34        54.1849   16.0553   91.0968 H         1 ALA         0.1883
    121 H35        51.4184   15.2404   90.5917 H         1 ALA         0.0797
    122 H36        51.1137   16.7543   88.6487 H         1 ALA         0.0277
    123 H37        52.6611   17.5701   89.0573 H         1 ALA         0.0277
    124 H38        51.2734   17.6547   90.1948 H         1 ALA         0.0277
    125 H39        51.0814   14.1843   88.6163 H         1 ARG         0.1883
    126 H40        53.5657   12.9805   87.4936 H         1 ARG         0.0800
    127 H41        52.0166   11.1602   86.7246 H         1 ARG         0.0313
    128 H42        50.6737   11.9966   87.5752 H         1 ARG         0.0313
    129 H43        51.5938   11.5016   89.7081 H         1 ARG         0.0301
    130 H44        53.1546   10.9720   88.9939 H         1 ARG         0.0301
    131 H45        51.7542    9.2485   87.6641 H         1 ARG         0.0689
    132 H46        50.4185    9.6406   88.7995 H         1 ARG         0.0689
    133 H47        52.0295    8.9035   90.6393 H         1 ARG         0.2642
    134 H48        53.0246    6.1763   87.7882 H         1 ARG         0.2615
    135 H49        52.2632    7.7149   87.3026 H         1 ARG         0.2615
    136 H50        52.9802    6.9353   91.2422 H         1 ARG         0.2615
    137 H51        53.4079    5.7325   89.9960 H         1 ARG         0.2615
    138 H52        53.5483   12.4473   85.2321 H         1 GLY         0.1881
    139 H53        53.5016   13.9631   83.2135 H         1 GLY         0.0763
    140 H54        51.7547   14.1816   83.5701 H         1 GLY         0.0763
    141 H55        51.0523   13.1942   81.6446 H         1 HIS         0.1885
    142 H56        51.8227   10.3699   81.1918 H         1 HIS         0.0824
    143 H57        49.0176   11.4197   81.7139 H         1 HIS         0.0491
    144 H58        49.8786   10.0618   82.5147 H         1 HIS         0.0491
    145 H59        50.4539    7.9708   80.7973 H         1 HIS         0.2386
    146 H60        47.3110   10.5718   79.7555 H         1 HIS         0.0324
    147 H61        49.0167    6.7353   79.0692 H         1 HIS         0.1149
    148 H62        51.7706    9.7175   79.1145 H         1 ARG         0.1883
    149 H63        50.9188   11.7777   77.1099 H         1 ARG         0.0800
    150 H64        52.6031   10.6126   75.5954 H         1 ARG         0.0313
    151 H65        53.1717    9.7389   77.0583 H         1 ARG         0.0313
    152 H66        53.8648   11.8025   78.0905 H         1 ARG         0.0301
    153 H67        53.1460   12.7628   76.7534 H         1 ARG         0.0301
    154 H68        55.4421   12.7117   76.2371 H         1 ARG         0.0689
    155 H69        54.7410   11.4209   75.2032 H         1 ARG         0.0689
    156 H70        55.6744   10.4108   77.7758 H         1 ARG         0.2642
    157 H71        58.1011   10.3312   74.5040 H         1 ARG         0.2615
    158 H72        56.6561   11.3774   74.4980 H         1 ARG         0.2615
    159 H73        57.5237    9.0910   77.7780 H         1 ARG         0.2615
    160 H74        58.5931    9.0540   76.3506 H         1 ARG         0.2615
    161 H75        48.1788    8.3450   75.8316 H         1 PRO         0.0818
    162 H76        46.0901    9.4285   75.8075 H         1 PRO         0.0314
    163 H77        46.6353   10.6026   74.5622 H         1 PRO         0.0314
    164 H78        46.5327   12.0736   76.4739 H         1 PRO         0.0287
    165 H79        46.9523   10.7622   77.6276 H         1 PRO         0.0287
    166 H80        48.7661   12.2567   75.6819 H         1 PRO         0.0524
    167 H81        49.0359   11.8853   77.4186 H         1 PRO         0.0524
    168 H82        48.6948    7.8591   72.6441 H         1 PRO         0.2540
@<TRIPOS>BOND
     1    2    1 1  
     2    3    2 1  
     3    3    4 2  
     4    6    5 1  
     5    6    9 1  
     6    7    6 1  
     7    7    8 2  
     8    5    3 am 
     9   11   10 1  
    10   11   14 1  
    11   12   11 1  
    12   12   13 2  
    13   14   15 1  
    14   15   16 ar 
    15   15   17 ar 
    16   17   19 ar 
    17   19   20 ar 
    18   18   20 ar 
    19   16   18 ar 
    20   10    7 am 
    21   22   21 1  
    22   22   25 1  
    23   23   22 1  
    24   23   24 2  
    25   25   26 1  
    26   26   27 ar 
    27   26   28 ar 
    28   28   30 ar 
    29   30   31 ar 
    30   29   31 ar 
    31   27   29 ar 
    32   21   12 am 
    33   33   32 1  
    34   33   36 1  
    35   34   33 1  
    36   34   35 2  
    37   36   37 1  
    38   32   23 am 
    39   39   38 1  
    40   39   42 1  
    41   40   39 1  
    42   40   41 2  
    43   38   34 am 
    44   44   43 1  
    45   44   47 1  
    46   45   44 1  
    47   45   46 2  
    48   47   48 1  
    49   48   49 1  
    50   49   50 1  
    51   50   51 ar 
    52   51   53 ar 
    53   51   52 ar 
    54   43   40 am 
    55   55   54 1  
    56   56   55 1  
    57   56   57 2  
    58   54   45 am 
    59   59   58 1  
    60   59   62 1  
    61   60   59 1  
    62   60   61 2  
    63   62   63 1  
    64   63   64 1  
    65   63   65 2  
    66   65   67 1  
    67   67   66 2  
    68   64   66 1  
    69   58   56 am 
    70   69   68 1  
    71   69   72 1  
    72   70   69 1  
    73   70   71 2  
    74   72   73 1  
    75   73   74 1  
    76   74   75 1  
    77   75   76 ar 
    78   76   78 ar 
    79   76   77 ar 
    80   68   60 am 
    81   80   81 1  
    82   80   83 1  
    83   79   80 1  
    84   79   85 1  
    85   85   84 1  
    86   84   83 1  
    87   81   82 2  
    88   70   79 am 
    89   81   86 1  
    90    1   87 1  
    91    1   88 1  
    92    1   89 1  
    93    2   90 1  
    94    2   91 1  
    95    5   92 1  
    96    6   93 1  
    97    9   94 1  
    98    9   95 1  
    99    9   96 1  
   100   10   97 1  
   101   11   98 1  
   102   14   99 1  
   103   14  100 1  
   104   16  101 1  
   105   17  102 1  
   106   18  103 1  
   107   19  104 1  
   108   20  105 1  
   109   21  106 1  
   110   22  107 1  
   111   25  108 1  
   112   25  109 1  
   113   27  110 1  
   114   28  111 1  
   115   29  112 1  
   116   30  113 1  
   117   31  114 1  
   118   32  115 1  
   119   33  116 1  
   120   36  117 1  
   121   36  118 1  
   122   37  119 1  
   123   38  120 1  
   124   39  121 1  
   125   42  122 1  
   126   42  123 1  
   127   42  124 1  
   128   43  125 1  
   129   44  126 1  
   130   47  127 1  
   131   47  128 1  
   132   48  129 1  
   133   48  130 1  
   134   49  131 1  
   135   49  132 1  
   136   50  133 1  
   137   52  134 1  
   138   52  135 1  
   139   53  136 1  
   140   53  137 1  
   141   54  138 1  
   142   55  139 1  
   143   55  140 1  
   144   58  141 1  
   145   59  142 1  
   146   62  143 1  
   147   62  144 1  
   148   64  145 1  
   149   65  146 1  
   150   66  147 1  
   151   68  148 1  
   152   69  149 1  
   153   72  150 1  
   154   72  151 1  
   155   73  152 1  
   156   73  153 1  
   157   74  154 1  
   158   74  155 1  
   159   75  156 1  
   160   77  157 1  
   161   77  158 1  
   162   78  159 1  
   163   78  160 1  
   164   80  161 1  
   165   83  162 1  
   166   83  163 1  
   167   84  164 1  
   168   84  165 1  
   169   85  166 1  
   170   85  167 1  
   171   86  168 1  
@<TRIPOS>SUBSTRUCTURE
     1 GLY         1

