5nze_ligand
  -I-interpret- 

 45 45  0  0  0  0  0  0  0  0999 V2000
  -29.0250  -55.9070   24.2010 C   0  0  0  0  0
  -27.7680  -55.9680   24.4190 O   0  0  0  0  0
  -29.8990  -56.2950   25.0040 O   0  0  0  0  0
  -29.4660  -55.2550   22.9700 C   0  0  0  0  0
  -30.9380  -55.0590   22.6930 C   0  0  0  0  0
  -31.1850  -53.8870   21.6910 C   0  0  0  0  0
  -30.2310  -53.9690   20.4840 C   0  0  0  0  0
  -30.5220  -52.8770   19.5500 N   0  0  0  0  0
  -31.0330  -53.0090   18.3180 C   0  0  0  0  0
  -31.1620  -54.0960   17.7770 O   0  0  0  0  0
  -31.3290  -51.7490   17.5630 C   0  0  0  0  0
  -28.8090  -53.8110   21.0010 C   0  0  0  0  0
  -28.5060  -54.7320   22.1570 C   0  0  0  0  0
  -27.8390  -54.0090   19.9630 O   0  0  0  0  0
  -27.2750  -52.7440   19.5200 C   0  0  0  0  0
  -26.3870  -52.0580   20.5860 C   0  0  0  0  0
  -26.5080  -53.0120   18.2470 C   0  0  0  0  0
  -27.4460  -53.4410   17.1590 C   0  0  0  0  0
  -25.2180  -52.9010   21.0060 C   0  0  0  0  0
  -32.5970  -53.8790   21.2880 N   0  3  0  0  0
  -27.2956  -55.6129   23.6625 H   0  0  0  0  0
  -31.4356  -54.8187   23.6325 H   0  0  0  0  0
  -31.3301  -55.9759   22.2530 H   0  0  0  0  0
  -30.9665  -52.9401   22.1847 H   0  0  0  0  0
  -30.3547  -54.9223   19.9701 H   0  0  0  0  0
  -30.3166  -51.9295   19.8670 H   0  0  0  0  0
  -30.6760  -51.6866   16.6925 H   0  0  0  0  0
  -32.3695  -51.7574   17.2384 H   0  0  0  0  0
  -31.1561  -50.8896   18.2108 H   0  0  0  0  0
  -28.7395  -52.7839   21.3593 H   0  0  0  0  0
  -27.4656  -54.9923   22.3517 H   0  0  0  0  0
  -28.0862  -52.0376   19.3441 H   0  0  0  0  0
  -27.0030  -51.8814   21.4677 H   0  0  0  0  0
  -25.9944  -51.1394   20.1500 H   0  0  0  0  0
  -25.7832  -53.8059   18.4272 H   0  0  0  0  0
  -25.9973  -52.0996   17.9390 H   0  0  0  0  0
  -27.9621  -54.3513   17.4640 H   0  0  0  0  0
  -28.1754  -52.6516   16.9777 H   0  0  0  0  0
  -26.8800  -53.6309   16.2470 H   0  0  0  0  0
  -25.5806  -53.8378   21.4291 H   0  0  0  0  0
  -24.5926  -53.1108   20.1383 H   0  0  0  0  0
  -24.6350  -52.3644   21.7545 H   0  0  0  0  0
  -33.1862  -53.8239   22.1188 H   0  0  0  0  0
  -32.7741  -53.0719   20.6900 H   0  0  0  0  0
  -32.8081  -54.7357   20.7762 H   0  0  0  0  0
  1  2  1  0  0  0
  1  3  2  0  0  0
  1  4  1  0  0  0
  4  5  1  0  0  0
  4 13  2  0  0  0
  5  6  1  0  0  0
  6  7  1  0  0  0
  6 20  1  0  0  0
  7  8  1  0  0  0
  7 12  1  0  0  0
  8  9  1  0  0  0
  9 10  2  0  0  0
  9 11  1  0  0  0
 12 13  1  0  0  0
 12 14  1  0  0  0
 14 15  1  0  0  0
 15 16  1  0  0  0
 15 17  1  0  0  0
 16 19  1  0  0  0
 17 18  1  0  0  0
  2 21  1  0  0  0
  5 22  1  0  0  0
  5 23  1  0  0  0
  6 24  1  0  0  0
  7 25  1  0  0  0
  8 26  1  0  0  0
 11 27  1  0  0  0
 11 28  1  0  0  0
 11 29  1  0  0  0
 12 30  1  0  0  0
 13 31  1  0  0  0
 15 32  1  0  0  0
 16 33  1  0  0  0
 16 34  1  0  0  0
 17 35  1  0  0  0
 17 36  1  0  0  0
 18 37  1  0  0  0
 18 38  1  0  0  0
 18 39  1  0  0  0
 19 40  1  0  0  0
 19 41  1  0  0  0
 19 42  1  0  0  0
 20 43  1  0  0  0
 20 44  1  0  0  0
 20 45  1  0  0  0
M  END
$$$$
