4o9s_ligand
  -I-interpret- 

 52 56  0  0  0  0  0  0  0  0999 V2000
  -65.4350    3.3000   -2.2540 F   0  0  0  0  0
  -66.1050    4.0220   -1.3740 C   0  0  0  0  0
  -67.2440    4.4050   -1.9210 F   0  0  0  0  0
  -65.4080    5.1010   -1.0680 F   0  0  0  0  0
  -66.3520    3.2060   -0.1280 C   0  0  0  0  0
  -67.6660    3.0400    0.3260 C   0  0  0  0  0
  -67.9360    2.2970    1.4710 C   0  0  0  0  0
  -66.8950    1.7100    2.1780 C   0  0  0  0  0
  -65.5860    1.8700    1.7350 C   0  0  0  0  0
  -65.3040    2.6120    0.5870 C   0  0  0  0  0
  -63.8430    2.7270    0.1840 C   0  0  0  0  0
  -63.3460    1.4380   -0.4470 C   0  0  0  0  0
  -64.1200    0.5010   -0.5630 O   0  0  0  0  0
  -62.0700    1.3590   -0.8650 N   0  0  0  0  0
  -61.5780    0.1000   -1.4540 C   0  0  0  0  0
  -60.5700    0.3430   -2.5760 C   0  0  0  0  0
  -61.1200    2.4740   -0.7170 C   0  0  0  0  0
  -60.2540    2.5810   -1.9660 C   0  0  0  0  0
  -59.5520    1.2990   -2.1150 N   0  0  0  0  0
  -58.4410    1.3870   -2.9860 C   0  0  0  0  0
  -57.2600    1.9850   -2.5480 C   0  0  0  0  0
  -58.4850    0.8810   -4.2460 N   0  0  0  0  0
  -57.4260    0.9550   -5.0700 C   0  0  0  0  0
  -56.2790    1.5310   -4.6770 N   0  0  0  0  0
  -56.1670    2.0510   -3.4290 C   0  0  0  0  0
  -54.7210    2.7830   -2.9140 S   0  0  0  0  0
  -55.5150    3.0690   -1.4040 C   0  0  0  0  0
  -56.8740    2.5910   -1.3480 C   0  0  0  0  0
  -55.0000    3.7320   -0.1720 C   0  0  0  0  0
  -56.2640    3.6150    0.7210 C   0  0  0  0  0
  -57.4440    2.8970    0.0070 C   0  0  0  0  0
  -68.4876    3.4985   -0.2243 H   0  0  0  0  0
  -68.9639    2.1758    1.8127 H   0  0  0  0  0
  -67.1024    1.1270    3.0753 H   0  0  0  0  0
  -64.7698    1.4098    2.2918 H   0  0  0  0  0
  -63.2503    2.9295    1.0761 H   0  0  0  0  0
  -63.7447    3.5321   -0.5442 H   0  0  0  0  0
  -62.4305   -0.4340   -1.8738 H   0  0  0  0  0
  -61.0810   -0.4701   -0.6691 H   0  0  0  0  0
  -61.0841    0.7488   -3.4473 H   0  0  0  0  0
  -60.0912   -0.5980   -2.8469 H   0  0  0  0  0
  -60.4835    2.2935    0.1493 H   0  0  0  0  0
  -61.6727    3.4035   -0.5802 H   0  0  0  0  0
  -59.5422    3.4011   -1.8720 H   0  0  0  0  0
  -60.8671    2.7885   -2.8430 H   0  0  0  0  0
  -57.4997    0.5400   -6.0752 H   0  0  0  0  0
  -54.6355    4.7488   -0.3180 H   0  0  0  0  0
  -54.1002    3.2821    0.2476 H   0  0  0  0  0
  -56.5903    4.6246    0.9705 H   0  0  0  0  0
  -55.9982    3.0265    1.5992 H   0  0  0  0  0
  -57.7824    2.0064    0.5366 H   0  0  0  0  0
  -58.3465    3.5064   -0.0395 H   0  0  0  0  0
  1  2  1  0  0  0
  2  3  1  0  0  0
  2  4  1  0  0  0
  2  5  1  0  0  0
  5  6  4  0  0  0
  5 10  4  0  0  0
  6  7  4  0  0  0
  7  8  4  0  0  0
  8  9  4  0  0  0
  9 10  4  0  0  0
 10 11  1  0  0  0
 11 12  1  0  0  0
 12 13  2  0  0  0
 12 14  1  0  0  0
 14 15  1  0  0  0
 14 17  1  0  0  0
 15 16  1  0  0  0
 16 19  1  0  0  0
 17 18  1  0  0  0
 18 19  1  0  0  0
 19 20  1  0  0  0
 20 21  4  0  0  0
 20 22  4  0  0  0
 21 25  4  0  0  0
 21 28  4  0  0  0
 22 23  4  0  0  0
 23 24  4  0  0  0
 24 25  4  0  0  0
 25 26  4  0  0  0
 26 27  4  0  0  0
 27 28  4  0  0  0
 27 29  1  0  0  0
 28 31  1  0  0  0
 29 30  1  0  0  0
 30 31  1  0  0  0
  6 32  1  0  0  0
  7 33  1  0  0  0
  8 34  1  0  0  0
  9 35  1  0  0  0
 11 36  1  0  0  0
 11 37  1  0  0  0
 15 38  1  0  0  0
 15 39  1  0  0  0
 16 40  1  0  0  0
 16 41  1  0  0  0
 17 42  1  0  0  0
 17 43  1  0  0  0
 18 44  1  0  0  0
 18 45  1  0  0  0
 23 46  1  0  0  0
 29 47  1  0  0  0
 29 48  1  0  0  0
 30 49  1  0  0  0
 30 50  1  0  0  0
 31 51  1  0  0  0
 31 52  1  0  0  0
M  END
$$$$
