1j17_ligand
  -I-interpret- 

 61 65  0  0  0  0  0  0  0  0999 V2000
   18.5550   50.7460   60.2510 N   0  0  0  0  0
   18.3350   50.7600   61.5890 C   0  0  0  0  0
   17.1270   50.2600   62.1090 C   0  0  0  0  0
   16.4120   49.7340   59.8510 C   0  0  0  0  0
   17.6340   50.2500   59.3870 C   0  0  0  0  0
   16.1530   49.7430   61.2260 C   0  0  0  0  0
   14.9290   49.2200   61.7440 N   0  0  0  0  0
   14.5110   49.5150   63.1380 C   0  0  0  0  0
   13.1890   50.3120   63.1290 C   0  0  0  0  0
   12.5410   49.2560   60.9340 C   0  0  0  0  0
   13.9240   48.5390   60.8740 C   0  0  0  0  0
   12.0790   49.4920   62.4130 C   0  0  0  0  0
   10.7440   50.2250   62.4430 C   0  0  0  0  0
   10.8350   51.4570   62.5380 O   0  0  0  0  0
    9.5510   49.6290   62.3760 N   0  0  0  0  0
    9.3600   48.1550   62.2660 C   0  0  0  0  0
    8.4700   47.8600   61.0290 C   0  0  0  0  0
    7.5060   50.1330   61.1170 C   0  0  0  0  0
    8.3110   50.4480   62.4030 C   0  0  0  0  0
    7.2310   48.6760   61.0880 N   0  0  0  0  0
    6.1600   48.2550   59.9220 S   0  0  0  0  0
    4.9890   49.1080   60.0410 O   0  0  0  0  0
    5.9200   46.8530   60.0990 O   0  0  0  0  0
    6.8680   48.4890   58.2970 C   0  0  0  0  0
    6.8400   49.7590   57.6620 C   0  0  0  0  0
    7.4910   47.4070   57.6470 C   0  0  0  0  0
    8.0580   47.5740   56.3770 C   0  0  0  0  0
    7.4140   49.9340   56.3820 C   0  0  0  0  0
    8.0160   48.8260   55.7420 C   0  0  0  0  0
    8.5800   48.9810   54.4930 C   0  0  0  0  0
    7.9500   51.3360   54.4560 C   0  0  0  0  0
    7.3800   51.1910   55.7290 C   0  0  0  0  0
    8.5570   50.2170   53.8420 C   0  0  0  0  0
    9.3320   50.3470   52.2770 Cl  0  0  0  0  0
   19.0942   51.1587   62.2619 H   0  0  0  0  0
   16.9443   50.2715   63.1835 H   0  0  0  0  0
   15.6783   49.3335   59.1515 H   0  0  0  0  0
   17.8449   50.2518   58.3176 H   0  0  0  0  0
   15.2846   50.1051   63.6293 H   0  0  0  0  0
   14.3640   48.5787   63.6763 H   0  0  0  0  0
   13.3402   51.2516   62.5975 H   0  0  0  0  0
   12.8826   50.5101   64.1561 H   0  0  0  0  0
   12.6330   50.2246   60.4426 H   0  0  0  0  0
   11.8033   48.6246   60.4388 H   0  0  0  0  0
   13.7986   47.5151   61.2260 H   0  0  0  0  0
   14.2829   48.5646   59.8451 H   0  0  0  0  0
   11.9324   48.5416   62.9263 H   0  0  0  0  0
    8.8789   47.7755   63.1675 H   0  0  0  0  0
   10.3264   47.6637   62.1527 H   0  0  0  0  0
    8.2032   46.8032   61.0233 H   0  0  0  0  0
    9.0214   48.1106   60.1228 H   0  0  0  0  0
    6.5698   50.6912   61.1147 H   0  0  0  0  0
    8.0780   50.4241   60.2360 H   0  0  0  0  0
    8.5592   51.5086   62.4433 H   0  0  0  0  0
    7.7197   50.2096   63.2871 H   0  0  0  0  0
    6.3724   50.6052   58.1654 H   0  0  0  0  0
    7.5325   46.4332   58.1349 H   0  0  0  0  0
    8.5337   46.7288   55.8796 H   0  0  0  0  0
    9.0506   48.1266   54.0066 H   0  0  0  0  0
    7.9253   52.2993   53.9466 H   0  0  0  0  0
    6.9106   52.0456   56.2163 H   0  0  0  0  0
  1  5  4  0  0  0
  1  2  4  0  0  0
  2  3  4  0  0  0
  3  6  4  0  0  0
  6  4  4  0  0  0
  6  7  1  0  0  0
  7 11  1  0  0  0
  7  8  1  0  0  0
  8  9  1  0  0  0
  9 12  1  0  0  0
 12 10  1  0  0  0
 12 13  1  0  0  0
 13 15  1  0  0  0
 13 14  2  0  0  0
 15 19  1  0  0  0
 15 16  1  0  0  0
 16 17  1  0  0  0
 17 20  1  0  0  0
 20 18  1  0  0  0
 20 21  1  0  0  0
 21 24  1  0  0  0
 21 23  2  0  0  0
 21 22  2  0  0  0
 24 26  4  0  0  0
 24 25  4  0  0  0
 25 28  4  0  0  0
 28 32  4  0  0  0
 28 29  4  0  0  0
 29 30  4  0  0  0
 29 27  4  0  0  0
 27 26  4  0  0  0
 30 33  4  0  0  0
 33 31  4  0  0  0
 31 32  4  0  0  0
 18 19  1  0  0  0
 10 11  1  0  0  0
  4  5  4  0  0  0
 33 34  1  0  0  0
  2 35  1  0  0  0
  3 36  1  0  0  0
  4 37  1  0  0  0
  5 38  1  0  0  0
  8 39  1  0  0  0
  8 40  1  0  0  0
  9 41  1  0  0  0
  9 42  1  0  0  0
 10 43  1  0  0  0
 10 44  1  0  0  0
 11 45  1  0  0  0
 11 46  1  0  0  0
 12 47  1  0  0  0
 16 48  1  0  0  0
 16 49  1  0  0  0
 17 50  1  0  0  0
 17 51  1  0  0  0
 18 52  1  0  0  0
 18 53  1  0  0  0
 19 54  1  0  0  0
 19 55  1  0  0  0
 25 56  1  0  0  0
 26 57  1  0  0  0
 27 58  1  0  0  0
 30 59  1  0  0  0
 31 60  1  0  0  0
 32 61  1  0  0  0
M  END
$$$$
