4tim_ligand
  -I-interpret- 

 18 17  0  0  0  0  0  0  0  0999 V2000
   46.2150   15.5080   -8.8920 C   0  0  0  0  0
   46.4340   15.5020  -10.4190 C   0  0  0  0  0
   46.7110   14.0360  -10.7190 C   0  0  0  0  0
   47.6070   16.8890  -12.4740 P   0  0  0  0  0
   45.0640   15.2040   -8.4780 O   0  0  0  0  0
   47.2080   15.7070   -8.1290 O   0  0  0  0  0
   46.8930   13.2930   -9.5050 O   0  0  0  0  0
   47.4740   16.4110  -10.8800 O   0  0  0  0  0
   46.7530   15.8980  -13.2700 O   0  0  0  0  0
   49.0950   16.8860  -12.8250 O   0  0  0  0  0
   47.0360   18.2980  -12.6070 O   0  0  0  0  0
   45.5712   15.8854  -10.9637 H   0  0  0  0  0
   47.6213   13.9650  -11.3143 H   0  0  0  0  0
   45.8609   13.6214  -11.2607 H   0  0  0  0  0
   47.9785   15.9248   -8.6586 H   0  0  0  0  0
   47.0661   12.3729   -9.7172 H   0  0  0  0  0
   47.1206   15.0158  -13.1796 H   0  0  0  0  0
   49.4415   15.9950  -12.7374 H   0  0  0  0  0
  2  1  1  0  0  0
  1  5  2  0  0  0
  1  6  1  0  0  0
  2  3  1  0  0  0
  8  2  1  0  0  0
  3  7  1  0  0  0
  4 11  2  0  0  0
  4 10  1  0  0  0
  4  9  1  0  0  0
  8  4  1  0  0  0
  2 12  1  0  0  0
  3 13  1  0  0  0
  3 14  1  0  0  0
  6 15  1  0  0  0
  7 16  1  0  0  0
  9 17  1  0  0  0
 10 18  1  0  0  0
M  END
$$$$
