5cgc_ligand
  -I-interpret- 

 28 30  0  0  0  0  0  0  0  0999 V2000
  -24.0300   18.1900   44.2130 C   0  0  0  0  0
  -23.5200   19.3770   44.7100 C   0  0  0  0  0
  -22.4900   19.3650   45.6240 C   0  0  0  0  0
  -21.9580   18.1510   46.0550 C   0  0  0  0  0
  -22.4660   16.9530   45.5590 C   0  0  0  0  0
  -23.5090   16.9640   44.6400 C   0  0  0  0  0
  -24.0150   15.6600   44.1290 C   0  0  0  0  0
  -24.4050   15.5000   42.7970 C   0  0  0  0  0
  -24.8580   14.2550   42.3780 C   0  0  0  0  0
  -24.5130   13.4360   44.4990 C   0  0  0  0  0
  -25.0390   18.2510   43.3230 F   0  0  0  0  0
  -24.8980   13.2540   43.2510 N   0  0  0  0  0
  -24.0830   14.6030   44.9380 N   0  0  0  0  0
  -25.2490   14.0660   41.0520 N   0  0  0  0  0
  -25.5550   12.8780   40.4720 C   0  0  0  0  0
  -25.8690   13.1270   39.1830 C   0  0  0  0  0
  -25.7500   14.5050   38.9610 C   0  0  0  0  0
  -25.3770   15.0660   40.0800 N   0  0  0  0  0
  -20.8890   18.1490   47.0030 C   0  0  0  0  0
  -20.0410   18.1570   47.7560 N   0  0  0  0  0
  -24.1790   20.8910   44.1790 Cl  0  0  0  0  0
  -22.0915   20.3033   46.0097 H   0  0  0  0  0
  -22.0448   16.0045   45.8921 H   0  0  0  0  0
  -24.3549   16.3361   42.0995 H   0  0  0  0  0
  -24.5514   12.5943   45.1905 H   0  0  0  0  0
  -25.5484   11.9022   40.9576 H   0  0  0  0  0
  -26.1643   12.3838   38.4424 H   0  0  0  0  0
  -25.9363   15.0196   38.0183 H   0  0  0  0  0
  1  2  4  0  0  0
  1  6  4  0  0  0
  1 11  1  0  0  0
  2  3  4  0  0  0
  2 21  1  0  0  0
  3  4  4  0  0  0
  4  5  4  0  0  0
  4 19  1  0  0  0
  5  6  4  0  0  0
  6  7  1  0  0  0
  7  8  4  0  0  0
  7 13  4  0  0  0
  8  9  4  0  0  0
  9 12  4  0  0  0
  9 14  1  0  0  0
 12 10  4  0  0  0
 10 13  4  0  0  0
 14 15  4  0  0  0
 14 18  4  0  0  0
 15 16  4  0  0  0
 16 17  4  0  0  0
 17 18  4  0  0  0
 19 20  3  0  0  0
  3 22  1  0  0  0
  5 23  1  0  0  0
  8 24  1  0  0  0
 10 25  1  0  0  0
 15 26  1  0  0  0
 16 27  1  0  0  0
 17 28  1  0  0  0
M  END
$$$$
