5n1r_ligand
  -I-interpret- 

 37 39  0  0  0  0  0  0  0  0999 V2000
   -3.6990    2.1030   15.5500 C   0  0  0  0  0
   -3.0580    3.1680   14.9300 C   0  0  0  0  0
   -3.7350    4.3320   14.5890 C   0  0  0  0  0
   -5.1220    4.3750   14.8400 C   0  0  0  0  0
   -5.7760    3.3030   15.4460 C   0  0  0  0  0
   -2.2790   10.1840   11.7160 C   0  0  0  0  0
   -2.7770   11.4520   11.8830 C   0  0  0  0  0
   -5.0570    2.1730   15.8220 C   0  0  0  0  0
   -2.9600    5.4880   14.1010 C   0  0  0  0  0
   -3.0910    6.7380   14.6810 C   0  0  0  0  0
   -2.2850    7.7900   14.2790 C   0  0  0  0  0
   -1.3360    7.6180   13.2810 C   0  0  0  0  0
   -1.1970    6.3650   12.7070 C   0  0  0  0  0
   -1.9850    5.3110   13.1250 C   0  0  0  0  0
   -0.4850    8.7920   12.8330 C   0  0  0  0  0
   -2.0890   11.9610   12.9860 C   0  0  0  0  0
   -5.8570    0.8510   16.7270 S   0  0  0  0  0
   -1.3430    9.9960   12.6760 N   0  0  0  0  0
   -1.2230   11.0810   13.4900 N   0  0  0  0  0
   -5.4200   -0.4870   16.1320 O   0  0  0  0  0
   -5.4860    1.0100   18.1140 O   0  0  0  0  0
   -7.3380    1.0480   16.5220 N   0  0  0  0  0
   -3.1342    1.2116   15.8229 H   0  0  0  0  0
   -1.9945    3.0881   14.7049 H   0  0  0  0  0
   -5.6916    5.2599   14.5559 H   0  0  0  0  0
   -6.8502    3.3503   15.6250 H   0  0  0  0  0
   -2.5801    9.4645   10.9546 H   0  0  0  0  0
   -3.5406   11.9511   11.2865 H   0  0  0  0  0
   -3.8355    6.8958   15.4614 H   0  0  0  0  0
   -2.3974    8.7654   14.7524 H   0  0  0  0  0
   -0.4598    6.2099   11.9192 H   0  0  0  0  0
   -1.8407    4.3250   12.6833 H   0  0  0  0  0
   -0.0135    8.5554   11.8792 H   0  0  0  0  0
    0.2838    8.9891   13.5802 H   0  0  0  0  0
   -2.2420   12.9622   13.3888 H   0  0  0  0  0
   -7.8860    0.3335   16.0429 H   0  0  0  0  0
   -7.7917    1.8957   16.8625 H   0  0  0  0  0
  2  1  4  0  0  0
  1  8  4  0  0  0
  3  2  4  0  0  0
  3  4  4  0  0  0
  9  3  1  0  0  0
  4  5  4  0  0  0
  5  8  4  0  0  0
  6  7  4  0  0  0
 18  6  4  0  0  0
  7 16  4  0  0  0
  8 17  1  0  0  0
 10  9  4  0  0  0
 14  9  4  0  0  0
 11 10  4  0  0  0
 12 11  4  0  0  0
 12 13  4  0  0  0
 15 12  1  0  0  0
 13 14  4  0  0  0
 15 18  1  0  0  0
 16 19  4  0  0  0
 17 20  2  0  0  0
 17 21  2  0  0  0
 17 22  1  0  0  0
 18 19  4  0  0  0
  1 23  1  0  0  0
  2 24  1  0  0  0
  4 25  1  0  0  0
  5 26  1  0  0  0
  6 27  1  0  0  0
  7 28  1  0  0  0
 10 29  1  0  0  0
 11 30  1  0  0  0
 13 31  1  0  0  0
 14 32  1  0  0  0
 15 33  1  0  0  0
 15 34  1  0  0  0
 16 35  1  0  0  0
 22 36  1  0  0  0
 22 37  1  0  0  0
M  END
$$$$
