6arv_ligand
  -I-interpret- 

 60 63  0  0  0  0  0  0  0  0999 V2000
   -3.4530   19.8730   25.5040 C   0  0  0  0  0
   -2.1320   19.7860   26.2530 C   0  0  0  0  0
   -1.1060   20.3550   25.4110 O   0  0  0  0  0
   -1.2590   21.8100   25.3000 C   0  0  0  0  0
   -2.5640   22.1410   24.5580 C   0  0  0  0  0
   -3.6920   21.2000   24.8420 N   0  0  0  0  0
   -4.9560   21.5070   24.4530 C   0  0  0  0  0
   -6.0100   20.6460   24.7820 C   0  0  0  0  0
   -5.2490   22.6350   23.7640 C   0  0  0  0  0
   -4.5030   23.6420   23.3090 C   0  0  0  0  0
   -5.3340   24.4880   22.6900 N   0  0  0  0  0
   -6.4980   24.0680   22.7430 N   0  0  0  0  0
   -7.6820   24.7590   22.1420 C   0  0  0  0  0
   -7.5910   26.3080   22.1920 C   0  0  0  0  0
   -7.7890   24.3350   20.6950 C   0  0  0  0  0
   -6.5150   22.9210   23.4000 C   0  0  0  0  0
   -7.5450   22.0960   23.7150 N   0  0  0  0  0
   -7.3200   20.9600   24.3970 C   0  0  0  0  0
   -8.4060   20.1110   24.6790 C   0  0  0  0  0
   -9.4560   20.0000   23.7630 C   0  0  0  0  0
   -8.4360   19.3980   25.8680 C   0  0  0  0  0
   -9.5120   18.5580   26.1520 C   0  0  0  0  0
  -10.5650   18.4440   25.2560 C   0  0  0  0  0
  -10.5310   19.1400   24.0560 C   0  0  0  0  0
  -11.5870   18.9630   23.2420 O   0  0  0  0  0
  -11.5520   19.5080   21.9100 C   0  0  0  0  0
  -12.8860   19.2390   21.2340 C   0  0  0  0  0
  -12.9720   17.8510   20.8650 O   0  0  0  0  0
  -12.9800   20.0950   19.9520 C   0  0  0  0  0
  -14.3740   20.1660   19.5090 N   0  3  0  0  0
   -4.2493   19.7270   26.2338 H   0  0  0  0  0
   -3.4299   19.1184   24.7178 H   0  0  0  0  0
   -1.8971   18.7471   26.4846 H   0  0  0  0  0
   -2.1947   20.3331   27.1937 H   0  0  0  0  0
   -0.4150   22.2199   24.7453 H   0  0  0  0  0
   -1.2914   22.2463   26.2984 H   0  0  0  0  0
   -2.3515   22.0729   23.4911 H   0  0  0  0  0
   -2.8800   23.1293   24.8919 H   0  0  0  0  0
   -5.8111   19.7301   25.3385 H   0  0  0  0  0
   -3.4245   23.7542   23.4200 H   0  0  0  0  0
   -8.5548   24.4725   22.7287 H   0  0  0  0  0
   -7.5165   26.6330   23.2298 H   0  0  0  0  0
   -6.7088   26.6368   21.6428 H   0  0  0  0  0
   -8.4840   26.7380   21.7385 H   0  0  0  0  0
   -6.8793   24.6193   20.1662 H   0  0  0  0  0
   -7.9182   23.2539   20.6431 H   0  0  0  0  0
   -8.6465   24.8271   20.2360 H   0  0  0  0  0
   -9.4425   20.5714   22.8349 H   0  0  0  0  0
   -7.6175   19.4943   26.5814 H   0  0  0  0  0
   -9.5259   17.9888   27.0815 H   0  0  0  0  0
  -11.4179   17.8085   25.4943 H   0  0  0  0  0
  -10.7490   19.0396   21.3408 H   0  0  0  0  0
  -11.3715   20.5820   21.9556 H   0  0  0  0  0
  -13.6955   19.4885   21.9200 H   0  0  0  0  0
  -13.8161   17.6861   20.4385 H   0  0  0  0  0
  -12.3739   19.6407   19.1682 H   0  0  0  0  0
  -12.6149   21.1006   20.1607 H   0  0  0  0  0
  -14.4321   20.7319   18.6624 H   0  0  0  0  0
  -14.7160   19.2250   19.3144 H   0  0  0  0  0
  -14.9415   20.5904   20.2427 H   0  0  0  0  0
  1  2  1  0  0  0
  1  6  1  0  0  0
  2  3  1  0  0  0
  3  4  1  0  0  0
  4  5  1  0  0  0
  5  6  1  0  0  0
  6  7  1  0  0  0
  7  8  4  0  0  0
  7  9  4  0  0  0
  8 18  4  0  0  0
  9 10  4  0  0  0
  9 16  4  0  0  0
 10 11  4  0  0  0
 11 12  4  0  0  0
 12 13  1  0  0  0
 12 16  4  0  0  0
 13 14  1  0  0  0
 13 15  1  0  0  0
 16 17  4  0  0  0
 17 18  4  0  0  0
 18 19  1  0  0  0
 19 20  4  0  0  0
 19 21  4  0  0  0
 20 24  4  0  0  0
 21 22  4  0  0  0
 22 23  4  0  0  0
 23 24  4  0  0  0
 24 25  1  0  0  0
 25 26  1  0  0  0
 26 27  1  0  0  0
 27 28  1  0  0  0
 27 29  1  0  0  0
 29 30  1  0  0  0
  1 31  1  0  0  0
  1 32  1  0  0  0
  2 33  1  0  0  0
  2 34  1  0  0  0
  4 35  1  0  0  0
  4 36  1  0  0  0
  5 37  1  0  0  0
  5 38  1  0  0  0
  8 39  1  0  0  0
 10 40  1  0  0  0
 13 41  1  0  0  0
 14 42  1  0  0  0
 14 43  1  0  0  0
 14 44  1  0  0  0
 15 45  1  0  0  0
 15 46  1  0  0  0
 15 47  1  0  0  0
 20 48  1  0  0  0
 21 49  1  0  0  0
 22 50  1  0  0  0
 23 51  1  0  0  0
 26 52  1  0  0  0
 26 53  1  0  0  0
 27 54  1  0  0  0
 28 55  1  0  0  0
 29 56  1  0  0  0
 29 57  1  0  0  0
 30 58  1  0  0  0
 30 59  1  0  0  0
 30 60  1  0  0  0
M  END
$$$$
