2r0h_ligand
  -I-interpret- 

 84 86  0  0  0  0  0  0  0  0999 V2000
   24.7800   -9.3600   -8.0400 C   0  0  0  0  0
   24.2290  -10.3140   -6.9940 C   0  0  0  0  0
   25.0880  -11.4800   -6.9960 N   0  0  0  0  0
   25.6340  -11.9950   -5.9020 C   0  0  0  0  0
   25.7330  -11.3700   -4.8480 O   0  0  0  0  0
   26.1530  -13.3970   -6.1010 C   0  0  0  0  0
   22.7790  -10.6760   -7.3260 C   0  0  0  0  0
   22.2080  -11.3090   -6.1740 O   0  0  0  0  0
   21.9580   -9.4000   -7.5520 C   0  0  0  0  0
   20.6420   -9.7190   -8.0210 O   0  0  0  0  0
   22.6450   -8.4130   -8.4910 C   0  0  0  0  0
   23.9800   -8.1800   -8.0320 O   0  0  0  0  0
   21.9140   -7.0820   -8.4560 C   0  0  0  0  0
   22.6750   -6.1230   -9.1700 O   0  0  0  0  0
   29.3680   -7.4530   -9.8030 C   0  0  0  0  0
   28.5690   -6.4640   -8.9570 C   0  0  0  0  0
   29.4470   -5.5450   -8.2130 N   0  0  0  0  0
   29.8160   -4.3230   -8.6360 C   0  0  0  0  0
   30.4680   -3.5650   -7.9300 O   0  0  0  0  0
   29.4290   -3.9300  -10.0200 C   0  0  0  0  0
   27.6450   -7.2200   -7.9940 C   0  0  0  0  0
   26.8080   -6.2460   -7.3670 O   0  0  0  0  0
   26.8330   -8.3040   -8.7110 C   0  0  0  0  0
   26.1410   -9.0590   -7.7150 O   0  0  0  0  0
   27.7690   -9.2150   -9.5300 C   0  0  0  0  0
   28.5040   -8.3950  -10.4540 O   0  0  0  0  0
   27.0530  -10.3050  -10.3320 C   0  0  0  0  0
   26.2090   -9.6450  -11.2800 O   0  0  0  0  0
   33.4810   -7.1160  -12.9740 C   0  0  0  0  0
   34.7090   -7.5910  -13.5520 O   0  0  0  0  0
   32.2750   -7.8110  -13.6250 C   0  0  0  0  0
   32.2490   -7.4750  -15.0440 N   0  0  0  0  0
   32.1170   -8.3820  -16.0120 C   0  0  0  0  0
   31.6600   -8.1220  -17.1160 O   0  0  0  0  0
   32.5850   -9.7530  -15.6740 C   0  0  0  0  0
   30.9970   -7.3130  -12.9480 C   0  0  0  0  0
   29.8330   -8.0220  -13.4290 O   0  0  0  0  0
   31.0890   -7.4380  -11.4310 C   0  0  0  0  0
   30.0300   -6.7000  -10.8170 O   0  0  0  0  0
   32.4060   -6.9230  -10.8600 C   0  0  0  0  0
   33.4990   -7.4660  -11.5870 O   0  0  0  0  0
   32.5480   -7.4060   -9.4150 C   0  0  0  0  0
   33.1360   -6.3500   -8.6440 O   0  0  0  0  0
   24.7508   -9.8031   -9.0355 H   0  0  0  0  0
   24.2195   -9.8617   -6.0023 H   0  0  0  0  0
   25.2844  -11.9310   -7.8895 H   0  0  0  0  0
   27.2296  -13.4120   -5.9313 H   0  0  0  0  0
   25.6633  -14.0679   -5.3952 H   0  0  0  0  0
   25.9399  -13.7208   -7.1198 H   0  0  0  0  0
   22.7653  -11.3113   -8.2116 H   0  0  0  0  0
   22.6868  -12.1194   -5.9852 H   0  0  0  0  0
   21.8764   -8.9044   -6.5846 H   0  0  0  0  0
   20.1462   -8.9081   -8.1557 H   0  0  0  0  0
   22.6434   -8.8255   -9.4999 H   0  0  0  0  0
   21.7872   -6.7577   -7.4231 H   0  0  0  0  0
   20.9310   -7.1887   -8.9146 H   0  0  0  0  0
   22.2199   -5.2779   -9.1530 H   0  0  0  0  0
   30.0616   -7.9974   -9.1622 H   0  0  0  0  0
   27.9646   -5.8602   -9.6340 H   0  0  0  0  0
   29.8016   -5.8588   -7.3096 H   0  0  0  0  0
   28.8207   -3.0263   -9.9830 H   0  0  0  0  0
   30.3276   -3.7409  -10.6073 H   0  0  0  0  0
   28.8566   -4.7363  -10.4786 H   0  0  0  0  0
   28.2303   -7.7528   -7.2446 H   0  0  0  0  0
   26.2130   -6.6840   -6.7541 H   0  0  0  0  0
   26.1207   -7.8543   -9.4028 H   0  0  0  0  0
   28.4082   -9.7248   -8.8092 H   0  0  0  0  0
   26.4649  -10.9437   -9.6729 H   0  0  0  0  0
   27.7744  -10.9452  -10.8398 H   0  0  0  0  0
   25.7424  -10.3013  -11.8027 H   0  0  0  0  0
   33.3954   -6.0399  -13.1248 H   0  0  0  0  0
   35.4507   -7.1471  -13.1343 H   0  0  0  0  0
   32.3485   -8.8925  -13.5106 H   0  0  0  0  0
   32.3364   -6.4941  -15.3098 H   0  0  0  0  0
   31.7561  -10.4536  -15.7747 H   0  0  0  0  0
   33.3885  -10.0389  -16.3528 H   0  0  0  0  0
   32.9521   -9.7675  -14.6478 H   0  0  0  0  0
   30.8908   -6.2592  -13.2054 H   0  0  0  0  0
   29.0500   -7.6870  -12.9860 H   0  0  0  0  0
   31.0180   -8.5038  -11.2137 H   0  0  0  0  0
   32.4074   -5.8347  -10.9211 H   0  0  0  0  0
   33.1800   -8.2933   -9.3774 H   0  0  0  0  0
   31.5701   -7.6656   -9.0094 H   0  0  0  0  0
   33.2327   -6.6362   -7.7328 H   0  0  0  0  0
  1  2  1  0  0  0
  1 12  1  0  0  0
 24  1  1  0  0  0
  2  3  1  0  0  0
  2  7  1  0  0  0
  3  4  1  0  0  0
  4  5  2  0  0  0
  4  6  1  0  0  0
  7  8  1  0  0  0
  7  9  1  0  0  0
  9 10  1  0  0  0
 11  9  1  0  0  0
 12 11  1  0  0  0
 11 13  1  0  0  0
 13 14  1  0  0  0
 15 16  1  0  0  0
 15 26  1  0  0  0
 39 15  1  0  0  0
 16 17  1  0  0  0
 16 21  1  0  0  0
 17 18  1  0  0  0
 18 19  2  0  0  0
 18 20  1  0  0  0
 21 22  1  0  0  0
 21 23  1  0  0  0
 23 24  1  0  0  0
 25 23  1  0  0  0
 26 25  1  0  0  0
 25 27  1  0  0  0
 27 28  1  0  0  0
 29 30  1  0  0  0
 31 29  1  0  0  0
 29 41  1  0  0  0
 31 32  1  0  0  0
 36 31  1  0  0  0
 32 33  1  0  0  0
 33 34  2  0  0  0
 33 35  1  0  0  0
 36 37  1  0  0  0
 38 36  1  0  0  0
 38 39  1  0  0  0
 38 40  1  0  0  0
 40 41  1  0  0  0
 40 42  1  0  0  0
 42 43  1  0  0  0
  1 44  1  0  0  0
  2 45  1  0  0  0
  3 46  1  0  0  0
  6 47  1  0  0  0
  6 48  1  0  0  0
  6 49  1  0  0  0
  7 50  1  0  0  0
  8 51  1  0  0  0
  9 52  1  0  0  0
 10 53  1  0  0  0
 11 54  1  0  0  0
 13 55  1  0  0  0
 13 56  1  0  0  0
 14 57  1  0  0  0
 15 58  1  0  0  0
 16 59  1  0  0  0
 17 60  1  0  0  0
 20 61  1  0  0  0
 20 62  1  0  0  0
 20 63  1  0  0  0
 21 64  1  0  0  0
 22 65  1  0  0  0
 23 66  1  0  0  0
 25 67  1  0  0  0
 27 68  1  0  0  0
 27 69  1  0  0  0
 28 70  1  0  0  0
 29 71  1  0  0  0
 30 72  1  0  0  0
 31 73  1  0  0  0
 32 74  1  0  0  0
 35 75  1  0  0  0
 35 76  1  0  0  0
 35 77  1  0  0  0
 36 78  1  0  0  0
 37 79  1  0  0  0
 38 80  1  0  0  0
 40 81  1  0  0  0
 42 82  1  0  0  0
 42 83  1  0  0  0
 43 84  1  0  0  0
M  END
$$$$
