4kzb_ligand
  -I-interpret- 

 29 29  0  0  0  0  0  0  0  0999 V2000
   23.6380    8.1750   17.2290 C   0  0  0  0  0
   23.8810    6.8900   16.5110 C   0  0  0  0  0
   23.6140    5.6750   17.3520 C   0  0  0  0  0
   22.8030    5.7380   18.3200 O   0  0  0  0  0
   24.1730    4.5750   17.0970 O   0  0  0  0  0
   23.1430    6.8280   15.2840 N   0  0  0  0  0
   21.7020    6.8370   15.2740 C   0  0  0  0  0
   20.9640    5.6690   15.4850 C   0  0  0  0  0
   19.5840    5.7090   15.4620 C   0  0  0  0  0
   18.9240    6.9100   15.2430 C   0  0  0  0  0
   19.6580    8.0660   15.0500 C   0  0  0  0  0
   21.0430    8.0400   15.0510 C   0  0  0  0  0
   23.8870    6.4320   13.9060 S   0  0  0  0  0
   23.9110    4.6790   13.6810 C   0  0  0  0  0
   25.2490    6.9050   14.0640 O   0  0  0  0  0
   23.2160    7.0380   12.7880 O   0  0  0  0  0
   23.9472    9.0072   16.5966 H   0  0  0  0  0
   22.5764    8.2663   17.4585 H   0  0  0  0  0
   24.2135    8.1870   18.1546 H   0  0  0  0  0
   24.9463    6.8789   16.2804 H   0  0  0  0  0
   22.4600    6.6318   18.3910 H   0  0  0  0  0
   21.4784    4.7256   15.6679 H   0  0  0  0  0
   19.0113    4.7945   15.6163 H   0  0  0  0  0
   17.8346    6.9419   15.2233 H   0  0  0  0  0
   19.1390    9.0118   14.8948 H   0  0  0  0  0
   21.6105    8.9545   14.8785 H   0  0  0  0  0
   24.4913    4.4361   12.7908 H   0  0  0  0  0
   24.3660    4.2083   14.5525 H   0  0  0  0  0
   22.8904    4.3153   13.5614 H   0  0  0  0  0
  1  2  1  0  0  0
  2  3  1  0  0  0
  2  6  1  0  0  0
  3  4  1  0  0  0
  3  5  2  0  0  0
  6  7  1  0  0  0
  6 13  1  0  0  0
  7  8  4  0  0  0
  7 12  4  0  0  0
  8  9  4  0  0  0
  9 10  4  0  0  0
 10 11  4  0  0  0
 11 12  4  0  0  0
 13 14  1  0  0  0
 13 15  2  0  0  0
 13 16  2  0  0  0
  1 17  1  0  0  0
  1 18  1  0  0  0
  1 19  1  0  0  0
  2 20  1  0  0  0
  4 21  1  0  0  0
  8 22  1  0  0  0
  9 23  1  0  0  0
 10 24  1  0  0  0
 11 25  1  0  0  0
 12 26  1  0  0  0
 14 27  1  0  0  0
 14 28  1  0  0  0
 14 29  1  0  0  0
M  END
$$$$
