1duv_ligand
  -I-interpret- 

 33 32  0  0  0  0  0  0  0  0999 V2000
   27.6570   16.4910   23.5070 S   0  0  0  0  0
   27.3000   17.2980   22.2810 O   0  0  0  0  0
   28.7920   15.7870   23.4180 O   0  0  0  0  0
   27.7220   17.4660   24.7420 O   0  0  0  0  0
   26.3190   14.3010   24.8570 P   0  0  0  0  0
   24.6690   13.8230   24.8630 N   0  0  0  0  0
   26.6320   14.7490   26.2730 O   0  0  0  0  0
   27.4460   13.2060   24.4900 N   0  0  0  0  0
   31.1920    9.3800   24.6430 C   0  0  0  0  0
   31.7350    9.7760   23.5750 O   0  0  0  0  0
   31.8020    9.3970   25.7440 O   0  0  0  0  0
   29.7540    8.8020   24.5930 C   0  0  0  0  0
   28.6760    9.7060   25.2530 C   0  0  0  0  0
   28.5300   11.1030   24.6040 C   0  0  0  0  0
   27.4790   11.9640   25.2980 C   0  0  0  0  0
   26.3940   15.5350   23.7070 N   0  0  0  0  0
   29.7720    7.4710   25.2470 N   0  3  0  0  0
   26.9042   17.9658   24.7971 H   0  0  0  0  0
   24.1242   13.8816   25.7233 H   0  0  0  0  0
   24.2341   13.4806   24.0062 H   0  0  0  0  0
   28.1098   13.3625   23.7315 H   0  0  0  0  0
   31.1138    9.6852   22.8487 H   0  0  0  0  0
   29.4667    8.7353   23.5436 H   0  0  0  0  0
   27.7184    9.1981   25.1384 H   0  0  0  0  0
   28.9803    9.8639   26.2877 H   0  0  0  0  0
   29.4897   11.6133   24.6859 H   0  0  0  0  0
   28.2184   10.9616   23.5691 H   0  0  0  0  0
   26.5065   11.4738   25.3437 H   0  0  0  0  0
   27.7249   12.1559   26.3424 H   0  0  0  0  0
   25.5839   15.6783   23.1040 H   0  0  0  0  0
   30.4824    6.8866   24.8064 H   0  0  0  0  0
   29.9886    7.5831   26.2374 H   0  0  0  0  0
   28.8573    7.0312   25.1454 H   0  0  0  0  0
  1 16  1  0  0  0
  1  4  1  0  0  0
  1  3  2  0  0  0
  1  2  2  0  0  0
 16  5  1  0  0  0
  5  8  1  0  0  0
  5  7  2  0  0  0
  5  6  1  0  0  0
  8 15  1  0  0  0
 15 14  1  0  0  0
 14 13  1  0  0  0
 13 12  1  0  0  0
 12 17  1  0  0  0
 12  9  1  0  0  0
  9 11  2  0  0  0
  9 10  1  0  0  0
  4 18  1  0  0  0
  6 19  1  0  0  0
  6 20  1  0  0  0
  8 21  1  0  0  0
 10 22  1  0  0  0
 12 23  1  0  0  0
 13 24  1  0  0  0
 13 25  1  0  0  0
 14 26  1  0  0  0
 14 27  1  0  0  0
 15 28  1  0  0  0
 15 29  1  0  0  0
 16 30  1  0  0  0
 17 31  1  0  0  0
 17 32  1  0  0  0
 17 33  1  0  0  0
M  END
$$$$
