3pxz_ligand
  -I-interpret- 

 28 29  0  0  0  0  0  0  0  0999 V2000
  101.6020   93.9180   29.4980 N   0  0  0  0  0
  102.7310   93.8220   28.7100 C   0  0  0  0  0
  102.8520   92.8460   27.7960 N   0  0  0  0  0
  103.7420   94.7390   28.8540 N   0  0  0  0  0
  103.6270   95.7510   29.7850 C   0  0  0  0  0
  104.7090   96.7620   29.9230 C   0  0  0  0  0
  104.6080   97.8510   30.8790 C   0  0  0  0  0
  103.5030   97.9560   31.6850 O   0  0  0  0  0
  105.6770   98.8170   30.9550 C   0  0  0  0  0
  106.8070   98.7060   30.1070 C   0  0  0  0  0
  106.9420   97.6380   29.1440 C   0  0  0  0  0
  108.0130   97.6190   28.3920 O   0  0  0  0  0
  105.8570   96.6670   29.0820 C   0  0  0  0  0
  102.4980   95.8260   30.5640 N   0  0  0  0  0
  101.4920   94.9300   30.4310 C   0  0  0  0  0
  100.4080   95.0470   31.2090 N   0  0  0  0  0
  109.0460   98.6150   28.4860 C   0  0  0  0  0
  102.1037   92.1631   27.6770 H   0  0  0  0  0
  103.6922   92.7874   27.2206 H   0  0  0  0  0
  103.5947   98.7243   32.2533 H   0  0  0  0  0
  105.6150   99.6378   31.6695 H   0  0  0  0  0
  107.5995   99.4503   30.1839 H   0  0  0  0  0
  105.9249   95.8433   28.3714 H   0  0  0  0  0
   99.6414   94.3802   31.1192 H   0  0  0  0  0
  100.3491   95.8029   31.8913 H   0  0  0  0  0
  108.6232   99.5965   28.2715 H   0  0  0  0  0
  109.4633   98.6099   29.4929 H   0  0  0  0  0
  109.8317   98.3909   27.7645 H   0  0  0  0  0
  1  2  4  0  0  0
  1 15  4  0  0  0
  2  3  1  0  0  0
  2  4  4  0  0  0
  4  5  4  0  0  0
  5  6  1  0  0  0
  5 14  4  0  0  0
  6  7  4  0  0  0
  6 13  4  0  0  0
  7  8  1  0  0  0
  7  9  4  0  0  0
  9 10  4  0  0  0
 10 11  4  0  0  0
 11 12  1  0  0  0
 11 13  4  0  0  0
 12 17  1  0  0  0
 14 15  4  0  0  0
 15 16  1  0  0  0
  3 18  1  0  0  0
  3 19  1  0  0  0
  8 20  1  0  0  0
  9 21  1  0  0  0
 10 22  1  0  0  0
 13 23  1  0  0  0
 16 24  1  0  0  0
 16 25  1  0  0  0
 17 26  1  0  0  0
 17 27  1  0  0  0
 17 28  1  0  0  0
M  END
$$$$
