1q41_ligand
  -I-interpret- 

 32 35  0  0  0  0  0  0  0  0999 V2000
   40.3060    3.9180   35.3810 C   0  0  0  0  0
   39.6890    5.2740   35.2240 C   0  0  0  0  0
   40.8210    3.8770   36.6990 C   0  0  0  0  0
   40.5960    5.0550   37.3470 N   0  0  0  0  0
   41.4700    2.7350   37.2090 C   0  0  0  0  0
   41.6140    1.6060   36.3620 C   0  0  0  0  0
   41.1020    1.6400   35.0270 C   0  0  0  0  0
   40.4370    2.8060   34.5230 C   0  0  0  0  0
   39.9390    5.9730   36.5560 C   0  0  0  0  0
   39.5920    7.2340   36.9340 C   0  0  0  0  0
   40.1170    7.7360   38.2760 C   0  0  0  0  0
   39.5880    9.0090   38.4350 N   0  0  0  0  0
   38.7980    9.3720   37.3550 C   0  0  0  0  0
   38.7520    8.3330   36.3870 C   0  0  0  0  0
   38.1100   10.5980   37.2150 C   0  0  0  0  0
   37.3330   10.7920   36.0480 C   0  0  0  0  0
   37.2640    9.7690   35.0520 C   0  0  0  0  0
   37.9780    8.5360   35.2210 C   0  0  0  0  0
   40.8470    7.1490   39.0760 O   0  0  0  0  0
   39.0400    5.8050   34.2330 N   0  0  0  0  0
   38.8830    5.0110   33.0960 O   0  0  0  0  0
   40.8817    5.2367   38.3092 H   0  0  0  0  0
   41.8522    2.7194   38.2297 H   0  0  0  0  0
   42.1159    0.7109   36.7294 H   0  0  0  0  0
   41.2189    0.7677   34.3840 H   0  0  0  0  0
   40.0442    2.8324   33.5066 H   0  0  0  0  0
   39.7591    9.6038   39.2458 H   0  0  0  0  0
   38.1755   11.3701   37.9816 H   0  0  0  0  0
   36.7856   11.7242   35.9083 H   0  0  0  0  0
   36.6636    9.9270   34.1561 H   0  0  0  0  0
   37.9242    7.7613   34.4561 H   0  0  0  0  0
   38.3922    5.4996   32.4312 H   0  0  0  0  0
  1  2  1  0  0  0
  1  3  4  0  0  0
  1  8  4  0  0  0
  2  9  1  0  0  0
  2 20  2  0  0  0
  3  4  1  0  0  0
  3  5  4  0  0  0
  4  9  1  0  0  0
  5  6  4  0  0  0
  6  7  4  0  0  0
  7  8  4  0  0  0
  9 10  2  0  0  0
 10 11  1  0  0  0
 10 14  1  0  0  0
 11 12  1  0  0  0
 11 19  2  0  0  0
 12 13  1  0  0  0
 13 14  4  0  0  0
 13 15  4  0  0  0
 14 18  4  0  0  0
 15 16  4  0  0  0
 16 17  4  0  0  0
 17 18  4  0  0  0
 20 21  1  0  0  0
  4 22  1  0  0  0
  5 23  1  0  0  0
  6 24  1  0  0  0
  7 25  1  0  0  0
  8 26  1  0  0  0
 12 27  1  0  0  0
 15 28  1  0  0  0
 16 29  1  0  0  0
 17 30  1  0  0  0
 18 31  1  0  0  0
 21 32  1  0  0  0
M  END
$$$$
