### 
### Created by X-TOOL on Wed Jan  1 15:39:37 2020
### 

@<TRIPOS>MOLECULE
5npr_ligand
  148   150     1     0     0
SMALL
GAST_HUCK


@<TRIPOS>ATOM
      1 C         -22.4240    1.4540    9.7390 C.2       1 ACE         0.1751
      2 O         -21.8080    2.4100    9.2640 O.2       1 ACE        -0.3972
      3 CH3       -23.4790    0.6970    8.9040 C.3       1 ACE         0.0258
      4 N         -22.2620    1.0110   10.9950 N.am      1 VAL        -0.2656
      5 CA        -21.2740    1.6210   11.9100 C.3       1 VAL         0.1332
      6 C         -21.0210    0.7010   13.1380 C.2       1 VAL         0.2042
      7 O         -19.8560    0.5340   13.4940 O.2       1 VAL        -0.3944
      8 CB        -21.6230    3.1030   12.3250 C.3       1 VAL        -0.0063
      9 CG1       -22.9750    3.2610   13.0640 C.3       1 VAL        -0.0584
     10 CG2       -20.4970    3.6690   13.2030 C.3       1 VAL        -0.0584
     11 N         -22.0850    0.1350   13.7780 N.am      1 THR        -0.2613
     12 CA        -21.8640   -0.7410   14.9340 C.3       1 THR         0.1567
     13 C         -21.9020   -2.2260   14.5210 C.2       1 THR         0.2090
     14 O         -22.9820   -2.7710   14.3340 O.2       1 THR        -0.3941
     15 CB        -22.8790   -0.5060   16.0420 C.3       1 THR         0.0924
     16 OG1       -22.6610    0.8150   16.5110 O.3       1 THR        -0.3874
     17 CG2       -22.5750   -1.4820   17.2060 C.3       1 THR        -0.0346
     18 N         -20.7270   -2.8840   14.4850 N.am      1 PRO        -0.2498
     19 CA        -20.6790   -4.3240   14.1100 C.3       1 PRO         0.1338
     20 C         -21.1820   -5.1240   15.1910 C.2       1 PRO         0.2041
     21 O         -20.9630   -4.8490   16.3860 O.2       1 PRO        -0.3944
     22 CB        -19.2270   -4.6550   13.7520 C.3       1 PRO        -0.0104
     23 CG        -18.5330   -3.6830   14.6960 C.3       1 PRO        -0.0281
     24 CD        -19.3280   -2.4130   14.6500 C.3       1 PRO         0.0369
     25 N         -21.8720   -6.1960   14.7830 N.am      1 VAL        -0.2635
     26 CA        -22.6120   -7.0710   15.6980 C.3       1 VAL         0.1332
     27 C         -22.4970   -8.5280   15.2040 C.2       1 VAL         0.2042
     28 O         -22.1140   -8.7210   14.0530 O.2       1 VAL        -0.3944
     29 CB        -23.9880   -6.3460   15.4780 C.3       1 VAL        -0.0063
     30 CG1       -25.0260   -7.0620   14.5790 C.3       1 VAL        -0.0584
     31 CG2       -24.5240   -5.7720   16.7550 C.3       1 VAL        -0.0584
     32 N         -22.8730   -9.5190   16.0280 N.am      1 CYS        -0.2629
     33 CA        -22.9060  -10.9230   15.5370 C.3       1 CYS         0.1399
     34 C         -24.1830  -11.0690   14.7210 C.2       1 CYS         0.2048
     35 O         -25.2300  -10.6280   15.1630 O.2       1 CYS        -0.3944
     36 CB        -22.8860  -11.9640   16.6300 C.3       1 CYS         0.0341
     37 SG        -21.1890  -12.1210   17.2200 S.3       1 CYS        -0.1559
     38 N         -24.0570  -11.5810   13.5050 N.am      1 THR        -0.2613
     39 CA        -25.2360  -11.7460   12.6370 C.3       1 THR         0.1565
     40 C         -25.1810  -13.1190   11.9320 C.2       1 THR         0.2065
     41 O         -24.0980  -13.6800   11.7370 O.2       1 THR        -0.3943
     42 CB        -25.2930  -10.5470   11.6940 C.3       1 THR         0.0924
     43 OG1       -26.5560  -10.5730   11.1040 O.3       1 THR        -0.3874
     44 CG2       -24.2270  -10.5870   10.6040 C.3       1 THR        -0.0346
     45 N         -26.3830  -13.6380   11.5970 N.am      1 ALA        -0.2639
     46 CA        -26.5150  -14.9650   10.9550 C.3       1 ALA         0.1279
     47 C         -25.8460  -14.9890    9.5950 C.2       1 ALA         0.1989
     48 O         -26.0000  -13.8960    8.8170 O.2       1 ALA        -0.3947
     49 CB        -27.9930  -15.3090   10.7590 C.3       1 ALA        -0.0244
     50 N         -25.1500  -16.0850    9.2970 N.am      1 NH2        -0.2990
     51 C2        -21.6210   -0.5780   20.9190 C.2       1 94T         0.3328
     52 C4        -23.5690    0.4120   21.9380 C.2       1 94T         0.1822
     53 C5        -24.0330   -0.8560   22.2460 C.2       1 94T         0.0062
     54 C6        -23.2740   -1.9430   21.8810 C.2       1 94T         0.0591
     55 N1        -22.0770   -1.8140   21.2230 N.am      1 94T        -0.1592
     56 O2        -20.5440   -0.4040   20.3610 O.2       1 94T        -0.3815
     57 N3        -22.3590    0.5410   21.2570 N.am      1 94T        -0.1865
     58 O4        -24.2240    1.4210   22.2560 O.2       1 94T        -0.4124
     59 C1'       -21.2930   -3.0230   20.8020 C.3       1 94T         0.2059
     60 O4'       -22.1790   -3.6600   19.8500 O.3       1 94T        -0.3363
     61 C2'       -21.0550   -4.0730   21.8550 C.3       1 94T         0.1387
     62 O2'       -19.8890   -3.7530   22.6240 O.3       1 94T        -0.3836
     63 C3'       -20.8160   -5.2750   20.9810 C.3       1 94T         0.1149
     64 O3'       -19.4380   -5.3390   20.4980 O.3       1 94T        -0.3864
     65 C4'       -21.8080   -5.0540   19.8160 C.3       1 94T         0.1189
     66 C5'       -23.1320   -5.7780   20.0060 C.3       1 94T         0.1128
     67 O5'       -23.1020   -7.0070   19.3110 O.3       1 94T        -0.2476
     68 PCS       -24.0640   -8.2270   19.6390 P.3       1 94T         0.2972
     69 OCT       -25.4350   -7.7230   19.7920 O.co2     1 94T        -0.6127
     70 OCU       -23.7970   -9.3460   18.7130 O.co2     1 94T        -0.6127
     71 OCV       -23.4770   -8.4850   21.1610 O.3       1 94T        -0.1319
     72 PCW       -23.4980   -9.7960   22.0400 P.3       1 94T         0.2971
     73 OCX       -23.6950   -9.3350   23.4260 O.co2     1 94T        -0.6127
     74 OCY       -24.4630  -10.7220   21.4390 O.co2     1 94T        -0.6127
     75 OCZ       -22.0390  -10.2340   21.8250 O.3       1 94T        -0.2503
     76 CBF       -21.5840  -11.3990   21.2160 C.3       1 94T         0.0848
     77 CBG       -21.6960  -11.1900   19.7370 C.3       1 94T        -0.0153
     78 CBH       -21.2940  -12.4650   19.0110 C.3       1 94T        -0.0037
     79 H1        -23.9095   -0.1159    9.5071 H         1 ACE         0.0467
     80 H2        -23.0027    0.2751    8.0067 H         1 ACE         0.0467
     81 H3        -24.2765    1.3923    8.6033 H         1 ACE         0.0467
     82 H4        -22.8231    0.2498   11.3201 H         1 VAL         0.1883
     83 H5        -20.3260    1.6748   11.3546 H         1 VAL         0.0802
     84 H6        -21.6789    3.6993   11.4023 H         1 VAL         0.0343
     85 H7        -23.1349    4.3204   13.3133 H         1 VAL         0.0234
     86 H8        -22.9594    2.6651   13.9885 H         1 VAL         0.0234
     87 H9        -23.7908    2.9099   12.4151 H         1 VAL         0.0234
     88 H10       -19.5348    3.5586   12.6815 H         1 VAL         0.0234
     89 H11       -20.4631    3.1194   14.1553 H         1 VAL         0.0234
     90 H12       -20.6866    4.7343   13.4010 H         1 VAL         0.0234
     91 H13       -23.0151    0.3172   13.4592 H         1 THR         0.1884
     92 H14       -20.8640   -0.5190   15.3349 H         1 THR         0.0826
     93 H15       -23.9079   -0.6379   15.6759 H         1 THR         0.0639
     94 H16       -21.7732    0.8904   16.8405 H         1 THR         0.2101
     95 H17       -23.3019   -1.3239   18.0163 H         1 THR         0.0257
     96 H18       -21.5587   -1.2968   17.5839 H         1 THR         0.0257
     97 H19       -22.6487   -2.5182   16.8444 H         1 THR         0.0257
     98 H20       -21.3118   -4.4952   13.2267 H         1 PRO         0.0802
     99 H21       -19.0012   -4.4403   12.6971 H         1 PRO         0.0313
    100 H22       -18.9735   -5.7018   13.9756 H         1 PRO         0.0313
    101 H23       -17.5012   -3.4988   14.3623 H         1 PRO         0.0287
    102 H24       -18.5209   -4.0880   15.7186 H         1 PRO         0.0287
    103 H25       -19.2127   -1.8432   15.5838 H         1 PRO         0.0524
    104 H26       -19.0208   -1.7878   13.7987 H         1 PRO         0.0524
    105 H27       -21.8834   -6.4107   13.8064 H         1 VAL         0.1883
    106 H28       -22.2748   -7.0116   16.7434 H         1 VAL         0.0802
    107 H29       -23.7202   -5.4601   14.8835 H         1 VAL         0.0343
    108 H30       -25.9368   -6.4489   14.5107 H         1 VAL         0.0234
    109 H31       -25.2749   -8.0410   15.0144 H         1 VAL         0.0234
    110 H32       -24.6038   -7.2046   13.5733 H         1 VAL         0.0234
    111 H33       -23.7068   -5.2901   17.3118 H         1 VAL         0.0234
    112 H34       -24.9583   -6.5775   17.3653 H         1 VAL         0.0234
    113 H35       -25.3000   -5.0271   16.5250 H         1 VAL         0.0234
    114 H36       -23.1309   -9.3134   16.9720 H         1 CYS         0.1884
    115 H37       -22.0324  -11.0901   14.8898 H         1 CYS         0.0808
    116 H38       -23.2337  -12.9290   16.2327 H         1 CYS         0.0424
    117 H39       -23.5408  -11.6502   17.4563 H         1 CYS         0.0424
    118 H40       -23.1547  -11.8574   13.1741 H         1 THR         0.1884
    119 H41       -26.1423  -11.7298   13.2602 H         1 THR         0.0826
    120 H42       -25.1672   -9.6219   12.2756 H         1 THR         0.0639
    121 H43       -27.2212  -10.5083   11.7793 H         1 THR         0.2101
    122 H44       -24.3244   -9.6983    9.9631 H         1 THR         0.0257
    123 H45       -24.3585  -11.4939    9.9956 H         1 THR         0.0257
    124 H46       -23.2293  -10.5975   11.0671 H         1 THR         0.0257
    125 H47       -27.2094  -13.1087   11.7890 H         1 ALA         0.1883
    126 H48       -26.0457  -15.7202   11.6026 H         1 ALA         0.0797
    127 H49       -28.0795  -16.2962   10.2816 H         1 ALA         0.0277
    128 H50       -28.4645  -14.5493   10.1182 H         1 ALA         0.0277
    129 H51       -28.4976  -15.3288   11.7362 H         1 ALA         0.0277
    130 H52       -24.6865  -16.1583    8.4139 H         1 NH2         0.1815
    131 H53       -25.0910  -16.8345    9.9564 H         1 NH2         0.1815
    132 H54       -24.9800   -0.9895   22.7668 H         1 94T         0.0258
    133 H55       -23.6357   -2.9413   22.1227 H         1 94T         0.1178
    134 H56       -22.0225    1.4501   21.0112 H         1 94T         0.2259
    135 H57       -20.3354   -2.7182   20.3547 H         1 94T         0.0997
    136 H58       -21.9227   -4.2063   22.5178 H         1 94T         0.0676
    137 H59       -19.7519   -4.4233   23.2831 H         1 94T         0.2101
    138 H60       -21.0494   -6.2028   21.5238 H         1 94T         0.0648
    139 H61       -18.8458   -5.3892   21.2392 H         1 94T         0.2100
    140 H62       -21.3415   -5.3372   18.8609 H         1 94T         0.0651
    141 H63       -23.9497   -5.1553   19.6140 H         1 94T         0.0648
    142 H64       -23.2960   -5.9668   21.0772 H         1 94T         0.0648
    143 H65       -22.2033  -12.2540   21.5250 H         1 CYS         0.0621
    144 H66       -20.5361  -11.5861   21.4931 H         1 CYS         0.0621
    145 H67       -21.0305  -10.3692   19.4315 H         1 CYS         0.0299
    146 H68       -22.7348  -10.9345   19.4807 H         1 CYS         0.0299
    147 H69       -20.3152  -12.8061   19.3791 H         1 CYS         0.0377
    148 H70       -22.0468  -13.2461   19.1931 H         1 CYS         0.0377
@<TRIPOS>BOND
     1    1    2 2  
     2    1    3 1  
     3    4    1 am 
     4    5    4 1  
     5    6    5 1  
     6    5    8 1  
     7    6    7 2  
     8   11    6 am 
     9    8    9 1  
    10    8   10 1  
    11   12   11 1  
    12   13   12 1  
    13   12   15 1  
    14   13   14 2  
    15   18   13 am 
    16   15   16 1  
    17   15   17 1  
    18   19   18 1  
    19   18   24 1  
    20   20   19 1  
    21   19   22 1  
    22   20   21 2  
    23   25   20 am 
    24   22   23 1  
    25   23   24 1  
    26   26   25 1  
    27   27   26 1  
    28   26   29 1  
    29   27   28 2  
    30   32   27 am 
    31   29   30 1  
    32   29   31 1  
    33   33   32 1  
    34   33   34 1  
    35   36   33 1  
    36   34   35 2  
    37   34   38 am 
    38   37   36 1  
    39   78   37 1  
    40   38   39 1  
    41   39   40 1  
    42   39   42 1  
    43   40   41 2  
    44   40   45 am 
    45   42   43 1  
    46   42   44 1  
    47   45   46 1  
    48   46   47 1  
    49   46   49 1  
    50   47   48 2  
    51   47   50 am 
    52   55   51 am 
    53   51   56 2  
    54   51   57 am 
    55   53   52 1  
    56   57   52 am 
    57   52   58 2  
    58   54   53 2  
    59   55   54 1  
    60   59   55 1  
    61   60   59 1  
    62   61   59 1  
    63   65   60 1  
    64   61   62 1  
    65   63   61 1  
    66   63   64 1  
    67   65   63 1  
    68   66   65 1  
    69   67   66 1  
    70   68   67 1  
    71   68   69 ar 
    72   68   70 ar 
    73   71   68 1  
    74   72   71 1  
    75   72   73 ar 
    76   72   74 ar 
    77   75   72 1  
    78   76   75 1  
    79   77   76 1  
    80   77   78 1  
    81    3   79 1  
    82    3   80 1  
    83    3   81 1  
    84    4   82 1  
    85    5   83 1  
    86    8   84 1  
    87    9   85 1  
    88    9   86 1  
    89    9   87 1  
    90   10   88 1  
    91   10   89 1  
    92   10   90 1  
    93   11   91 1  
    94   12   92 1  
    95   15   93 1  
    96   16   94 1  
    97   17   95 1  
    98   17   96 1  
    99   17   97 1  
   100   19   98 1  
   101   22   99 1  
   102   22  100 1  
   103   23  101 1  
   104   23  102 1  
   105   24  103 1  
   106   24  104 1  
   107   25  105 1  
   108   26  106 1  
   109   29  107 1  
   110   30  108 1  
   111   30  109 1  
   112   30  110 1  
   113   31  111 1  
   114   31  112 1  
   115   31  113 1  
   116   32  114 1  
   117   33  115 1  
   118   36  116 1  
   119   36  117 1  
   120   38  118 1  
   121   39  119 1  
   122   42  120 1  
   123   43  121 1  
   124   44  122 1  
   125   44  123 1  
   126   44  124 1  
   127   45  125 1  
   128   46  126 1  
   129   49  127 1  
   130   49  128 1  
   131   49  129 1  
   132   50  130 1  
   133   50  131 1  
   134   53  132 1  
   135   54  133 1  
   136   57  134 1  
   137   59  135 1  
   138   61  136 1  
   139   62  137 1  
   140   63  138 1  
   141   64  139 1  
   142   65  140 1  
   143   66  141 1  
   144   66  142 1  
   145   76  143 1  
   146   76  144 1  
   147   77  145 1  
   148   77  146 1  
   149   78  147 1  
   150   78  148 1  
@<TRIPOS>SUBSTRUCTURE
     1 ACE         1

