5npr_ligand
  -I-interpret- 

150152  0  0  0  0  0  0  0  0999 V2000
  -22.4240    1.4540    9.7390 C   0  0  0  0  0
  -21.8080    2.4100    9.2640 O   0  0  0  0  0
  -23.4790    0.6970    8.9040 C   0  0  0  0  0
  -22.2620    1.0110   10.9950 N   0  0  0  0  0
  -21.2740    1.6210   11.9100 C   0  0  0  0  0
  -21.0210    0.7010   13.1380 C   0  0  0  0  0
  -19.8560    0.5340   13.4940 O   0  0  0  0  0
  -21.6230    3.1030   12.3250 C   0  0  0  0  0
  -22.9750    3.2610   13.0640 C   0  0  0  0  0
  -20.4970    3.6690   13.2030 C   0  0  0  0  0
  -22.0850    0.1350   13.7780 N   0  0  0  0  0
  -21.8640   -0.7410   14.9340 C   0  0  0  0  0
  -21.9020   -2.2260   14.5210 C   0  0  0  0  0
  -22.9820   -2.7710   14.3340 O   0  0  0  0  0
  -22.8790   -0.5060   16.0420 C   0  0  0  0  0
  -22.6610    0.8150   16.5110 O   0  0  0  0  0
  -22.5750   -1.4820   17.2060 C   0  0  0  0  0
  -20.7270   -2.8840   14.4850 N   0  0  0  0  0
  -20.6790   -4.3240   14.1100 C   0  0  0  0  0
  -21.1820   -5.1240   15.1910 C   0  0  0  0  0
  -20.9630   -4.8490   16.3860 O   0  0  0  0  0
  -19.2270   -4.6550   13.7520 C   0  0  0  0  0
  -18.5330   -3.6830   14.6960 C   0  0  0  0  0
  -19.3280   -2.4130   14.6500 C   0  0  0  0  0
  -21.8720   -6.1960   14.7830 N   0  0  0  0  0
  -22.6120   -7.0710   15.6980 C   0  0  0  0  0
  -22.4970   -8.5280   15.2040 C   0  0  0  0  0
  -22.1140   -8.7210   14.0530 O   0  0  0  0  0
  -23.9880   -6.3460   15.4780 C   0  0  0  0  0
  -25.0260   -7.0620   14.5790 C   0  0  0  0  0
  -24.5240   -5.7720   16.7550 C   0  0  0  0  0
  -22.8730   -9.5190   16.0280 N   0  0  0  0  0
  -22.9060  -10.9230   15.5370 C   0  0  0  0  0
  -24.1830  -11.0690   14.7210 C   0  0  0  0  0
  -25.2300  -10.6280   15.1630 O   0  0  0  0  0
  -22.8860  -11.9640   16.6300 C   0  0  0  0  0
  -21.1890  -12.1210   17.2200 S   0  0  0  0  0
  -24.0570  -11.5810   13.5050 N   0  0  0  0  0
  -25.2360  -11.7460   12.6370 C   0  0  0  0  0
  -25.1810  -13.1190   11.9320 C   0  0  0  0  0
  -24.0980  -13.6800   11.7370 O   0  0  0  0  0
  -25.2930  -10.5470   11.6940 C   0  0  0  0  0
  -26.5560  -10.5730   11.1040 O   0  0  0  0  0
  -24.2270  -10.5870   10.6040 C   0  0  0  0  0
  -26.3830  -13.6380   11.5970 N   0  0  0  0  0
  -26.5150  -14.9650   10.9550 C   0  0  0  0  0
  -25.8460  -14.9890    9.5950 C   0  0  0  0  0
  -26.0000  -13.8960    8.8170 O   0  0  0  0  0
  -27.9930  -15.3090   10.7590 C   0  0  0  0  0
  -25.1500  -16.0850    9.2970 N   0  0  0  0  0
  -21.6210   -0.5780   20.9190 C   0  0  0  0  0
  -23.5690    0.4120   21.9380 C   0  0  0  0  0
  -24.0330   -0.8560   22.2460 C   0  0  0  0  0
  -23.2740   -1.9430   21.8810 C   0  0  0  0  0
  -22.0770   -1.8140   21.2230 N   0  0  0  0  0
  -20.5440   -0.4040   20.3610 O   0  0  0  0  0
  -22.3590    0.5410   21.2570 N   0  0  0  0  0
  -24.2240    1.4210   22.2560 O   0  0  0  0  0
  -21.2930   -3.0230   20.8020 C   0  0  0  0  0
  -22.1790   -3.6600   19.8500 O   0  0  0  0  0
  -21.0550   -4.0730   21.8550 C   0  0  0  0  0
  -19.8890   -3.7530   22.6240 O   0  0  0  0  0
  -20.8160   -5.2750   20.9810 C   0  0  0  0  0
  -19.4380   -5.3390   20.4980 O   0  0  0  0  0
  -21.8080   -5.0540   19.8160 C   0  0  0  0  0
  -23.1320   -5.7780   20.0060 C   0  0  0  0  0
  -23.1020   -7.0070   19.3110 O   0  0  0  0  0
  -24.0640   -8.2270   19.6390 P   0  0  0  0  0
  -25.4350   -7.7230   19.7920 O   0  0  0  0  0
  -23.7970   -9.3460   18.7130 O   0  0  0  0  0
  -23.4770   -8.4850   21.1610 O   0  0  0  0  0
  -23.4980   -9.7960   22.0400 P   0  0  0  0  0
  -23.6950   -9.3350   23.4260 O   0  0  0  0  0
  -24.4630  -10.7220   21.4390 O   0  0  0  0  0
  -22.0390  -10.2340   21.8250 O   0  0  0  0  0
  -21.5840  -11.3990   21.2160 C   0  0  0  0  0
  -21.6960  -11.1900   19.7370 C   0  0  0  0  0
  -21.2940  -12.4650   19.0110 C   0  0  0  0  0
  -24.2686    1.3871    8.6066 H   0  0  0  0  0
  -23.0058    0.2795    8.0152 H   0  0  0  0  0
  -23.9048   -0.1082    9.5027 H   0  0  0  0  0
  -22.8344    0.2346   11.3266 H   0  0  0  0  0
  -20.3407    1.7046   11.3531 H   0  0  0  0  0
  -21.7195    3.6591   11.3925 H   0  0  0  0  0
  -22.9377    2.7164   14.0075 H   0  0  0  0  0
  -23.1593    4.3173   13.2597 H   0  0  0  0  0
  -23.7761    2.8600   12.4430 H   0  0  0  0  0
  -20.6861    4.7245   13.3985 H   0  0  0  0  0
  -20.4645    3.1237   14.1462 H   0  0  0  0  0
  -19.5441    3.5591   12.6852 H   0  0  0  0  0
  -23.0337    0.3209   13.4528 H   0  0  0  0  0
  -20.8747   -0.4926   15.3182 H   0  0  0  0  0
  -23.8992   -0.6531   15.6875 H   0  0  0  0  0
  -23.2828    1.0098   17.2160 H   0  0  0  0  0
  -22.6483   -2.5084   16.8464 H   0  0  0  0  0
  -21.5677   -1.2975   17.5795 H   0  0  0  0  0
  -23.2959   -1.3244   18.0083 H   0  0  0  0  0
  -21.3107   -4.5407   13.2486 H   0  0  0  0  0
  -18.9715   -4.5405   12.6986 H   0  0  0  0  0
  -18.9461   -5.7010   13.8748 H   0  0  0  0  0
  -17.5005   -3.5107   14.3922 H   0  0  0  0  0
  -18.4906   -4.0828   15.7091 H   0  0  0  0  0
  -19.1952   -1.8049   15.5448 H   0  0  0  0  0
  -19.0123   -1.7520   13.8428 H   0  0  0  0  0
  -21.8836   -6.4150   13.7869 H   0  0  0  0  0
  -22.3256   -7.1808   16.7440 H   0  0  0  0  0
  -23.7504   -5.4992   14.8341 H   0  0  0  0  0
  -24.6064   -7.2027   13.5829 H   0  0  0  0  0
  -25.2717   -8.0319   15.0115 H   0  0  0  0  0
  -25.9279   -6.4536   14.5121 H   0  0  0  0  0
  -24.6702   -6.5736   17.4790 H   0  0  0  0  0
  -23.8137   -5.0470   17.1523 H   0  0  0  0  0
  -25.4764   -5.2795   16.5589 H   0  0  0  0  0
  -23.1361   -9.3093   16.9909 H   0  0  0  0  0
  -22.0023  -11.1010   14.9541 H   0  0  0  0  0
  -23.2408  -12.9203   16.2456 H   0  0  0  0  0
  -23.5424  -11.6645   17.4471 H   0  0  0  0  0
  -23.1367  -11.8630   13.1675 H   0  0  0  0  0
  -26.1675  -11.7559   13.2029 H   0  0  0  0  0
  -25.1071   -9.6368   12.2641 H   0  0  0  0  0
  -26.6403   -9.8330   10.4983 H   0  0  0  0  0
  -23.2389  -10.5975   11.0641 H   0  0  0  0  0
  -24.3584  -11.4861   10.0019 H   0  0  0  0  0
  -24.3245   -9.7059    9.9697 H   0  0  0  0  0
  -27.2259  -13.0981   11.7928 H   0  0  0  0  0
  -26.0331  -15.6910   11.6097 H   0  0  0  0  0
  -28.4918  -15.3283   11.7280 H   0  0  0  0  0
  -28.4590  -14.5555   10.1240 H   0  0  0  0  0
  -28.0774  -16.2874   10.2859 H   0  0  0  0  0
  -24.6659  -16.1541    8.4018 H   0  0  0  0  0
  -25.1011  -16.8552    9.9640 H   0  0  0  0  0
  -24.9809   -0.9897   22.7673 H   0  0  0  0  0
  -23.6360   -2.9422   22.1229 H   0  0  0  0  0
  -22.0158    1.4682   21.0063 H   0  0  0  0  0
  -20.3080   -2.6882   20.4768 H   0  0  0  0  0
  -21.8553   -4.1929   22.5853 H   0  0  0  0  0
  -19.7505   -4.4303   23.2900 H   0  0  0  0  0
  -20.9654   -6.2168   21.5091 H   0  0  0  0  0
  -19.3292   -6.1174   19.9467 H   0  0  0  0  0
  -21.3183   -5.4037   18.9071 H   0  0  0  0  0
  -23.9420   -5.1610   19.6171 H   0  0  0  0  0
  -23.2940   -5.9653   21.0675 H   0  0  0  0  0
  -22.8602   -9.5551   18.7272 H   0  0  0  0  0
  -22.9828   -8.7385   23.6679 H   0  0  0  0  0
  -22.1778  -12.2570   21.5311 H   0  0  0  0  0
  -20.5522  -11.6059   21.5000 H   0  0  0  0  0
  -21.0360  -10.3770   19.4346 H   0  0  0  0  0
  -22.7255  -10.9374   19.4833 H   0  0  0  0  0
  -20.3260  -12.8070   19.3771 H   0  0  0  0  0
  -22.0366  -13.2418   19.1934 H   0  0  0  0  0
  1  2  2  0  0  0
  1  3  1  0  0  0
  4  1  1  0  0  0
  5  4  1  0  0  0
  6  5  1  0  0  0
  5  8  1  0  0  0
  6  7  2  0  0  0
 11  6  1  0  0  0
  8  9  1  0  0  0
  8 10  1  0  0  0
 12 11  1  0  0  0
 13 12  1  0  0  0
 12 15  1  0  0  0
 13 14  2  0  0  0
 18 13  1  0  0  0
 15 16  1  0  0  0
 15 17  1  0  0  0
 19 18  1  0  0  0
 18 24  1  0  0  0
 20 19  1  0  0  0
 19 22  1  0  0  0
 20 21  2  0  0  0
 25 20  1  0  0  0
 22 23  1  0  0  0
 23 24  1  0  0  0
 26 25  1  0  0  0
 27 26  1  0  0  0
 26 29  1  0  0  0
 27 28  2  0  0  0
 32 27  1  0  0  0
 29 30  1  0  0  0
 29 31  1  0  0  0
 33 32  1  0  0  0
 33 34  1  0  0  0
 36 33  1  0  0  0
 34 35  2  0  0  0
 34 38  1  0  0  0
 37 36  1  0  0  0
 78 37  1  0  0  0
 38 39  1  0  0  0
 39 40  1  0  0  0
 39 42  1  0  0  0
 40 41  2  0  0  0
 40 45  1  0  0  0
 42 43  1  0  0  0
 42 44  1  0  0  0
 45 46  1  0  0  0
 46 47  1  0  0  0
 46 49  1  0  0  0
 47 48  2  0  0  0
 47 50  1  0  0  0
 55 51  1  0  0  0
 51 56  2  0  0  0
 51 57  1  0  0  0
 53 52  1  0  0  0
 57 52  1  0  0  0
 52 58  2  0  0  0
 54 53  2  0  0  0
 55 54  1  0  0  0
 59 55  1  0  0  0
 60 59  1  0  0  0
 61 59  1  0  0  0
 65 60  1  0  0  0
 61 62  1  0  0  0
 63 61  1  0  0  0
 63 64  1  0  0  0
 65 63  1  0  0  0
 66 65  1  0  0  0
 67 66  1  0  0  0
 68 67  1  0  0  0
 68 69  2  0  0  0
 68 70  1  0  0  0
 71 68  1  0  0  0
 72 71  1  0  0  0
 72 73  1  0  0  0
 72 74  2  0  0  0
 75 72  1  0  0  0
 76 75  1  0  0  0
 77 76  1  0  0  0
 77 78  1  0  0  0
  3 79  1  0  0  0
  3 80  1  0  0  0
  3 81  1  0  0  0
  4 82  1  0  0  0
  5 83  1  0  0  0
  8 84  1  0  0  0
  9 85  1  0  0  0
  9 86  1  0  0  0
  9 87  1  0  0  0
 10 88  1  0  0  0
 10 89  1  0  0  0
 10 90  1  0  0  0
 11 91  1  0  0  0
 12 92  1  0  0  0
 15 93  1  0  0  0
 16 94  1  0  0  0
 17 95  1  0  0  0
 17 96  1  0  0  0
 17 97  1  0  0  0
 19 98  1  0  0  0
 22 99  1  0  0  0
 22100  1  0  0  0
 23101  1  0  0  0
 23102  1  0  0  0
 24103  1  0  0  0
 24104  1  0  0  0
 25105  1  0  0  0
 26106  1  0  0  0
 29107  1  0  0  0
 30108  1  0  0  0
 30109  1  0  0  0
 30110  1  0  0  0
 31111  1  0  0  0
 31112  1  0  0  0
 31113  1  0  0  0
 32114  1  0  0  0
 33115  1  0  0  0
 36116  1  0  0  0
 36117  1  0  0  0
 38118  1  0  0  0
 39119  1  0  0  0
 42120  1  0  0  0
 43121  1  0  0  0
 44122  1  0  0  0
 44123  1  0  0  0
 44124  1  0  0  0
 45125  1  0  0  0
 46126  1  0  0  0
 49127  1  0  0  0
 49128  1  0  0  0
 49129  1  0  0  0
 50130  1  0  0  0
 50131  1  0  0  0
 53132  1  0  0  0
 54133  1  0  0  0
 57134  1  0  0  0
 59135  1  0  0  0
 61136  1  0  0  0
 62137  1  0  0  0
 63138  1  0  0  0
 64139  1  0  0  0
 65140  1  0  0  0
 66141  1  0  0  0
 66142  1  0  0  0
 70143  1  0  0  0
 73144  1  0  0  0
 76145  1  0  0  0
 76146  1  0  0  0
 77147  1  0  0  0
 77148  1  0  0  0
 78149  1  0  0  0
 78150  1  0  0  0
M  END
$$$$
