6hr2_ligand
  -I-interpret- 

125132  0  0  0  0  0  0  0  0999 V2000
  -31.9330   -7.8360  -19.9600 N   0  0  0  0  0
  -29.5870   -7.5470  -19.6800 C   0  0  0  0  0
  -29.4300  -10.2440  -18.3520 C   0  0  0  0  0
  -31.9120  -10.4060  -18.3510 C   0  0  0  0  0
  -30.6690  -10.4020  -20.5010 C   0  0  0  0  0
  -27.5580   -6.2750  -19.3980 C   0  0  0  0  0
  -28.6460   -7.0330  -17.3590 C   0  0  0  0  0
  -26.6940   -7.0830  -20.3620 C   0  0  0  0  0
  -22.6660   -7.6530  -22.1200 C   0  0  0  0  0
  -21.3550   -7.4670  -21.6990 C   0  0  0  0  0
  -21.0360   -6.4290  -20.8270 C   0  0  0  0  0
  -23.3540   -5.7870  -20.7830 C   0  0  0  0  0
  -18.5040   -6.0340  -21.2080 C   0  0  0  0  0
  -17.6070   -5.6520  -19.2330 C   0  0  0  0  0
  -30.8260   -8.2630  -19.1260 C   0  0  0  0  0
  -30.7050   -9.8170  -19.0870 C   0  0  0  0  0
  -28.6980   -7.0060  -18.8260 N   0  0  0  0  0
  -29.4420   -7.4610  -20.8940 O   0  0  0  0  0
  -26.7280   -5.8830  -18.1690 C   0  0  0  0  0
  -27.7470   -5.8500  -17.0390 C   0  0  0  0  0
  -28.5010   -4.6410  -17.1250 O   0  0  0  0  0
  -26.5670   -8.2950  -20.2190 O   0  0  0  0  0
  -26.1050   -6.3910  -21.3400 N   0  0  0  0  0
  -25.0920   -6.9700  -22.2090 C   0  0  0  0  0
  -23.6870   -6.8040  -21.6790 C   0  0  0  0  0
  -22.0530   -5.6030  -20.3620 C   0  0  0  0  0
  -19.6310   -6.1860  -20.4380 C   0  0  0  0  0
  -17.3620   -5.7140  -20.5030 N   0  0  0  0  0
  -19.2330   -5.9550  -18.7630 S   0  0  0  0  0
  -18.3970   -6.2130  -22.6870 C   0  0  0  0  0
  -33.0430   -7.2050  -19.5660 C   0  0  0  0  0
  -34.0820   -6.9400  -20.6520 C   0  0  0  0  0
  -33.2650   -6.8380  -18.4230 O   0  0  0  0  0
  -33.6580   -7.3780  -21.9250 F   0  0  0  0  0
  -35.5130   -7.1570  -20.3720 C   0  0  0  0  0
  -34.9890   -5.7740  -20.6700 C   0  0  0  0  0
  -23.0800   -8.6650  -22.9580 O   0  0  0  0  0
  -22.1470   -9.6330  -23.4720 C   0  0  0  0  0
  -21.8580  -10.6780  -22.4080 C   0  0  0  0  0
  -26.3510  -14.1380  -21.0610 C   0  0  0  0  0
  -27.4210  -13.8990  -22.0400 N   0  3  0  0  0
  -28.7360  -13.7150  -21.4120 C   0  0  0  0  0
  -29.8720  -14.0320  -22.3930 C   0  0  0  0  0
  -29.4810  -13.7440  -23.7780 N   0  0  0  0  0
  -28.2970  -14.4900  -24.2190 C   0  0  0  0  0
  -27.4880  -14.9590  -23.0360 C   0  0  0  0  0
  -30.5300  -13.5350  -24.7170 C   0  0  0  0  0
  -30.9170  -14.4920  -25.6580 C   0  0  0  0  0
  -31.9600  -14.1900  -26.5370 C   0  0  0  0  0
  -32.6290  -13.0330  -26.4420 N   0  0  0  0  0
  -32.2810  -12.1120  -25.5180 N   0  0  0  0  0
  -31.2510  -12.3120  -24.6750 C   0  0  0  0  0
  -30.9680  -11.3000  -23.8310 N   0  0  0  0  0
  -32.3810  -15.1020  -27.6410 C   0  0  0  0  0
  -33.4220  -14.7630  -28.5250 C   0  0  0  0  0
  -33.7970  -15.6360  -29.5510 C   0  0  0  0  0
  -33.1370  -16.8430  -29.7110 C   0  0  0  0  0
  -32.1210  -17.1940  -28.8490 C   0  0  0  0  0
  -31.7420  -16.3350  -27.8290 C   0  0  0  0  0
  -34.1360  -13.6100  -28.4750 O   0  0  0  0  0
  -23.0370  -11.5680  -22.0900 C   0  0  0  0  0
  -23.0900  -12.8780  -22.5490 C   0  0  0  0  0
  -24.1240  -13.7210  -22.1770 C   0  0  0  0  0
  -25.1480  -13.2740  -21.3520 C   0  0  0  0  0
  -25.1000  -11.9630  -20.9010 C   0  0  0  0  0
  -24.0640  -11.1220  -21.2670 C   0  0  0  0  0
  -31.8558   -8.0397  -20.9565 H   0  0  0  0  0
  -28.5608   -9.8356  -18.8677 H   0  0  0  0  0
  -29.4579   -9.8669  -17.3297 H   0  0  0  0  0
  -29.3675  -11.3321  -18.3377 H   0  0  0  0  0
  -31.9399  -10.0179  -17.3328 H   0  0  0  0  0
  -32.8267  -10.1256  -18.8733 H   0  0  0  0  0
  -31.8254  -11.4922  -18.3249 H   0  0  0  0  0
  -31.5863  -10.1360  -21.0263 H   0  0  0  0  0
  -29.8109   -9.9980  -21.0382 H   0  0  0  0  0
  -30.5843  -11.4871  -20.4418 H   0  0  0  0  0
  -27.9167   -5.4414  -20.0018 H   0  0  0  0  0
  -28.2683   -7.9755  -16.9627 H   0  0  0  0  0
  -29.6298   -6.9589  -16.8957 H   0  0  0  0  0
  -20.5718   -8.1373  -22.0532 H   0  0  0  0  0
  -24.1360   -5.1261  -20.4090 H   0  0  0  0  0
  -16.8289   -5.4215  -18.5053 H   0  0  0  0  0
  -30.9658   -7.9923  -18.0794 H   0  0  0  0  0
  -26.2204   -4.9271  -18.2984 H   0  0  0  0  0
  -25.9160   -6.5840  -17.9755 H   0  0  0  0  0
  -27.3048   -5.8961  -16.0438 H   0  0  0  0  0
  -27.9316   -3.8950  -16.9226 H   0  0  0  0  0
  -26.3758   -5.4182  -21.4836 H   0  0  0  0  0
  -25.1461   -6.4548  -23.1680 H   0  0  0  0  0
  -25.2926   -8.0388  -22.2834 H   0  0  0  0  0
  -21.8206   -4.8032  -19.6588 H   0  0  0  0  0
  -18.6742   -7.2341  -22.9491 H   0  0  0  0  0
  -19.0679   -5.5136  -23.1858 H   0  0  0  0  0
  -17.3711   -6.0215  -23.0016 H   0  0  0  0  0
  -36.1403   -7.6579  -19.6347 H   0  0  0  0  0
  -36.3223   -7.8157  -20.6870 H   0  0  0  0  0
  -35.2250   -4.9229  -21.3088 H   0  0  0  0  0
  -35.0436   -4.7656  -20.2598 H   0  0  0  0  0
  -21.2196   -9.1310  -23.7476 H   0  0  0  0  0
  -22.5752  -10.1183  -24.3491 H   0  0  0  0  0
  -21.5964  -10.1463  -21.4932 H   0  0  0  0  0
  -21.0617  -11.3176  -22.7888 H   0  0  0  0  0
  -26.0519  -15.1846  -21.1187 H   0  0  0  0  0
  -26.7254  -13.8926  -20.0672 H   0  0  0  0  0
  -27.1776  -13.0257  -22.5074 H   0  0  0  0  0
  -28.8283  -12.6750  -21.0988 H   0  0  0  0  0
  -28.8124  -14.3932  -20.5621 H   0  0  0  0  0
  -30.7309  -13.4105  -22.1399 H   0  0  0  0  0
  -30.1106  -15.0927  -22.3146 H   0  0  0  0  0
  -27.6770  -13.8352  -24.8313 H   0  0  0  0  0
  -28.6222  -15.3600  -24.7894 H   0  0  0  0  0
  -27.9615  -15.8380  -22.5986 H   0  0  0  0  0
  -26.4799  -15.2126  -23.3639 H   0  0  0  0  0
  -30.4139  -15.4578  -25.7057 H   0  0  0  0  0
  -30.1955  -11.3875  -23.1707 H   0  0  0  0  0
  -31.5263  -10.4467  -23.8525 H   0  0  0  0  0
  -34.6096  -15.3662  -30.2255 H   0  0  0  0  0
  -33.4216  -17.5161  -30.5198 H   0  0  0  0  0
  -31.6132  -18.1509  -28.9695 H   0  0  0  0  0
  -30.9313  -16.6242  -27.1603 H   0  0  0  0  0
  -34.7884  -13.6082  -29.1792 H   0  0  0  0  0
  -22.3070  -13.2476  -23.2111 H   0  0  0  0  0
  -24.1343  -14.7499  -22.5368 H   0  0  0  0  0
  -25.8898  -11.5900  -20.2489 H   0  0  0  0  0
  -24.0533  -10.0942  -20.9043 H   0  0  0  0  0
 15  1  1  0  0  0
  1 31  1  0  0  0
  2 15  1  0  0  0
 17  2  1  0  0  0
  2 18  2  0  0  0
 16  3  1  0  0  0
 16  4  1  0  0  0
 16  5  1  0  0  0
  8  6  1  0  0  0
  6 17  1  0  0  0
  6 19  1  0  0  0
 17  7  1  0  0  0
 20  7  1  0  0  0
  8 22  2  0  0  0
 23  8  1  0  0  0
  9 10  4  0  0  0
  9 25  4  0  0  0
 37  9  1  0  0  0
 10 11  4  0  0  0
 11 26  4  0  0  0
 11 27  1  0  0  0
 25 12  4  0  0  0
 12 26  4  0  0  0
 27 13  4  0  0  0
 13 28  4  0  0  0
 13 30  1  0  0  0
 14 28  4  0  0  0
 29 14  4  0  0  0
 15 16  1  0  0  0
 19 20  1  0  0  0
 20 21  1  0  0  0
 24 23  1  0  0  0
 25 24  1  0  0  0
 27 29  4  0  0  0
 31 32  1  0  0  0
 31 33  2  0  0  0
 32 34  1  0  0  0
 32 35  1  0  0  0
 32 36  1  0  0  0
 36 35  1  0  0  0
 38 37  1  0  0  0
 39 38  1  0  0  0
 61 39  1  0  0  0
 40 41  1  0  0  0
 64 40  1  0  0  0
 41 42  1  0  0  0
 41 46  1  0  0  0
 42 43  1  0  0  0
 43 44  1  0  0  0
 45 44  1  0  0  0
 44 47  1  0  0  0
 46 45  1  0  0  0
 47 48  4  0  0  0
 47 52  4  0  0  0
 48 49  4  0  0  0
 49 50  4  0  0  0
 49 54  1  0  0  0
 51 50  4  0  0  0
 52 51  4  0  0  0
 52 53  1  0  0  0
 54 55  4  0  0  0
 54 59  4  0  0  0
 55 56  4  0  0  0
 55 60  1  0  0  0
 56 57  4  0  0  0
 58 57  4  0  0  0
 59 58  4  0  0  0
 62 61  4  0  0  0
 61 66  4  0  0  0
 63 62  4  0  0  0
 63 64  4  0  0  0
 64 65  4  0  0  0
 65 66  4  0  0  0
  1 67  1  0  0  0
  3 68  1  0  0  0
  3 69  1  0  0  0
  3 70  1  0  0  0
  4 71  1  0  0  0
  4 72  1  0  0  0
  4 73  1  0  0  0
  5 74  1  0  0  0
  5 75  1  0  0  0
  5 76  1  0  0  0
  6 77  1  0  0  0
  7 78  1  0  0  0
  7 79  1  0  0  0
 10 80  1  0  0  0
 12 81  1  0  0  0
 14 82  1  0  0  0
 15 83  1  0  0  0
 19 84  1  0  0  0
 19 85  1  0  0  0
 20 86  1  0  0  0
 21 87  1  0  0  0
 23 88  1  0  0  0
 24 89  1  0  0  0
 24 90  1  0  0  0
 26 91  1  0  0  0
 30 92  1  0  0  0
 30 93  1  0  0  0
 30 94  1  0  0  0
 35 95  1  0  0  0
 35 96  1  0  0  0
 36 97  1  0  0  0
 36 98  1  0  0  0
 38 99  1  0  0  0
 38100  1  0  0  0
 39101  1  0  0  0
 39102  1  0  0  0
 40103  1  0  0  0
 40104  1  0  0  0
 41105  1  0  0  0
 42106  1  0  0  0
 42107  1  0  0  0
 43108  1  0  0  0
 43109  1  0  0  0
 45110  1  0  0  0
 45111  1  0  0  0
 46112  1  0  0  0
 46113  1  0  0  0
 48114  1  0  0  0
 53115  1  0  0  0
 53116  1  0  0  0
 56117  1  0  0  0
 57118  1  0  0  0
 58119  1  0  0  0
 59120  1  0  0  0
 60121  1  0  0  0
 62122  1  0  0  0
 63123  1  0  0  0
 65124  1  0  0  0
 66125  1  0  0  0
M  END
$$$$
