4mq6_ligand
  -I-interpret- 

 46 48  0  0  0  0  0  0  0  0999 V2000
   18.2210   12.2510   -0.8040 O   0  0  0  0  0
   18.5620   11.0760   -0.9600 C   0  0  0  0  0
   19.7140   10.6000   -0.9150 O   0  0  0  0  0
   17.5610   10.0990   -1.3750 C   0  0  0  0  0
   16.1020   10.4110   -1.3380 N   0  0  0  0  0
   15.2980   10.3160   -2.4330 C   0  0  0  0  0
   15.6420   10.0540   -3.7540 C   0  0  0  0  0
   14.6310   10.0190   -4.7110 C   0  0  0  0  0
   13.2930   10.1960   -4.3260 C   0  0  0  0  0
   12.3830   10.1160   -5.3730 O   0  0  0  0  0
   11.0780    9.7180   -4.9830 C   0  0  0  0  0
   12.9840   10.4890   -2.9600 C   0  0  0  0  0
   14.0070   10.5090   -2.0320 C   0  0  0  0  0
   14.0460   10.7250   -0.6690 C   0  0  0  0  0
   15.3530   10.6260   -0.2460 C   0  0  0  0  0
   15.8720   10.7830    1.0310 C   0  0  0  0  0
   16.9570   10.3450    1.4090 O   0  0  0  0  0
   15.1770   11.4810    1.8570 N   0  0  0  0  0
   15.6610   11.6860    3.4360 S   0  0  0  0  0
   15.2400   12.9380    3.9110 O   0  0  0  0  0
   17.1450   11.9290    3.7350 O   0  0  0  0  0
   15.1520   10.4920    4.2770 C   0  0  0  0  0
   13.8090   10.3190    4.3570 C   0  0  0  0  0
   13.3240    9.2540    5.1940 C   0  0  0  0  0
   14.2120    8.4530    5.9450 C   0  0  0  0  0
   13.7410    7.4020    6.7470 C   0  0  0  0  0
   15.6110    8.6710    5.8030 C   0  0  0  0  0
   16.0900    9.7200    4.9980 C   0  0  0  0  0
   19.6746    9.6541   -1.0741 H   0  0  0  0  0
   17.6720    9.2906   -0.6523 H   0  0  0  0  0
   17.7677    9.9496   -2.4347 H   0  0  0  0  0
   16.6807    9.8797   -4.0348 H   0  0  0  0  0
   14.8789    9.8541   -5.7595 H   0  0  0  0  0
   11.1229    8.7311   -4.5225 H   0  0  0  0  0
   10.6791   10.4366   -4.2670 H   0  0  0  0  0
   10.4330    9.6816   -5.8609 H   0  0  0  0  0
   11.9573   10.6933   -2.6564 H   0  0  0  0  0
   13.1862   10.9382   -0.0338 H   0  0  0  0  0
   14.3120   11.9177    1.5384 H   0  0  0  0  0
   13.1225   10.9631    3.8074 H   0  0  0  0  0
   12.2525    9.0621    5.2494 H   0  0  0  0  0
   13.0602    7.7984    7.5003 H   0  0  0  0  0
   13.2144    6.6791    6.1239 H   0  0  0  0  0
   14.5839    6.9151    7.2375 H   0  0  0  0  0
   16.3158    8.0209    6.3214 H   0  0  0  0  0
   17.1572    9.9318    4.9321 H   0  0  0  0  0
  1  2  2  0  0  0
  2  3  1  0  0  0
  2  4  1  0  0  0
  4  5  1  0  0  0
  5  6  4  0  0  0
  5 15  4  0  0  0
  6  7  4  0  0  0
  6 13  4  0  0  0
  7  8  4  0  0  0
  8  9  4  0  0  0
  9 10  1  0  0  0
  9 12  4  0  0  0
 10 11  1  0  0  0
 12 13  4  0  0  0
 13 14  4  0  0  0
 14 15  4  0  0  0
 15 16  1  0  0  0
 16 17  2  0  0  0
 16 18  1  0  0  0
 18 19  1  0  0  0
 19 20  2  0  0  0
 19 21  2  0  0  0
 19 22  1  0  0  0
 22 23  4  0  0  0
 22 28  4  0  0  0
 23 24  4  0  0  0
 24 25  4  0  0  0
 25 26  1  0  0  0
 25 27  4  0  0  0
 27 28  4  0  0  0
  3 29  1  0  0  0
  4 30  1  0  0  0
  4 31  1  0  0  0
  7 32  1  0  0  0
  8 33  1  0  0  0
 11 34  1  0  0  0
 11 35  1  0  0  0
 11 36  1  0  0  0
 12 37  1  0  0  0
 14 38  1  0  0  0
 18 39  1  0  0  0
 23 40  1  0  0  0
 24 41  1  0  0  0
 26 42  1  0  0  0
 26 43  1  0  0  0
 26 44  1  0  0  0
 27 45  1  0  0  0
 28 46  1  0  0  0
M  END
$$$$
