2w17_ligand
  -I-interpret- 

 64 67  0  0  0  0  0  0  0  0999 V2000
    0.1740   28.2800   11.7090 C   0  0  0  0  0
   -0.2090   28.2300   10.2440 C   0  0  0  0  0
   -0.2970   26.8120    9.7030 C   0  0  0  0  0
   -1.4180   29.0130   10.0590 N   0  0  0  0  0
   -2.5870   28.7460   10.6610 C   0  0  0  0  0
   -2.9190   27.6210   11.5880 C   0  0  0  0  0
   -3.4340   29.6980   10.2750 N   0  0  0  0  0
   -2.8300   30.5940    9.4110 C   0  0  0  0  0
   -1.5290   30.1630    9.2640 C   0  0  0  0  0
   -0.4980   30.8190    8.3970 C   0  0  0  0  0
    0.4720   30.0520    7.8830 N   0  0  0  0  0
    1.3930   30.6570    7.1190 C   0  0  0  0  0
    2.4590   29.9560    6.5220 N   0  0  0  0  0
    3.1760   28.8200    6.9340 C   0  0  0  0  0
    2.9520   28.1620    8.1230 C   0  0  0  0  0
    3.7040   27.0540    8.4590 C   0  0  0  0  0
    4.6780   26.6030    7.5880 C   0  0  0  0  0
    4.9410   27.2450    6.3910 C   0  0  0  0  0
    4.1700   28.3550    6.0870 C   0  0  0  0  0
    5.5040   25.4540    7.9260 C   0  0  0  0  0
    6.7090   25.6620    7.9600 O   0  0  0  0  0
    4.9450   24.2200    8.1530 N   0  0  0  0  0
    3.6290   23.9730    8.6780 C   0  0  0  0  0
    3.6590   22.5010    9.0750 C   0  0  0  0  0
    5.1240   22.1200    9.2560 C   0  0  0  0  0
    5.8920   23.2030    8.5510 C   0  0  0  0  0
    5.5400   22.1920   10.6970 N   0  3  0  0  0
    4.4970   21.8010   11.6840 C   0  0  0  0  0
    6.7650   21.3790   10.9480 C   0  0  0  0  0
    1.3850   31.9680    6.8370 N   0  0  0  0  0
    0.4110   32.7080    7.3590 C   0  0  0  0  0
   -0.5610   32.1790    8.1540 C   0  0  0  0  0
   -1.5010   33.0050    8.6410 F   0  0  0  0  0
    0.3509   29.3149   12.0019 H   0  0  0  0  0
   -0.6354   27.8645   12.3092 H   0  0  0  0  0
    1.0811   27.6964   11.8662 H   0  0  0  0  0
    0.5827   28.6777    9.6434 H   0  0  0  0  0
   -1.1036   26.2810   10.2086 H   0  0  0  0  0
   -0.4972   26.8449    8.6320 H   0  0  0  0  0
    0.6469   26.2970    9.8819 H   0  0  0  0  0
   -2.7618   26.6716   11.0761 H   0  0  0  0  0
   -2.2748   27.6730   12.4657 H   0  0  0  0  0
   -3.9616   27.7010   11.8956 H   0  0  0  0  0
   -3.2896   31.4640    8.9419 H   0  0  0  0  0
    2.7658   30.3429    5.6295 H   0  0  0  0  0
    2.1772   28.5178    8.8021 H   0  0  0  0  0
    3.5310   26.5388    9.4039 H   0  0  0  0  0
    5.7212   26.8926    5.7163 H   0  0  0  0  0
    4.3511   28.8809    5.1496 H   0  0  0  0  0
    2.8471   24.1881    7.9497 H   0  0  0  0  0
    3.3921   24.6229    9.5204 H   0  0  0  0  0
    3.1914   21.8842    8.3075 H   0  0  0  0  0
    3.1006   22.3380    9.9968 H   0  0  0  0  0
    5.2958   21.1090    8.8867 H   0  0  0  0  0
    6.6488   23.6252    9.2121 H   0  0  0  0  0
    6.4061   22.7992    7.6788 H   0  0  0  0  0
    5.7216   23.1846   10.8457 H   0  0  0  0  0
    3.6342   22.4586   11.5787 H   0  0  0  0  0
    4.1941   20.7700   11.5014 H   0  0  0  0  0
    4.9016   21.8890   12.6923 H   0  0  0  0  0
    6.5664   20.3375   10.6951 H   0  0  0  0  0
    7.5815   21.7546   10.3313 H   0  0  0  0  0
    7.0392   21.4528   12.0004 H   0  0  0  0  0
    0.3895   33.7762    7.1431 H   0  0  0  0  0
  1  2  1  0  0  0
  2  3  1  0  0  0
  2  4  1  0  0  0
  4  5  4  0  0  0
  4  9  4  0  0  0
  5  6  1  0  0  0
  5  7  4  0  0  0
  7  8  4  0  0  0
  8  9  4  0  0  0
  9 10  1  0  0  0
 10 11  4  0  0  0
 10 32  4  0  0  0
 11 12  4  0  0  0
 12 13  1  0  0  0
 12 30  4  0  0  0
 13 14  1  0  0  0
 14 15  4  0  0  0
 14 19  4  0  0  0
 15 16  4  0  0  0
 16 17  4  0  0  0
 17 18  4  0  0  0
 17 20  1  0  0  0
 18 19  4  0  0  0
 20 21  2  0  0  0
 20 22  1  0  0  0
 22 23  1  0  0  0
 22 26  1  0  0  0
 23 24  1  0  0  0
 24 25  1  0  0  0
 25 26  1  0  0  0
 25 27  1  0  0  0
 27 28  1  0  0  0
 27 29  1  0  0  0
 30 31  4  0  0  0
 31 32  4  0  0  0
 32 33  1  0  0  0
  1 34  1  0  0  0
  1 35  1  0  0  0
  1 36  1  0  0  0
  2 37  1  0  0  0
  3 38  1  0  0  0
  3 39  1  0  0  0
  3 40  1  0  0  0
  6 41  1  0  0  0
  6 42  1  0  0  0
  6 43  1  0  0  0
  8 44  1  0  0  0
 13 45  1  0  0  0
 15 46  1  0  0  0
 16 47  1  0  0  0
 18 48  1  0  0  0
 19 49  1  0  0  0
 23 50  1  0  0  0
 23 51  1  0  0  0
 24 52  1  0  0  0
 24 53  1  0  0  0
 25 54  1  0  0  0
 26 55  1  0  0  0
 26 56  1  0  0  0
 27 57  1  0  0  0
 28 58  1  0  0  0
 28 59  1  0  0  0
 28 60  1  0  0  0
 29 61  1  0  0  0
 29 62  1  0  0  0
 29 63  1  0  0  0
 31 64  1  0  0  0
M  END
$$$$
