5o1h_ligand
  -I-interpret- 

 34 35  0  0  0  0  0  0  0  0999 V2000
   91.7330   91.0640  -42.3150 C   0  0  0  0  0
   93.7420   92.0190  -42.5500 C   0  0  0  0  0
   90.9700   95.6320  -44.7540 C   0  0  0  0  0
   91.1080   94.4220  -45.4740 C   0  0  0  0  0
   91.5660   93.2430  -44.8530 C   0  0  0  0  0
   91.8840   93.2780  -43.5010 C   0  0  0  0  0
   91.7600   94.4680  -42.7800 C   0  0  0  0  0
   91.3050   95.6400  -43.3910 C   0  0  0  0  0
   92.2160   94.5330  -40.7230 I   0  0  0  0  0
   91.7320   91.6910  -45.7100 S   0  0  0  0  0
   90.8380   91.9440  -47.2740 C   0  0  0  0  0
   90.6470   90.5990  -47.9720 C   0  0  0  0  0
   92.3910   92.1500  -42.8320 N   0  0  0  0  0
   91.1890   96.7890  -42.6510 O   0  0  0  0  0
   90.4790   96.8620  -45.4660 C   0  0  0  0  0
   90.2350   96.7750  -46.7140 O   0  0  0  0  0
   90.3630   97.9030  -44.7550 O   0  0  0  0  0
   92.6630   90.2480  -41.7080 C   0  0  0  0  0
   93.9330   90.8440  -41.8580 C   0  0  0  0  0
   91.9750   89.9530  -48.3290 C   0  0  0  0  0
   90.6606   90.8783  -42.3738 H   0  0  0  0  0
   94.5221   92.7273  -42.8292 H   0  0  0  0  0
   90.8541   94.4013  -46.5338 H   0  0  0  0  0
   91.4122   92.6101  -47.9180 H   0  0  0  0  0
   89.8645   92.3893  -47.0690 H   0  0  0  0  0
   90.0902   90.7680  -48.8937 H   0  0  0  0  0
   90.1147   89.9335  -47.2923 H   0  0  0  0  0
   91.4582   96.6142  -41.7463 H   0  0  0  0  0
   90.4028   95.8773  -47.0099 H   0  0  0  0  0
   92.4539   89.3063  -41.2005 H   0  0  0  0  0
   94.8826   90.4501  -41.4958 H   0  0  0  0  0
   92.5290   90.6106  -48.9989 H   0  0  0  0  0
   92.5532   89.7877  -47.4199 H   0  0  0  0  0
   91.7922   88.9989  -48.8234 H   0  0  0  0  0
 13  1  4  0  0  0
  1 18  4  0  0  0
 13  2  4  0  0  0
  2 19  4  0  0  0
  4  3  4  0  0  0
  3  8  4  0  0  0
  3 15  1  0  0  0
  5  4  4  0  0  0
  6  5  4  0  0  0
  5 10  1  0  0  0
  6  7  4  0  0  0
  6 13  1  0  0  0
  7  8  4  0  0  0
  7  9  1  0  0  0
  8 14  1  0  0  0
 10 11  1  0  0  0
 11 12  1  0  0  0
 12 20  1  0  0  0
 15 16  1  0  0  0
 15 17  2  0  0  0
 18 19  4  0  0  0
  1 21  1  0  0  0
  2 22  1  0  0  0
  4 23  1  0  0  0
 11 24  1  0  0  0
 11 25  1  0  0  0
 12 26  1  0  0  0
 12 27  1  0  0  0
 14 28  1  0  0  0
 16 29  1  0  0  0
 18 30  1  0  0  0
 19 31  1  0  0  0
 20 32  1  0  0  0
 20 33  1  0  0  0
 20 34  1  0  0  0
M  END
$$$$
