4riv_ligand
  -I-interpret- 

 19 20  0  0  0  0  0  0  0  0999 V2000
   -1.6180    4.9890   85.3780 C   0  0  0  0  0
   -2.0960    4.0290   86.2710 C   0  0  0  0  0
   -1.7840    2.7090   86.0080 C   0  0  0  0  0
   -0.8450    0.8290   84.8220 C   0  0  0  0  0
   -0.8650    4.6250   84.2680 C   0  0  0  0  0
   -2.1920    1.2610   86.8690 S   0  0  0  0  0
   -1.4960    0.1770   85.9360 N   0  0  0  0  0
   -0.1700    0.2020   83.8110 O   0  0  0  0  0
   -1.0330    2.3530   84.8960 C   0  0  0  0  0
   -0.5610    3.2950   84.0030 C   0  0  0  0  0
   -1.5670    1.1950   88.2020 O   0  0  0  0  0
   -3.6430    1.0960   86.9110 O   0  0  0  0  0
   -1.8389    6.0418   85.5540 H   0  0  0  0  0
   -2.6910    4.3091   87.1403 H   0  0  0  0  0
   -0.2243    0.1863   84.1977 H   0  0  0  0  0
   -0.5051    5.3994   83.5906 H   0  0  0  0  0
   -1.5073   -0.8297   86.0996 H   0  0  0  0  0
    0.1678    0.8588   83.1978 H   0  0  0  0  0
    0.0240    3.0080   83.1292 H   0  0  0  0  0
  2  1  4  0  0  0
  1  5  4  0  0  0
  3  2  4  0  0  0
  3  6  1  0  0  0
  9  3  4  0  0  0
  4  7  1  0  0  0
  4  8  1  0  0  0
  4  9  1  0  0  0
  5 10  4  0  0  0
  6  7  1  0  0  0
  6 11  2  0  0  0
  6 12  2  0  0  0
  9 10  4  0  0  0
  1 13  1  0  0  0
  2 14  1  0  0  0
  4 15  1  0  0  0
  5 16  1  0  0  0
  7 17  1  0  0  0
  8 18  1  0  0  0
 10 19  1  0  0  0
M  END
$$$$
