### 
### Created by X-TOOL on Mon Sep 10 21:13:04 2018
### 

@<TRIPOS>MOLECULE
2wxj_ligand
   69    75     1     0     0
SMALL
GAST_HUCK


@<TRIPOS>ATOM
      1 CAA        -3.7220  -35.7710   23.5660 C.3       1 RW3         0.0122
      2 CAB        -2.7670  -35.9520   24.7100 C.3       1 RW3        -0.0924
      3 NAI        -1.4140  -35.8510   24.2410 N.4       1 RW3         0.4035
      4 CAJ        -0.5100  -36.0570   25.3540 C.3       1 RW3        -0.1255
      5 CAQ        -1.1770  -34.5160   23.7890 C.3       1 RW3        -0.0924
      6 CAP        -2.0400  -34.1870   22.6130 C.3       1 RW3         0.0122
      7 NAH        -3.3980  -34.5860   22.8120 N.pl3     1 RW3        -0.2958
      8 CAG        -4.2900  -33.8660   22.1230 C.ar      1 RW3         0.1216
      9 NAF        -3.9150  -33.5890   20.8980 N.ar      1 RW3        -0.2946
     10 CAE        -4.6400  -32.8670   20.0580 C.ar      1 RW3         0.0226
     11 CAD        -4.2150  -32.5920   18.7750 C.ar      1 RW3        -0.0505
     12 CAC        -4.9650  -31.8210   17.9220 C.ar      1 RW3        -0.0635
     13 CAK        -6.1580  -31.3280   18.3470 C.ar      1 RW3        -0.0632
     14 CAL        -6.5800  -31.6050   19.6150 C.ar      1 RW3        -0.0557
     15 CAM        -5.8240  -32.3670   20.4710 C.ar      1 RW3        -0.0114
     16 CAN        -6.2400  -32.6400   21.7340 C.ar      1 RW3        -0.0376
     17 CAO        -5.4760  -33.3900   22.6040 C.ar      1 RW3         0.0419
     18 CAR        -6.0490  -33.5880   23.9980 C.3       1 RW3         0.1087
     19 NAV        -6.6520  -32.3230   24.4460 N.pl3     1 RW3        -0.1736
     20 NBA        -7.8040  -32.0440   24.2510 N.2       1 RW3        -0.1957
     21 C6         -6.0640  -31.3560   25.0500 C.ar      1 RW3         0.1646
     22 N1         -4.8410  -31.1960   25.4620 N.ar      1 RW3        -0.2676
     23 C2         -4.4730  -30.1130   26.0630 C.ar      1 RW3         0.0565
     24 N3         -5.2870  -29.1490   26.2810 N.ar      1 RW3        -0.2657
     25 C4         -6.5180  -29.2330   25.9040 C.ar      1 RW3         0.1272
     26 NAZ        -7.2360  -28.2130   26.1890 N.pl3     1 RW3        -0.3126
     27 C5         -6.9770  -30.3760   25.2630 C.ar      1 RW3         0.0860
     28 CBB        -8.1310  -30.8700   24.6830 C.2       1 RW3         0.0655
     29 CBD        -9.4260  -30.3630   24.5890 C.ar      1 RW3        -0.0206
     30 CBC       -10.2780  -30.6480   23.5400 C.ar      1 RW3        -0.0457
     31 CBE        -9.9450  -29.6130   25.5820 C.ar      1 RW3        -0.0676
     32 CBH       -11.2170  -29.1400   25.5240 C.ar      1 RW3        -0.0632
     33 CBG       -12.0440  -29.4030   24.4930 C.ar      1 RW3         0.0080
     34 NBO       -13.2850  -29.0130   24.3420 N.2       1 RW3        -0.3078
     35 CBF       -11.5810  -30.1660   23.4630 C.ar      1 RW3         0.0484
     36 SBJ       -12.8390  -30.2800   22.4170 S.3       1 RW3         0.0305
     37 CBN       -13.8520  -29.4250   23.2530 C.2       1 RW3         0.2126
     38 NBM       -15.0740  -29.1100   22.9450 N.am      1 RW3        -0.1889
     39 CBL       -15.4920  -29.5890   21.8220 C.2       1 RW3         0.2152
     40 CBK       -16.8860  -29.2460   21.3860 C.3       1 RW3         0.0344
     41 OBI       -14.7740  -30.2940   21.1760 O.2       1 RW3        -0.3786
     42 H          -4.7318  -35.6697   23.9636 H         1 RW3         0.0502
     43 H          -3.6506  -36.6370   22.9079 H         1 RW3         0.0502
     44 H          -2.9204  -36.9361   25.1529 H         1 RW3         0.0037
     45 H          -2.9475  -35.1760   25.4539 H         1 RW3         0.0037
     46 H           0.5178  -35.9307   25.0138 H         1 RW3        -0.0019
     47 H          -0.7272  -35.3296   26.1362 H         1 RW3        -0.0019
     48 H          -0.6428  -37.0652   25.7465 H         1 RW3        -0.0019
     49 H          -0.1321  -34.4280   23.4914 H         1 RW3         0.0037
     50 H          -1.4121  -33.8257   24.5991 H         1 RW3         0.0037
     51 H          -1.6522  -34.7233   21.7469 H         1 RW3         0.0502
     52 H          -2.0213  -33.1066   22.4701 H         1 RW3         0.0502
     53 H          -3.2628  -32.9957   18.4308 H         1 RW3         0.0597
     54 H          -4.6076  -31.6066   16.9148 H         1 RW3         0.0617
     55 H          -6.7707  -30.7184   17.6829 H         1 RW3         0.0596
     56 H          -7.5382  -31.2127   19.9556 H         1 RW3         0.0621
     57 H          -7.2034  -32.2564   22.0697 H         1 RW3         0.0652
     58 H          -5.2560  -33.8833   24.6851 H         1 RW3         0.0786
     59 H          -6.8061  -34.3719   23.9785 H         1 RW3         0.0786
     60 H          -3.4390  -30.0172   26.3942 H         1 RW3         0.1030
     61 H          -8.2257  -28.2011   25.9426 H         1 RW3         0.1842
     62 H          -6.8187  -27.4118   26.6626 H         1 RW3         0.1842
     63 H          -9.9116  -31.2819   22.7325 H         1 RW3         0.0557
     64 H          -9.3297  -29.3809   26.4513 H         1 RW3         0.0551
     65 H         -11.5835  -28.5229   26.3443 H         1 RW3         0.0533
     66 H         -15.6587  -28.5283   23.5451 H         1 RW3         0.2453
     67 H         -16.8490  -28.7343   20.4243 H         1 RW3         0.0475
     68 H         -17.4707  -30.1609   21.2900 H         1 RW3         0.0475
     69 H         -17.3475  -28.5945   22.1281 H         1 RW3         0.0475
@<TRIPOS>BOND
     1    1    2 1  
     2    1    7 1  
     3    2    3 1  
     4    3    4 1  
     5    3    5 1  
     6    5    6 1  
     7    6    7 1  
     8    7    8 1  
     9    8    9 ar 
    10    8   17 ar 
    11    9   10 ar 
    12   10   11 ar 
    13   10   15 ar 
    14   11   12 ar 
    15   12   13 ar 
    16   13   14 ar 
    17   14   15 ar 
    18   15   16 ar 
    19   16   17 ar 
    20   17   18 1  
    21   18   19 1  
    22   19   20 1  
    23   19   21 1  
    24   20   28 2  
    25   21   22 ar 
    26   21   27 ar 
    27   22   23 ar 
    28   23   24 ar 
    29   24   25 ar 
    30   25   26 1  
    31   25   27 ar 
    32   27   28 1  
    33   28   29 1  
    34   29   30 ar 
    35   29   31 ar 
    36   30   35 ar 
    37   31   32 ar 
    38   32   33 ar 
    39   33   34 1  
    40   33   35 ar 
    41   34   37 2  
    42   35   36 1  
    43   36   37 1  
    44   37   38 1  
    45   38   39 am 
    46   39   40 1  
    47   39   41 2  
    48    1   42 1  
    49    1   43 1  
    50    2   44 1  
    51    2   45 1  
    52    4   46 1  
    53    4   47 1  
    54    4   48 1  
    55    5   49 1  
    56    5   50 1  
    57    6   51 1  
    58    6   52 1  
    59   11   53 1  
    60   12   54 1  
    61   13   55 1  
    62   14   56 1  
    63   16   57 1  
    64   18   58 1  
    65   18   59 1  
    66   23   60 1  
    67   26   61 1  
    68   26   62 1  
    69   30   63 1  
    70   31   64 1  
    71   32   65 1  
    72   38   66 1  
    73   40   67 1  
    74   40   68 1  
    75   40   69 1  
@<TRIPOS>SUBSTRUCTURE
     1 RW3         1

