2wxj_ligand
  -I-interpret- 

 70 76  0  0  0  0  0  0  0  0999 V2000
   -3.7220  -35.7710   23.5660 C   0  0  0  0  0
   -2.7670  -35.9520   24.7100 C   0  0  0  0  0
   -1.4140  -35.8510   24.2410 N   0  3  0  0  0
   -0.5100  -36.0570   25.3540 C   0  0  0  0  0
   -1.1770  -34.5160   23.7890 C   0  0  0  0  0
   -2.0400  -34.1870   22.6130 C   0  0  0  0  0
   -3.3980  -34.5860   22.8120 N   0  0  0  0  0
   -4.2900  -33.8660   22.1230 C   0  0  0  0  0
   -3.9150  -33.5890   20.8980 N   0  0  0  0  0
   -4.6400  -32.8670   20.0580 C   0  0  0  0  0
   -4.2150  -32.5920   18.7750 C   0  0  0  0  0
   -4.9650  -31.8210   17.9220 C   0  0  0  0  0
   -6.1580  -31.3280   18.3470 C   0  0  0  0  0
   -6.5800  -31.6050   19.6150 C   0  0  0  0  0
   -5.8240  -32.3670   20.4710 C   0  0  0  0  0
   -6.2400  -32.6400   21.7340 C   0  0  0  0  0
   -5.4760  -33.3900   22.6040 C   0  0  0  0  0
   -6.0490  -33.5880   23.9980 C   0  0  0  0  0
   -6.6520  -32.3230   24.4460 N   0  0  0  0  0
   -7.8040  -32.0440   24.2510 N   0  0  0  0  0
   -6.0640  -31.3560   25.0500 C   0  0  0  0  0
   -4.8410  -31.1960   25.4620 N   0  0  0  0  0
   -4.4730  -30.1130   26.0630 C   0  0  0  0  0
   -5.2870  -29.1490   26.2810 N   0  0  0  0  0
   -6.5180  -29.2330   25.9040 C   0  0  0  0  0
   -7.2360  -28.2130   26.1890 N   0  0  0  0  0
   -6.9770  -30.3760   25.2630 C   0  0  0  0  0
   -8.1310  -30.8700   24.6830 C   0  0  0  0  0
   -9.4260  -30.3630   24.5890 C   0  0  0  0  0
  -10.2780  -30.6480   23.5400 C   0  0  0  0  0
   -9.9450  -29.6130   25.5820 C   0  0  0  0  0
  -11.2170  -29.1400   25.5240 C   0  0  0  0  0
  -12.0440  -29.4030   24.4930 C   0  0  0  0  0
  -13.2850  -29.0130   24.3420 N   0  0  0  0  0
  -11.5810  -30.1660   23.4630 C   0  0  0  0  0
  -12.8390  -30.2800   22.4170 S   0  0  0  0  0
  -13.8520  -29.4250   23.2530 C   0  0  0  0  0
  -15.0740  -29.1100   22.9450 N   0  0  0  0  0
  -15.4920  -29.5890   21.8220 C   0  0  0  0  0
  -16.8860  -29.2460   21.3860 C   0  0  0  0  0
  -14.7740  -30.2940   21.1760 O   0  0  0  0  0
   -4.7318  -35.6697   23.9636 H   0  0  0  0  0
   -3.6506  -36.6370   22.9079 H   0  0  0  0  0
   -2.9204  -36.9361   25.1529 H   0  0  0  0  0
   -2.9475  -35.1760   25.4539 H   0  0  0  0  0
   -1.2689  -36.5372   23.5004 H   0  0  0  0  0
    0.5178  -35.9307   25.0138 H   0  0  0  0  0
   -0.7272  -35.3296   26.1362 H   0  0  0  0  0
   -0.6428  -37.0652   25.7465 H   0  0  0  0  0
   -0.1321  -34.4280   23.4914 H   0  0  0  0  0
   -1.4121  -33.8257   24.5991 H   0  0  0  0  0
   -1.6522  -34.7233   21.7469 H   0  0  0  0  0
   -2.0213  -33.1066   22.4701 H   0  0  0  0  0
   -3.2628  -32.9957   18.4308 H   0  0  0  0  0
   -4.6076  -31.6066   16.9148 H   0  0  0  0  0
   -6.7707  -30.7184   17.6829 H   0  0  0  0  0
   -7.5382  -31.2127   19.9556 H   0  0  0  0  0
   -7.2034  -32.2564   22.0697 H   0  0  0  0  0
   -5.2560  -33.8833   24.6851 H   0  0  0  0  0
   -6.8061  -34.3719   23.9785 H   0  0  0  0  0
   -3.4390  -30.0172   26.3942 H   0  0  0  0  0
   -6.8226  -27.4187   26.6774 H   0  0  0  0  0
   -8.2218  -28.1942   25.9278 H   0  0  0  0  0
   -9.9116  -31.2819   22.7325 H   0  0  0  0  0
   -9.3297  -29.3809   26.4513 H   0  0  0  0  0
  -11.5835  -28.5229   26.3443 H   0  0  0  0  0
  -15.6587  -28.5283   23.5451 H   0  0  0  0  0
  -16.8490  -28.7343   20.4243 H   0  0  0  0  0
  -17.4707  -30.1609   21.2900 H   0  0  0  0  0
  -17.3475  -28.5945   22.1281 H   0  0  0  0  0
  1  2  1  0  0  0
  1  7  1  0  0  0
  2  3  1  0  0  0
  3  4  1  0  0  0
  3  5  1  0  0  0
  5  6  1  0  0  0
  6  7  1  0  0  0
  7  8  1  0  0  0
  8  9  4  0  0  0
  8 17  4  0  0  0
  9 10  4  0  0  0
 10 11  4  0  0  0
 10 15  4  0  0  0
 11 12  4  0  0  0
 12 13  4  0  0  0
 13 14  4  0  0  0
 14 15  4  0  0  0
 15 16  4  0  0  0
 16 17  4  0  0  0
 17 18  1  0  0  0
 18 19  1  0  0  0
 19 20  4  0  0  0
 19 21  4  0  0  0
 20 28  4  0  0  0
 21 22  4  0  0  0
 21 27  4  0  0  0
 22 23  4  0  0  0
 23 24  4  0  0  0
 24 25  4  0  0  0
 25 26  1  0  0  0
 25 27  4  0  0  0
 27 28  4  0  0  0
 28 29  1  0  0  0
 29 30  4  0  0  0
 29 31  4  0  0  0
 30 35  4  0  0  0
 31 32  4  0  0  0
 32 33  4  0  0  0
 33 34  4  0  0  0
 33 35  4  0  0  0
 34 37  4  0  0  0
 35 36  4  0  0  0
 36 37  4  0  0  0
 37 38  1  0  0  0
 38 39  1  0  0  0
 39 40  1  0  0  0
 39 41  2  0  0  0
  1 42  1  0  0  0
  1 43  1  0  0  0
  2 44  1  0  0  0
  2 45  1  0  0  0
  3 46  1  0  0  0
  4 47  1  0  0  0
  4 48  1  0  0  0
  4 49  1  0  0  0
  5 50  1  0  0  0
  5 51  1  0  0  0
  6 52  1  0  0  0
  6 53  1  0  0  0
 11 54  1  0  0  0
 12 55  1  0  0  0
 13 56  1  0  0  0
 14 57  1  0  0  0
 16 58  1  0  0  0
 18 59  1  0  0  0
 18 60  1  0  0  0
 23 61  1  0  0  0
 26 62  1  0  0  0
 26 63  1  0  0  0
 30 64  1  0  0  0
 31 65  1  0  0  0
 32 66  1  0  0  0
 38 67  1  0  0  0
 40 68  1  0  0  0
 40 69  1  0  0  0
 40 70  1  0  0  0
M  END
$$$$
