4czs_ligand
  -I-interpret- 

 98101  0  0  0  0  0  0  0  0999 V2000
  -90.0070  -78.2820   55.6160 O   0  0  0  0  0
  -89.9150  -76.8570   55.7440 C   0  0  0  0  0
  -88.4170  -76.5250   55.8980 C   0  0  0  0  0
  -88.2160  -75.1060   56.0410 O   0  0  0  0  0
  -86.8990  -74.7940   56.4240 C   0  0  0  0  0
  -85.9630  -75.2900   55.3880 O   0  0  0  0  0
  -86.2110  -74.6240   54.0990 C   0  0  0  0  0
  -85.2440  -75.2020   53.0860 C   0  0  0  0  0
  -83.9400  -75.0830   53.6220 O   0  0  0  0  0
  -86.0570  -73.1350   54.2330 C   0  0  0  0  0
  -86.3850  -72.4730   52.9880 O   0  0  0  0  0
  -86.9910  -72.6460   55.2820 C   0  0  0  0  0
  -86.8210  -71.2010   55.4940 O   0  0  0  0  0
  -86.7650  -73.3090   56.5720 C   0  0  0  0  0
  -85.4180  -73.0490   57.0580 O   0  0  0  0  0
  -90.3030  -78.6370   54.2970 N   0  3  0  0  0
  -90.0350  -80.0360   54.0810 C   0  0  0  0  0
  -90.4320  -80.3780   52.6670 C   0  0  0  0  0
  -90.9850  -81.4570   52.4130 O   0  0  0  0  0
  -90.1430  -79.4290   51.6090 N   0  0  0  0  0
  -90.5090  -79.6750   50.2310 C   0  0  0  0  0
  -90.1130  -81.0560   49.6920 C   0  0  0  0  0
  -90.9360  -81.7710   49.1240 O   0  0  0  0  0
  -89.7880  -78.6580   49.4400 C   0  0  0  0  0
  -90.1260  -78.7280   47.8850 C   0  0  0  0  0
  -89.3390  -79.2780   46.8560 C   0  0  0  0  0
  -91.3050  -78.1910   47.2570 C   0  0  0  0  0
  -89.9700  -79.1100   45.7050 N   0  0  0  0  0
  -91.1460  -78.4630   45.9000 C   0  0  0  0  0
  -92.4400  -77.5160   47.7320 C   0  0  0  0  0
  -92.1610  -78.0690   44.9720 C   0  0  0  0  0
  -93.4440  -77.1240   46.8210 C   0  0  0  0  0
  -93.2910  -77.4090   45.4430 C   0  0  0  0  0
  -88.7770  -81.5210   49.8370 N   0  0  0  0  0
  -88.4290  -82.7860   49.2810 C   0  0  0  0  0
  -88.9210  -83.9600   50.0920 C   0  0  0  0  0
  -88.9570  -85.0580   49.5490 O   0  0  0  0  0
  -86.9270  -82.9080   49.3190 C   0  0  0  0  0
  -86.2830  -81.7190   48.6170 C   0  0  0  0  0
  -86.2410  -81.7060   47.2270 C   0  0  0  0  0
  -85.7600  -80.6770   49.3530 C   0  0  0  0  0
  -85.6630  -80.6390   46.5730 C   0  0  0  0  0
  -85.1700  -79.6040   48.6970 C   0  0  0  0  0
  -85.1300  -79.5930   47.3120 C   0  0  0  0  0
  -84.5280  -78.4740   46.6050 O   0  0  0  0  0
  -88.4440  -85.4660   52.8850 C   0  0  0  0  0
  -89.2700  -83.7240   51.5100 N   0  0  0  0  0
  -87.6390  -84.9080   53.6320 O   0  0  0  0  0
  -89.6850  -84.7290   52.4400 C   0  0  0  0  0
  -90.6900  -85.6620   51.8130 C   0  0  0  0  0
  -92.0320  -84.9830   51.8800 C   0  0  0  0  0
  -92.8280  -85.3250   52.8190 O   0  0  0  0  0
  -92.3330  -84.0840   51.0230 O   0  0  0  0  0
  -88.1900  -86.8200   52.4200 N   0  0  0  0  0
  -90.4824  -76.5059   56.6059 H   0  0  0  0  0
  -90.3365  -76.3594   54.8706 H   0  0  0  0  0
  -87.8896  -76.8653   55.0069 H   0  0  0  0  0
  -88.0377  -77.0240   56.7898 H   0  0  0  0  0
  -86.6641  -75.2684   57.3768 H   0  0  0  0  0
  -87.2337  -74.8003   53.7658 H   0  0  0  0  0
  -85.3169  -74.6637   52.1410 H   0  0  0  0  0
  -85.4799  -76.2478   52.8893 H   0  0  0  0  0
  -83.3049  -75.4429   52.9985 H   0  0  0  0  0
  -85.0227  -72.9138   54.4965 H   0  0  0  0  0
  -86.2806  -71.5246   53.0940 H   0  0  0  0  0
  -87.9961  -72.8725   54.9263 H   0  0  0  0  0
  -87.4311  -70.9044   56.1732 H   0  0  0  0  0
  -87.5049  -72.9177   57.2702 H   0  0  0  0  0
  -85.2922  -73.4910   57.9008 H   0  0  0  0  0
  -89.7209  -78.0860   53.6661 H   0  0  0  0  0
  -91.2909  -78.4566   54.1182 H   0  0  0  0  0
  -90.6045  -80.6403   54.7870 H   0  0  0  0  0
  -88.9758  -80.2429   54.2336 H   0  0  0  0  0
  -89.6656  -78.5588   51.8443 H   0  0  0  0  0
  -91.5958  -79.6303   50.1599 H   0  0  0  0  0
  -88.7198  -78.8409   49.5571 H   0  0  0  0  0
  -90.0926  -77.6764   49.8030 H   0  0  0  0  0
  -88.3709  -79.7618   46.9855 H   0  0  0  0  0
  -92.5451  -77.2966   48.7945 H   0  0  0  0  0
  -92.0501  -78.2834   43.9091 H   0  0  0  0  0
  -94.3334  -76.6040   47.1770 H   0  0  0  0  0
  -94.0690  -77.1072   44.7418 H   0  0  0  0  0
  -88.0816  -80.9602   50.3292 H   0  0  0  0  0
  -88.8739  -82.8163   48.2864 H   0  0  0  0  0
  -86.6311  -83.8253   48.8099 H   0  0  0  0  0
  -86.5975  -82.9296   50.3578 H   0  0  0  0  0
  -86.6626  -82.5346   46.6580 H   0  0  0  0  0
  -85.8091  -80.6950   50.4417 H   0  0  0  0  0
  -85.6251  -80.6174   45.4839 H   0  0  0  0  0
  -84.7426  -78.7786   49.2663 H   0  0  0  0  0
  -84.2046  -77.8318   47.2410 H   0  0  0  0  0
  -89.2098  -82.7654   51.8532 H   0  0  0  0  0
  -90.1812  -84.2784   53.2996 H   0  0  0  0  0
  -90.7145  -86.6129   52.3452 H   0  0  0  0  0
  -90.4204  -85.8771   50.7790 H   0  0  0  0  0
  -91.6058  -83.9757   50.4057 H   0  0  0  0  0
  -87.3441  -87.3094   52.7123 H   0  0  0  0  0
  -88.8577  -87.2805   51.8015 H   0  0  0  0  0
  1  2  1  0  0  0
 16  1  1  0  0  0
  2  3  1  0  0  0
  3  4  1  0  0  0
  4  5  1  0  0  0
  5  6  1  0  0  0
  5 14  1  0  0  0
  6  7  1  0  0  0
  7  8  1  0  0  0
  7 10  1  0  0  0
  8  9  1  0  0  0
 10 11  1  0  0  0
 12 10  1  0  0  0
 12 13  1  0  0  0
 14 12  1  0  0  0
 14 15  1  0  0  0
 17 16  1  0  0  0
 18 17  1  0  0  0
 18 19  2  0  0  0
 20 18  1  0  0  0
 21 20  1  0  0  0
 22 21  1  0  0  0
 21 24  1  0  0  0
 22 23  2  0  0  0
 34 22  1  0  0  0
 24 25  1  0  0  0
 25 26  4  0  0  0
 25 27  4  0  0  0
 26 28  4  0  0  0
 27 29  4  0  0  0
 27 30  4  0  0  0
 29 28  4  0  0  0
 29 31  4  0  0  0
 30 32  4  0  0  0
 31 33  4  0  0  0
 32 33  4  0  0  0
 35 34  1  0  0  0
 36 35  1  0  0  0
 35 38  1  0  0  0
 36 37  2  0  0  0
 47 36  1  0  0  0
 38 39  1  0  0  0
 39 40  4  0  0  0
 39 41  4  0  0  0
 40 42  4  0  0  0
 41 43  4  0  0  0
 42 44  4  0  0  0
 43 44  4  0  0  0
 44 45  1  0  0  0
 46 48  2  0  0  0
 49 46  1  0  0  0
 46 54  1  0  0  0
 47 49  1  0  0  0
 49 50  1  0  0  0
 50 51  1  0  0  0
 51 52  2  0  0  0
 51 53  1  0  0  0
  2 55  1  0  0  0
  2 56  1  0  0  0
  3 57  1  0  0  0
  3 58  1  0  0  0
  5 59  1  0  0  0
  7 60  1  0  0  0
  8 61  1  0  0  0
  8 62  1  0  0  0
  9 63  1  0  0  0
 10 64  1  0  0  0
 11 65  1  0  0  0
 12 66  1  0  0  0
 13 67  1  0  0  0
 14 68  1  0  0  0
 15 69  1  0  0  0
 16 70  1  0  0  0
 16 71  1  0  0  0
 17 72  1  0  0  0
 17 73  1  0  0  0
 20 74  1  0  0  0
 21 75  1  0  0  0
 24 76  1  0  0  0
 24 77  1  0  0  0
 26 78  1  0  0  0
 30 79  1  0  0  0
 31 80  1  0  0  0
 32 81  1  0  0  0
 33 82  1  0  0  0
 34 83  1  0  0  0
 35 84  1  0  0  0
 38 85  1  0  0  0
 38 86  1  0  0  0
 40 87  1  0  0  0
 41 88  1  0  0  0
 42 89  1  0  0  0
 43 90  1  0  0  0
 45 91  1  0  0  0
 47 92  1  0  0  0
 49 93  1  0  0  0
 50 94  1  0  0  0
 50 95  1  0  0  0
 53 96  1  0  0  0
 54 97  1  0  0  0
 54 98  1  0  0  0
M  END
$$$$
