4j47_ligand
  -I-interpret- 

 64 64  0  0  0  0  0  0  0  0999 V2000
   25.2110   37.9890    7.1900 N   0  3  0  0  0
   25.6930   37.7650    8.5800 C   0  0  0  0  0
   26.7480   36.6440    8.5590 C   0  0  0  0  0
   26.8210   35.9190    7.5570 O   0  0  0  0  0
   24.5180   37.3740    9.5190 C   0  0  0  0  0
   24.0890   36.0420    9.2470 O   0  0  0  0  0
   27.4070   36.4750    9.6920 N   0  0  0  0  0
   28.3680   35.3680    9.8580 C   0  0  0  0  0
   28.0950   34.6410   11.1670 C   0  0  0  0  0
   27.7190   35.2540   12.1650 O   0  0  0  0  0
   29.8470   35.8320    9.8200 C   0  0  0  0  0
   30.1710   36.4620    8.4770 C   0  0  0  0  0
   30.1880   36.7380   10.9680 C   0  0  0  0  0
   28.3560   33.3140   11.1890 N   0  0  0  0  0
   28.1820   32.5840   12.4530 C   0  0  0  0  0
   29.3020   32.8700   13.3920 C   0  0  0  0  0
   30.3970   33.2190   12.9550 O   0  0  0  0  0
   28.1790   31.1040   12.0230 C   0  0  0  0  0
   28.9700   31.0790   10.7510 C   0  0  0  0  0
   28.6970   32.4170   10.0650 C   0  0  0  0  0
   29.0430   32.7560   14.6840 N   0  0  0  0  0
   30.1030   32.8120   15.7060 C   0  0  0  0  0
   30.5400   31.3860   15.9620 C   0  0  0  0  0
   29.7000   30.5540   16.3640 O   0  0  0  0  0
   29.5820   33.4510   16.9750 C   0  0  0  0  0
   29.1160   34.8660   16.6380 C   0  0  0  0  0
   30.6430   33.4770   18.0780 C   0  0  0  0  0
   28.5280   35.5590   17.8060 C   0  0  0  0  0
   31.7300   31.0380   15.7480 O   0  0  0  0  0
   25.9993   38.2438    6.5950 H   0  0  0  0  0
   24.7807   37.1335    6.8386 H   0  0  0  0  0
   24.5237   38.7427    7.1870 H   0  0  0  0  0
   26.1318   38.6868    8.9618 H   0  0  0  0  0
   23.6856   38.0572    9.3505 H   0  0  0  0  0
   24.8543   37.4350   10.5540 H   0  0  0  0  0
   23.3639   35.8145    9.8336 H   0  0  0  0  0
   27.2484   37.1212   10.4651 H   0  0  0  0  0
   28.2237   34.6977    9.0107 H   0  0  0  0  0
   30.4767   34.9501    9.9371 H   0  0  0  0  0
   30.0077   35.7308    7.6853 H   0  0  0  0  0
   29.5240   37.3243    8.3161 H   0  0  0  0  0
   31.2131   36.7815    8.4689 H   0  0  0  0  0
   29.5539   37.6238   10.9309 H   0  0  0  0  0
   30.0225   36.2103   11.9073 H   0  0  0  0  0
   31.2342   37.0352   10.8962 H   0  0  0  0  0
   27.2738   32.8681   12.9846 H   0  0  0  0  0
   27.1678   30.7225   11.8818 H   0  0  0  0  0
   28.6126   30.4570   12.7855 H   0  0  0  0  0
   28.6767   30.2416   10.1179 H   0  0  0  0  0
   30.0335   30.9439   10.9479 H   0  0  0  0  0
   29.5502   32.7739    9.4881 H   0  0  0  0  0
   27.9006   32.3529    9.3236 H   0  0  0  0  0
   28.0767   32.6249   14.9831 H   0  0  0  0  0
   30.9432   33.4171   15.3654 H   0  0  0  0  0
   28.7509   32.8596   17.3593 H   0  0  0  0  0
   28.3489   34.7940   15.8670 H   0  0  0  0  0
   29.9837   35.4374   16.3082 H   0  0  0  0  0
   30.9495   32.4570   18.3096 H   0  0  0  0  0
   31.5061   34.0485   17.7367 H   0  0  0  0  0
   30.2262   33.9440   18.9704 H   0  0  0  0  0
   27.6661   34.9964   18.1647 H   0  0  0  0  0
   29.2732   35.6289   18.5984 H   0  0  0  0  0
   28.2132   36.5603   17.5122 H   0  0  0  0  0
   32.2348   31.7968   15.4462 H   0  0  0  0  0
  1  2  1  0  0  0
  2  3  1  0  0  0
  2  5  1  0  0  0
  3  4  2  0  0  0
  3  7  1  0  0  0
  5  6  1  0  0  0
  7  8  1  0  0  0
  8  9  1  0  0  0
  8 11  1  0  0  0
  9 10  2  0  0  0
  9 14  1  0  0  0
 11 12  1  0  0  0
 11 13  1  0  0  0
 14 15  1  0  0  0
 14 20  1  0  0  0
 15 16  1  0  0  0
 15 18  1  0  0  0
 16 17  2  0  0  0
 16 21  1  0  0  0
 18 19  1  0  0  0
 19 20  1  0  0  0
 21 22  1  0  0  0
 22 23  1  0  0  0
 22 25  1  0  0  0
 23 24  2  0  0  0
 23 29  1  0  0  0
 25 26  1  0  0  0
 25 27  1  0  0  0
 26 28  1  0  0  0
  1 30  1  0  0  0
  1 31  1  0  0  0
  1 32  1  0  0  0
  2 33  1  0  0  0
  5 34  1  0  0  0
  5 35  1  0  0  0
  6 36  1  0  0  0
  7 37  1  0  0  0
  8 38  1  0  0  0
 11 39  1  0  0  0
 12 40  1  0  0  0
 12 41  1  0  0  0
 12 42  1  0  0  0
 13 43  1  0  0  0
 13 44  1  0  0  0
 13 45  1  0  0  0
 15 46  1  0  0  0
 18 47  1  0  0  0
 18 48  1  0  0  0
 19 49  1  0  0  0
 19 50  1  0  0  0
 20 51  1  0  0  0
 20 52  1  0  0  0
 21 53  1  0  0  0
 22 54  1  0  0  0
 25 55  1  0  0  0
 26 56  1  0  0  0
 26 57  1  0  0  0
 27 58  1  0  0  0
 27 59  1  0  0  0
 27 60  1  0  0  0
 28 61  1  0  0  0
 28 62  1  0  0  0
 28 63  1  0  0  0
 29 64  1  0  0  0
M  END
$$$$
