4pge_ligand
  -I-interpret- 

137142  0  0  0  0  0  0  0  0999 V2000
   56.7180   18.6190    5.0080 N   0  3  0  0  0
   57.9220   19.3810    4.5810 C   0  0  0  0  0
   57.6140   19.9370    3.2010 C   0  0  0  0  0
   57.5740   19.1940    2.2170 O   0  0  0  0  0
   59.1340   18.4470    4.5750 C   0  0  0  0  0
   60.4670   19.1440    4.5210 C   0  0  0  0  0
   61.0680   19.6160    5.6800 C   0  0  0  0  0
   61.1520   19.2730    3.3200 C   0  0  0  0  0
   62.3130   20.2300    5.6380 C   0  0  0  0  0
   62.4000   19.8830    3.2700 C   0  0  0  0  0
   62.9790   20.3620    4.4320 C   0  0  0  0  0
   57.3580   21.2430    3.1460 N   0  0  0  0  0
   56.8100   21.8730    1.9500 C   0  0  0  0  0
   57.8410   21.9720    0.8410 C   0  0  0  0  0
   59.0400   22.0190    1.1130 O   0  0  0  0  0
   56.2640   23.2590    2.2780 C   0  0  0  0  0
   57.3740   22.0030   -0.4220 N   0  0  0  0  0
   58.2720   22.3570   -1.5160 C   0  0  0  0  0
   58.9190   23.7190   -1.2520 C   0  0  0  0  0
   58.2200   24.6740   -0.8780 O   0  0  0  0  0
   57.3430   22.4340   -2.7290 C   0  0  0  0  0
   56.1860   21.5660   -2.3880 C   0  0  0  0  0
   56.0180   21.6660   -0.8970 C   0  0  0  0  0
   60.2380   23.7850   -1.4210 N   0  0  0  0  0
   61.0190   24.9870   -1.1310 C   0  0  0  0  0
   61.4570   25.7530   -2.3600 C   0  0  0  0  0
   62.1160   26.7840   -2.2480 O   0  0  0  0  0
   61.1000   25.2530   -3.5360 N   0  0  0  0  0
   61.3670   25.9640   -4.7750 C   0  0  0  0  0
   60.2580   25.6890   -5.7710 C   0  0  0  0  0
   60.0230   24.5390   -6.1350 O   0  0  0  0  0
   62.7070   25.5380   -5.3780 C   0  0  0  0  0
   62.8990   26.0590   -6.7930 C   0  0  0  0  0
   62.7320   27.2500   -7.0570 O   0  0  0  0  0
   63.2400   25.1650   -7.7140 N   0  0  0  0  0
   59.5690   26.7490   -6.1840 N   0  0  0  0  0
   58.6470   26.6960   -7.3020 C   0  0  0  0  0
   59.2980   27.5200   -8.4240 C   0  0  0  0  0
   59.4300   28.7390   -8.2950 O   0  0  0  0  0
   57.3010   27.2980   -6.9050 C   0  0  0  0  0
   56.5310   26.5160   -5.8660 C   0  0  0  0  0
   55.7220   25.4460   -6.2310 C   0  0  0  0  0
   56.5950   26.8540   -4.5180 C   0  0  0  0  0
   55.0030   24.7330   -5.2880 C   0  0  0  0  0
   55.8840   26.1430   -3.5630 C   0  0  0  0  0
   55.0890   25.0790   -3.9550 C   0  0  0  0  0
   54.3750   24.3590   -3.0220 O   0  0  0  0  0
   59.7390   26.8620   -9.5130 N   0  0  0  0  0
   60.4580   27.6210  -10.5480 C   0  0  0  0  0
   59.5950   28.7060  -11.1920 C   0  0  0  0  0
   58.3890   28.5260  -11.3380 O   0  0  0  0  0
   60.8520   26.5500  -11.5700 C   0  0  0  0  0
   59.9080   25.4180  -11.3360 C   0  0  0  0  0
   59.5940   25.4370   -9.8730 C   0  0  0  0  0
   60.2150   29.8320  -11.5400 N   0  0  0  0  0
   59.5010   30.9410  -12.1550 C   0  0  0  0  0
   58.9000   30.5090  -13.4850 C   0  0  0  0  0
   59.5150   29.7450  -14.2390 O   0  0  0  0  0
   60.4340   32.1310  -12.3660 C   0  0  0  0  0
   57.7000   31.0120  -13.7700 N   0  0  0  0  0
   56.9790   30.6590  -14.9840 C   0  0  0  0  0
   57.5460   31.4260  -16.1640 C   0  0  0  0  0
   58.3450   32.3540  -15.9790 O   0  0  0  0  0
   55.4950   30.9950  -14.8430 C   0  0  0  0  0
   54.7610   30.2130  -13.7770 C   0  0  0  0  0
   55.2960   29.5540  -12.6990 C   0  0  0  0  0
   53.3460   30.0500  -13.6790 C   0  0  0  0  0
   54.2940   28.9820  -11.9490 N   0  0  0  0  0
   53.0880   29.2720  -12.5300 C   0  0  0  0  0
   52.2690   30.4820  -14.4560 C   0  0  0  0  0
   51.7960   28.9140  -12.1500 C   0  0  0  0  0
   50.9870   30.1240  -14.0750 C   0  0  0  0  0
   50.7620   29.3500  -12.9310 C   0  0  0  0  0
   57.2010   31.1420  -17.3200 O   0  0  0  0  0
   55.9084   19.2395    5.0128 H   0  0  0  0  0
   56.5550   17.8506    4.3574 H   0  0  0  0  0
   56.8678   18.2463    5.9456 H   0  0  0  0  0
   58.1605   20.2010    5.2584 H   0  0  0  0  0
   59.0591   17.8367    3.6750 H   0  0  0  0  0
   59.1070   17.8872    5.5099 H   0  0  0  0  0
   60.5560   19.5032    6.6356 H   0  0  0  0  0
   60.7044   18.8902    2.4028 H   0  0  0  0  0
   62.7656   20.6079    6.5548 H   0  0  0  0  0
   62.9212   19.9838    2.3180 H   0  0  0  0  0
   63.9570   20.8420    4.3976 H   0  0  0  0  0
   57.5510   21.8199    3.9648 H   0  0  0  0  0
   55.9964   21.2405    1.5950 H   0  0  0  0  0
   55.4751   23.1699    3.0249 H   0  0  0  0  0
   57.0684   23.8816    2.6697 H   0  0  0  0  0
   55.8597   23.7124    1.3729 H   0  0  0  0  0
   59.0876   21.6461   -1.6479 H   0  0  0  0  0
   57.8414   22.1011   -3.6395 H   0  0  0  0  0
   57.0314   23.4584   -2.9329 H   0  0  0  0  0
   56.3609   20.5355   -2.6973 H   0  0  0  0  0
   55.2843   21.8873   -2.9093 H   0  0  0  0  0
   55.2761   22.4105   -0.6082 H   0  0  0  0  0
   55.6366   20.7451   -0.4559 H   0  0  0  0  0
   60.7261   22.9596   -1.7686 H   0  0  0  0  0
   61.9227   24.6663   -0.6128 H   0  0  0  0  0
   60.3818   25.6517   -0.5477 H   0  0  0  0  0
   60.6277   24.3496   -3.5712 H   0  0  0  0  0
   61.4114   27.0300   -4.5519 H   0  0  0  0  0
   62.7289   24.4488   -5.4143 H   0  0  0  0  0
   63.5021   25.9501   -4.7566 H   0  0  0  0  0
   63.3734   25.4560   -8.6825 H   0  0  0  0  0
   63.3685   24.1874   -7.4529 H   0  0  0  0  0
   59.6942   27.6351   -5.6945 H   0  0  0  0  0
   58.4583   25.6709   -7.6209 H   0  0  0  0  0
   56.6865   27.3140   -7.8051 H   0  0  0  0  0
   57.5101   28.2757   -6.4709 H   0  0  0  0  0
   55.6527   25.1630   -7.2813 H   0  0  0  0  0
   57.2160   27.6939   -4.2065 H   0  0  0  0  0
   54.3707   23.9007   -5.5971 H   0  0  0  0  0
   55.9504   26.4198   -2.5108 H   0  0  0  0  0
   54.5388   24.7195   -2.1475 H   0  0  0  0  0
   61.3100   28.1618  -10.1361 H   0  0  0  0  0
   61.8896   26.2397  -11.4469 H   0  0  0  0  0
   60.7842   26.9250  -12.5912 H   0  0  0  0  0
   60.3513   24.4672  -11.6319 H   0  0  0  0  0
   59.0039   25.5282  -11.9349 H   0  0  0  0  0
   58.6003   25.0473   -9.6519 H   0  0  0  0  0
   60.2519   24.7888   -9.2941 H   0  0  0  0  0
   61.2171   29.9195  -11.3710 H   0  0  0  0  0
   58.6969   31.2441  -11.4845 H   0  0  0  0  0
   60.8299   32.4557  -11.4038 H   0  0  0  0  0
   61.2563   31.8353  -13.0176 H   0  0  0  0  0
   59.8795   32.9485  -12.8268 H   0  0  0  0  0
   57.2719   31.6667  -13.1153 H   0  0  0  0  0
   57.0920   29.5874  -15.1486 H   0  0  0  0  0
   55.0246   30.7476  -15.7947 H   0  0  0  0  0
   55.4359   32.0457  -14.5592 H   0  0  0  0  0
   56.3599   29.4925  -12.4700 H   0  0  0  0  0
   52.4346   31.0896  -15.3457 H   0  0  0  0  0
   51.6162   28.3081  -11.2619 H   0  0  0  0  0
   50.1385   30.4506  -14.6763 H   0  0  0  0  0
   49.7399   29.0890  -12.6566 H   0  0  0  0  0
   56.5837   30.4071  -17.2971 H   0  0  0  0  0
  1  2  1  0  0  0
  2  3  1  0  0  0
  2  5  1  0  0  0
  3  4  2  0  0  0
  3 12  1  0  0  0
  5  6  1  0  0  0
  6  7  4  0  0  0
  6  8  4  0  0  0
  7  9  4  0  0  0
  8 10  4  0  0  0
  9 11  4  0  0  0
 10 11  4  0  0  0
 12 13  1  0  0  0
 13 14  1  0  0  0
 13 16  1  0  0  0
 14 15  2  0  0  0
 14 17  1  0  0  0
 17 18  1  0  0  0
 17 23  1  0  0  0
 18 19  1  0  0  0
 18 21  1  0  0  0
 19 20  2  0  0  0
 19 24  1  0  0  0
 21 22  1  0  0  0
 22 23  1  0  0  0
 24 25  1  0  0  0
 25 26  1  0  0  0
 26 27  2  0  0  0
 26 28  1  0  0  0
 28 29  1  0  0  0
 29 30  1  0  0  0
 29 32  1  0  0  0
 30 31  2  0  0  0
 30 36  1  0  0  0
 32 33  1  0  0  0
 33 34  2  0  0  0
 33 35  1  0  0  0
 36 37  1  0  0  0
 37 38  1  0  0  0
 37 40  1  0  0  0
 38 39  2  0  0  0
 38 48  1  0  0  0
 40 41  1  0  0  0
 41 42  4  0  0  0
 41 43  4  0  0  0
 42 44  4  0  0  0
 43 45  4  0  0  0
 44 46  4  0  0  0
 45 46  4  0  0  0
 46 47  1  0  0  0
 48 49  1  0  0  0
 48 54  1  0  0  0
 49 50  1  0  0  0
 49 52  1  0  0  0
 50 51  2  0  0  0
 50 55  1  0  0  0
 52 53  1  0  0  0
 53 54  1  0  0  0
 55 56  1  0  0  0
 56 57  1  0  0  0
 56 59  1  0  0  0
 57 58  2  0  0  0
 57 60  1  0  0  0
 60 61  1  0  0  0
 61 62  1  0  0  0
 61 64  1  0  0  0
 62 63  2  0  0  0
 62 74  1  0  0  0
 64 65  1  0  0  0
 65 66  4  0  0  0
 65 67  4  0  0  0
 66 68  4  0  0  0
 67 69  4  0  0  0
 67 70  4  0  0  0
 68 69  4  0  0  0
 69 71  4  0  0  0
 70 72  4  0  0  0
 71 73  4  0  0  0
 72 73  4  0  0  0
  1 75  1  0  0  0
  1 76  1  0  0  0
  1 77  1  0  0  0
  2 78  1  0  0  0
  5 79  1  0  0  0
  5 80  1  0  0  0
  7 81  1  0  0  0
  8 82  1  0  0  0
  9 83  1  0  0  0
 10 84  1  0  0  0
 11 85  1  0  0  0
 12 86  1  0  0  0
 13 87  1  0  0  0
 16 88  1  0  0  0
 16 89  1  0  0  0
 16 90  1  0  0  0
 18 91  1  0  0  0
 21 92  1  0  0  0
 21 93  1  0  0  0
 22 94  1  0  0  0
 22 95  1  0  0  0
 23 96  1  0  0  0
 23 97  1  0  0  0
 24 98  1  0  0  0
 25 99  1  0  0  0
 25100  1  0  0  0
 28101  1  0  0  0
 29102  1  0  0  0
 32103  1  0  0  0
 32104  1  0  0  0
 35105  1  0  0  0
 35106  1  0  0  0
 36107  1  0  0  0
 37108  1  0  0  0
 40109  1  0  0  0
 40110  1  0  0  0
 42111  1  0  0  0
 43112  1  0  0  0
 44113  1  0  0  0
 45114  1  0  0  0
 47115  1  0  0  0
 49116  1  0  0  0
 52117  1  0  0  0
 52118  1  0  0  0
 53119  1  0  0  0
 53120  1  0  0  0
 54121  1  0  0  0
 54122  1  0  0  0
 55123  1  0  0  0
 56124  1  0  0  0
 59125  1  0  0  0
 59126  1  0  0  0
 59127  1  0  0  0
 60128  1  0  0  0
 61129  1  0  0  0
 64130  1  0  0  0
 64131  1  0  0  0
 66132  1  0  0  0
 70133  1  0  0  0
 71134  1  0  0  0
 72135  1  0  0  0
 73136  1  0  0  0
 74137  1  0  0  0
M  END
$$$$
