5ou2_ligand
  -I-interpret- 

 18 19  0  0  0  0  0  0  0  0999 V2000
  -74.2110   43.1900    3.1190 C   0  0  0  0  0
  -73.6830   42.0900    1.3450 C   0  0  0  0  0
  -74.8180   42.7550    1.1060 C   0  0  0  0  0
  -75.6000   42.7780   -0.1650 C   0  0  0  0  0
  -74.9830   42.4860   -1.3360 C   0  0  0  0  0
  -75.6560   42.4930   -2.5050 C   0  0  0  0  0
  -76.9780   42.8130   -2.5470 C   0  0  0  0  0
  -77.6010   43.1090   -1.3700 C   0  0  0  0  0
  -77.9270   42.8720   -4.2100 Br  0  0  0  0  0
  -76.9310   43.1030   -0.1700 C   0  0  0  0  0
  -75.1350   43.4250    2.1950 N   0  0  0  0  0
  -73.3250   42.3630    2.5720 N   0  0  0  0  0
  -74.1839   43.5963    4.1301 H   0  0  0  0  0
  -73.1546   41.4410    0.6466 H   0  0  0  0  0
  -73.9210   42.2404   -1.3330 H   0  0  0  0  0
  -75.1343   42.2391   -3.4277 H   0  0  0  0  0
  -78.6622   43.3578   -1.3816 H   0  0  0  0  0
  -77.4472   43.3513    0.7574 H   0  0  0  0  0
  1 11  4  0  0  0
 12  1  4  0  0  0
  2  3  4  0  0  0
  2 12  4  0  0  0
  3  4  1  0  0  0
  3 11  4  0  0  0
  4  5  4  0  0  0
  4 10  4  0  0  0
  5  6  4  0  0  0
  6  7  4  0  0  0
  7  8  4  0  0  0
  7  9  1  0  0  0
  8 10  4  0  0  0
  1 13  1  0  0  0
  2 14  1  0  0  0
  5 15  1  0  0  0
  6 16  1  0  0  0
  8 17  1  0  0  0
 10 18  1  0  0  0
M  END
$$$$
