4qwu_ligand
  -I-interpret- 

 53 54  0  0  0  0  0  0  0  0999 V2000
   62.3730 -132.6650   35.7250 N   0  0  0  0  0
   61.6130 -133.7600   35.9090 C   0  0  0  0  0
   61.3910 -134.6530   34.8620 C   0  0  0  0  0
   61.9690 -134.3990   33.6130 N   0  0  0  0  0
   62.7600 -133.2560   33.4270 C   0  0  0  0  0
   62.9620 -132.3830   34.4890 C   0  0  0  0  0
   61.0640 -133.9720   37.1670 C   0  0  0  0  0
   60.4250 -133.0800   37.7200 O   0  0  0  0  0
   61.3020 -135.1710   37.7210 N   0  0  0  0  0
   60.8320 -135.4840   39.0780 C   0  0  0  0  0
   60.1150 -136.8150   39.1370 C   0  0  0  0  0
   58.9330 -136.6660   38.3870 C   0  0  0  0  0
   58.7350 -137.3880   37.2050 C   0  0  0  0  0
   57.5590 -137.2330   36.4720 C   0  0  0  0  0
   56.5680 -136.3590   36.9120 C   0  0  0  0  0
   56.7550 -135.6400   38.0880 C   0  0  0  0  0
   57.9290 -135.7950   38.8230 C   0  0  0  0  0
   62.0780 -135.5180   39.9540 C   0  0  0  0  0
   63.1960 -135.5580   39.4400 O   0  0  0  0  0
   61.8600 -135.4570   41.2760 N   0  0  0  0  0
   62.9870 -135.4370   42.2210 C   0  0  0  0  0
   63.0240 -134.1260   42.9710 C   0  0  0  0  0
   62.9750 -132.9490   41.9810 C   0  0  0  0  0
   62.6640 -131.6770   42.7780 C   0  0  0  0  0
   64.3050 -132.8080   41.2230 C   0  0  0  0  0
   62.8690 -136.5520   43.2740 B   0  0  0  0  0
   61.5730 -136.5140   43.8930 O   0  0  0  0  0
   63.0680 -137.8370   42.6770 O   0  0  0  0  0
   60.7744 -135.5388   35.0143 H   0  0  0  0  0
   63.2130 -133.0539   32.4564 H   0  0  0  0  0
   63.5723 -131.4892   34.3599 H   0  0  0  0  0
   61.8167 -135.8755   37.1925 H   0  0  0  0  0
   60.1125 -134.7370   39.4133 H   0  0  0  0  0
   59.8912 -137.0923   40.1671 H   0  0  0  0  0
   60.7375 -137.6119   38.7301 H   0  0  0  0  0
   59.5047 -138.0758   36.8550 H   0  0  0  0  0
   57.4148 -137.7980   35.5511 H   0  0  0  0  0
   55.6497 -136.2389   36.3372 H   0  0  0  0  0
   55.9822 -134.9543   38.4353 H   0  0  0  0  0
   58.0661 -135.2322   39.7463 H   0  0  0  0  0
   60.9037 -135.4242   41.6294 H   0  0  0  0  0
   63.8897 -135.5796   41.6270 H   0  0  0  0  0
   63.9470 -134.0699   43.5481 H   0  0  0  0  0
   62.1624 -134.0700   43.6363 H   0  0  0  0  0
   62.2010 -133.1236   41.2336 H   0  0  0  0  0
   61.7028 -131.7898   43.2794 H   0  0  0  0  0
   63.4455 -131.5147   43.5203 H   0  0  0  0  0
   62.6234 -130.8252   42.0991 H   0  0  0  0  0
   65.1109 -132.6319   41.9355 H   0  0  0  0  0
   64.5037 -133.7242   40.6669 H   0  0  0  0  0
   64.2401 -131.9683   40.5310 H   0  0  0  0  0
   61.5116 -137.2137   44.5474 H   0  0  0  0  0
   62.9903 -138.5169   43.3503 H   0  0  0  0  0
  1  2  4  0  0  0
  1  6  4  0  0  0
  2  3  4  0  0  0
  2  7  1  0  0  0
  3  4  4  0  0  0
  4  5  4  0  0  0
  5  6  4  0  0  0
  7  8  2  0  0  0
  7  9  1  0  0  0
  9 10  1  0  0  0
 10 11  1  0  0  0
 10 18  1  0  0  0
 11 12  1  0  0  0
 12 13  4  0  0  0
 12 17  4  0  0  0
 13 14  4  0  0  0
 14 15  4  0  0  0
 15 16  4  0  0  0
 16 17  4  0  0  0
 18 19  2  0  0  0
 18 20  1  0  0  0
 20 21  1  0  0  0
 21 22  1  0  0  0
 21 26  1  0  0  0
 22 23  1  0  0  0
 23 24  1  0  0  0
 23 25  1  0  0  0
 26 27  1  0  0  0
 26 28  1  0  0  0
  3 29  1  0  0  0
  5 30  1  0  0  0
  6 31  1  0  0  0
  9 32  1  0  0  0
 10 33  1  0  0  0
 11 34  1  0  0  0
 11 35  1  0  0  0
 13 36  1  0  0  0
 14 37  1  0  0  0
 15 38  1  0  0  0
 16 39  1  0  0  0
 17 40  1  0  0  0
 20 41  1  0  0  0
 21 42  1  0  0  0
 22 43  1  0  0  0
 22 44  1  0  0  0
 23 45  1  0  0  0
 24 46  1  0  0  0
 24 47  1  0  0  0
 24 48  1  0  0  0
 25 49  1  0  0  0
 25 50  1  0  0  0
 25 51  1  0  0  0
 27 52  1  0  0  0
 28 53  1  0  0  0
M  END
$$$$
