### 
### Created by X-TOOL on Mon Sep 10 21:13:23 2018
### 

@<TRIPOS>MOLECULE
4qwu_ligand
   53    54     1     0     0
SMALL
GAST_HUCK


@<TRIPOS>ATOM
      1 N1         62.3730 -132.6650   35.7250 N.ar      1 BO2        -0.2509
      2 C2         61.6130 -133.7600   35.9090 C.ar      1 BO2         0.1532
      3 C3         61.3910 -134.6530   34.8620 C.ar      1 BO2         0.0620
      4 N4         61.9690 -134.3990   33.6130 N.ar      1 BO2        -0.2653
      5 C5         62.7600 -133.2560   33.4270 C.ar      1 BO2         0.0462
      6 C6         62.9620 -132.3830   34.4890 C.ar      1 BO2         0.0475
      7 C7         61.0640 -133.9720   37.1670 C.2       1 BO2         0.2349
      8 O8         60.4250 -133.0800   37.7200 O.2       1 BO2        -0.3755
      9 N9         61.3020 -135.1710   37.7210 N.am      1 BO2        -0.2600
     10 C10        60.8320 -135.4840   39.0780 C.3       1 BO2         0.1378
     11 C11        60.1150 -136.8150   39.1370 C.3       1 BO2         0.0213
     12 C12        58.9330 -136.6660   38.3870 C.ar      1 BO2        -0.0385
     13 C13        58.7350 -137.3880   37.2050 C.ar      1 BO2        -0.0601
     14 C14        57.5590 -137.2330   36.4720 C.ar      1 BO2        -0.0686
     15 C15        56.5680 -136.3590   36.9120 C.ar      1 BO2        -0.0687
     16 C16        56.7550 -135.6400   38.0880 C.ar      1 BO2        -0.0686
     17 C17        57.9290 -135.7950   38.8230 C.ar      1 BO2        -0.0601
     18 C18        62.0780 -135.5180   39.9540 C.2       1 BO2         0.1755
     19 O19        63.1960 -135.5580   39.4400 O.2       1 BO2        -0.3969
     20 N20        61.8600 -135.4570   41.2760 N.am      1 BO2        -0.4361
     21 C21        62.9870 -135.4370   42.2210 C.3       1 BO2        -0.2261
     22 C22        63.0240 -134.1260   42.9710 C.3       1 BO2        -0.1585
     23 C23        62.9750 -132.9490   41.9810 C.3       1 BO2        -0.0721
     24 C24        62.6640 -131.6770   42.7780 C.3       1 BO2        -0.0649
     25 C25        64.3050 -132.8080   41.2230 C.3       1 BO2        -0.0649
     26 B26        62.8690 -136.5520   43.2740 B         1 BO2         3.0000
     27 O27        61.5730 -136.5140   43.8930 O.3       1 BO2        -0.8710
     28 O28        63.0680 -137.8370   42.6770 O.3       1 BO2        -0.8710
     29 H          60.7778 -135.5340   35.0134 H         1 BO2         0.0978
     30 H          63.2105 -133.0550   32.4618 H         1 BO2         0.0958
     31 H          63.5690 -131.4941   34.3606 H         1 BO2         0.0941
     32 H          61.8066 -135.8616   37.2029 H         1 BO2         0.1883
     33 H          60.1478 -134.6956   39.4249 H         1 BO2         0.0823
     34 H          59.8739 -137.0709   40.1793 H         1 BO2         0.0474
     35 H          60.7442 -137.6052   38.7015 H         1 BO2         0.0474
     36 H          59.5005 -138.0721   36.8569 H         1 BO2         0.0557
     37 H          57.4156 -137.7949   35.5562 H         1 BO2         0.0599
     38 H          55.6547 -136.2395   36.3404 H         1 BO2         0.0559
     39 H          55.9864 -134.9580   38.4333 H         1 BO2         0.0599
     40 H          58.0654 -135.2353   39.7412 H         1 BO2         0.0557
     41 H          60.9225 -135.4248   41.6224 H         1 BO2         0.1459
     42 H          63.9279 -135.5630   41.6653 H         1 BO2        -0.1822
     43 H          63.9523 -134.0689   43.5584 H         1 BO2        -0.0063
     44 H          62.1582 -134.0690   43.6471 H         1 BO2        -0.0063
     45 H          62.1717 -133.1244   41.2503 H         1 BO2         0.0272
     46 H          62.6227 -130.8166   42.0939 H         1 BO2         0.0232
     47 H          63.4521 -131.5120   43.5275 H         1 BO2         0.0232
     48 H          61.6941 -131.7896   43.2845 H         1 BO2         0.0232
     49 H          64.5058 -133.7314   40.6599 H         1 BO2         0.0232
     50 H          65.1195 -132.6320   41.9411 H         1 BO2         0.0232
     51 H          64.2414 -131.9598   40.5255 H         1 BO2         0.0232
     52 H          61.5224 -137.1877   44.5610 H         1 BO2        -0.1290
     53 H          63.0145 -138.5081   43.3473 H         1 BO2        -0.1290
@<TRIPOS>BOND
     1    1    2 ar 
     2    1    6 ar 
     3    2    3 ar 
     4    2    7 1  
     5    3    4 ar 
     6    4    5 ar 
     7    5    6 ar 
     8    7    8 2  
     9    7    9 am 
    10    9   10 1  
    11   10   11 1  
    12   10   18 1  
    13   11   12 1  
    14   12   13 ar 
    15   12   17 ar 
    16   13   14 ar 
    17   14   15 ar 
    18   15   16 ar 
    19   16   17 ar 
    20   18   19 2  
    21   18   20 am 
    22   20   21 1  
    23   21   22 1  
    24   21   26 1  
    25   22   23 1  
    26   23   24 1  
    27   23   25 1  
    28   26   27 1  
    29   26   28 1  
    30    3   29 1  
    31    5   30 1  
    32    6   31 1  
    33    9   32 1  
    34   10   33 1  
    35   11   34 1  
    36   11   35 1  
    37   13   36 1  
    38   14   37 1  
    39   15   38 1  
    40   16   39 1  
    41   17   40 1  
    42   20   41 1  
    43   21   42 1  
    44   22   43 1  
    45   22   44 1  
    46   23   45 1  
    47   24   46 1  
    48   24   47 1  
    49   24   48 1  
    50   25   49 1  
    51   25   50 1  
    52   25   51 1  
    53   27   52 1  
    54   28   53 1  
@<TRIPOS>SUBSTRUCTURE
     1 BO2         1

