### 
### Created by X-TOOL on Mon Sep 10 21:13:08 2018
### 

@<TRIPOS>MOLECULE
4e3o_ligand
   17    16     1     0     0
SMALL
GAST_HUCK


@<TRIPOS>ATOM
      1 B03        26.2210    4.9720   16.2820 B         1 0NG         1.0000
      2 O04        25.1640    3.9830   16.5720 O.3       1 0NG        -0.8710
      3 O05        26.3860    5.8280   17.4480 O.3       1 0NG        -0.8710
      4 C06        25.8650    5.7950   14.9930 C.3       1 0NG        -0.2503
      5 N07        24.4530    6.1520   14.8850 N.am      1 0NG        -0.4024
      6 S08        23.7340    6.2360   13.4460 S.o2      1 0NG         0.0267
      7 O09        22.4460    6.8440   13.5520 O.2       1 0NG        -0.1566
      8 O10        24.4470    7.1600   12.6080 O.2       1 0NG        -0.1566
      9 C11        23.6390    4.6490   12.6630 C.3       1 0NG         0.1555
     10 CL1        22.4770    4.4380   11.3960 Cl        1 0NG        -0.0990
     11 H          25.0447    3.4111   15.8102 H         1 0NG        -0.1290
     12 H          26.6367    5.2921   18.2041 H         1 0NG        -0.1290
     13 H          26.1062    5.1691   14.1338 H         1 0NG        -0.1900
     14 H          26.4306    6.7257   15.0380 H         1 0NG        -0.1900
     15 H          23.9165    6.3502   15.7296 H         1 0NG         0.1253
     16 H          23.3399    3.9555   13.4490 H         1 0NG         0.0687
     17 H          24.6109    4.4992   12.1928 H         1 0NG         0.0687
@<TRIPOS>BOND
     1    1    2 1  
     2    1    3 1  
     3    1    4 1  
     4    4    5 1  
     5    5    6 am 
     6    6    7 2  
     7    6    8 2  
     8    6    9 1  
     9    9   10 1  
    10    2   11 1  
    11    3   12 1  
    12    4   13 1  
    13    4   14 1  
    14    5   15 1  
    15    9   16 1  
    16    9   17 1  
@<TRIPOS>SUBSTRUCTURE
     1 0NG         1

