4e3o_ligand
  -I-interpret- 

 17 16  0  0  0  0  0  0  0  0999 V2000
   26.2210    4.9720   16.2820 B   0  0  0  0  0
   25.1640    3.9830   16.5720 O   0  0  0  0  0
   26.3860    5.8280   17.4480 O   0  0  0  0  0
   25.8650    5.7950   14.9930 C   0  0  0  0  0
   24.4530    6.1520   14.8850 N   0  0  0  0  0
   23.7340    6.2360   13.4460 S   0  0  0  0  0
   22.4460    6.8440   13.5520 O   0  0  0  0  0
   24.4470    7.1600   12.6080 O   0  0  0  0  0
   23.6390    4.6490   12.6630 C   0  0  0  0  0
   22.4770    4.4380   11.3960 Cl  0  0  0  0  0
   25.3971    3.4894   17.3617 H   0  0  0  0  0
   26.6021    5.2882   18.2119 H   0  0  0  0  0
   26.1062    5.1691   14.1338 H   0  0  0  0  0
   26.4306    6.7257   15.0380 H   0  0  0  0  0
   23.9165    6.3502   15.7296 H   0  0  0  0  0
   23.3399    3.9555   13.4490 H   0  0  0  0  0
   24.6109    4.4992   12.1928 H   0  0  0  0  0
  1  2  1  0  0  0
  1  3  1  0  0  0
  1  4  1  0  0  0
  4  5  1  0  0  0
  5  6  1  0  0  0
  6  7  2  0  0  0
  6  8  2  0  0  0
  6  9  1  0  0  0
  9 10  1  0  0  0
  2 11  1  0  0  0
  3 12  1  0  0  0
  4 13  1  0  0  0
  4 14  1  0  0  0
  5 15  1  0  0  0
  9 16  1  0  0  0
  9 17  1  0  0  0
M  END
$$$$
