4pp5_ligand
  -I-interpret- 

 47 48  0  0  0  0  0  0  0  0999 V2000
   68.1000   46.6250   34.3720 C   0  0  0  0  0
   66.9130   47.3360   33.7180 C   0  0  0  0  0
   66.0520   48.0660   34.5310 C   0  0  0  0  0
   64.9580   48.7150   33.9710 C   0  0  0  0  0
   64.7330   48.6220   32.6020 C   0  0  0  0  0
   65.5960   47.8870   31.7930 C   0  0  0  0  0
   66.7020   47.2390   32.3430 C   0  0  0  0  0
   67.6820   46.4580   31.4630 C   0  0  0  0  0
   66.9700   45.7960   30.2810 C   0  0  0  0  0
   66.1240   46.8130   29.5110 C   0  0  0  0  0
   65.3360   47.7520   30.4310 C   0  0  0  0  0
   64.3150   48.5140   29.8690 C   0  0  0  0  0
   63.9690   48.4540   28.5220 C   0  0  0  0  0
   65.0020   48.8280   27.4580 C   0  0  0  0  0
   62.6830   48.1110   28.1160 C   0  0  0  0  0
   61.6560   47.8140   29.0060 C   0  0  0  0  0
   60.4890   47.2200   28.5390 C   0  0  0  0  0
   59.4350   46.9130   29.3940 C   0  0  0  0  0
   59.7060   46.1960   30.7190 C   0  0  0  0  0
   58.1450   47.2650   29.0060 C   0  0  0  0  0
   57.0050   47.0240   29.7670 C   0  0  0  0  0
   56.0310   47.7880   29.5980 O   0  0  0  0  0
   57.0080   46.0660   30.5700 O   0  0  0  0  0
   68.7355   47.3604   34.8654 H   0  0  0  0  0
   67.7328   45.9087   35.1070 H   0  0  0  0  0
   68.6742   46.1012   33.6077 H   0  0  0  0  0
   66.2348   48.1288   35.6037 H   0  0  0  0  0
   64.2812   49.2928   34.6005 H   0  0  0  0  0
   63.8752   49.1279   32.1589 H   0  0  0  0  0
   68.1436   45.6781   32.0686 H   0  0  0  0  0
   68.4251   47.1534   31.0728 H   0  0  0  0  0
   66.3146   45.0126   30.6617 H   0  0  0  0  0
   67.7207   45.3837   29.6068 H   0  0  0  0  0
   65.4057   46.2589   28.9068 H   0  0  0  0  0
   66.8003   47.4235   28.9126 H   0  0  0  0  0
   63.7586   49.1917   30.5165 H   0  0  0  0  0
   65.1419   47.9876   26.7781 H   0  0  0  0  0
   64.6485   49.6944   26.8990 H   0  0  0  0  0
   65.9491   49.0676   27.9413 H   0  0  0  0  0
   62.4698   48.0732   27.0477 H   0  0  0  0  0
   61.7658   48.0461   30.0653 H   0  0  0  0  0
   60.3975   46.9892   27.4776 H   0  0  0  0  0
   59.3593   46.8176   31.5445 H   0  0  0  0  0
   59.1747   45.2443   30.7310 H   0  0  0  0  0
   60.7763   46.0173   30.8217 H   0  0  0  0  0
   58.0199   47.7615   28.0438 H   0  0  0  0  0
   57.8576   45.6206   30.5318 H   0  0  0  0  0
  1  2  1  0  0  0
  2  3  4  0  0  0
  2  7  4  0  0  0
  3  4  4  0  0  0
  4  5  4  0  0  0
  5  6  4  0  0  0
  6  7  4  0  0  0
  6 11  1  0  0  0
  7  8  1  0  0  0
  8  9  1  0  0  0
  9 10  1  0  0  0
 10 11  1  0  0  0
 11 12  2  0  0  0
 12 13  1  0  0  0
 13 14  1  0  0  0
 13 15  2  0  0  0
 15 16  1  0  0  0
 16 17  2  0  0  0
 17 18  1  0  0  0
 18 19  1  0  0  0
 18 20  2  0  0  0
 20 21  1  0  0  0
 21 22  2  0  0  0
 21 23  1  0  0  0
  1 24  1  0  0  0
  1 25  1  0  0  0
  1 26  1  0  0  0
  3 27  1  0  0  0
  4 28  1  0  0  0
  5 29  1  0  0  0
  8 30  1  0  0  0
  8 31  1  0  0  0
  9 32  1  0  0  0
  9 33  1  0  0  0
 10 34  1  0  0  0
 10 35  1  0  0  0
 12 36  1  0  0  0
 14 37  1  0  0  0
 14 38  1  0  0  0
 14 39  1  0  0  0
 15 40  1  0  0  0
 16 41  1  0  0  0
 17 42  1  0  0  0
 19 43  1  0  0  0
 19 44  1  0  0  0
 19 45  1  0  0  0
 20 46  1  0  0  0
 23 47  1  0  0  0
M  END
$$$$
