3lzb_ligand
  -I-interpret- 

 72 78  0  0  0  0  0  0  0  0999 V2000
   15.7310    7.2150   -4.6190 C   0  0  0  0  0
   15.9960    7.8550   -3.4340 C   0  0  0  0  0
   19.9780    2.7350   -5.8490 C   0  0  0  0  0
   19.8650    0.5560   -4.8720 C   0  0  0  0  0
   13.3330   12.0430    2.5220 C   0  0  0  0  0
   16.1820    5.9370   -4.8070 C   0  0  0  0  0
   13.8500    7.1610   -1.4780 C   0  0  0  0  0
   12.4960    7.1050   -1.6000 C   0  0  0  0  0
   19.2590    1.7440   -5.2150 C   0  0  0  0  0
   16.8630    5.2930   -3.8040 C   0  0  0  0  0
   14.3280    8.0380   -0.5410 C   0  0  0  0  0
   16.8250    7.8290   -1.1300 C   0  0  0  0  0
   12.2620    8.6740    0.0570 C   0  0  0  0  0
   15.8070    9.2680    1.9420 C   0  0  0  0  0
   17.2850    3.2670   -5.1250 C   0  0  0  0  0
   21.9260    1.3230   -5.8050 C   0  0  0  0  0
   21.3100    2.5140   -6.1330 C   0  0  0  0  0
   21.1960    0.3430   -5.1700 C   0  0  0  0  0
   11.2390   11.7270    3.6830 C   0  0  0  0  0
   12.9790   11.0740    1.6200 C   0  0  0  0  0
   10.9010   10.7750    2.7500 C   0  0  0  0  0
   17.0810    5.9200   -2.6070 C   0  0  0  0  0
   16.6770    7.2130   -2.4260 C   0  0  0  0  0
   12.4700   12.3220    3.5640 C   0  0  0  0  0
   11.7720   10.4210    1.7440 C   0  0  0  0  0
   15.7470    8.1830   -0.3400 C   0  0  0  0  0
   17.6240    8.6570    0.6260 C   0  0  0  0  0
   16.8380    9.6330    2.7150 C   0  0  0  0  0
   14.0770   13.8760    4.5700 C   0  0  0  0  0
   11.8660   13.3660    5.6180 C   0  0  0  0  0
   13.9810   14.9860    5.5980 C   0  0  0  0  0
   12.8010   13.2890    6.8090 C   0  0  0  0  0
   17.8200    1.8960   -4.8840 C   0  0  0  0  0
   11.7090    7.8660   -0.8480 N   0  0  0  0  0
   13.5710    8.7820    0.2520 N   0  0  0  0  0
   18.0140    8.1210   -0.5130 N   0  0  0  0  0
   16.2850    8.7110    0.7860 N   0  0  0  0  0
   12.7750   13.2520    4.5270 N   0  0  0  0  0
   11.3800    9.4570    0.8130 N   0  0  0  0  0
   17.3050    3.9630   -3.9340 N   0  0  0  0  0
   16.9050    3.6460   -6.2300 O   0  0  0  0  0
   13.5800   14.4850    6.8900 O   0  0  0  0  0
   18.4130    9.2930    2.0410 S   0  0  0  0  0
   15.1666    7.7201   -5.4028 H   0  0  0  0  0
   15.6632    8.8830   -3.2902 H   0  0  0  0  0
   19.5022    3.6771   -6.1213 H   0  0  0  0  0
   19.2917   -0.2190   -4.3633 H   0  0  0  0  0
   14.2749   12.5818    2.4195 H   0  0  0  0  0
   16.0003    5.4296   -5.7544 H   0  0  0  0  0
   14.5125    6.5466   -2.0876 H   0  0  0  0  0
   12.0503    6.4251   -2.3261 H   0  0  0  0  0
   14.7539    9.3943    2.1933 H   0  0  0  0  0
   22.9766    1.1603   -6.0455 H   0  0  0  0  0
   21.8876    3.2957   -6.6264 H   0  0  0  0  0
   21.6695   -0.6016   -4.9025 H   0  0  0  0  0
   10.5549   11.9988    4.4869 H   0  0  0  0  0
   13.6537   10.8193    0.8027 H   0  0  0  0  0
    9.9257   10.2918    2.8079 H   0  0  0  0  0
   17.5779    5.3869   -1.7964 H   0  0  0  0  0
   16.7046   10.1052    3.6883 H   0  0  0  0  0
   14.8490   13.1557    4.8408 H   0  0  0  0  0
   14.3566   14.2691    3.5925 H   0  0  0  0  0
   11.2701   14.2783    5.5926 H   0  0  0  0  0
   11.0942   12.5963    5.6219 H   0  0  0  0  0
   13.2321   15.7024    5.2604 H   0  0  0  0  0
   14.9639   15.4463    5.6986 H   0  0  0  0  0
   13.4654   12.4330    6.6913 H   0  0  0  0  0
   12.2148   13.1778    7.7212 H   0  0  0  0  0
   17.7087    1.6874   -3.8199 H   0  0  0  0  0
   17.2656    1.2141   -5.5288 H   0  0  0  0  0
   10.3800    9.3126    0.6734 H   0  0  0  0  0
   17.6590    3.4885   -3.1034 H   0  0  0  0  0
  2  1  4  0  0  0
  1  6  4  0  0  0
 23  2  4  0  0  0
  9  3  4  0  0  0
  3 17  4  0  0  0
  9  4  4  0  0  0
  4 18  4  0  0  0
  5 20  4  0  0  0
 24  5  4  0  0  0
 10  6  4  0  0  0
  8  7  4  0  0  0
 11  7  4  0  0  0
 34  8  4  0  0  0
 33  9  1  0  0  0
 22 10  4  0  0  0
 10 40  1  0  0  0
 11 26  1  0  0  0
 35 11  4  0  0  0
 12 23  1  0  0  0
 26 12  4  0  0  0
 12 36  4  0  0  0
 13 34  4  0  0  0
 13 35  4  0  0  0
 39 13  1  0  0  0
 14 28  4  0  0  0
 37 14  4  0  0  0
 15 33  1  0  0  0
 40 15  1  0  0  0
 15 41  2  0  0  0
 17 16  4  0  0  0
 18 16  4  0  0  0
 19 21  4  0  0  0
 24 19  4  0  0  0
 20 25  4  0  0  0
 21 25  4  0  0  0
 23 22  4  0  0  0
 38 24  1  0  0  0
 25 39  1  0  0  0
 26 37  4  0  0  0
 27 36  4  0  0  0
 37 27  4  0  0  0
 27 43  4  0  0  0
 43 28  4  0  0  0
 29 31  1  0  0  0
 38 29  1  0  0  0
 30 32  1  0  0  0
 30 38  1  0  0  0
 31 42  1  0  0  0
 32 42  1  0  0  0
  1 44  1  0  0  0
  2 45  1  0  0  0
  3 46  1  0  0  0
  4 47  1  0  0  0
  5 48  1  0  0  0
  6 49  1  0  0  0
  7 50  1  0  0  0
  8 51  1  0  0  0
 14 52  1  0  0  0
 16 53  1  0  0  0
 17 54  1  0  0  0
 18 55  1  0  0  0
 19 56  1  0  0  0
 20 57  1  0  0  0
 21 58  1  0  0  0
 22 59  1  0  0  0
 28 60  1  0  0  0
 29 61  1  0  0  0
 29 62  1  0  0  0
 30 63  1  0  0  0
 30 64  1  0  0  0
 31 65  1  0  0  0
 31 66  1  0  0  0
 32 67  1  0  0  0
 32 68  1  0  0  0
 33 69  1  0  0  0
 33 70  1  0  0  0
 39 71  1  0  0  0
 40 72  1  0  0  0
M  END
$$$$
