5id0_ligand
  -I-interpret- 

203204  0  0  0  0  0  0  0  0999 V2000
  -17.5680   34.4410  -28.9120 N   0  0  0  0  0
  -18.1860   35.7730  -29.0240 C   0  0  0  0  0
  -19.6730   35.7420  -29.3670 C   0  0  0  0  0
  -20.1140   35.0560  -30.2940 O   0  0  0  0  0
  -17.4540   36.6780  -30.0140 C   0  0  0  0  0
  -16.1180   37.1340  -29.5090 C   0  0  0  0  0
  -15.9290   38.6250  -29.6390 C   0  0  0  0  0
  -16.5650   39.2740  -30.4760 O   0  0  0  0  0
  -15.0510   39.1840  -28.8090 N   0  0  0  0  0
  -20.4290   36.5080  -28.5920 N   0  0  0  0  0
  -21.8640   36.6280  -28.7510 C   0  0  0  0  0
  -22.2280   37.3500  -30.0510 C   0  0  0  0  0
  -21.6750   38.4060  -30.3650 O   0  0  0  0  0
  -22.4430   37.3620  -27.5410 C   0  0  0  0  0
  -23.9250   37.4610  -27.5540 C   0  0  0  0  0
  -24.7090   36.3400  -27.2890 C   0  0  0  0  0
  -24.5530   38.6760  -27.8250 C   0  0  0  0  0
  -26.0900   36.4270  -27.2810 C   0  0  0  0  0
  -25.9540   38.7750  -27.8250 C   0  0  0  0  0
  -26.7170   37.6530  -27.5490 C   0  0  0  0  0
  -23.1620   36.7740  -30.8000 N   0  0  0  0  0
  -23.6260   37.3630  -32.0580 C   0  0  0  0  0
  -25.0000   37.9790  -31.8270 C   0  0  0  0  0
  -25.9260   37.2710  -31.4260 O   0  0  0  0  0
  -23.6950   36.2620  -33.1180 C   0  0  0  0  0
  -24.1540   36.7530  -34.4750 C   0  0  0  0  0
  -24.6980   37.8640  -34.5900 O   0  0  0  0  0
  -23.9850   35.9890  -35.4460 O   0  0  0  0  0
  -25.1370   39.2860  -32.0780 N   0  0  0  0  0
  -26.4050   39.9850  -31.8370 C   0  0  0  0  0
  -27.5090   39.5570  -32.7860 C   0  0  0  0  0
  -28.6930   39.6470  -32.4490 O   0  0  0  0  0
  -26.2240   41.4900  -31.9400 C   0  0  0  0  0
  -25.2240   42.0510  -30.9390 C   0  0  0  0  0
  -24.6620   43.3570  -31.4780 C   0  0  0  0  0
  -25.8900   42.2530  -29.5930 C   0  0  0  0  0
  -27.1300   39.0950  -33.9740 N   0  0  0  0  0
  -28.1190   38.6340  -34.9490 C   0  0  0  0  0
  -28.8870   37.3860  -34.4920 C   0  0  0  0  0
  -30.1140   37.3190  -34.6290 O   0  0  0  0  0
  -27.4640   38.3830  -36.3020 C   0  0  0  0  0
  -27.0280   39.6050  -36.8630 O   0  0  0  0  0
  -28.1630   36.4180  -33.9320 N   0  0  0  0  0
  -28.7390   35.1200  -33.5840 C   0  0  0  0  0
  -28.8430   34.8860  -32.0800 C   0  0  0  0  0
  -29.4960   33.9390  -31.6390 O   0  0  0  0  0
  -27.8770   33.9790  -34.1340 C   0  0  0  0  0
  -26.5600   34.0580  -33.5520 O   0  0  0  0  0
  -27.7900   34.0560  -35.6640 C   0  0  0  0  0
  -28.1790   35.7320  -31.3040 N   0  0  0  0  0
  -28.0900   35.5520  -29.8620 C   0  0  0  0  0
  -27.3950   34.2350  -29.5080 C   0  0  0  0  0
  -27.6990   33.5880  -28.5020 O   0  0  0  0  0
  -29.4700   35.6530  -29.1960 C   0  0  0  0  0
  -30.2370   36.9220  -29.5220 C   0  0  0  0  0
  -31.3670   37.1210  -28.5340 C   0  0  0  0  0
  -32.1870   38.2730  -28.8900 N   0  0  0  0  0
  -33.2560   38.6880  -28.2140 C   0  0  0  0  0
  -33.6440   38.0490  -27.1230 N   0  0  0  0  0
  -33.9290   39.7570  -28.6350 N   0  0  0  0  0
  -26.4530   33.8360  -30.3440 N   0  0  0  0  0
  -25.6870   32.6480  -30.0640 C   0  0  0  0  0
  -24.2130   32.9860  -30.0780 C   0  0  0  0  0
  -23.7890   33.9660  -30.7160 O   0  0  0  0  0
  -25.9920   31.5790  -31.1000 C   0  0  0  0  0
  -27.4340   31.1510  -31.1160 C   0  0  0  0  0
  -27.8530   30.4950  -29.7990 C   0  0  0  0  0
  -26.9270   29.4530  -29.3810 N   0  0  0  0  0
  -26.8640   28.2400  -29.9200 C   0  0  0  0  0
  -27.6810   27.8970  -30.9070 N   0  0  0  0  0
  -25.9730   27.3680  -29.4700 N   0  0  0  0  0
  -23.4360   32.1890  -29.3490 N   0  0  0  0  0
  -21.9920   32.2770  -29.4340 C   0  0  0  0  0
  -21.5580   31.7770  -30.8030 C   0  0  0  0  0
  -22.1020   30.7990  -31.3240 O   0  0  0  0  0
  -21.3300   31.4520  -28.3410 C   0  0  0  0  0
  -21.6540   31.8460  -26.9020 C   0  0  0  0  0
  -20.9540   30.9020  -25.9580 C   0  0  0  0  0
  -21.2460   33.2770  -26.6170 C   0  0  0  0  0
  -20.5870   32.4720  -31.3880 N   0  0  0  0  0
  -20.0460   32.1000  -32.6890 C   0  0  0  0  0
  -18.5360   31.9940  -32.5440 C   0  0  0  0  0
  -17.9000   32.9000  -32.0000 O   0  0  0  0  0
  -20.4260   33.1410  -33.7650 C   0  0  0  0  0
  -20.5850   32.5640  -35.1920 C   0  0  0  0  0
  -21.3030   33.5240  -36.1640 C   0  0  0  0  0
  -21.9960   32.7560  -37.2940 C   0  0  0  0  0
  -23.0980   33.5450  -37.9690 N   0  3  0  0  0
  -16.0560   30.5380  -30.7960 C   0  0  0  0  0
  -15.9530   30.9410  -29.3590 C   0  0  0  0  0
  -17.4930   34.5230  -26.6400 O   0  0  0  0  0
  -17.3530   29.8360  -31.0420 C   0  0  0  0  0
  -17.0910   31.8270  -28.9700 C   0  0  0  0  0
  -17.5970   29.7030  -32.5130 C   0  0  0  0  0
  -16.7350   32.5250  -27.7060 C   0  0  0  0  0
  -17.9490   30.9560  -33.1480 N   0  0  0  0  0
  -17.3020   33.9000  -27.7210 C   0  0  0  0  0
  -17.3390   33.9224  -29.7599 H   0  0  0  0  0
  -18.0910   36.1913  -28.0220 H   0  0  0  0  0
  -18.0695   37.5632  -30.1740 H   0  0  0  0  0
  -17.2876   36.1068  -30.9273 H   0  0  0  0  0
  -15.3482   36.6443  -30.1054 H   0  0  0  0  0
  -16.0531   36.8779  -28.4515 H   0  0  0  0  0
  -14.8804   40.1889  -28.8482 H   0  0  0  0  0
  -14.5489   38.6074  -28.1338 H   0  0  0  0  0
  -19.9778   37.0389  -27.8471 H   0  0  0  0  0
  -22.2944   35.6284  -28.8107 H   0  0  0  0  0
  -22.0488   38.3781  -27.5575 H   0  0  0  0  0
  -22.1624   36.7965  -26.6524 H   0  0  0  0  0
  -24.2286   35.3829  -27.0855 H   0  0  0  0  0
  -23.9502   39.5585  -28.0392 H   0  0  0  0  0
  -26.6906   35.5430  -27.0665 H   0  0  0  0  0
  -26.4371   39.7280  -28.0407 H   0  0  0  0  0
  -27.8048   37.7223  -27.5400 H   0  0  0  0  0
  -23.5694   35.8923  -30.4885 H   0  0  0  0  0
  -22.9435   38.1400  -32.4022 H   0  0  0  0  0
  -24.4205   35.5242  -32.7754 H   0  0  0  0  0
  -22.6883   35.8620  -33.2391 H   0  0  0  0  0
  -23.5502   35.1865  -35.1484 H   0  0  0  0  0
  -24.3419   39.8088  -32.4453 H   0  0  0  0  0
  -26.7062   39.7111  -30.8259 H   0  0  0  0  0
  -27.1895   41.9511  -31.7321 H   0  0  0  0  0
  -25.8447   41.7068  -32.9386 H   0  0  0  0  0
  -24.4036   41.3471  -30.7992 H   0  0  0  0  0
  -24.1648   43.1716  -32.4301 H   0  0  0  0  0
  -25.4750   44.0683  -31.6237 H   0  0  0  0  0
  -23.9448   43.7640  -30.7653 H   0  0  0  0  0
  -26.7192   42.9523  -29.7006 H   0  0  0  0  0
  -26.2644   41.2969  -29.2272 H   0  0  0  0  0
  -25.1638   42.6546  -28.8863 H   0  0  0  0  0
  -26.1379   39.0616  -34.2084 H   0  0  0  0  0
  -28.8515   39.4359  -35.0413 H   0  0  0  0  0
  -28.1895   37.9202  -36.9710 H   0  0  0  0  0
  -26.6062   37.7239  -36.1681 H   0  0  0  0  0
  -26.6172   39.4365  -37.7142 H   0  0  0  0  0
  -27.1757   36.5877  -33.7400 H   0  0  0  0  0
  -29.7375   35.1316  -34.0210 H   0  0  0  0  0
  -28.3343   33.0252  -33.8707 H   0  0  0  0  0
  -26.0167   33.3444  -33.8944 H   0  0  0  0  0
  -28.7912   33.9786  -36.0879 H   0  0  0  0  0
  -27.3439   35.0074  -35.9539 H   0  0  0  0  0
  -27.1733   33.2366  -36.0333 H   0  0  0  0  0
  -27.7159   36.5343  -31.7310 H   0  0  0  0  0
  -27.4783   36.3637  -29.4683 H   0  0  0  0  0
  -29.3046   35.6489  -28.1186 H   0  0  0  0  0
  -30.0642   34.8178  -29.5666 H   0  0  0  0  0
  -30.6526   36.8387  -30.5262 H   0  0  0  0  0
  -29.5586   37.7731  -29.4631 H   0  0  0  0  0
  -30.9379   37.2929  -27.5468 H   0  0  0  0  0
  -31.9966   36.2312  -28.5438 H   0  0  0  0  0
  -31.9210   38.8015  -29.7209 H   0  0  0  0  0
  -33.1235   37.2348  -26.7965 H   0  0  0  0  0
  -34.7442   40.0834  -28.1160 H   0  0  0  0  0
  -33.6294   40.2495  -29.4765 H   0  0  0  0  0
  -26.2670   34.3716  -31.1919 H   0  0  0  0  0
  -25.9565   32.2651  -29.0797 H   0  0  0  0  0
  -25.3934   30.7026  -30.8517 H   0  0  0  0  0
  -25.7645   31.9987  -32.0799 H   0  0  0  0  0
  -27.5639   30.4220  -31.9159 H   0  0  0  0  0
  -28.0505   32.0373  -31.2661 H   0  0  0  0  0
  -28.8318   30.0383  -29.9454 H   0  0  0  0  0
  -27.8662   31.2647  -29.0273 H   0  0  0  0  0
  -26.2814   29.6688  -28.6214 H   0  0  0  0  0
  -27.6223   26.9649  -31.3170 H   0  0  0  0  0
  -28.3680   28.5653  -31.2560 H   0  0  0  0  0
  -25.3403   27.6295  -28.7139 H   0  0  0  0  0
  -23.8625   31.5069  -28.7219 H   0  0  0  0  0
  -21.6851   33.3139  -29.2971 H   0  0  0  0  0
  -20.2564   31.5979  -28.4602 H   0  0  0  0  0
  -21.6979   30.4336  -28.4659 H   0  0  0  0  0
  -22.7320   31.7774  -26.7559 H   0  0  0  0  0
  -21.2960   29.8840  -26.1443 H   0  0  0  0  0
  -19.8776   30.9604  -26.1197 H   0  0  0  0  0
  -21.1840   31.1815  -24.9298 H   0  0  0  0  0
  -20.1727   33.3854  -26.7733 H   0  0  0  0  0
  -21.7819   33.9470  -27.2893 H   0  0  0  0  0
  -21.4909   33.5244  -25.5841 H   0  0  0  0  0
  -20.2091   33.2908  -30.9114 H   0  0  0  0  0
  -20.4629   31.1463  -33.0125 H   0  0  0  0  0
  -19.6150   33.8682  -33.8045 H   0  0  0  0  0
  -21.3932   33.5548  -33.4797 H   0  0  0  0  0
  -21.1897   31.6603  -35.1158 H   0  0  0  0  0
  -19.5853   32.3833  -35.5869 H   0  0  0  0  0
  -20.5619   34.1925  -36.6023 H   0  0  0  0  0
  -22.0581   34.0800  -35.6082 H   0  0  0  0  0
  -22.4491   31.8662  -36.8570 H   0  0  0  0  0
  -21.2426   32.5314  -38.0491 H   0  0  0  0  0
  -23.5160   32.9794  -38.7077 H   0  0  0  0  0
  -23.8106   33.7884  -37.2810 H   0  0  0  0  0
  -22.7071   34.3969  -38.3714 H   0  0  0  0  0
  -15.2337   29.8648  -31.0382 H   0  0  0  0  0
  -16.0078   31.4294  -31.4215 H   0  0  0  0  0
  -15.0199   31.4854  -29.2140 H   0  0  0  0  0
  -15.9807   30.0437  -28.7408 H   0  0  0  0  0
  -18.1623   30.4146  -30.5967 H   0  0  0  0  0
  -17.3116   28.8425  -30.5956 H   0  0  0  0  0
  -17.9929   31.2323  -28.8253 H   0  0  0  0  0
  -17.2804   32.5566  -29.7573 H   0  0  0  0  0
  -18.4334   29.0174  -32.6486 H   0  0  0  0  0
  -16.6733   29.3487  -32.9705 H   0  0  0  0  0
  -15.6502   32.5807  -27.6153 H   0  0  0  0  0
  -17.1433   31.9732  -26.8593 H   0  0  0  0  0
  -17.7307   31.0548  -34.1394 H   0  0  0  0  0
  2  1  1  0  0  0
  1 97  1  0  0  0
  3  2  1  0  0  0
  2  5  1  0  0  0
  3  4  2  0  0  0
 10  3  1  0  0  0
  5  6  1  0  0  0
  6  7  1  0  0  0
  7  8  2  0  0  0
  7  9  1  0  0  0
 11 10  1  0  0  0
 12 11  1  0  0  0
 11 14  1  0  0  0
 12 13  2  0  0  0
 21 12  1  0  0  0
 14 15  1  0  0  0
 15 16  4  0  0  0
 15 17  4  0  0  0
 16 18  4  0  0  0
 17 19  4  0  0  0
 18 20  4  0  0  0
 19 20  4  0  0  0
 22 21  1  0  0  0
 23 22  1  0  0  0
 22 25  1  0  0  0
 23 24  2  0  0  0
 29 23  1  0  0  0
 25 26  1  0  0  0
 26 27  2  0  0  0
 26 28  1  0  0  0
 30 29  1  0  0  0
 31 30  1  0  0  0
 30 33  1  0  0  0
 31 32  2  0  0  0
 37 31  1  0  0  0
 33 34  1  0  0  0
 34 35  1  0  0  0
 34 36  1  0  0  0
 38 37  1  0  0  0
 39 38  1  0  0  0
 38 41  1  0  0  0
 39 40  2  0  0  0
 43 39  1  0  0  0
 41 42  1  0  0  0
 44 43  1  0  0  0
 45 44  1  0  0  0
 44 47  1  0  0  0
 45 46  2  0  0  0
 50 45  1  0  0  0
 47 48  1  0  0  0
 47 49  1  0  0  0
 51 50  1  0  0  0
 52 51  1  0  0  0
 51 54  1  0  0  0
 52 53  2  0  0  0
 61 52  1  0  0  0
 54 55  1  0  0  0
 55 56  1  0  0  0
 56 57  1  0  0  0
 57 58  1  0  0  0
 58 59  2  0  0  0
 58 60  1  0  0  0
 62 61  1  0  0  0
 63 62  1  0  0  0
 62 65  1  0  0  0
 63 64  2  0  0  0
 72 63  1  0  0  0
 65 66  1  0  0  0
 66 67  1  0  0  0
 67 68  1  0  0  0
 68 69  1  0  0  0
 69 70  1  0  0  0
 69 71  2  0  0  0
 73 72  1  0  0  0
 74 73  1  0  0  0
 73 76  1  0  0  0
 74 75  2  0  0  0
 80 74  1  0  0  0
 76 77  1  0  0  0
 77 78  1  0  0  0
 77 79  1  0  0  0
 81 80  1  0  0  0
 82 81  1  0  0  0
 81 84  1  0  0  0
 82 83  2  0  0  0
 96 82  1  0  0  0
 84 85  1  0  0  0
 85 86  1  0  0  0
 86 87  1  0  0  0
 87 88  1  0  0  0
 89 90  1  0  0  0
 92 89  1  0  0  0
 90 93  1  0  0  0
 97 91  2  0  0  0
 94 92  1  0  0  0
 93 95  1  0  0  0
 94 96  1  0  0  0
 95 97  1  0  0  0
  1 98  1  0  0  0
  2 99  1  0  0  0
  5100  1  0  0  0
  5101  1  0  0  0
  6102  1  0  0  0
  6103  1  0  0  0
  9104  1  0  0  0
  9105  1  0  0  0
 10106  1  0  0  0
 11107  1  0  0  0
 14108  1  0  0  0
 14109  1  0  0  0
 16110  1  0  0  0
 17111  1  0  0  0
 18112  1  0  0  0
 19113  1  0  0  0
 20114  1  0  0  0
 21115  1  0  0  0
 22116  1  0  0  0
 25117  1  0  0  0
 25118  1  0  0  0
 28119  1  0  0  0
 29120  1  0  0  0
 30121  1  0  0  0
 33122  1  0  0  0
 33123  1  0  0  0
 34124  1  0  0  0
 35125  1  0  0  0
 35126  1  0  0  0
 35127  1  0  0  0
 36128  1  0  0  0
 36129  1  0  0  0
 36130  1  0  0  0
 37131  1  0  0  0
 38132  1  0  0  0
 41133  1  0  0  0
 41134  1  0  0  0
 42135  1  0  0  0
 43136  1  0  0  0
 44137  1  0  0  0
 47138  1  0  0  0
 48139  1  0  0  0
 49140  1  0  0  0
 49141  1  0  0  0
 49142  1  0  0  0
 50143  1  0  0  0
 51144  1  0  0  0
 54145  1  0  0  0
 54146  1  0  0  0
 55147  1  0  0  0
 55148  1  0  0  0
 56149  1  0  0  0
 56150  1  0  0  0
 57151  1  0  0  0
 59152  1  0  0  0
 60153  1  0  0  0
 60154  1  0  0  0
 61155  1  0  0  0
 62156  1  0  0  0
 65157  1  0  0  0
 65158  1  0  0  0
 66159  1  0  0  0
 66160  1  0  0  0
 67161  1  0  0  0
 67162  1  0  0  0
 68163  1  0  0  0
 70164  1  0  0  0
 70165  1  0  0  0
 71166  1  0  0  0
 72167  1  0  0  0
 73168  1  0  0  0
 76169  1  0  0  0
 76170  1  0  0  0
 77171  1  0  0  0
 78172  1  0  0  0
 78173  1  0  0  0
 78174  1  0  0  0
 79175  1  0  0  0
 79176  1  0  0  0
 79177  1  0  0  0
 80178  1  0  0  0
 81179  1  0  0  0
 84180  1  0  0  0
 84181  1  0  0  0
 85182  1  0  0  0
 85183  1  0  0  0
 86184  1  0  0  0
 86185  1  0  0  0
 87186  1  0  0  0
 87187  1  0  0  0
 88188  1  0  0  0
 88189  1  0  0  0
 88190  1  0  0  0
 89191  1  0  0  0
 89192  1  0  0  0
 90193  1  0  0  0
 90194  1  0  0  0
 92195  1  0  0  0
 92196  1  0  0  0
 93197  1  0  0  0
 93198  1  0  0  0
 94199  1  0  0  0
 94200  1  0  0  0
 95201  1  0  0  0
 95202  1  0  0  0
 96203  1  0  0  0
M  END
$$$$
