### 
### Created by X-TOOL on Mon Sep 10 21:13:26 2018
### 

@<TRIPOS>MOLECULE
5id0_ligand
  204   205     1     0     0
SMALL
GAST_HUCK


@<TRIPOS>ATOM
      1 N         -17.5680   34.4410  -28.9120 N.am      1 GLN        -0.2655
      2 CA        -18.1860   35.7730  -29.0240 C.3       1 GLN         0.1330
      3 C         -19.6730   35.7420  -29.3670 C.2       1 GLN         0.2042
      4 O         -20.1140   35.0560  -30.2940 O.2       1 GLN        -0.3944
      5 CB        -17.4540   36.6780  -30.0140 C.3       1 GLN         0.0045
      6 CG        -16.1180   37.1340  -29.5090 C.3       1 GLN         0.0412
      7 CD        -15.9290   38.6250  -29.6390 C.2       1 GLN         0.1737
      8 OE1       -16.5650   39.2740  -30.4760 O.2       1 GLN        -0.3973
      9 NE2       -15.0510   39.1840  -28.8090 N.am      1 GLN        -0.3009
     10 N         -20.4290   36.5080  -28.5920 N.am      1 PHE        -0.2619
     11 CA        -21.8640   36.6280  -28.7510 C.3       1 PHE         0.1404
     12 C         -22.2280   37.3500  -30.0510 C.2       1 PHE         0.2060
     13 O         -21.6750   38.4060  -30.3650 O.2       1 PHE        -0.3942
     14 CB        -22.4430   37.3620  -27.5410 C.3       1 PHE         0.0214
     15 CG        -23.9250   37.4610  -27.5540 C.ar      1 PHE        -0.0386
     16 CD1       -24.7090   36.3400  -27.2890 C.ar      1 PHE        -0.0601
     17 CD2       -24.5530   38.6760  -27.8250 C.ar      1 PHE        -0.0601
     18 CE1       -26.0900   36.4270  -27.2810 C.ar      1 PHE        -0.0686
     19 CE2       -25.9540   38.7750  -27.8250 C.ar      1 PHE        -0.0686
     20 CZ        -26.7170   37.6530  -27.5490 C.ar      1 PHE        -0.0687
     21 N         -23.1620   36.7740  -30.8000 N.am      1 ASP        -0.2620
     22 CA        -23.6260   37.3630  -32.0580 C.3       1 ASP         0.1423
     23 C         -25.0000   37.9790  -31.8270 C.2       1 ASP         0.2056
     24 O         -25.9260   37.2710  -31.4260 O.2       1 ASP        -0.3943
     25 CB        -23.6950   36.2620  -33.1180 C.3       1 ASP         0.0406
     26 CG        -24.1540   36.7530  -34.4750 C.2       1 ASP         0.0393
     27 OD1       -24.6980   37.8640  -34.5900 O.co2     1 ASP        -0.5688
     28 OD2       -23.9850   35.9890  -35.4460 O.co2     1 ASP        -0.5688
     29 N         -25.1370   39.2860  -32.0780 N.am      1 LEU        -0.2636
     30 CA        -26.4050   39.9850  -31.8370 C.3       1 LEU         0.1312
     31 C         -27.5090   39.5570  -32.7860 C.2       1 LEU         0.2040
     32 O         -28.6930   39.6470  -32.4490 O.2       1 LEU        -0.3944
     33 CB        -26.2240   41.4900  -31.9400 C.3       1 LEU        -0.0101
     34 CG        -25.2240   42.0510  -30.9390 C.3       1 LEU        -0.0425
     35 CD1       -24.6620   43.3570  -31.4780 C.3       1 LEU        -0.0625
     36 CD2       -25.8900   42.2530  -29.5930 C.3       1 LEU        -0.0625
     37 N         -27.1300   39.0950  -33.9740 N.am      1 SER        -0.2616
     38 CA        -28.1190   38.6340  -34.9490 C.3       1 SER         0.1539
     39 C         -28.8870   37.3860  -34.4920 C.2       1 SER         0.2063
     40 O         -30.1140   37.3190  -34.6290 O.2       1 SER        -0.3943
     41 CB        -27.4640   38.3830  -36.3020 C.3       1 SER         0.0843
     42 OG        -27.0280   39.6050  -36.8630 O.3       1 SER        -0.3903
     43 N         -28.1630   36.4180  -33.9320 N.am      1 THR        -0.2613
     44 CA        -28.7390   35.1200  -33.5840 C.3       1 THR         0.1565
     45 C         -28.8430   34.8860  -32.0800 C.2       1 THR         0.2065
     46 O         -29.4960   33.9390  -31.6390 O.2       1 THR        -0.3943
     47 CB        -27.8770   33.9790  -34.1340 C.3       1 THR         0.0924
     48 OG1       -26.5600   34.0580  -33.5520 O.3       1 THR        -0.3874
     49 CG2       -27.7900   34.0560  -35.6640 C.3       1 THR        -0.0346
     50 N         -28.1790   35.7320  -31.3040 N.am      1 ARG        -0.2636
     51 CA        -28.0900   35.5520  -29.8620 C.3       1 ARG         0.1311
     52 C         -27.3950   34.2350  -29.5080 C.2       1 ARG         0.2039
     53 O         -27.6990   33.5880  -28.5020 O.2       1 ARG        -0.3944
     54 CB        -29.4700   35.6530  -29.1960 C.3       1 ARG        -0.0092
     55 CG        -30.2370   36.9220  -29.5220 C.3       1 ARG        -0.0156
     56 CD        -31.3670   37.1210  -28.5340 C.3       1 ARG         0.0627
     57 NE        -32.1870   38.2730  -28.8900 N.pl3     1 ARG        -0.2723
     58 CZ        -33.2560   38.6880  -28.2140 C.cat     1 ARG         0.2882
     59 NH1       -33.6440   38.0490  -27.1230 N.pl3     1 ARG        -0.2849
     60 NH2       -33.9290   39.7570  -28.6350 N.pl3     1 ARG        -0.2849
     61 N         -26.4530   33.8360  -30.3440 N.am      1 ARG        -0.2637
     62 CA        -25.6870   32.6480  -30.0640 C.3       1 ARG         0.1311
     63 C         -24.2130   32.9860  -30.0780 C.2       1 ARG         0.2039
     64 O         -23.7890   33.9660  -30.7160 O.2       1 ARG        -0.3944
     65 CB        -25.9920   31.5790  -31.1000 C.3       1 ARG        -0.0092
     66 CG        -27.4340   31.1510  -31.1160 C.3       1 ARG        -0.0156
     67 CD        -27.8530   30.4950  -29.7990 C.3       1 ARG         0.0627
     68 NE        -26.9270   29.4530  -29.3810 N.pl3     1 ARG        -0.2723
     69 CZ        -26.8640   28.2400  -29.9200 C.cat     1 ARG         0.2882
     70 NH1       -27.6810   27.8970  -30.9070 N.pl3     1 ARG        -0.2849
     71 NH2       -25.9730   27.3680  -29.4700 N.pl3     1 ARG        -0.2849
     72 N         -23.4360   32.1890  -29.3490 N.am      1 LEU        -0.2637
     73 CA        -21.9920   32.2770  -29.4340 C.3       1 LEU         0.1312
     74 C         -21.5580   31.7770  -30.8030 C.2       1 LEU         0.2039
     75 O         -22.1020   30.7990  -31.3240 O.2       1 LEU        -0.3944
     76 CB        -21.3300   31.4520  -28.3410 C.3       1 LEU        -0.0101
     77 CG        -21.6540   31.8460  -26.9020 C.3       1 LEU        -0.0425
     78 CD1       -20.9540   30.9020  -25.9580 C.3       1 LEU        -0.0625
     79 CD2       -21.2460   33.2770  -26.6170 C.3       1 LEU        -0.0625
     80 N         -20.5870   32.4720  -31.3880 N.am      1 LYS        -0.2637
     81 CA        -20.0460   32.1000  -32.6890 C.3       1 LYS         0.1308
     82 C         -18.5360   31.9940  -32.5440 C.2       1 LYS         0.2016
     83 O         -17.9000   32.9000  -32.0000 O.2       1 LYS        -0.3945
     84 CB        -20.4260   33.1410  -33.7650 C.3       1 LYS        -0.0122
     85 CG        -20.5850   32.5640  -35.1920 C.3       1 LYS        -0.0440
     86 CD        -21.3030   33.5240  -36.1640 C.3       1 LYS        -0.0124
     87 CE        -21.9960   32.7560  -37.2940 C.3       1 LYS        -0.0354
     88 NZ        -23.0980   33.5450  -37.9690 N.4       1 LYS         0.2185
     89 C5        -16.0560   30.5380  -30.7960 C.3       1 011        -0.0511
     90 C4        -15.9530   30.9410  -29.3590 C.3       1 011        -0.0509
     91 O         -17.4930   34.5230  -26.6400 O.2       1 011        -0.3969
     92 C6        -17.3530   29.8360  -31.0420 C.3       1 011        -0.0327
     93 C3        -17.0910   31.8270  -28.9700 C.3       1 011        -0.0361
     94 C7        -17.5970   29.7030  -32.5130 C.3       1 011         0.0309
     95 C2        -16.7350   32.5250  -27.7060 C.3       1 011         0.0374
     96 N         -17.9490   30.9560  -33.1480 N.am      1 011        -0.2851
     97 C1        -17.3020   33.9000  -27.7210 C.2       1 011         0.1782
     98 H1        -17.3435   33.9325  -29.7433 H         1 GLN         0.1883
     99 H2        -18.0969   36.2386  -28.0314 H         1 GLN         0.0801
    100 H3        -18.0772   37.5636  -30.2072 H         1 GLN         0.0337
    101 H4        -17.3041   36.1234  -30.9521 H         1 GLN         0.0337
    102 H5        -15.3309   36.6271  -30.0865 H         1 GLN         0.0504
    103 H6        -16.0293   36.8585  -28.4478 H         1 GLN         0.0504
    104 H7        -14.8831   40.1690  -28.8480 H         1 GLN         0.1814
    105 H8        -14.5594   38.6189  -28.1465 H         1 GLN         0.1814
    106 H9        -19.9866   37.0285  -27.8617 H         1 PHE         0.1885
    107 H10       -22.2962   35.6171  -28.7882 H         1 PHE         0.0823
    108 H11       -22.0274   38.3803  -27.5213 H         1 PHE         0.0474
    109 H12       -22.1392   36.8242  -26.6308 H         1 PHE         0.0474
    110 H13       -24.2313   35.3882  -27.0867 H         1 PHE         0.0557
    111 H14       -23.9535   39.5537  -28.0380 H         1 PHE         0.0557
    112 H15       -26.6873   35.5479  -27.0677 H         1 PHE         0.0599
    113 H16       -26.4344   39.7228  -28.0395 H         1 PHE         0.0599
    114 H17       -27.7988   37.7219  -27.5400 H         1 PHE         0.0559
    115 H18       -23.5614   35.9096  -30.4946 H         1 ASP         0.1884
    116 H19       -22.9247   38.1441  -32.3867 H         1 ASP         0.0819
    117 H20       -24.3979   35.4899  -32.7719 H         1 ASP         0.0478
    118 H21       -22.6927   35.8225  -33.2283 H         1 ASP         0.0478
    119 H22       -24.3575   39.7985  -32.4381 H         1 LEU         0.1883
    120 H23       -26.7265   39.7443  -30.8130 H         1 LEU         0.0800
    121 H24       -27.1980   41.9706  -31.7657 H         1 LEU         0.0315
    122 H25       -25.8730   41.7299  -32.9545 H         1 LEU         0.0315
    123 H26       -24.3987   41.3340  -30.8171 H         1 LEU         0.0298
    124 H27       -23.9380   43.7688  -30.7595 H         1 LEU         0.0232
    125 H28       -25.4815   44.0758  -31.6254 H         1 LEU         0.0232
    126 H29       -24.1598   43.1713  -32.4389 H         1 LEU         0.0232
    127 H30       -26.2850   41.2921  -29.2315 H         1 LEU         0.0232
    128 H31       -26.7152   42.9730  -29.6965 H         1 LEU         0.0232
    129 H32       -25.1533   42.6404  -28.8738 H         1 LEU         0.0232
    130 H33       -26.1573   39.0622  -34.2038 H         1 SER         0.1884
    131 H34       -28.8538   39.4428  -35.0751 H         1 SER         0.0823
    132 H35       -28.1930   37.9118  -36.9777 H         1 SER         0.0606
    133 H36       -26.6006   37.7143  -36.1702 H         1 SER         0.0606
    134 H37       -27.7731   40.1828  -36.9785 H         1 SER         0.2097
    135 H38       -27.1951   36.5844  -33.7437 H         1 THR         0.1884
    136 H39       -29.7455   35.0647  -34.0244 H         1 THR         0.0826
    137 H40       -28.3350   33.0187  -33.8546 H         1 THR         0.0639
    138 H41       -26.0224   33.3518  -33.8908 H         1 THR         0.2101
    139 H42       -27.1679   33.2295  -36.0379 H         1 THR         0.0257
    140 H43       -27.3399   35.0157  -35.9579 H         1 THR         0.0257
    141 H44       -28.7998   33.9779  -36.0931 H         1 THR         0.0257
    142 H45       -27.7250   36.5186  -31.7226 H         1 ARG         0.1883
    143 H46       -27.4711   36.3699  -29.4646 H         1 ARG         0.0800
    144 H47       -29.3292   35.6075  -28.1060 H         1 ARG         0.0313
    145 H48       -30.0732   34.7936  -29.5240 H         1 ARG         0.0313
    146 H49       -30.6524   36.8443  -30.5376 H         1 ARG         0.0301
    147 H50       -29.5538   37.7825  -29.4701 H         1 ARG         0.0301
    148 H51       -30.9425   37.2797  -27.5317 H         1 ARG         0.0689
    149 H52       -31.9987   36.2205  -28.5263 H         1 ARG         0.0689
    150 H53       -31.9184   38.8067  -29.7290 H         1 ARG         0.2642
    151 H54       -34.4717   38.3735  -26.6030 H         1 ARG         0.2615
    152 H55       -33.1184   37.2268  -26.7933 H         1 ARG         0.2615
    153 H56       -33.6264   40.2543  -29.4847 H         1 ARG         0.2615
    154 H57       -34.7522   40.0866  -28.1109 H         1 ARG         0.2615
    155 H58       -26.2706   34.3611  -31.1753 H         1 ARG         0.1883
    156 H59       -25.9597   32.2690  -29.0680 H         1 ARG         0.0800
    157 H60       -25.3700   30.6978  -30.8842 H         1 ARG         0.0313
    158 H61       -25.7355   31.9744  -32.0939 H         1 ARG         0.0313
    159 H62       -27.5813   30.4305  -31.9340 H         1 ARG         0.0301
    160 H63       -28.0649   32.0355  -31.2884 H         1 ARG         0.0301
    161 H64       -28.8510   30.0505  -29.9271 H         1 ARG         0.0689
    162 H65       -27.8932   31.2670  -29.0165 H         1 ARG         0.0689
    163 H66       -26.2750   29.6709  -28.6139 H         1 ARG         0.2642
    164 H67       -27.6245   26.9544  -31.3183 H         1 ARG         0.2615
    165 H68       -28.3720   28.5733  -31.2622 H         1 ARG         0.2615
    166 H69       -25.3369   27.6307  -28.7037 H         1 ARG         0.2615
    167 H70       -25.9167   26.4277  -29.8866 H         1 ARG         0.2615
    168 H71       -23.8541   31.5203  -28.7342 H         1 LEU         0.1883
    169 H72       -21.6878   33.3277  -29.3178 H         1 LEU         0.0800
    170 H73       -20.2410   31.5339  -28.4731 H         1 LEU         0.0315
    171 H74       -21.6384   30.4052  -28.4787 H         1 LEU         0.0315
    172 H75       -22.7399   31.7583  -26.7502 H         1 LEU         0.0298
    173 H76       -21.1853   31.1830  -24.9200 H         1 LEU         0.0232
    174 H77       -19.8676   30.9600  -26.1201 H         1 LEU         0.0232
    175 H78       -21.2983   29.8742  -26.1450 H         1 LEU         0.0232
    176 H79       -21.7650   33.9519  -27.3136 H         1 LEU         0.0232
    177 H80       -20.1587   33.3812  -26.7472 H         1 LEU         0.0232
    178 H81       -21.5181   33.5370  -25.5834 H         1 LEU         0.0232
    179 H82       -20.2165   33.2748  -30.9207 H         1 LYS         0.1883
    180 H83       -20.4529   31.1223  -32.9864 H         1 LYS         0.0800
    181 H84       -19.6397   33.9097  -33.7915 H         1 LYS         0.0312
    182 H85       -21.3808   33.6029  -33.4734 H         1 LYS         0.0312
    183 H86       -21.1665   31.6324  -35.1288 H         1 LYS         0.0269
    184 H87       -19.5845   32.3453  -35.5933 H         1 LYS         0.0269
    185 H88       -20.5636   34.2123  -36.5994 H         1 LYS         0.0317
    186 H89       -22.0569   34.1000  -35.6073 H         1 LYS         0.0317
    187 H90       -22.4315   31.8369  -36.8751 H         1 LYS         0.0813
    188 H91       -21.2420   32.4928  -38.0504 H         1 LYS         0.0813
    189 H92       -23.5118   32.9869  -38.6993 H         1 LYS         0.1994
    190 H93       -22.7129   34.3872  -38.3671 H         1 LYS         0.1994
    191 H94       -23.8029   33.7861  -37.2901 H         1 LYS         0.1994
    192 H95       -15.2241   29.8627  -31.0448 H         1 011         0.0266
    193 H96       -16.0022   31.4352  -31.4301 H         1 011         0.0266
    194 H97       -15.0072   31.4807  -29.2034 H         1 011         0.0267
    195 H98       -15.9681   30.0387  -28.7301 H         1 011         0.0267
    196 H99       -18.1713   30.4147  -30.5887 H         1 011         0.0285
    197 H100      -17.3164   28.8349  -30.5877 H         1 011         0.0285
    198 H101      -17.9969   31.2220  -28.8173 H         1 011         0.0290
    199 H102      -17.2735   32.5666  -29.7635 H         1 011         0.0290
    200 H103      -18.4196   28.9893  -32.6679 H         1 011         0.0520
    201 H104      -16.6821   29.3164  -32.9857 H         1 011         0.0520
    202 H105      -15.6403   32.5811  -27.6141 H         1 011         0.0502
    203 H106      -17.1467   31.9682  -26.8514 H         1 011         0.0502
    204 H107      -17.7350   31.0529  -34.1200 H         1 011         0.1851
@<TRIPOS>BOND
     1    2    1 1  
     2    1   97 am 
     3    3    2 1  
     4    2    5 1  
     5    3    4 2  
     6   10    3 am 
     7    5    6 1  
     8    6    7 1  
     9    7    8 2  
    10    7    9 am 
    11   11   10 1  
    12   12   11 1  
    13   11   14 1  
    14   12   13 2  
    15   21   12 am 
    16   14   15 1  
    17   15   16 ar 
    18   15   17 ar 
    19   16   18 ar 
    20   17   19 ar 
    21   18   20 ar 
    22   19   20 ar 
    23   22   21 1  
    24   23   22 1  
    25   22   25 1  
    26   23   24 2  
    27   29   23 am 
    28   25   26 1  
    29   26   27 ar 
    30   26   28 ar 
    31   30   29 1  
    32   31   30 1  
    33   30   33 1  
    34   31   32 2  
    35   37   31 am 
    36   33   34 1  
    37   34   35 1  
    38   34   36 1  
    39   38   37 1  
    40   39   38 1  
    41   38   41 1  
    42   39   40 2  
    43   43   39 am 
    44   41   42 1  
    45   44   43 1  
    46   45   44 1  
    47   44   47 1  
    48   45   46 2  
    49   50   45 am 
    50   47   48 1  
    51   47   49 1  
    52   51   50 1  
    53   52   51 1  
    54   51   54 1  
    55   52   53 2  
    56   61   52 am 
    57   54   55 1  
    58   55   56 1  
    59   56   57 1  
    60   57   58 ar 
    61   58   59 ar 
    62   58   60 ar 
    63   62   61 1  
    64   63   62 1  
    65   62   65 1  
    66   63   64 2  
    67   72   63 am 
    68   65   66 1  
    69   66   67 1  
    70   67   68 1  
    71   68   69 ar 
    72   69   70 ar 
    73   69   71 ar 
    74   73   72 1  
    75   74   73 1  
    76   73   76 1  
    77   74   75 2  
    78   80   74 am 
    79   76   77 1  
    80   77   78 1  
    81   77   79 1  
    82   81   80 1  
    83   82   81 1  
    84   81   84 1  
    85   82   83 2  
    86   96   82 am 
    87   84   85 1  
    88   85   86 1  
    89   86   87 1  
    90   87   88 1  
    91   89   90 1  
    92   92   89 1  
    93   90   93 1  
    94   97   91 2  
    95   94   92 1  
    96   93   95 1  
    97   94   96 1  
    98   95   97 1  
    99    1   98 1  
   100    2   99 1  
   101    5  100 1  
   102    5  101 1  
   103    6  102 1  
   104    6  103 1  
   105    9  104 1  
   106    9  105 1  
   107   10  106 1  
   108   11  107 1  
   109   14  108 1  
   110   14  109 1  
   111   16  110 1  
   112   17  111 1  
   113   18  112 1  
   114   19  113 1  
   115   20  114 1  
   116   21  115 1  
   117   22  116 1  
   118   25  117 1  
   119   25  118 1  
   120   29  119 1  
   121   30  120 1  
   122   33  121 1  
   123   33  122 1  
   124   34  123 1  
   125   35  124 1  
   126   35  125 1  
   127   35  126 1  
   128   36  127 1  
   129   36  128 1  
   130   36  129 1  
   131   37  130 1  
   132   38  131 1  
   133   41  132 1  
   134   41  133 1  
   135   42  134 1  
   136   43  135 1  
   137   44  136 1  
   138   47  137 1  
   139   48  138 1  
   140   49  139 1  
   141   49  140 1  
   142   49  141 1  
   143   50  142 1  
   144   51  143 1  
   145   54  144 1  
   146   54  145 1  
   147   55  146 1  
   148   55  147 1  
   149   56  148 1  
   150   56  149 1  
   151   57  150 1  
   152   59  151 1  
   153   59  152 1  
   154   60  153 1  
   155   60  154 1  
   156   61  155 1  
   157   62  156 1  
   158   65  157 1  
   159   65  158 1  
   160   66  159 1  
   161   66  160 1  
   162   67  161 1  
   163   67  162 1  
   164   68  163 1  
   165   70  164 1  
   166   70  165 1  
   167   71  166 1  
   168   71  167 1  
   169   72  168 1  
   170   73  169 1  
   171   76  170 1  
   172   76  171 1  
   173   77  172 1  
   174   78  173 1  
   175   78  174 1  
   176   78  175 1  
   177   79  176 1  
   178   79  177 1  
   179   79  178 1  
   180   80  179 1  
   181   81  180 1  
   182   84  181 1  
   183   84  182 1  
   184   85  183 1  
   185   85  184 1  
   186   86  185 1  
   187   86  186 1  
   188   87  187 1  
   189   87  188 1  
   190   88  189 1  
   191   88  190 1  
   192   88  191 1  
   193   89  192 1  
   194   89  193 1  
   195   90  194 1  
   196   90  195 1  
   197   92  196 1  
   198   92  197 1  
   199   93  198 1  
   200   93  199 1  
   201   94  200 1  
   202   94  201 1  
   203   95  202 1  
   204   95  203 1  
   205   96  204 1  
@<TRIPOS>SUBSTRUCTURE
     1 GLN         1

