6v5l_ligand
  -I-interpret- 

 39 41  0  0  0  0  0  0  0  0999 V2000
   10.4120    1.4000   -4.8790 C   0  0  0  0  0
    9.0190    5.9040  -10.9920 O   0  0  0  0  0
   10.1590    2.2690  -14.4440 C   0  0  0  0  0
   10.5380    3.5140  -12.4160 C   0  0  0  0  0
   10.8300    3.7760   -8.4810 C   0  0  0  0  0
   10.7670    2.0890   -6.0320 C   0  0  0  0  0
    9.1460    5.1000   -5.8730 N   0  0  0  0  0
   10.4770    4.1610   -7.2570 C   0  0  0  0  0
   11.0520    2.5930   -8.7330 O   0  0  0  0  0
    9.7810    5.2700   -7.0280 C   0  0  0  0  0
    9.0740    3.2840   -4.2780 C   0  0  0  0  0
    8.9340    4.6800  -11.0940 C   0  0  0  0  0
   12.1500    3.6010  -14.2030 C   0  0  0  0  0
    9.5500    2.0130   -3.9800 C   0  0  0  0  0
   10.1830    3.7970  -11.1030 C   0  0  0  0  0
    9.7450    2.6620  -13.1750 C   0  0  0  0  0
   11.3620    2.7370  -14.9560 C   0  0  0  0  0
   11.7360    3.9910  -12.9360 C   0  0  0  0  0
   10.2770    3.3080   -6.2580 C   0  0  0  0  0
    9.4460    3.8950   -5.3990 C   0  0  0  0  0
   10.9800    4.7730   -9.3650 N   0  0  0  0  0
   11.2780    4.4920  -10.4100 N   0  3  0  0  0
    7.7820    4.0210  -11.1840 N   0  0  0  0  0
   10.8015    0.4007   -4.6847 H   0  0  0  0  0
    9.5398    1.5946  -15.0355 H   0  0  0  0  0
   11.4463    1.6327   -6.7520 H   0  0  0  0  0
    9.7390    6.1522   -7.6668 H   0  0  0  0  0
    8.3921    3.7828   -3.5893 H   0  0  0  0  0
   13.0920    3.9718  -14.6071 H   0  0  0  0  0
    9.2531    1.5084   -3.0606 H   0  0  0  0  0
    9.9796    2.8599  -10.5848 H   0  0  0  0  0
    8.7972    2.3010  -12.7757 H   0  0  0  0  0
   11.6889    2.4271  -15.9486 H   0  0  0  0  0
   12.3513    4.6722  -12.3483 H   0  0  0  0  0
   10.8296    5.7461   -9.0989 H   0  0  0  0  0
   11.5030    5.3429  -10.9256 H   0  0  0  0  0
   12.0834    3.8678  -10.3634 H   0  0  0  0  0
    6.8995    4.5323  -11.1705 H   0  0  0  0  0
    7.7811    3.0043  -11.2665 H   0  0  0  0  0
  6  1  4  0  0  0
  1 14  4  0  0  0
 12  2  2  0  0  0
 16  3  4  0  0  0
  3 17  4  0  0  0
 15  4  1  0  0  0
  4 16  4  0  0  0
  4 18  4  0  0  0
  5  8  1  0  0  0
  5  9  2  0  0  0
 21  5  1  0  0  0
 19  6  4  0  0  0
 10  7  4  0  0  0
 20  7  4  0  0  0
  8 10  4  0  0  0
  8 19  4  0  0  0
 11 14  4  0  0  0
 20 11  4  0  0  0
 15 12  1  0  0  0
 12 23  1  0  0  0
 13 17  4  0  0  0
 18 13  4  0  0  0
 22 15  1  0  0  0
 19 20  4  0  0  0
 21 22  1  0  0  0
  1 24  1  0  0  0
  3 25  1  0  0  0
  6 26  1  0  0  0
 10 27  1  0  0  0
 11 28  1  0  0  0
 13 29  1  0  0  0
 14 30  1  0  0  0
 15 31  1  0  0  0
 16 32  1  0  0  0
 17 33  1  0  0  0
 18 34  1  0  0  0
 21 35  1  0  0  0
 22 36  1  0  0  0
 22 37  1  0  0  0
 23 38  1  0  0  0
 23 39  1  0  0  0
M  END
$$$$
