3snb_ligand
  -I-interpret- 

 81 81  0  0  0  0  0  0  0  0999 V2000
   21.6180   10.6720   20.2590 C   0  0  0  0  0
   20.8950   11.1670   19.3840 O   0  0  0  0  0
   22.9360   11.3100   20.6420 C   0  0  0  0  0
   21.2650    9.5830   20.9510 N   0  0  0  0  0
   21.4340    8.4150   20.4010 C   0  0  0  0  0
   20.1270    7.6470   20.5850 C   0  0  0  0  0
   19.2950    8.0080   21.4240 O   0  0  0  0  0
   22.5510    7.7450   21.2180 C   0  0  0  0  0
   23.9330    7.8750   20.5670 C   0  0  0  0  0
   24.0180    8.0850   19.3340 O   0  0  0  0  0
   24.9400    7.7500   21.2990 O   0  0  0  0  0
   19.9570    6.5910   19.7900 N   0  0  0  0  0
   18.8150    5.6700   19.8960 C   0  0  0  0  0
   19.1200    4.4900   20.8360 C   0  0  0  0  0
   20.2550    4.3400   21.2940 O   0  0  0  0  0
   18.4350    5.1540   18.5050 C   0  0  0  0  0
   19.5860    4.7650   17.7700 O   0  0  0  0  0
   18.1120    3.6580   21.1250 N   0  0  0  0  0
   18.2900    2.5280   22.0520 C   0  0  0  0  0
   17.4530    1.2990   21.6860 C   0  0  0  0  0
   16.2200    1.3260   21.7610 O   0  0  0  0  0
   17.9980    2.9500   23.5040 C   0  0  0  0  0
   18.8110    2.2010   24.5420 C   0  0  0  0  0
   19.7300    2.8800   25.3450 C   0  0  0  0  0
   18.6600    0.8240   24.7230 C   0  0  0  0  0
   20.4830    2.2000   26.3140 C   0  0  0  0  0
   19.4170    0.1400   25.6810 C   0  0  0  0  0
   20.3270    0.8310   26.4780 C   0  0  0  0  0
   18.1470    0.2190   21.3260 N   0  0  0  0  0
   17.5190   -1.0450   20.9330 C   0  0  0  0  0
   17.0170   -1.8520   22.1410 C   0  0  0  0  0
   17.2090   -3.0740   22.2180 O   0  0  0  0  0
   18.4880   -1.8810   20.0750 C   0  0  0  0  0
   18.6960   -1.3030   18.6670 C   0  0  0  0  0
   17.7100   -1.1260   17.9140 O   0  0  0  0  0
   19.8620   -1.0490   18.3010 O   0  0  0  0  0
   14.4920   -3.6710   23.8330 C   0  0  0  0  0
   15.9100   -1.9180   22.8810 N   0  0  0  0  0
   15.2790   -4.6070   23.8130 O   0  0  0  0  0
   14.9540   -2.2240   23.9370 C   0  0  0  0  0
   13.7310   -1.3140   23.8000 C   0  0  0  0  0
   12.5080    0.6980   24.4640 C   0  0  0  0  0
   13.8950    0.0810   24.4050 C   0  0  0  0  0
   11.8350    0.8240   23.4480 O   0  0  0  0  0
   12.0720    1.0670   25.6670 N   0  0  0  0  0
   23.5874   11.3475   19.7688 H   0  0  0  0  0
   22.7563   12.3214   21.0065 H   0  0  0  0  0
   23.4102   10.7189   21.4255 H   0  0  0  0  0
   20.8722    9.6658   21.8887 H   0  0  0  0  0
   21.6895    8.4560   19.3422 H   0  0  0  0  0
   22.3173    6.6828   21.2898 H   0  0  0  0  0
   22.5941    8.2398   22.1883 H   0  0  0  0  0
   23.1362    8.1490   18.9599 H   0  0  0  0  0
   20.6563    6.4118   19.0694 H   0  0  0  0  0
   17.9767    6.2209   20.3225 H   0  0  0  0  0
   17.9298    5.9535   17.9632 H   0  0  0  0  0
   17.7862    4.2858   18.6210 H   0  0  0  0  0
   19.3191    4.4466   16.9046 H   0  0  0  0  0
   17.2004    3.8102   20.6935 H   0  0  0  0  0
   19.3363    2.2363   21.9614 H   0  0  0  0  0
   16.9478    2.7319   23.6982 H   0  0  0  0  0
   18.2571    4.0051   23.5914 H   0  0  0  0  0
   19.8642    3.9541   25.2170 H   0  0  0  0  0
   17.9440    0.2758   24.1107 H   0  0  0  0  0
   21.1902    2.7468   26.9377 H   0  0  0  0  0
   19.2943   -0.9361   25.8038 H   0  0  0  0  0
   20.9136    0.2988   27.2268 H   0  0  0  0  0
   19.1654    0.2756   21.3241 H   0  0  0  0  0
   16.6411   -0.7989   20.3357 H   0  0  0  0  0
   18.0586   -2.8768   19.9647 H   0  0  0  0  0
   19.4553   -1.8868   20.5774 H   0  0  0  0  0
   16.9069   -1.3782   18.3756 H   0  0  0  0  0
   13.4238   -3.8798   23.7744 H   0  0  0  0  0
   15.3003   -1.3561   22.2868 H   0  0  0  0  0
   15.4406   -2.0650   24.8993 H   0  0  0  0  0
   12.9161   -1.7976   24.3386 H   0  0  0  0  0
   13.5581   -1.1766   22.7326 H   0  0  0  0  0
   14.5654    0.6905   23.7990 H   0  0  0  0  0
   14.3366    0.0231   25.3998 H   0  0  0  0  0
   11.1422    1.4737   25.7699 H   0  0  0  0  0
   12.6678    0.9430   26.4856 H   0  0  0  0  0
  1  2  2  0  0  0
  1  3  1  0  0  0
  4  1  1  0  0  0
  5  4  1  0  0  0
  6  5  1  0  0  0
  5  8  1  0  0  0
  6  7  2  0  0  0
 12  6  1  0  0  0
  8  9  1  0  0  0
  9 10  1  0  0  0
  9 11  2  0  0  0
 13 12  1  0  0  0
 14 13  1  0  0  0
 13 16  1  0  0  0
 14 15  2  0  0  0
 18 14  1  0  0  0
 16 17  1  0  0  0
 19 18  1  0  0  0
 20 19  1  0  0  0
 19 22  1  0  0  0
 20 21  2  0  0  0
 29 20  1  0  0  0
 22 23  1  0  0  0
 23 24  4  0  0  0
 23 25  4  0  0  0
 24 26  4  0  0  0
 25 27  4  0  0  0
 26 28  4  0  0  0
 27 28  4  0  0  0
 30 29  1  0  0  0
 31 30  1  0  0  0
 30 33  1  0  0  0
 31 32  2  0  0  0
 38 31  1  0  0  0
 33 34  1  0  0  0
 34 35  1  0  0  0
 34 36  2  0  0  0
 37 39  2  0  0  0
 40 37  1  0  0  0
 38 40  1  0  0  0
 40 41  1  0  0  0
 41 43  1  0  0  0
 43 42  1  0  0  0
 42 44  2  0  0  0
 42 45  1  0  0  0
  3 46  1  0  0  0
  3 47  1  0  0  0
  3 48  1  0  0  0
  4 49  1  0  0  0
  5 50  1  0  0  0
  8 51  1  0  0  0
  8 52  1  0  0  0
 10 53  1  0  0  0
 12 54  1  0  0  0
 13 55  1  0  0  0
 16 56  1  0  0  0
 16 57  1  0  0  0
 17 58  1  0  0  0
 18 59  1  0  0  0
 19 60  1  0  0  0
 22 61  1  0  0  0
 22 62  1  0  0  0
 24 63  1  0  0  0
 25 64  1  0  0  0
 26 65  1  0  0  0
 27 66  1  0  0  0
 28 67  1  0  0  0
 29 68  1  0  0  0
 30 69  1  0  0  0
 33 70  1  0  0  0
 33 71  1  0  0  0
 35 72  1  0  0  0
 37 73  1  0  0  0
 38 74  1  0  0  0
 40 75  1  0  0  0
 41 76  1  0  0  0
 41 77  1  0  0  0
 43 78  1  0  0  0
 43 79  1  0  0  0
 45 80  1  0  0  0
 45 81  1  0  0  0
M  END
$$$$
