### 
### Created by X-TOOL on Mon Sep 10 21:13:07 2018
### 

@<TRIPOS>MOLECULE
3snb_ligand
   79    79     1     0     0
SMALL
GAST_HUCK


@<TRIPOS>ATOM
      1 C          21.6180   10.6720   20.2590 C.2       1 ACE         0.1752
      2 O          20.8950   11.1670   19.3840 O.2       1 ACE        -0.3972
      3 CH3        22.9360   11.3100   20.6420 C.3       1 ACE         0.0258
      4 N          21.2650    9.5830   20.9510 N.am      1 ASP        -0.2643
      5 CA         21.4340    8.4150   20.4010 C.3       1 ASP         0.1422
      6 C          20.1270    7.6470   20.5850 C.2       1 ASP         0.2057
      7 O          19.2950    8.0080   21.4240 O.2       1 ASP        -0.3943
      8 CB         22.5510    7.7450   21.2180 C.3       1 ASP         0.0406
      9 CG         23.9330    7.8750   20.5670 C.2       1 ASP         0.0393
     10 OD1        24.0180    8.0850   19.3340 O.co2     1 ASP        -0.5688
     11 OD2        24.9400    7.7500   21.2990 O.co2     1 ASP        -0.5688
     12 N          19.9570    6.5910   19.7900 N.am      1 SER        -0.2615
     13 CA         18.8150    5.6700   19.8960 C.3       1 SER         0.1539
     14 C          19.1200    4.4900   20.8360 C.2       1 SER         0.2063
     15 O          20.2550    4.3400   21.2940 O.2       1 SER        -0.3943
     16 CB         18.4350    5.1540   18.5050 C.3       1 SER         0.0843
     17 OG         19.5860    4.7650   17.7700 O.3       1 SER        -0.3903
     18 N          18.1120    3.6580   21.1250 N.am      1 PHE        -0.2619
     19 CA         18.2900    2.5280   22.0520 C.3       1 PHE         0.1404
     20 C          17.4530    1.2990   21.6860 C.2       1 PHE         0.2060
     21 O          16.2200    1.3260   21.7610 O.2       1 PHE        -0.3942
     22 CB         17.9980    2.9500   23.5040 C.3       1 PHE         0.0214
     23 CG         18.8110    2.2010   24.5420 C.ar      1 PHE        -0.0386
     24 CD1        19.7300    2.8800   25.3450 C.ar      1 PHE        -0.0601
     25 CD2        18.6600    0.8240   24.7230 C.ar      1 PHE        -0.0601
     26 CE1        20.4830    2.2000   26.3140 C.ar      1 PHE        -0.0686
     27 CE2        19.4170    0.1400   25.6810 C.ar      1 PHE        -0.0686
     28 CZ         20.3270    0.8310   26.4780 C.ar      1 PHE        -0.0687
     29 N          18.1470    0.2190   21.3260 N.am      1 ASP        -0.2620
     30 CA         17.5190   -1.0450   20.9330 C.3       1 ASP         0.1423
     31 C          17.0170   -1.8520   22.1410 C.2       1 ASP         0.2057
     32 O          17.2090   -3.0740   22.2180 O.2       1 ASP        -0.3942
     33 CB         18.4880   -1.8810   20.0750 C.3       1 ASP         0.0406
     34 CG         18.6960   -1.3030   18.6670 C.2       1 ASP         0.0393
     35 OD1        17.7100   -1.1260   17.9140 O.co2     1 ASP        -0.5688
     36 OD2        19.8620   -1.0490   18.3010 O.co2     1 ASP        -0.5688
     37 C          14.4920   -3.6710   23.8330 C.2       1 ECC         0.1246
     38 N          15.9100   -1.9180   22.8810 N.am      1 ECC        -0.2647
     39 O          15.2790   -4.6070   23.8130 O.2       1 ECC        -0.3725
     40 CA         14.9540   -2.2240   23.9370 C.3       1 ECC         0.1148
     41 CB         13.7310   -1.3140   23.8000 C.3       1 ECC         0.0032
     42 CD         12.5080    0.6980   24.4640 C.2       1 ECC         0.1737
     43 CG         13.8950    0.0810   24.4050 C.3       1 ECC         0.0413
     44 OE1        11.8350    0.8240   23.4480 O.2       1 ECC        -0.3973
     45 NE2        12.0720    1.0670   25.6670 N.am      1 ECC        -0.3009
     46 H          23.5874   11.3475   19.7688 H         1 ACE         0.0467
     47 H          22.7563   12.3214   21.0065 H         1 ACE         0.0467
     48 H          23.4102   10.7189   21.4255 H         1 ACE         0.0467
     49 H          20.8722    9.6658   21.8887 H         1 ASP         0.1884
     50 H          21.6895    8.4560   19.3422 H         1 ASP         0.0819
     51 H          22.3173    6.6828   21.2898 H         1 ASP         0.0478
     52 H          22.5941    8.2398   22.1883 H         1 ASP         0.0478
     53 H          20.6563    6.4118   19.0694 H         1 SER         0.1884
     54 H          17.9767    6.2209   20.3225 H         1 SER         0.0823
     55 H          17.9298    5.9535   17.9632 H         1 SER         0.0606
     56 H          17.7862    4.2858   18.6210 H         1 SER         0.0606
     57 H          20.1697    5.5203   17.6683 H         1 SER         0.2097
     58 H          17.2004    3.8102   20.6935 H         1 PHE         0.1885
     59 H          19.3363    2.2363   21.9614 H         1 PHE         0.0823
     60 H          16.9478    2.7319   23.6982 H         1 PHE         0.0474
     61 H          18.2571    4.0051   23.5914 H         1 PHE         0.0474
     62 H          19.8642    3.9541   25.2170 H         1 PHE         0.0557
     63 H          17.9440    0.2758   24.1107 H         1 PHE         0.0557
     64 H          21.1902    2.7468   26.9377 H         1 PHE         0.0599
     65 H          19.2943   -0.9361   25.8038 H         1 PHE         0.0599
     66 H          20.9136    0.2988   27.2268 H         1 PHE         0.0559
     67 H          19.1654    0.2756   21.3241 H         1 ASP         0.1884
     68 H          16.6411   -0.7989   20.3357 H         1 ASP         0.0819
     69 H          18.0586   -2.8768   19.9647 H         1 ASP         0.0478
     70 H          19.4553   -1.8868   20.5774 H         1 ASP         0.0478
     71 H          13.4238   -3.8798   23.7744 H         1 ECC         0.1373
     72 H          15.3003   -1.3561   22.2868 H         1 ECC         0.1884
     73 H          15.4406   -2.0650   24.8993 H         1 ECC         0.0792
     74 H          12.9161   -1.7976   24.3386 H         1 ECC         0.0338
     75 H          13.5581   -1.1766   22.7326 H         1 ECC         0.0338
     76 H          14.5654    0.6905   23.7990 H         1 ECC         0.0505
     77 H          14.3366    0.0231   25.3998 H         1 ECC         0.0505
     78 H          11.1422    1.4737   25.7699 H         1 ECC         0.1814
     79 H          12.6678    0.9430   26.4856 H         1 ECC         0.1814
@<TRIPOS>BOND
     1    1    2 2  
     2    1    3 1  
     3    4    1 am 
     4    5    4 1  
     5    6    5 1  
     6    5    8 1  
     7    6    7 2  
     8   12    6 am 
     9    8    9 1  
    10    9   10 ar 
    11    9   11 ar 
    12   13   12 1  
    13   14   13 1  
    14   13   16 1  
    15   14   15 2  
    16   18   14 am 
    17   16   17 1  
    18   19   18 1  
    19   20   19 1  
    20   19   22 1  
    21   20   21 2  
    22   29   20 am 
    23   22   23 1  
    24   23   24 ar 
    25   23   25 ar 
    26   24   26 ar 
    27   25   27 ar 
    28   26   28 ar 
    29   27   28 ar 
    30   30   29 1  
    31   31   30 1  
    32   30   33 1  
    33   31   32 2  
    34   38   31 am 
    35   33   34 1  
    36   34   35 ar 
    37   34   36 ar 
    38   37   39 2  
    39   40   37 1  
    40   38   40 1  
    41   40   41 1  
    42   41   43 1  
    43   43   42 1  
    44   42   44 2  
    45   42   45 am 
    46    3   46 1  
    47    3   47 1  
    48    3   48 1  
    49    4   49 1  
    50    5   50 1  
    51    8   51 1  
    52    8   52 1  
    53   12   53 1  
    54   13   54 1  
    55   16   55 1  
    56   16   56 1  
    57   17   57 1  
    58   18   58 1  
    59   19   59 1  
    60   22   60 1  
    61   22   61 1  
    62   24   62 1  
    63   25   63 1  
    64   26   64 1  
    65   27   65 1  
    66   28   66 1  
    67   29   67 1  
    68   30   68 1  
    69   33   69 1  
    70   33   70 1  
    71   37   71 1  
    72   38   72 1  
    73   40   73 1  
    74   41   74 1  
    75   41   75 1  
    76   43   76 1  
    77   43   77 1  
    78   45   78 1  
    79   45   79 1  
@<TRIPOS>SUBSTRUCTURE
     1 ACE         1

