6emu_ligand
  -I-interpret- 

 51 53  0  0  0  0  0  0  0  0999 V2000
    3.3900  -15.9520  -10.6270 N   0  3  0  0  0
    2.0280  -16.4680  -10.5890 C   0  0  0  0  0
    1.0320  -15.3350  -10.3660 C   0  0  0  0  0
   -0.1810  -15.5410  -10.3420 O   0  0  0  0  0
    1.4210  -14.1800  -10.2000 O   0  0  0  0  0
    1.8820  -17.5220   -9.4990 C   0  0  0  0  0
    0.7740  -18.5310   -9.7730 C   0  0  0  0  0
    0.5890  -19.7450   -8.4420 S   0  0  0  0  0
    1.5800  -21.0820   -9.1560 C   0  0  0  0  0
   -1.0890  -20.3730   -8.7210 C   0  0  0  0  0
   -2.1800  -19.7210   -7.8740 C   0  0  0  0  0
   -1.9870  -19.9410   -6.4860 O   0  0  0  0  0
   -2.2520  -18.2160   -8.0770 C   0  0  0  0  0
   -3.2050  -17.8860   -9.0570 O   0  0  0  0  0
   -2.6670  -17.6740   -6.7300 C   0  0  0  0  0
   -4.0520  -17.4150   -6.7360 O   0  0  0  0  0
   -2.3860  -18.7970   -5.7510 C   0  0  0  0  0
   -1.3030  -18.3900   -4.8390 N   0  0  0  0  0
    0.0110  -18.7590   -4.9440 C   0  0  0  0  0
    0.7030  -18.1860   -3.9350 N   0  0  0  0  0
   -0.1490  -17.4460   -3.1920 C   0  0  0  0  0
    0.0360  -16.6620   -2.0590 C   0  0  0  0  0
    1.2430  -16.5390   -1.5120 N   0  0  0  0  0
   -1.0430  -16.0070   -1.5050 N   0  0  0  0  0
   -2.2950  -16.1320   -2.0720 C   0  0  0  0  0
   -2.4690  -16.9140   -3.1970 N   0  0  0  0  0
   -1.4170  -17.5660   -3.7470 C   0  0  0  0  0
    3.4656  -15.2491  -11.3623 H   0  0  0  0  0
    3.6176  -15.5299   -9.7268 H   0  0  0  0  0
    4.0369  -16.7170  -10.8185 H   0  0  0  0  0
    1.8141  -16.9343  -11.5507 H   0  0  0  0  0
   -0.3486  -16.4757  -10.4832 H   0  0  0  0  0
    1.6311  -17.0034   -8.5737 H   0  0  0  0  0
    2.8212  -18.0728   -9.4483 H   0  0  0  0  0
    1.0308  -19.0705  -10.6846 H   0  0  0  0  0
   -0.1642  -17.9827   -9.8585 H   0  0  0  0  0
    1.1471  -21.3840  -10.1097 H   0  0  0  0  0
    2.6003  -20.7322   -9.3132 H   0  0  0  0  0
    1.5870  -21.9318   -8.4734 H   0  0  0  0  0
   -1.0753  -21.4293   -8.4525 H   0  0  0  0  0
   -1.3328  -20.1595   -9.7617 H   0  0  0  0  0
   -3.1049  -20.1909   -8.2085 H   0  0  0  0  0
   -1.3045  -17.8011   -8.4210 H   0  0  0  0  0
   -3.2322  -16.9327   -9.1672 H   0  0  0  0  0
   -2.1413  -16.7530   -6.4781 H   0  0  0  0  0
   -4.3157  -17.0704   -5.8796 H   0  0  0  0  0
   -3.2778  -19.0220   -5.1660 H   0  0  0  0  0
    0.4295  -19.4074   -5.7138 H   0  0  0  0  0
    2.0413  -17.0220   -1.9241 H   0  0  0  0  0
    1.3698  -15.9617   -0.6807 H   0  0  0  0  0
   -3.1467  -15.6134   -1.6318 H   0  0  0  0  0
  1  2  1  0  0  0
  2  3  1  0  0  0
  2  6  1  0  0  0
  3  4  1  0  0  0
  3  5  2  0  0  0
  6  7  1  0  0  0
  7  8  1  0  0  0
  8  9  1  0  0  0
  8 10  1  0  0  0
 10 11  1  0  0  0
 11 12  1  0  0  0
 11 13  1  0  0  0
 12 17  1  0  0  0
 13 14  1  0  0  0
 13 15  1  0  0  0
 15 16  1  0  0  0
 15 17  1  0  0  0
 17 18  1  0  0  0
 18 19  4  0  0  0
 18 27  4  0  0  0
 19 20  4  0  0  0
 20 21  4  0  0  0
 21 22  4  0  0  0
 21 27  4  0  0  0
 22 23  1  0  0  0
 22 24  4  0  0  0
 24 25  4  0  0  0
 25 26  4  0  0  0
 26 27  4  0  0  0
  1 28  1  0  0  0
  1 29  1  0  0  0
  1 30  1  0  0  0
  2 31  1  0  0  0
  4 32  1  0  0  0
  6 33  1  0  0  0
  6 34  1  0  0  0
  7 35  1  0  0  0
  7 36  1  0  0  0
  9 37  1  0  0  0
  9 38  1  0  0  0
  9 39  1  0  0  0
 10 40  1  0  0  0
 10 41  1  0  0  0
 11 42  1  0  0  0
 13 43  1  0  0  0
 14 44  1  0  0  0
 15 45  1  0  0  0
 16 46  1  0  0  0
 17 47  1  0  0  0
 19 48  1  0  0  0
 23 49  1  0  0  0
 23 50  1  0  0  0
 25 51  1  0  0  0
M  END
$$$$
