### 
### Created by X-TOOL on Mon Sep 10 21:13:17 2018
### 

@<TRIPOS>MOLECULE
4mqp_ligand
   39    41     1     0     0
SMALL
GAST_HUCK


@<TRIPOS>ATOM
      1 OAC        23.9850    3.1250   25.8220 O.co2     1 2B1        -0.5536
      2 PAZ        24.2570    3.6320   27.3150 P.3       1 2B1         0.2035
      3 OAD        25.6340    3.0500   27.8100 O.co2     1 2B1        -0.5536
      4 OAE        23.0520    3.2490   28.2720 O.co2     1 2B1        -0.5536
      5 OAQ        24.3420    5.2750   27.2500 O.3       1 2B1        -0.2651
      6 CAL        24.7210    6.0120   28.4250 C.3       1 2B1         0.1104
      7 CAT        24.2570    7.3580   28.3990 C.ar      1 2B1         0.0024
      8 CAJ        25.2030    8.3610   28.3460 C.ar      1 2B1        -0.0131
      9 NAO        24.8550    9.7170   28.3410 N.ar      1 2B1        -0.3257
     10 CAS        23.5770   10.1060   28.4120 C.ar      1 2B1         0.0389
     11 CAA        23.2720   11.4900   28.4110 C.3       1 2B1        -0.0224
     12 CAU        22.5910    9.1190   28.4690 C.ar      1 2B1         0.1135
     13 OAB        21.3050    9.5550   28.5460 O.3       1 2B1        -0.3348
     14 CAW        22.8960    7.7250   28.4730 C.ar      1 2B1         0.0258
     15 CAK        21.9520    6.6860   28.5310 C.3       1 2B1         0.0932
     16 NAM        20.6140    7.1180   28.9110 N.2       1 2B1        -0.1756
     17 NAN        19.6710    6.3480   28.9710 N.2       1 2B1        -0.1108
     18 CAV        18.5060    6.8920   29.3650 C.2       1 2B1         0.2294
     19 NAP        17.3240    6.2750   29.4230 N.2       1 2B1        -0.2616
     20 CAX        16.3030    7.0590   29.8660 C.ar      1 2B1         0.0484
     21 CAH        15.0180    6.7040   30.0310 C.ar      1 2B1        -0.0493
     22 CAF        14.0650    7.6160   30.4840 C.ar      1 2B1        -0.0673
     23 CAG        14.4470    8.9130   30.7960 C.ar      1 2B1        -0.0672
     24 CAI        15.7860    9.2440   30.6250 C.ar      1 2B1        -0.0444
     25 CAY        16.6690    8.3380   30.1700 C.ar      1 2B1         0.0624
     26 SAR        18.3110    8.4870   29.8730 S.3       1 2B1         0.0280
     27 H          25.8185    6.0188   28.4981 H         1 2B1         0.0762
     28 H          24.2978    5.5102   29.3077 H         1 2B1         0.0762
     29 H          26.2518    8.0897   28.3069 H         1 2B1         0.0621
     30 H          22.1822   11.6253   28.4743 H         1 2B1         0.0382
     31 H          23.6449   11.9470   27.4825 H         1 2B1         0.0382
     32 H          23.7521   11.9719   29.2754 H         1 2B1         0.0382
     33 H          20.7198    8.8074   28.5796 H         1 2B1         0.2454
     34 H          22.2980    5.9458   29.2674 H         1 2B1         0.0667
     35 H          21.8941    6.2161   27.5381 H         1 2B1         0.0667
     36 H          14.7154    5.6874   29.8074 H         1 2B1         0.0602
     37 H          13.0299    7.3128   30.5919 H         1 2B1         0.0568
     38 H          13.7291    9.6397   31.1589 H         1 2B1         0.0593
     39 H          16.1231   10.2467   30.8618 H         1 2B1         0.0578
@<TRIPOS>BOND
     1    1    2 ar 
     2    2    3 ar 
     3    2    4 ar 
     4    2    5 1  
     5    5    6 1  
     6    6    7 1  
     7    7    8 ar 
     8    7   14 ar 
     9    8    9 ar 
    10    9   10 ar 
    11   10   11 1  
    12   10   12 ar 
    13   12   13 1  
    14   12   14 ar 
    15   14   15 1  
    16   15   16 1  
    17   16   17 2  
    18   17   18 1  
    19   18   19 2  
    20   18   26 1  
    21   19   20 1  
    22   20   21 ar 
    23   20   25 ar 
    24   21   22 ar 
    25   22   23 ar 
    26   23   24 ar 
    27   24   25 ar 
    28   25   26 1  
    29    6   27 1  
    30    6   28 1  
    31    8   29 1  
    32   11   30 1  
    33   11   31 1  
    34   11   32 1  
    35   13   33 1  
    36   15   34 1  
    37   15   35 1  
    38   21   36 1  
    39   22   37 1  
    40   23   38 1  
    41   24   39 1  
@<TRIPOS>SUBSTRUCTURE
     1 2B1         1

