4mqp_ligand
  -I-interpret- 

 41 43  0  0  0  0  0  0  0  0999 V2000
   23.9850    3.1250   25.8220 O   0  0  0  0  0
   24.2570    3.6320   27.3150 P   0  0  0  0  0
   25.6340    3.0500   27.8100 O   0  0  0  0  0
   23.0520    3.2490   28.2720 O   0  0  0  0  0
   24.3420    5.2750   27.2500 O   0  0  0  0  0
   24.7210    6.0120   28.4250 C   0  0  0  0  0
   24.2570    7.3580   28.3990 C   0  0  0  0  0
   25.2030    8.3610   28.3460 C   0  0  0  0  0
   24.8550    9.7170   28.3410 N   0  0  0  0  0
   23.5770   10.1060   28.4120 C   0  0  0  0  0
   23.2720   11.4900   28.4110 C   0  0  0  0  0
   22.5910    9.1190   28.4690 C   0  0  0  0  0
   21.3050    9.5550   28.5460 O   0  0  0  0  0
   22.8960    7.7250   28.4730 C   0  0  0  0  0
   21.9520    6.6860   28.5310 C   0  0  0  0  0
   20.6140    7.1180   28.9110 N   0  0  0  0  0
   19.6710    6.3480   28.9710 N   0  0  0  0  0
   18.5060    6.8920   29.3650 C   0  0  0  0  0
   17.3240    6.2750   29.4230 N   0  0  0  0  0
   16.3030    7.0590   29.8660 C   0  0  0  0  0
   15.0180    6.7040   30.0310 C   0  0  0  0  0
   14.0650    7.6160   30.4840 C   0  0  0  0  0
   14.4470    8.9130   30.7960 C   0  0  0  0  0
   15.7860    9.2440   30.6250 C   0  0  0  0  0
   16.6690    8.3380   30.1700 C   0  0  0  0  0
   18.3110    8.4870   29.8730 S   0  0  0  0  0
   23.1465    3.4764   25.5137 H   0  0  0  0  0
   22.2391    3.6260   27.9277 H   0  0  0  0  0
   25.8098    6.0329   28.4717 H   0  0  0  0  0
   24.2747    5.5195   29.2889 H   0  0  0  0  0
   26.2576    8.0882   28.3067 H   0  0  0  0  0
   23.7483   11.9663   29.2680 H   0  0  0  0  0
   23.6420   11.9416   27.4906 H   0  0  0  0  0
   22.1919   11.6228   28.4737 H   0  0  0  0  0
   20.7137    8.7995   28.5799 H   0  0  0  0  0
   22.2922    5.9836   29.2920 H   0  0  0  0  0
   21.8808    6.2590   27.5306 H   0  0  0  0  0
   14.7137    5.6818   29.8061 H   0  0  0  0  0
   13.0242    7.3111   30.5925 H   0  0  0  0  0
   13.7252    9.6437   31.1609 H   0  0  0  0  0
   16.1250   10.2522   30.8631 H   0  0  0  0  0
  1  2  1  0  0  0
  2  3  2  0  0  0
  2  4  1  0  0  0
  2  5  1  0  0  0
  5  6  1  0  0  0
  6  7  1  0  0  0
  7  8  4  0  0  0
  7 14  4  0  0  0
  8  9  4  0  0  0
  9 10  4  0  0  0
 10 11  1  0  0  0
 10 12  4  0  0  0
 12 13  1  0  0  0
 12 14  4  0  0  0
 14 15  1  0  0  0
 15 16  1  0  0  0
 16 17  2  0  0  0
 17 18  1  0  0  0
 18 19  4  0  0  0
 18 26  4  0  0  0
 19 20  4  0  0  0
 20 21  4  0  0  0
 20 25  4  0  0  0
 21 22  4  0  0  0
 22 23  4  0  0  0
 23 24  4  0  0  0
 24 25  4  0  0  0
 25 26  4  0  0  0
  1 27  1  0  0  0
  4 28  1  0  0  0
  6 29  1  0  0  0
  6 30  1  0  0  0
  8 31  1  0  0  0
 11 32  1  0  0  0
 11 33  1  0  0  0
 11 34  1  0  0  0
 13 35  1  0  0  0
 15 36  1  0  0  0
 15 37  1  0  0  0
 21 38  1  0  0  0
 22 39  1  0  0  0
 23 40  1  0  0  0
 24 41  1  0  0  0
M  END
$$$$
