2fm0_ligand
  -I-interpret- 

 57 60  0  0  0  0  0  0  0  0999 V2000
   21.5960   -1.3160   35.5500 F   0  0  0  0  0
   23.6900   -1.3910   34.7670 F   0  0  0  0  0
   22.7180   -2.0470   35.4360 C   0  0  0  0  0
   22.4070   -3.2750   34.8120 O   0  0  0  0  0
   23.2190   -8.2300   33.1700 C   0  0  0  0  0
   23.5020   -7.5050   31.8410 C   0  0  0  0  0
   22.7080   -6.8010   32.9550 C   0  0  0  0  0
   22.4650   -5.5730   33.6070 O   0  0  0  0  0
   22.1430   -3.2780   33.4740 C   0  0  0  0  0
   22.1910   -4.4920   32.8300 C   0  0  0  0  0
   21.9270   -4.5870   31.4470 C   0  0  0  0  0
   21.6100   -3.4340   30.7180 C   0  0  0  0  0
   21.5600   -2.2120   31.3880 C   0  0  0  0  0
   21.8260   -2.1250   32.7680 C   0  0  0  0  0
   21.3640   -3.4670   29.2160 C   0  0  0  0  0
   21.8260   -4.7300   28.5370 C   0  0  0  0  0
   23.1580   -6.0900   27.1430 C   0  0  0  0  0
   22.8940   -4.7840   27.6920 N   0  0  0  0  0
   21.0330   -6.1940   28.5990 S   0  0  0  0  0
   22.1540   -6.9480   27.6150 C   0  0  0  0  0
   22.0830   -8.4150   27.2420 C   0  0  0  0  0
   20.9400   -9.0230   27.8520 O   0  0  0  0  0
   23.3550   -9.1320   27.7800 C   0  0  0  0  0
   23.2820  -10.4490   27.5060 F   0  0  0  0  0
   23.4250   -8.9540   29.1160 F   0  0  0  0  0
   24.4630   -8.6180   27.2020 F   0  0  0  0  0
   21.9950   -8.5520   25.6830 C   0  0  0  0  0
   20.9450   -7.8430   25.2210 F   0  0  0  0  0
   21.8370   -9.8490   25.3460 F   0  0  0  0  0
   23.1250   -8.0820   25.1140 F   0  0  0  0  0
   19.9130   -3.1600   28.8360 C   0  0  0  0  0
   19.6990   -3.0560   27.3480 C   0  0  0  0  0
   20.3380   -2.0550   26.6340 C   0  0  0  0  0
   20.2090   -1.9980   25.2500 C   0  0  0  0  0
   18.9280   -3.9910   26.6750 C   0  0  0  0  0
   19.4460   -2.9300   24.5730 C   0  0  0  0  0
   18.0660   -4.8340   24.6390 O   0  0  0  0  0
   18.8060   -3.9220   25.2850 N   0  3  0  0  0
   23.1108   -2.2348   36.4353 H   0  0  0  0  0
   23.7655   -8.7973   33.9234 H   0  0  0  0  0
   22.8356   -9.1920   33.5101 H   0  0  0  0  0
   23.4211   -7.6941   30.7706 H   0  0  0  0  0
   24.3457   -7.3016   31.1816 H   0  0  0  0  0
   21.8520   -6.1440   33.1090 H   0  0  0  0  0
   21.9697   -5.5549   30.9476 H   0  0  0  0  0
   21.3104   -1.3075   30.8332 H   0  0  0  0  0
   21.7835   -1.1621   33.2771 H   0  0  0  0  0
   21.9921   -2.6598   28.8391 H   0  0  0  0  0
   23.9833   -6.3603   26.4843 H   0  0  0  0  0
   20.9049   -9.9511   27.6093 H   0  0  0  0  0
   19.6529   -2.1970   29.2754 H   0  0  0  0  0
   19.2949   -3.9796   29.2023 H   0  0  0  0  0
   21.3998   -2.2355   26.8018 H   0  0  0  0  0
   19.8799   -1.1318   26.9889 H   0  0  0  0  0
   20.7155   -1.2094   24.6935 H   0  0  0  0  0
   18.4178   -4.7787   27.2294 H   0  0  0  0  0
   19.3512   -2.8815   23.4882 H   0  0  0  0  0
  3  1  1  0  0  0
  3  2  1  0  0  0
  4  3  1  0  0  0
  9  4  1  0  0  0
  6  5  1  0  0  0
  7  5  1  0  0  0
  7  6  1  0  0  0
  8  7  1  0  0  0
 10  8  1  0  0  0
  9 10  4  0  0  0
  9 14  4  0  0  0
 10 11  4  0  0  0
 11 12  4  0  0  0
 12 13  4  0  0  0
 12 15  1  0  0  0
 13 14  4  0  0  0
 15 16  1  0  0  0
 15 31  1  0  0  0
 16 18  4  0  0  0
 16 19  4  0  0  0
 18 17  4  0  0  0
 17 20  4  0  0  0
 19 20  4  0  0  0
 20 21  1  0  0  0
 21 22  1  0  0  0
 21 23  1  0  0  0
 21 27  1  0  0  0
 23 24  1  0  0  0
 23 25  1  0  0  0
 23 26  1  0  0  0
 27 28  1  0  0  0
 27 29  1  0  0  0
 27 30  1  0  0  0
 31 32  1  0  0  0
 32 33  1  0  0  0
 32 35  2  0  0  0
 33 34  1  0  0  0
 34 36  2  0  0  0
 35 38  1  0  0  0
 36 38  1  0  0  0
 38 37  2  0  0  0
  3 39  1  0  0  0
  5 40  1  0  0  0
  5 41  1  0  0  0
  6 42  1  0  0  0
  6 43  1  0  0  0
  7 44  1  0  0  0
 11 45  1  0  0  0
 13 46  1  0  0  0
 14 47  1  0  0  0
 15 48  1  0  0  0
 17 49  1  0  0  0
 22 50  1  0  0  0
 31 51  1  0  0  0
 31 52  1  0  0  0
 33 53  1  0  0  0
 33 54  1  0  0  0
 34 55  1  0  0  0
 35 56  1  0  0  0
 36 57  1  0  0  0
M  END
$$$$
