4gkh_ligand
  -I-interpret- 

 43 46  0  0  0  0  0  0  0  0999 V2000
   83.8230   49.7250  -38.2610 N   0  0  0  0  0
   82.6670   50.4120  -37.9460 C   0  0  0  0  0
   81.8670   49.8650  -36.9520 N   0  0  0  0  0
   82.2290   48.7200  -36.3470 C   0  0  0  0  0
   83.3630   48.0550  -36.6530 C   0  0  0  0  0
   84.1410   48.5880  -37.6340 C   0  0  0  0  0
   79.2050   48.5290  -35.8270 C   0  0  0  0  0
   79.8920   47.3270  -33.7580 C   0  0  0  0  0
   80.4420   49.7630  -34.0110 C   0  0  0  0  0
   85.2640   47.9980  -38.0100 N   0  0  0  0  0
   83.0860   41.8920  -35.3590 C   0  0  0  0  0
   82.1250   42.8970  -35.3550 C   0  0  0  0  0
   85.6160   46.1390  -35.9440 C   0  0  0  0  0
   84.4260   42.2300  -35.4900 C   0  0  0  0  0
   86.1610   43.8240  -35.7580 C   0  0  0  0  0
   82.5110   44.2270  -35.4930 C   0  0  0  0  0
   82.2350   47.0250  -35.1560 N   0  0  0  0  0
   84.2620   45.9450  -35.7120 C   0  0  0  0  0
   83.4070   47.0120  -35.7830 C   0  0  0  0  0
   84.8070   43.5580  -35.6250 C   0  0  0  0  0
   83.8520   44.5900  -35.6280 C   0  0  0  0  0
   81.6020   48.0610  -35.3780 N   0  0  0  0  0
   80.3040   48.4290  -34.7530 C   0  0  0  0  0
   86.5740   45.1350  -35.8840 C   0  0  0  0  0
   82.3961   51.3381  -38.4529 H   0  0  0  0  0
   79.1116   47.5716  -36.3397 H   0  0  0  0  0
   78.2570   48.7825  -35.3525 H   0  0  0  0  0
   79.4712   49.3034  -36.5464 H   0  0  0  0  0
   79.7885   46.3804  -34.2885 H   0  0  0  0  0
   80.6564   47.2312  -32.9869 H   0  0  0  0  0
   78.9406   47.5926  -33.2972 H   0  0  0  0  0
   81.2015   49.6687  -33.2349 H   0  0  0  0  0
   80.7356   50.5407  -34.7160 H   0  0  0  0  0
   79.4866   50.0249  -33.5563 H   0  0  0  0  0
   85.8374   48.4136  -38.7441 H   0  0  0  0  0
   85.5563   47.1276  -37.5658 H   0  0  0  0  0
   82.7897   40.8477  -35.2601 H   0  0  0  0  0
   81.0707   42.6435  -35.2439 H   0  0  0  0  0
   85.9504   47.1469  -36.1898 H   0  0  0  0  0
   85.1844   41.4471  -35.4868 H   0  0  0  0  0
   86.8874   43.0114  -35.7630 H   0  0  0  0  0
   81.7471   45.0045  -35.4957 H   0  0  0  0  0
   87.6352   45.3786  -35.9356 H   0  0  0  0  0
  2  1  4  0  0  0
  6  1  4  0  0  0
  3  2  4  0  0  0
  4  3  4  0  0  0
  4  5  4  0  0  0
 22  4  4  0  0  0
  5  6  4  0  0  0
 19  5  4  0  0  0
  6 10  1  0  0  0
 23  7  1  0  0  0
 23  8  1  0  0  0
 23  9  1  0  0  0
 12 11  4  0  0  0
 14 11  4  0  0  0
 16 12  4  0  0  0
 18 13  4  0  0  0
 13 24  4  0  0  0
 20 14  4  0  0  0
 20 15  4  0  0  0
 24 15  4  0  0  0
 21 16  4  0  0  0
 17 19  4  0  0  0
 22 17  4  0  0  0
 19 18  1  0  0  0
 18 21  4  0  0  0
 21 20  4  0  0  0
 22 23  1  0  0  0
  2 25  1  0  0  0
  7 26  1  0  0  0
  7 27  1  0  0  0
  7 28  1  0  0  0
  8 29  1  0  0  0
  8 30  1  0  0  0
  8 31  1  0  0  0
  9 32  1  0  0  0
  9 33  1  0  0  0
  9 34  1  0  0  0
 10 35  1  0  0  0
 10 36  1  0  0  0
 11 37  1  0  0  0
 12 38  1  0  0  0
 13 39  1  0  0  0
 14 40  1  0  0  0
 15 41  1  0  0  0
 16 42  1  0  0  0
 24 43  1  0  0  0
M  END
$$$$
