1q4w_ligand
  -I-interpret- 

 21 22  0  0  0  0  0  0  0  0999 V2000
   18.6410   17.3940   19.0900 C   0  0  0  0  0
   19.6860   17.6400   18.0540 N   0  0  0  0  0
   17.3550   16.9100   18.7030 C   0  0  0  0  0
   16.3530   16.6710   19.6710 C   0  0  0  0  0
   16.6130   16.9090   21.0600 C   0  0  0  0  0
   15.6060   16.6680   21.9970 N   0  0  0  0  0
   15.8180   16.8800   23.2760 C   0  0  0  0  0
   14.8440   16.6520   24.2460 N   0  0  0  0  0
   17.0830   17.3690   23.7750 N   0  0  0  0  0
   18.1780   17.6440   22.8740 C   0  0  0  0  0
   19.2450   18.0620   23.3400 O   0  0  0  0  0
   17.9170   17.4020   21.4480 C   0  0  0  0  0
   18.9190   17.6360   20.4540 C   0  0  0  0  0
   19.4811   17.4624   17.0707 H   0  0  0  0  0
   20.6053   17.9858   18.3290 H   0  0  0  0  0
   17.1435   16.7228   17.6502 H   0  0  0  0  0
   15.3757   16.3031   19.3587 H   0  0  0  0  0
   13.9237   16.3070   23.9734 H   0  0  0  0  0
   15.0514   16.8301   25.2287 H   0  0  0  0  0
   17.2042   17.5219   24.7762 H   0  0  0  0  0
   19.9017   18.0028   20.7504 H   0  0  0  0  0
  1  2  1  0  0  0
  1  3  4  0  0  0
  1 13  4  0  0  0
  3  4  4  0  0  0
  4  5  4  0  0  0
  5  6  1  0  0  0
  5 12  4  0  0  0
  6  7  2  0  0  0
  7  8  1  0  0  0
  7  9  1  0  0  0
  9 10  1  0  0  0
 10 11  2  0  0  0
 10 12  1  0  0  0
 12 13  4  0  0  0
  2 14  1  0  0  0
  2 15  1  0  0  0
  3 16  1  0  0  0
  4 17  1  0  0  0
  8 18  1  0  0  0
  8 19  1  0  0  0
  9 20  1  0  0  0
 13 21  1  0  0  0
M  END
$$$$
