5y8y_ligand
  -I-interpret- 

 40 42  0  0  0  0  0  0  0  0999 V2000
   13.9700    9.5860    3.7280 C   0  0  0  0  0
   12.7270    9.4630    3.0000 O   0  0  0  0  0
   12.6130    8.4940    2.0130 C   0  0  0  0  0
   13.6200    7.5910    1.6480 C   0  0  0  0  0
   13.4470    6.6990    0.6790 C   0  0  0  0  0
   14.3050    5.7830    0.2190 O   0  0  0  0  0
   13.5580    5.0610   -0.8220 N   0  0  0  0  0
   12.3740    5.6370   -0.8820 C   0  0  0  0  0
   11.3720    5.1580   -1.8670 C   0  0  0  0  0
   12.2610    6.6220    0.0020 C   0  0  0  0  0
   11.2550    7.4590    0.3330 C   0  0  0  0  0
   11.4000    8.4250    1.3390 C   0  0  0  0  0
   10.4630    9.3780    1.6680 N   0  0  0  0  0
    8.9100    9.0120    2.1760 S   0  0  0  0  0
    8.2410    8.0550    1.2470 O   0  0  0  0  0
    8.1680   10.3230    2.4830 O   0  0  0  0  0
    9.2070    8.2580    3.7840 C   0  0  0  0  0
    8.8370    6.9290    3.9310 C   0  0  0  0  0
    9.0140    6.2600    5.1240 C   0  0  0  0  0
    8.4440    4.4780    5.1360 Br  0  0  0  0  0
    9.6180    6.9080    6.1770 C   0  0  0  0  0
   10.0170    8.2410    6.0590 C   0  0  0  0  0
    9.8220    8.9390    4.8610 C   0  0  0  0  0
   10.1840   10.2920    4.6640 O   0  0  0  0  0
   10.6280   11.0670    5.7160 C   0  0  0  0  0
   14.1831    8.6484    4.2415 H   0  0  0  0  0
   14.7770    9.8116    3.0309 H   0  0  0  0  0
   13.8837   10.3904    4.4585 H   0  0  0  0  0
   14.5738    7.6213    2.1748 H   0  0  0  0  0
   11.7736    5.2674   -2.8744 H   0  0  0  0  0
   11.1490    4.1084   -1.6754 H   0  0  0  0  0
   10.4602    5.7477   -1.7719 H   0  0  0  0  0
   10.3049    7.3819   -0.1957 H   0  0  0  0  0
   10.7290   10.3603    1.5986 H   0  0  0  0  0
    8.3966    6.4018    3.0847 H   0  0  0  0  0
    9.7867    6.3753    7.1129 H   0  0  0  0  0
   10.4842    8.7423    6.9067 H   0  0  0  0  0
    9.8524   11.1189    6.4801 H   0  0  0  0  0
   11.5279   10.6211    6.1397 H   0  0  0  0  0
   10.8532   12.0710    5.3563 H   0  0  0  0  0
  1  2  1  0  0  0
  2  3  1  0  0  0
  3  4  4  0  0  0
  3 12  4  0  0  0
  4  5  4  0  0  0
  5  6  4  0  0  0
  5 10  4  0  0  0
  6  7  4  0  0  0
  7  8  4  0  0  0
  8  9  1  0  0  0
  8 10  4  0  0  0
 10 11  4  0  0  0
 11 12  4  0  0  0
 12 13  1  0  0  0
 13 14  1  0  0  0
 14 15  2  0  0  0
 14 16  2  0  0  0
 14 17  1  0  0  0
 17 18  4  0  0  0
 17 23  4  0  0  0
 18 19  4  0  0  0
 19 20  1  0  0  0
 19 21  4  0  0  0
 21 22  4  0  0  0
 22 23  4  0  0  0
 23 24  1  0  0  0
 24 25  1  0  0  0
  1 26  1  0  0  0
  1 27  1  0  0  0
  1 28  1  0  0  0
  4 29  1  0  0  0
  9 30  1  0  0  0
  9 31  1  0  0  0
  9 32  1  0  0  0
 11 33  1  0  0  0
 13 34  1  0  0  0
 18 35  1  0  0  0
 21 36  1  0  0  0
 22 37  1  0  0  0
 25 38  1  0  0  0
 25 39  1  0  0  0
 25 40  1  0  0  0
M  END
$$$$
