2epn_ligand
  -I-interpret- 

 27 28  0  0  0  0  0  0  0  0999 V2000
   23.2810    6.4870   40.3750 C   0  0  0  0  0
   24.7020    6.7500   39.8140 C   0  0  0  0  0
   25.3080    8.0190   40.3920 C   0  0  0  0  0
   24.3770    9.2570   40.3220 C   0  0  0  0  0
   23.0910    8.8210   41.0270 C   0  0  0  0  0
   22.0420    9.9350   41.0520 C   0  0  0  0  0
   25.0690    5.1380   41.5210 C   0  0  0  0  0
   25.7220    4.0330   42.3000 C   0  0  0  0  0
   25.5010    5.6390   40.3670 N   0  0  0  0  0
   23.5370    5.7540   42.0370 S   0  0  0  0  0
   26.5790    8.3580   39.7100 O   0  0  0  0  0
   24.9680   10.4030   40.9640 O   0  0  0  0  0
   22.5000    7.6720   40.3910 O   0  0  0  0  0
   21.6320   10.2300   39.7260 O   0  0  0  0  0
   22.7093    5.8034   39.7474 H   0  0  0  0  0
   24.6794    6.8354   38.7276 H   0  0  0  0  0
   25.4758    7.7902   41.4444 H   0  0  0  0  0
   24.1931    9.5680   39.2936 H   0  0  0  0  0
   23.3849    8.5734   42.0470 H   0  0  0  0  0
   22.4716   10.8279   41.5061 H   0  0  0  0  0
   21.1802    9.6089   41.6343 H   0  0  0  0  0
   25.7603    3.1320   41.6877 H   0  0  0  0  0
   26.7341    4.3316   42.5730 H   0  0  0  0  0
   25.1439    3.8359   43.2028 H   0  0  0  0  0
   27.1700    7.6022   39.7429 H   0  0  0  0  0
   25.7705   10.6505   40.4989 H   0  0  0  0  0
   20.9741   10.9289   39.7437 H   0  0  0  0  0
  2  1  1  0  0  0
  1 10  1  0  0  0
  1 13  1  0  0  0
  2  3  1  0  0  0
  9  2  1  0  0  0
  3  4  1  0  0  0
  3 11  1  0  0  0
  4  5  1  0  0  0
  4 12  1  0  0  0
  5  6  1  0  0  0
 13  5  1  0  0  0
  6 14  1  0  0  0
  7  8  1  0  0  0
  7  9  2  0  0  0
  7 10  1  0  0  0
  1 15  1  0  0  0
  2 16  1  0  0  0
  3 17  1  0  0  0
  4 18  1  0  0  0
  5 19  1  0  0  0
  6 20  1  0  0  0
  6 21  1  0  0  0
  8 22  1  0  0  0
  8 23  1  0  0  0
  8 24  1  0  0  0
 11 25  1  0  0  0
 12 26  1  0  0  0
 14 27  1  0  0  0
M  END
$$$$
