4acu_ligand
  -I-interpret- 

 54 58  0  0  0  0  0  0  0  0999 V2000
    1.3900   -3.1140  -16.4730 C   0  0  0  0  0
    1.6530   -2.7230  -17.8260 O   0  0  0  0  0
    2.9620   -2.9570  -18.2380 C   0  0  0  0  0
    3.7430   -3.9810  -17.7380 C   0  0  0  0  0
    5.0040   -4.1700  -18.2690 C   0  0  0  0  0
    5.4960   -3.3120  -19.2340 C   0  0  0  0  0
    4.7280   -2.2900  -19.7650 C   0  0  0  0  0
    3.4420   -2.1660  -19.2720 C   0  0  0  0  0
    2.6550   -1.1930  -19.7680 F   0  0  0  0  0
    5.3110   -1.3190  -20.6850 C   0  0  0  0  0
    6.0820   -1.6970  -21.7680 C   0  0  0  0  0
    6.6810   -0.7380  -22.5690 C   0  0  0  0  0
    6.5150    0.6080  -22.2870 C   0  0  0  0  0
    5.7280    1.0250  -21.2230 C   0  0  0  0  0
    5.1590    0.0380  -20.4370 C   0  0  0  0  0
    5.5290    2.4890  -20.8780 C   0  0  0  0  0
    6.2590    2.7650  -19.5760 C   0  0  0  0  0
    7.5300    2.5270  -19.4350 N   0  0  0  0  0
    8.0510    2.8720  -18.1000 C   0  0  0  0  0
    7.2630    3.9560  -17.3700 C   0  0  0  0  0
    5.7790    3.6180  -17.3000 C   0  0  0  0  0
    5.3950    3.2900  -18.6670 N   0  0  0  0  0
    4.1560    3.2420  -19.2890 C   0  0  0  0  0
    4.1320    2.7990  -20.5020 N   0  0  0  0  0
    3.0400    3.6510  -18.5950 N   0  0  0  0  0
    7.7900    4.0560  -16.1150 F   0  0  0  0  0
    7.3890    5.1630  -18.0240 F   0  0  0  0  0
    5.9520    3.4350  -21.9940 C   0  0  0  0  0
    5.0470    3.8410  -22.9610 C   0  0  0  0  0
    5.4710    4.6870  -23.9730 C   0  0  0  0  0
    6.7200    5.1540  -24.1030 N   0  0  0  0  0
    7.5850    4.7300  -23.1710 C   0  0  0  0  0
    7.2540    3.8910  -22.1270 C   0  0  0  0  0
    1.5772   -4.1820  -16.3619 H   0  0  0  0  0
    2.0439   -2.5574  -15.8017 H   0  0  0  0  0
    0.3495   -2.8990  -16.2297 H   0  0  0  0  0
    3.3720   -4.6260  -16.9415 H   0  0  0  0  0
    5.6163   -5.0031  -17.9239 H   0  0  0  0  0
    6.5187   -3.4438  -19.5874 H   0  0  0  0  0
    6.2195   -2.7546  -21.9931 H   0  0  0  0  0
    7.2846   -1.0437  -23.4236 H   0  0  0  0  0
    7.0106    1.3516  -22.9110 H   0  0  0  0  0
    4.5603    0.3424  -19.5785 H   0  0  0  0  0
    8.1111    2.1385  -20.1778 H   0  0  0  0  0
    9.0614    3.2552  -18.2425 H   0  0  0  0  0
    7.9887    1.9697  -17.4917 H   0  0  0  0  0
    5.1956    4.4512  -16.9081 H   0  0  0  0  0
    5.5880    2.7884  -16.6193 H   0  0  0  0  0
    3.3062    2.6845  -21.0896 H   0  0  0  0  0
    3.1300    3.9843  -17.6352 H   0  0  0  0  0
    4.0127    3.4987  -22.9261 H   0  0  0  0  0
    4.7358    4.9946  -24.7166 H   0  0  0  0  0
    8.6180    5.0705  -23.2426 H   0  0  0  0  0
    8.0150    3.5874  -21.4082 H   0  0  0  0  0
  1  2  1  0  0  0
  2  3  1  0  0  0
  3  4  4  0  0  0
  3  8  4  0  0  0
  4  5  4  0  0  0
  5  6  4  0  0  0
  6  7  4  0  0  0
  7  8  4  0  0  0
  7 10  1  0  0  0
  8  9  1  0  0  0
 10 11  4  0  0  0
 10 15  4  0  0  0
 11 12  4  0  0  0
 12 13  4  0  0  0
 13 14  4  0  0  0
 14 15  4  0  0  0
 14 16  1  0  0  0
 16 17  1  0  0  0
 16 24  1  0  0  0
 16 28  1  0  0  0
 17 18  1  0  0  0
 17 22  2  0  0  0
 18 19  1  0  0  0
 19 20  1  0  0  0
 20 21  1  0  0  0
 20 26  1  0  0  0
 20 27  1  0  0  0
 21 22  1  0  0  0
 22 23  4  0  0  0
 23 24  1  0  0  0
 23 25  2  0  0  0
 28 29  4  0  0  0
 28 33  4  0  0  0
 29 30  4  0  0  0
 30 31  4  0  0  0
 31 32  4  0  0  0
 32 33  4  0  0  0
  1 34  1  0  0  0
  1 35  1  0  0  0
  1 36  1  0  0  0
  4 37  1  0  0  0
  5 38  1  0  0  0
  6 39  1  0  0  0
 11 40  1  0  0  0
 12 41  1  0  0  0
 13 42  1  0  0  0
 15 43  1  0  0  0
 18 44  1  0  0  0
 19 45  1  0  0  0
 19 46  1  0  0  0
 21 47  1  0  0  0
 21 48  1  0  0  0
 24 49  1  0  0  0
 25 50  1  0  0  0
 29 51  1  0  0  0
 30 52  1  0  0  0
 32 53  1  0  0  0
 33 54  1  0  0  0
M  END
$$$$
