6n78_ligand
  -I-interpret- 

 42 45  0  0  0  0  0  0  0  0999 V2000
  -22.7390    3.5480   -1.5710 C   0  0  0  0  0
  -27.7890    4.9520   -1.0160 C   0  0  0  0  0
  -21.6070    4.1580   -1.0120 C   0  0  0  0  0
  -21.0600    5.2750   -1.6140 C   0  0  0  0  0
  -26.9530    2.6630   -0.0860 C   0  0  0  0  0
  -21.6270    5.8460   -2.7400 C   0  0  0  0  0
  -22.7620    5.2760   -3.2880 C   0  0  0  0  0
  -23.3100    4.1290   -2.7200 C   0  0  0  0  0
  -24.4670    3.0870   -4.5040 C   0  0  0  0  0
  -27.9570    3.7250   -0.3650 C   0  0  0  0  0
  -29.3280    3.6690   -0.0600 C   0  0  0  0  0
  -22.4440    1.2690   -0.7660 N   0  0  0  0  0
  -25.6850    2.9020   -0.5590 N   0  0  0  0  0
  -23.2630    2.3060   -0.9550 C   0  0  0  0  0
  -29.9900    4.7370   -0.4770 N   0  0  0  0  0
  -27.2740    1.6470    0.5330 O   0  0  0  0  0
  -26.6970    5.5270   -1.5830 N   0  0  0  0  0
  -26.9230    6.6630   -2.2320 C   0  0  0  0  0
  -28.1980    7.2780   -2.3590 C   0  0  0  0  0
  -29.2630    6.6940   -1.7640 C   0  0  0  0  0
  -29.0390    5.5180   -1.0820 N   0  0  0  0  0
  -24.5840    2.0030   -0.5370 C   0  0  0  0  0
  -24.5160    0.7120   -0.0890 C   0  0  0  0  0
  -23.2460    0.3130   -0.2280 N   0  0  0  0  0
  -22.6700   -0.9680    0.1650 C   0  0  0  0  0
  -24.4510    3.5260   -3.2070 O   0  0  0  0  0
  -24.9480    4.0400   -5.3030 F   0  0  0  0  0
  -25.2500    2.0280   -4.7080 F   0  0  0  0  0
  -19.5860    5.9500   -0.9690 Cl  0  0  0  0  0
  -21.1596    3.7520   -0.1047 H   0  0  0  0  0
  -21.1843    6.7347   -3.1898 H   0  0  0  0  0
  -23.2277    5.7252   -4.1652 H   0  0  0  0  0
  -23.4321    2.8210   -4.7193 H   0  0  0  0  0
  -29.7960    2.8355    0.4638 H   0  0  0  0  0
  -25.5162    3.8207   -0.9688 H   0  0  0  0  0
  -26.0720    7.1581   -2.6997 H   0  0  0  0  0
  -28.3152    8.2022   -2.9248 H   0  0  0  0  0
  -30.2578    7.1357   -1.8217 H   0  0  0  0  0
  -25.3411    0.1197    0.3067 H   0  0  0  0  0
  -22.2258   -1.4480   -0.7070 H   0  0  0  0  0
  -21.9024   -0.8031    0.9211 H   0  0  0  0  0
  -23.4529   -1.6069    0.5736 H   0  0  0  0  0
  1  3  4  0  0  0
  1  8  4  0  0  0
 14  1  1  0  0  0
 10  2  4  0  0  0
  2 17  4  0  0  0
  2 21  4  0  0  0
  3  4  4  0  0  0
  4  6  4  0  0  0
  4 29  1  0  0  0
  5 10  1  0  0  0
 13  5  1  0  0  0
  5 16  2  0  0  0
  7  6  4  0  0  0
  8  7  4  0  0  0
  8 26  1  0  0  0
 26  9  1  0  0  0
  9 27  1  0  0  0
  9 28  1  0  0  0
 10 11  4  0  0  0
 11 15  4  0  0  0
 14 12  4  0  0  0
 12 24  4  0  0  0
 22 13  1  0  0  0
 14 22  4  0  0  0
 15 21  4  0  0  0
 17 18  4  0  0  0
 18 19  4  0  0  0
 19 20  4  0  0  0
 20 21  4  0  0  0
 22 23  4  0  0  0
 23 24  4  0  0  0
 24 25  1  0  0  0
  3 30  1  0  0  0
  6 31  1  0  0  0
  7 32  1  0  0  0
  9 33  1  0  0  0
 11 34  1  0  0  0
 13 35  1  0  0  0
 18 36  1  0  0  0
 19 37  1  0  0  0
 20 38  1  0  0  0
 23 39  1  0  0  0
 25 40  1  0  0  0
 25 41  1  0  0  0
 25 42  1  0  0  0
M  END
$$$$
