2kfx_ligand
  -I-interpret- 

 44 45  0  0  0  0  0  0  0  0999 V2000
   80.5120    3.5460   -4.6840 S   0  0  0  0  0
   81.1220    3.1440   -5.9080 O   0  0  0  0  0
   80.0010    4.8940   -4.6240 O   0  0  0  0  0
   79.1720    2.4680   -4.4240 N   0  0  0  0  0
   83.5310    3.0740   -1.0900 C   0  0  0  0  0
   82.7070    4.2620   -1.2390 C   0  0  0  0  0
   81.7800    4.3970   -2.3630 C   0  0  0  0  0
   81.6580    3.3380   -3.3570 C   0  0  0  0  0
   82.4730    2.1370   -3.2400 C   0  0  0  0  0
   83.4330    2.0030   -2.0750 C   0  0  0  0  0
   85.3400    0.5440   -0.6480 Cl  0  0  0  0  0
   84.2360    0.7930   -1.9530 C   0  0  0  0  0
   84.1160   -0.2700   -2.9400 C   0  0  0  0  0
   83.1880   -0.1340   -4.0650 C   0  0  0  0  0
   82.3690    1.0600   -4.2180 C   0  0  0  0  0
   77.8860    3.0730   -4.0850 C   0  0  0  0  0
   77.4570    2.8470   -2.6360 C   0  0  0  0  0
   79.2170    2.8360   -0.8560 C   0  0  0  0  0
   78.2960    3.7170   -1.7000 C   0  0  0  0  0
   79.2490    3.3530    0.5860 C   0  0  0  0  0
   80.6500    3.1660    1.1770 C   0  0  0  0  0
   81.2660    4.4210    1.5760 N   0  3  0  0  0
   79.2793    1.4569   -4.5047 H   0  0  0  0  0
   84.2174    2.9842   -0.2480 H   0  0  0  0  0
   82.7806    5.0631   -0.5035 H   0  0  0  0  0
   81.1747    5.2985   -2.4579 H   0  0  0  0  0
   84.7199   -1.1720   -2.8414 H   0  0  0  0  0
   83.1095   -0.9374   -4.7974 H   0  0  0  0  0
   81.6816    1.1486   -5.0592 H   0  0  0  0  0
   77.1323    2.6098   -4.7218 H   0  0  0  0  0
   77.9863    4.1488   -4.2289 H   0  0  0  0  0
   77.6039    1.7982   -2.3782 H   0  0  0  0  0
   76.4059    3.1143   -2.5276 H   0  0  0  0  0
   80.2241    2.8641   -1.2719 H   0  0  0  0  0
   78.8438    1.8119   -0.8641 H   0  0  0  0  0
   77.6335    4.2787   -1.0415 H   0  0  0  0  0
   78.9000    4.4038   -2.2930 H   0  0  0  0  0
   78.5293    2.7940    1.1840 H   0  0  0  0  0
   78.9946    4.4129    0.5933 H   0  0  0  0  0
   81.2786    2.7152    0.4090 H   0  0  0  0  0
   80.5564    2.5428    2.0664 H   0  0  0  0  0
   82.1925    4.2365    1.9605 H   0  0  0  0  0
   81.3494    5.0311    0.7628 H   0  0  0  0  0
   80.6867    4.8728    2.2836 H   0  0  0  0  0
  1  2  2  0  0  0
  1  3  2  0  0  0
  1  4  1  0  0  0
  8  1  1  0  0  0
  4 16  1  0  0  0
  6  5  4  0  0  0
  5 10  4  0  0  0
  7  6  4  0  0  0
  7  8  4  0  0  0
  8  9  4  0  0  0
  9 10  4  0  0  0
  9 15  4  0  0  0
 10 12  4  0  0  0
 12 11  1  0  0  0
 12 13  4  0  0  0
 13 14  4  0  0  0
 14 15  4  0  0  0
 16 17  1  0  0  0
 17 19  1  0  0  0
 19 18  1  0  0  0
 18 20  1  0  0  0
 20 21  1  0  0  0
 21 22  1  0  0  0
  4 23  1  0  0  0
  5 24  1  0  0  0
  6 25  1  0  0  0
  7 26  1  0  0  0
 13 27  1  0  0  0
 14 28  1  0  0  0
 15 29  1  0  0  0
 16 30  1  0  0  0
 16 31  1  0  0  0
 17 32  1  0  0  0
 17 33  1  0  0  0
 18 34  1  0  0  0
 18 35  1  0  0  0
 19 36  1  0  0  0
 19 37  1  0  0  0
 20 38  1  0  0  0
 20 39  1  0  0  0
 21 40  1  0  0  0
 21 41  1  0  0  0
 22 42  1  0  0  0
 22 43  1  0  0  0
 22 44  1  0  0  0
M  END
$$$$
