4u79_ligand
  -I-interpret- 

 72 77  0  0  0  0  0  0  0  0999 V2000
   -2.8540   29.8120  -29.7880 C   0  0  0  0  0
   -1.4930   29.7150  -29.1250 C   0  0  0  0  0
   -0.6420   30.9310  -29.4560 C   0  0  0  0  0
    0.6990   30.7270  -28.9160 N   0  3  0  0  0
   -0.5500   31.1220  -30.9690 C   0  0  0  0  0
   -1.9250   31.1970  -31.6080 C   0  0  0  0  0
   -2.7090   29.9420  -31.2980 C   0  0  0  0  0
   -4.0280   30.0270  -31.9140 N   0  0  0  0  0
   -4.7360   28.9380  -32.1260 C   0  0  0  0  0
   -4.1730   27.7390  -31.9650 N   0  0  0  0  0
   -6.0000   29.0520  -32.5000 N   0  0  0  0  0
   -6.7170   27.9830  -32.7120 C   0  0  0  0  0
   -6.1580   26.7320  -32.5580 C   0  0  0  0  0
   -4.8420   26.6140  -32.1680 C   0  0  0  0  0
   -4.1700   25.4020  -31.9920 C   0  0  0  0  0
   -2.8890   25.4610  -31.4990 C   0  0  0  0  0
   -2.1810   24.2890  -31.3260 C   0  0  0  0  0
   -2.7560   23.0780  -31.6560 C   0  0  0  0  0
   -3.9750   23.0400  -32.1320 N   0  0  0  0  0
   -4.6800   24.1480  -32.3130 C   0  0  0  0  0
   -5.9060   24.0560  -32.8160 O   0  0  0  0  0
   -6.6070   22.9270  -33.0220 C   0  0  0  0  0
   -6.7260   21.9520  -32.0550 C   0  0  0  0  0
   -7.4990   20.8340  -32.2970 C   0  0  0  0  0
   -7.2840   22.7970  -34.2250 C   0  0  0  0  0
   -7.1710   23.7890  -35.1880 C   0  0  0  0  0
   -7.8180   23.6810  -36.3960 C   0  0  0  0  0
   -8.5890   22.5670  -36.6370 C   0  0  0  0  0
   -8.7140   21.5690  -35.6770 C   0  0  0  0  0
   -8.0610   21.6770  -34.4620 C   0  0  0  0  0
   -8.1650   20.6850  -33.4950 C   0  0  0  0  0
   -8.9030   19.6010  -33.6830 N   0  0  0  0  0
   -8.2830   18.2240  -34.2520 S   0  0  0  0  0
   -9.3360   17.5230  -35.0120 O   0  0  0  0  0
   -7.1390   18.5490  -35.1170 O   0  0  0  0  0
   -7.6740   17.2040  -33.0520 C   0  0  0  0  0
   -8.1550   17.2730  -31.7540 C   0  0  0  0  0
   -7.6330   16.4250  -30.7980 C   0  0  0  0  0
   -6.6390   15.5230  -31.1430 C   0  0  0  0  0
   -6.1660   15.4550  -32.4470 C   0  0  0  0  0
   -6.6860   16.3010  -33.4100 C   0  0  0  0  0
   -3.3698   30.6931  -29.4064 H   0  0  0  0  0
   -3.4199   28.9075  -29.5649 H   0  0  0  0  0
   -0.9868   28.8219  -29.4915 H   0  0  0  0  0
   -1.6313   29.6667  -28.0449 H   0  0  0  0  0
   -1.0986   31.8182  -29.0172 H   0  0  0  0  0
    0.6416   30.5991  -27.9057 H   0  0  0  0  0
    1.1132   29.8979  -29.3419 H   0  0  0  0  0
    1.2758   31.5420  -29.1245 H   0  0  0  0  0
   -0.0200   30.2687  -31.3920 H   0  0  0  0  0
   -0.0271   32.0578  -31.1666 H   0  0  0  0  0
   -1.8136   31.2924  -32.6881 H   0  0  0  0  0
   -2.4585   32.0603  -31.2102 H   0  0  0  0  0
   -2.1869   29.0707  -31.6933 H   0  0  0  0  0
   -4.4043   30.9363  -32.1823 H   0  0  0  0  0
   -7.7606   28.0790  -33.0116 H   0  0  0  0  0
   -6.7553   25.8394  -32.7442 H   0  0  0  0  0
   -2.4377   26.4209  -31.2478 H   0  0  0  0  0
   -1.1666   24.3195  -30.9283 H   0  0  0  0  0
   -2.1950   22.1534  -31.5202 H   0  0  0  0  0
   -6.2107   22.0635  -31.1010 H   0  0  0  0  0
   -7.5837   20.0611  -31.5331 H   0  0  0  0  0
   -6.5596   24.6679  -34.9836 H   0  0  0  0  0
   -7.7221   24.4632  -37.1490 H   0  0  0  0  0
   -9.1072   22.4659  -37.5906 H   0  0  0  0  0
   -9.3313   20.6946  -35.8832 H   0  0  0  0  0
   -9.8977   19.6380  -33.4604 H   0  0  0  0  0
   -8.9352   17.9875  -31.4915 H   0  0  0  0  0
   -8.0021   16.4648  -29.7732 H   0  0  0  0  0
   -6.2243   14.8604  -30.3834 H   0  0  0  0  0
   -5.3884   14.7381  -32.7105 H   0  0  0  0  0
   -6.3233   16.2578  -34.4370 H   0  0  0  0  0
  1  2  1  0  0  0
  1  7  1  0  0  0
  2  3  1  0  0  0
  3  4  1  0  0  0
  3  5  1  0  0  0
  5  6  1  0  0  0
  6  7  1  0  0  0
  7  8  1  0  0  0
  8  9  1  0  0  0
  9 10  4  0  0  0
  9 11  4  0  0  0
 10 14  4  0  0  0
 11 12  4  0  0  0
 12 13  4  0  0  0
 13 14  4  0  0  0
 14 15  1  0  0  0
 15 16  4  0  0  0
 15 20  4  0  0  0
 16 17  4  0  0  0
 17 18  4  0  0  0
 18 19  4  0  0  0
 19 20  4  0  0  0
 20 21  1  0  0  0
 21 22  1  0  0  0
 22 23  4  0  0  0
 22 25  4  0  0  0
 23 24  4  0  0  0
 24 31  4  0  0  0
 25 26  4  0  0  0
 25 30  4  0  0  0
 26 27  4  0  0  0
 27 28  4  0  0  0
 28 29  4  0  0  0
 29 30  4  0  0  0
 30 31  4  0  0  0
 31 32  1  0  0  0
 32 33  1  0  0  0
 33 34  2  0  0  0
 33 35  2  0  0  0
 33 36  1  0  0  0
 36 37  4  0  0  0
 36 41  4  0  0  0
 37 38  4  0  0  0
 38 39  4  0  0  0
 39 40  4  0  0  0
 40 41  4  0  0  0
  1 42  1  0  0  0
  1 43  1  0  0  0
  2 44  1  0  0  0
  2 45  1  0  0  0
  3 46  1  0  0  0
  4 47  1  0  0  0
  4 48  1  0  0  0
  4 49  1  0  0  0
  5 50  1  0  0  0
  5 51  1  0  0  0
  6 52  1  0  0  0
  6 53  1  0  0  0
  7 54  1  0  0  0
  8 55  1  0  0  0
 12 56  1  0  0  0
 13 57  1  0  0  0
 16 58  1  0  0  0
 17 59  1  0  0  0
 18 60  1  0  0  0
 23 61  1  0  0  0
 24 62  1  0  0  0
 26 63  1  0  0  0
 27 64  1  0  0  0
 28 65  1  0  0  0
 29 66  1  0  0  0
 32 67  1  0  0  0
 37 68  1  0  0  0
 38 69  1  0  0  0
 39 70  1  0  0  0
 40 71  1  0  0  0
 41 72  1  0  0  0
M  END
$$$$
