2r4b_ligand
  -I-interpret- 

 43 46  0  0  0  0  0  0  0  0999 V2000
  -21.2290   16.9550   -0.2150 F   0  0  0  0  0
  -20.8290   18.2330   -0.2870 C   0  0  0  0  0
  -21.6050   19.1790   -0.9250 C   0  0  0  0  0
  -21.1630   20.4860   -0.9790 C   0  0  0  0  0
  -19.9550   20.8300   -0.4030 C   0  0  0  0  0
  -19.1840   19.8810    0.2340 C   0  0  0  0  0
  -17.8790   20.2610    0.8450 C   0  0  0  0  0
  -17.2180   19.0910    1.3200 O   0  0  0  0  0
  -16.3390   18.5630    0.3720 C   0  0  0  0  0
  -15.9390   19.2400   -0.7650 C   0  0  0  0  0
  -15.0580   18.6330   -1.6400 C   0  0  0  0  0
  -14.5650   17.3600   -1.4110 C   0  0  0  0  0
  -13.6590   16.7620   -2.3130 N   0  0  0  0  0
  -13.7950   15.4760   -2.8640 C   0  0  0  0  0
  -14.8450   14.6680   -2.6620 N   0  0  0  0  0
  -14.8470   13.4680   -3.2520 C   0  0  0  0  0
  -13.9320   12.9160   -4.0530 N   0  0  0  0  0
  -12.8820   13.7240   -4.2560 C   0  0  0  0  0
  -11.7560   13.4190   -5.0570 C   0  0  0  0  0
  -10.8210   14.4240   -5.0960 C   0  0  0  0  0
   -9.5310   14.4680   -5.8100 C   0  0  0  0  0
   -9.0530   15.7030   -6.1790 C   0  0  0  0  0
  -11.3370   15.7550   -4.1410 S   0  0  0  0  0
  -12.7990   14.9820   -3.6790 C   0  0  0  0  0
  -14.9700   16.7000   -0.2700 C   0  0  0  0  0
  -15.8480   17.2940    0.6090 C   0  0  0  0  0
  -16.3200   16.4120    2.0130 Cl  0  0  0  0  0
  -19.6300   18.5780    0.2910 C   0  0  0  0  0
  -22.5546   18.8981   -1.3804 H   0  0  0  0  0
  -21.7665   21.2458   -1.4756 H   0  0  0  0  0
  -19.6081   21.8621   -0.4528 H   0  0  0  0  0
  -18.0525   20.9434    1.6771 H   0  0  0  0  0
  -17.2565   20.7513    0.0965 H   0  0  0  0  0
  -16.3147   20.2426   -0.9694 H   0  0  0  0  0
  -14.7431   19.1710   -2.5341 H   0  0  0  0  0
  -12.8408   17.3061   -2.5867 H   0  0  0  0  0
  -15.7224   12.8508   -3.0498 H   0  0  0  0  0
  -11.6417   12.4762   -5.5920 H   0  0  0  0  0
   -8.9780   13.5564   -6.0363 H   0  0  0  0  0
   -9.6233   16.6012   -5.9420 H   0  0  0  0  0
   -8.1037   15.7840   -6.7086 H   0  0  0  0  0
  -14.5918   15.6991   -0.0620 H   0  0  0  0  0
  -19.0311   17.8196    0.7952 H   0  0  0  0  0
  1  2  1  0  0  0
  2  3  4  0  0  0
  2 28  4  0  0  0
  3  4  4  0  0  0
  4  5  4  0  0  0
  5  6  4  0  0  0
  6  7  1  0  0  0
  6 28  4  0  0  0
  7  8  1  0  0  0
  8  9  1  0  0  0
  9 10  4  0  0  0
  9 26  4  0  0  0
 10 11  4  0  0  0
 11 12  4  0  0  0
 12 13  1  0  0  0
 12 25  4  0  0  0
 13 14  1  0  0  0
 14 15  4  0  0  0
 14 24  4  0  0  0
 15 16  4  0  0  0
 16 17  4  0  0  0
 17 18  4  0  0  0
 18 19  4  0  0  0
 18 24  4  0  0  0
 19 20  4  0  0  0
 20 21  1  0  0  0
 20 23  4  0  0  0
 21 22  2  0  0  0
 23 24  4  0  0  0
 25 26  4  0  0  0
 26 27  1  0  0  0
  3 29  1  0  0  0
  4 30  1  0  0  0
  5 31  1  0  0  0
  7 32  1  0  0  0
  7 33  1  0  0  0
 10 34  1  0  0  0
 11 35  1  0  0  0
 13 36  1  0  0  0
 16 37  1  0  0  0
 19 38  1  0  0  0
 21 39  1  0  0  0
 22 40  1  0  0  0
 22 41  1  0  0  0
 25 42  1  0  0  0
 28 43  1  0  0  0
M  END
$$$$
