2aez_ligand
  -I-interpret- 

 66 68  0  0  0  0  0  0  0  0999 V2000
    9.0700   73.6060   -3.5590 C   0  0  0  0  0
    6.5830   71.7190   -3.6820 C   0  0  0  0  0
    8.0330   68.6460   -2.1000 C   0  0  0  0  0
   10.3730   73.0380   -2.9690 C   0  0  0  0  0
    6.6920   73.1220   -3.0810 C   0  0  0  0  0
    7.1380   69.2810   -3.1540 C   0  0  0  0  0
   10.9900   73.9920   -1.9530 C   0  0  0  0  0
    5.7150   73.1820   -1.9130 C   0  0  0  0  0
    5.7840   68.5280   -3.3560 C   0  0  0  0  0
   11.2180   75.3660   -2.5810 C   0  0  0  0  0
    4.8640   74.3970   -2.2430 C   0  0  0  0  0
    5.4410   68.7950   -4.7990 C   0  0  0  0  0
    9.8530   75.9080   -3.0580 C   0  0  0  0  0
    5.0080   74.5930   -3.7680 C   0  0  0  0  0
    6.8160   68.8660   -5.5000 C   0  0  0  0  0
    9.9610   77.2690   -3.7090 C   0  0  0  0  0
    5.0420   76.0350   -4.1990 C   0  0  0  0  0
    6.9080   69.9270   -6.5860 C   0  0  0  0  0
    8.0020   73.5100   -2.6160 O   0  0  0  0  0
    6.9520   70.6790   -2.7210 O   0  0  0  0  0
    8.3040   67.2790   -2.3610 O   0  0  0  0  0
   10.1370   71.7290   -2.4610 O   0  0  0  0  0
    6.2450   73.9560   -4.1280 O   0  0  0  0  0
    7.7780   69.1680   -4.4290 O   0  0  0  0  0
   12.2090   73.3910   -1.4890 O   0  0  0  0  0
    6.3820   73.3640   -0.6640 O   0  0  0  0  0
    4.7310   68.9720   -2.5160 O   0  0  0  0  0
   11.8060   76.2630   -1.6300 O   0  0  0  0  0
    3.5130   74.2110   -1.8180 O   0  0  0  0  0
    4.5630   67.8040   -5.3160 O   0  0  0  0  0
    9.2780   74.9570   -4.0430 O   0  0  0  0  0
    5.1910   76.0710   -5.6160 O   0  0  0  0  0
    8.2110   69.9230   -7.1590 O   0  0  0  0  0
    8.3710   77.7190   -4.1520 O   0  0  0  0  0
    8.7764   73.0053   -4.4199 H   0  0  0  0  0
    7.2664   71.6576   -4.5289 H   0  0  0  0  0
    5.5471   71.5557   -3.9790 H   0  0  0  0  0
    7.5161   68.7070   -1.1423 H   0  0  0  0  0
    8.9827   69.1810   -2.1020 H   0  0  0  0  0
   11.1207   72.9449   -3.7566 H   0  0  0  0  0
   10.3239   74.1549   -1.1057 H   0  0  0  0  0
    5.1452   72.2597   -1.8001 H   0  0  0  0  0
    5.8961   67.4744   -3.1003 H   0  0  0  0  0
   11.9039   75.2807   -3.4239 H   0  0  0  0  0
    5.1905   75.2931   -1.7152 H   0  0  0  0  0
    4.8837   69.7187   -4.9551 H   0  0  0  0  0
    9.2166   76.0106   -2.1790 H   0  0  0  0  0
    4.1371   74.1656   -4.2649 H   0  0  0  0  0
    7.0088   67.9244   -6.0141 H   0  0  0  0  0
   10.6154   77.2354   -4.5801 H   0  0  0  0  0
   10.3975   77.9966   -3.0248 H   0  0  0  0  0
    5.8750   76.5502   -3.7207 H   0  0  0  0  0
    4.1197   76.5363   -3.9057 H   0  0  0  0  0
    6.7105   70.9060   -6.1494 H   0  0  0  0  0
    6.1736   69.7114   -7.3621 H   0  0  0  0  0
    8.8700   66.9284   -1.6693 H   0  0  0  0  0
    9.7497   71.1845   -3.1503 H   0  0  0  0  0
   12.0152   72.5331   -1.1043 H   0  0  0  0  0
    6.9143   72.5888   -0.4708 H   0  0  0  0  0
    4.9588   68.7977   -1.5999 H   0  0  0  0  0
   11.9418   77.1197   -2.0414 H   0  0  0  0  0
    2.9991   74.9914   -2.0382 H   0  0  0  0  0
    4.3642   68.0018   -6.2341 H   0  0  0  0  0
    5.2149   76.9842   -5.9110 H   0  0  0  0  0
    8.2607   70.5949   -7.8429 H   0  0  0  0  0
    8.3892   78.5821   -4.5719 H   0  0  0  0  0
  1  4  1  0  0  0
 19  1  1  0  0  0
  1 31  1  0  0  0
  2  5  1  0  0  0
 20  2  1  0  0  0
  6  3  1  0  0  0
  3 21  1  0  0  0
  4  7  1  0  0  0
  4 22  1  0  0  0
  5  8  1  0  0  0
  5 19  1  0  0  0
  5 23  1  0  0  0
  6  9  1  0  0  0
  6 20  1  0  0  0
  6 24  1  0  0  0
  7 10  1  0  0  0
  7 25  1  0  0  0
  8 11  1  0  0  0
  8 26  1  0  0  0
  9 12  1  0  0  0
  9 27  1  0  0  0
 10 13  1  0  0  0
 10 28  1  0  0  0
 11 14  1  0  0  0
 11 29  1  0  0  0
 12 15  1  0  0  0
 12 30  1  0  0  0
 13 16  1  0  0  0
 13 31  1  0  0  0
 14 17  1  0  0  0
 14 23  1  0  0  0
 15 18  1  0  0  0
 15 24  1  0  0  0
 16 34  1  0  0  0
 17 32  1  0  0  0
 18 33  1  0  0  0
  1 35  1  0  0  0
  2 36  1  0  0  0
  2 37  1  0  0  0
  3 38  1  0  0  0
  3 39  1  0  0  0
  4 40  1  0  0  0
  7 41  1  0  0  0
  8 42  1  0  0  0
  9 43  1  0  0  0
 10 44  1  0  0  0
 11 45  1  0  0  0
 12 46  1  0  0  0
 13 47  1  0  0  0
 14 48  1  0  0  0
 15 49  1  0  0  0
 16 50  1  0  0  0
 16 51  1  0  0  0
 17 52  1  0  0  0
 17 53  1  0  0  0
 18 54  1  0  0  0
 18 55  1  0  0  0
 21 56  1  0  0  0
 22 57  1  0  0  0
 25 58  1  0  0  0
 26 59  1  0  0  0
 27 60  1  0  0  0
 28 61  1  0  0  0
 29 62  1  0  0  0
 30 63  1  0  0  0
 32 64  1  0  0  0
 33 65  1  0  0  0
 34 66  1  0  0  0
M  END
$$$$
