4oru_ligand
  -I-interpret- 

178177  0  0  0  0  0  0  0  0999 V2000
   42.5380  -16.5990   -1.9110 O   0  0  0  0  0
   42.7840  -16.3530   -3.2940 C   0  0  0  0  0
   44.0680  -15.5490   -3.4400 C   0  0  0  0  0
   44.9430  -16.1910   -4.3650 O   0  0  0  0  0
   46.3070  -16.0190   -3.9890 C   0  0  0  0  0
   47.0130  -17.3690   -3.9280 C   0  0  0  0  0
   47.3520  -17.8010   -5.2440 O   0  0  0  0  0
   47.6720  -19.1880   -5.2580 C   0  0  0  0  0
   47.9450  -19.6680   -6.6760 C   0  0  0  0  0
   47.0300  -20.7030   -7.0260 O   0  0  0  0  0
   45.7630  -20.1620   -7.3870 C   0  0  0  0  0
   44.7640  -21.2560   -7.7290 C   0  0  0  0  0
   44.1490  -20.9510   -8.9790 O   0  0  0  0  0
   44.5000  -21.9100   -9.9710 C   0  0  0  0  0
   43.6550  -21.6950  -11.2200 C   0  0  0  0  0
   43.1030  -22.9420  -11.6360 O   0  0  0  0  0
   42.0230  -23.3590  -10.8030 C   0  0  0  0  0
   40.7040  -22.7860  -11.3050 C   0  0  0  0  0
   39.6480  -23.1920  -10.4350 O   0  0  0  0  0
   39.5160  -22.3500   -9.2910 C   0  0  0  0  0
   38.2740  -21.4830   -9.4480 C   0  0  0  0  0
   38.3530  -20.3350   -8.6030 O   0  0  0  0  0
   38.0450  -20.6070   -7.2380 C   0  0  0  0  0
   38.4930  -19.4400   -6.3620 C   0  0  0  0  0
   37.8540  -18.2330   -6.7800 O   0  0  0  0  0
   38.0170  -17.1590   -5.8530 C   0  0  0  0  0
   37.6690  -15.8430   -6.5400 C   0  0  0  0  0
   37.2740  -14.8540   -5.5920 O   0  0  0  0  0
   37.4070  -13.5280   -6.1090 C   0  0  0  0  0
   36.1810  -12.6910   -5.7590 C   0  0  0  0  0
   35.1430  -12.9650   -6.6980 O   0  0  0  0  0
   34.6520  -11.7680   -7.2920 C   0  0  0  0  0
   33.8190  -12.1050   -8.5220 C   0  0  0  0  0
   33.9000  -11.0210   -9.4450 O   0  0  0  0  0
   32.7820  -10.9740  -10.3330 C   0  0  0  0  0
   31.4910  -10.8200   -9.5350 C   0  0  0  0  0
   31.2360   -9.4530   -9.2030 O   0  0  0  0  0
   30.0830   -9.3020   -8.3690 C   0  0  0  0  0
   30.1750  -10.2090   -7.1460 C   0  0  0  0  0
   30.8660   -9.5820   -6.0630 O   0  0  0  0  0
   29.9900   -9.4200   -4.9500 C   0  0  0  0  0
   30.6180   -9.9500   -3.6710 C   0  0  0  0  0
   29.6370  -10.6690   -2.9230 O   0  0  0  0  0
   28.5740   -9.8510   -2.4270 C   0  0  0  0  0
   29.1680   -8.8100   -1.4910 C   0  0  0  0  0
   28.1960   -8.1260   -0.7160 O   0  0  0  0  0
   28.7970   -6.9900   -0.1000 C   0  0  0  0  0
   27.8460   -6.2910    0.8620 C   0  0  0  0  0
   28.5810   -5.3090    1.5960 O   0  0  0  0  0
   27.7400   -4.3200    2.1840 C   0  0  0  0  0
   27.2790   -3.3250    1.1280 C   0  0  0  0  0
   28.2110   -2.2520    1.0640 O   0  0  0  0  0
   27.5710   -0.9840    0.9490 C   0  0  0  0  0
   26.5910   -0.7660    2.0930 C   0  0  0  0  0
   25.7790    0.3680    1.8040 O   0  0  0  0  0
   24.7350    0.5500    2.7550 C   0  0  0  0  0
   23.3620    0.3730    2.1170 C   0  0  0  0  0
   23.3730   -0.7910    1.2950 O   0  0  0  0  0
   22.0900   -1.1040    0.7480 C   0  0  0  0  0
   21.1410   -1.5240    1.8610 C   0  0  0  0  0
   21.7590   -2.4960    2.7000 O   0  0  0  0  0
   21.2990   -2.3750    4.0450 C   0  0  0  0  0
   21.3640   -3.7050    4.7880 C   0  0  0  0  0
   20.3800   -4.5900    4.2570 O   0  0  0  0  0
   19.9190   -5.5440    5.2130 C   0  0  0  0  0
   19.0030   -6.5540    4.5310 C   0  0  0  0  0
   19.7800   -7.4770    3.7640 O   0  0  0  0  0
   20.4910   -8.3990    4.5910 C   0  0  0  0  0
   21.2470   -9.4060    3.7280 C   0  0  0  0  0
   22.0500   -8.7370    2.7550 O   0  0  0  0  0
   23.4440   -8.8400    3.0390 C   0  0  0  0  0
   23.9710   -7.4940    3.5250 C   0  0  0  0  0
   24.7990   -6.9160    2.5130 O   0  0  0  0  0
   24.3380   -5.6380    2.0770 C   0  0  0  0  0
   24.4080   -4.6300    3.2190 C   0  0  0  0  0
   24.5040   -3.3000    2.6860 O   0  0  0  0  0
   41.7284  -17.1061   -1.8164 H   0  0  0  0  0
   41.9515  -15.7923   -3.7190 H   0  0  0  0  0
   42.8849  -17.3015   -3.8215 H   0  0  0  0  0
   44.5600  -15.4798   -2.4698 H   0  0  0  0  0
   43.8267  -14.5517   -3.8077 H   0  0  0  0  0
   46.3488  -15.5507   -3.0056 H   0  0  0  0  0
   46.8036  -15.3907   -4.7284 H   0  0  0  0  0
   46.3482  -18.1013   -3.4699 H   0  0  0  0  0
   47.9234  -17.2716   -3.3365 H   0  0  0  0  0
   46.8271  -19.7467   -4.8554 H   0  0  0  0  0
   48.5663  -19.3475   -4.6557 H   0  0  0  0  0
   48.9624  -20.0548   -6.7336 H   0  0  0  0  0
   47.8229  -18.8334   -7.3664 H   0  0  0  0  0
   45.8959  -19.5303   -8.2653 H   0  0  0  0  0
   45.3765  -19.5954   -6.5398 H   0  0  0  0  0
   44.0034  -21.3149   -6.9505 H   0  0  0  0  0
   45.2785  -22.2145   -7.7973 H   0  0  0  0  0
   44.3196  -22.9123   -9.5825 H   0  0  0  0  0
   45.5538  -21.7958  -10.2252 H   0  0  0  0  0
   44.2780  -21.2880  -12.0164 H   0  0  0  0  0
   42.8493  -20.9948  -10.9993 H   0  0  0  0  0
   42.2005  -22.9995   -9.7894 H   0  0  0  0  0
   41.9640  -24.4473  -10.8207 H   0  0  0  0  0
   40.5074  -23.1541  -12.3119 H   0  0  0  0  0
   40.7632  -21.6977  -11.3218 H   0  0  0  0  0
   40.3969  -21.7143   -9.2011 H   0  0  0  0  0
   39.4233  -22.9629   -8.3944 H   0  0  0  0  0
   37.3974  -22.0676   -9.1688 H   0  0  0  0  0
   38.2013  -21.1543  -10.4847 H   0  0  0  0  0
   38.5659  -21.5120   -6.9253 H   0  0  0  0  0
   36.9687  -20.7433   -7.1325 H   0  0  0  0  0
   39.5727  -19.3210   -6.4525 H   0  0  0  0  0
   38.2209  -19.6469   -5.3270 H   0  0  0  0  0
   39.0506  -17.1284   -5.5082 H   0  0  0  0  0
   37.3566  -17.3106   -4.9992 H   0  0  0  0  0
   36.8401  -16.0176   -7.2259 H   0  0  0  0  0
   38.5511  -15.4837   -7.0699 H   0  0  0  0  0
   37.5021  -13.5793   -7.1936 H   0  0  0  0  0
   38.2895  -13.0637   -5.6687 H   0  0  0  0  0
   36.4379  -11.6324   -5.7960 H   0  0  0  0  0
   35.8412  -12.9421   -4.7542 H   0  0  0  0  0
   35.4935  -11.1415   -7.5877 H   0  0  0  0  0
   34.0307  -11.2369   -6.5709 H   0  0  0  0  0
   32.7807  -12.2652   -8.2316 H   0  0  0  0  0
   34.1993  -13.0145   -8.9871 H   0  0  0  0  0
   32.7408  -11.8989  -10.9083 H   0  0  0  0  0
   32.8926  -10.1233  -11.0054 H   0  0  0  0  0
   31.5895  -11.3862   -8.6088 H   0  0  0  0  0
   30.6644  -11.1859  -10.1441 H   0  0  0  0  0
   29.1969   -9.5746   -8.9423 H   0  0  0  0  0
   30.0251   -8.2663   -8.0343 H   0  0  0  0  0
   30.7269  -11.1056   -7.4281 H   0  0  0  0  0
   29.1619  -10.4386   -6.8157 H   0  0  0  0  0
   29.0747   -9.9790   -5.1446 H   0  0  0  0  0
   29.7853   -8.3572   -4.8214 H   0  0  0  0  0
   30.9902   -9.1162   -3.0758 H   0  0  0  0  0
   31.4449  -10.6150   -3.9202 H   0  0  0  0  0
   27.8493  -10.4644   -1.8917 H   0  0  0  0  0
   28.0627   -9.3602   -3.2552 H   0  0  0  0  0
   29.6775   -8.0686   -2.1064 H   0  0  0  0  0
   29.8309   -9.3307   -0.8000 H   0  0  0  0  0
   29.0695   -6.2826   -0.8832 H   0  0  0  0  0
   29.6649   -7.3290    0.4657 H   0  0  0  0  0
   27.4105   -7.0180    1.5475 H   0  0  0  0  0
   27.0402   -5.8124    0.3054 H   0  0  0  0  0
   28.2992   -3.7888    2.9542 H   0  0  0  0  0
   26.8676   -4.8072    2.6196 H   0  0  0  0  0
   26.2935   -2.9405    1.3907 H   0  0  0  0  0
   27.2204   -3.8192    0.1582 H   0  0  0  0  0
   27.0237   -0.9512    0.0069 H   0  0  0  0  0
   28.3306   -0.2030    0.9838 H   0  0  0  0  0
   27.1410   -0.5959    3.0186 H   0  0  0  0  0
   25.9606   -1.6478    2.2078 H   0  0  0  0  0
   24.8030    1.5624    3.1532 H   0  0  0  0  0
   24.8496   -0.1965    3.5410 H   0  0  0  0  0
   23.1256    1.2469    1.5100 H   0  0  0  0  0
   22.6082    0.2628    2.8966 H   0  0  0  0  0
   22.1929   -1.9223    0.0353 H   0  0  0  0  0
   21.6885   -0.2235    0.2463 H   0  0  0  0  0
   20.2436   -1.9561    1.4183 H   0  0  0  0  0
   20.8860   -0.6492    2.4592 H   0  0  0  0  0
   20.2603   -2.0453    4.0233 H   0  0  0  0  0
   21.9398   -1.6616    4.5632 H   0  0  0  0  0
   21.1725   -3.5404    5.8483 H   0  0  0  0  0
   22.3541   -4.1439    4.6647 H   0  0  0  0  0
   19.3671   -5.0294    5.9996 H   0  0  0  0  0
   20.7737   -6.0652    5.6442 H   0  0  0  0  0
   18.3161   -6.0263    3.8694 H   0  0  0  0  0
   18.4426   -7.1001    5.2898 H   0  0  0  0  0
   19.7810   -8.9325    5.2230 H   0  0  0  0  0
   21.2038   -7.8502    5.2064 H   0  0  0  0  0
   20.5251  -10.0396    3.2127 H   0  0  0  0  0
   21.8958  -10.0021    4.3698 H   0  0  0  0  0
   23.9765   -9.1306    2.1334 H   0  0  0  0  0
   23.6001   -9.5901    3.8142 H   0  0  0  0  0
   24.5541   -7.6379    4.4346 H   0  0  0  0  0
   23.1333   -6.8288    3.7343 H   0  0  0  0  0
   23.3035   -5.7278    1.7455 H   0  0  0  0  0
   24.9703   -5.2925    1.2591 H   0  0  0  0  0
   25.2856   -4.8380    3.8310 H   0  0  0  0  0
   23.5075   -4.7109    3.8279 H   0  0  0  0  0
   24.5478   -2.6693    3.4085 H   0  0  0  0  0
  1  2  1  0  0  0
  2  3  1  0  0  0
  3  4  1  0  0  0
  4  5  1  0  0  0
  5  6  1  0  0  0
  6  7  1  0  0  0
  7  8  1  0  0  0
  8  9  1  0  0  0
  9 10  1  0  0  0
 10 11  1  0  0  0
 11 12  1  0  0  0
 12 13  1  0  0  0
 13 14  1  0  0  0
 14 15  1  0  0  0
 15 16  1  0  0  0
 16 17  1  0  0  0
 17 18  1  0  0  0
 18 19  1  0  0  0
 19 20  1  0  0  0
 20 21  1  0  0  0
 21 22  1  0  0  0
 22 23  1  0  0  0
 23 24  1  0  0  0
 24 25  1  0  0  0
 25 26  1  0  0  0
 26 27  1  0  0  0
 27 28  1  0  0  0
 28 29  1  0  0  0
 29 30  1  0  0  0
 30 31  1  0  0  0
 31 32  1  0  0  0
 32 33  1  0  0  0
 33 34  1  0  0  0
 34 35  1  0  0  0
 35 36  1  0  0  0
 36 37  1  0  0  0
 37 38  1  0  0  0
 38 39  1  0  0  0
 39 40  1  0  0  0
 40 41  1  0  0  0
 41 42  1  0  0  0
 42 43  1  0  0  0
 43 44  1  0  0  0
 44 45  1  0  0  0
 45 46  1  0  0  0
 46 47  1  0  0  0
 47 48  1  0  0  0
 48 49  1  0  0  0
 49 50  1  0  0  0
 50 51  1  0  0  0
 51 52  1  0  0  0
 52 53  1  0  0  0
 53 54  1  0  0  0
 54 55  1  0  0  0
 55 56  1  0  0  0
 56 57  1  0  0  0
 57 58  1  0  0  0
 58 59  1  0  0  0
 59 60  1  0  0  0
 60 61  1  0  0  0
 61 62  1  0  0  0
 62 63  1  0  0  0
 63 64  1  0  0  0
 64 65  1  0  0  0
 65 66  1  0  0  0
 66 67  1  0  0  0
 67 68  1  0  0  0
 68 69  1  0  0  0
 69 70  1  0  0  0
 70 71  1  0  0  0
 71 72  1  0  0  0
 72 73  1  0  0  0
 73 74  1  0  0  0
 74 75  1  0  0  0
 75 76  1  0  0  0
  1 77  1  0  0  0
  2 78  1  0  0  0
  2 79  1  0  0  0
  3 80  1  0  0  0
  3 81  1  0  0  0
  5 82  1  0  0  0
  5 83  1  0  0  0
  6 84  1  0  0  0
  6 85  1  0  0  0
  8 86  1  0  0  0
  8 87  1  0  0  0
  9 88  1  0  0  0
  9 89  1  0  0  0
 11 90  1  0  0  0
 11 91  1  0  0  0
 12 92  1  0  0  0
 12 93  1  0  0  0
 14 94  1  0  0  0
 14 95  1  0  0  0
 15 96  1  0  0  0
 15 97  1  0  0  0
 17 98  1  0  0  0
 17 99  1  0  0  0
 18100  1  0  0  0
 18101  1  0  0  0
 20102  1  0  0  0
 20103  1  0  0  0
 21104  1  0  0  0
 21105  1  0  0  0
 23106  1  0  0  0
 23107  1  0  0  0
 24108  1  0  0  0
 24109  1  0  0  0
 26110  1  0  0  0
 26111  1  0  0  0
 27112  1  0  0  0
 27113  1  0  0  0
 29114  1  0  0  0
 29115  1  0  0  0
 30116  1  0  0  0
 30117  1  0  0  0
 32118  1  0  0  0
 32119  1  0  0  0
 33120  1  0  0  0
 33121  1  0  0  0
 35122  1  0  0  0
 35123  1  0  0  0
 36124  1  0  0  0
 36125  1  0  0  0
 38126  1  0  0  0
 38127  1  0  0  0
 39128  1  0  0  0
 39129  1  0  0  0
 41130  1  0  0  0
 41131  1  0  0  0
 42132  1  0  0  0
 42133  1  0  0  0
 44134  1  0  0  0
 44135  1  0  0  0
 45136  1  0  0  0
 45137  1  0  0  0
 47138  1  0  0  0
 47139  1  0  0  0
 48140  1  0  0  0
 48141  1  0  0  0
 50142  1  0  0  0
 50143  1  0  0  0
 51144  1  0  0  0
 51145  1  0  0  0
 53146  1  0  0  0
 53147  1  0  0  0
 54148  1  0  0  0
 54149  1  0  0  0
 56150  1  0  0  0
 56151  1  0  0  0
 57152  1  0  0  0
 57153  1  0  0  0
 59154  1  0  0  0
 59155  1  0  0  0
 60156  1  0  0  0
 60157  1  0  0  0
 62158  1  0  0  0
 62159  1  0  0  0
 63160  1  0  0  0
 63161  1  0  0  0
 65162  1  0  0  0
 65163  1  0  0  0
 66164  1  0  0  0
 66165  1  0  0  0
 68166  1  0  0  0
 68167  1  0  0  0
 69168  1  0  0  0
 69169  1  0  0  0
 71170  1  0  0  0
 71171  1  0  0  0
 72172  1  0  0  0
 72173  1  0  0  0
 74174  1  0  0  0
 74175  1  0  0  0
 75176  1  0  0  0
 75177  1  0  0  0
 76178  1  0  0  0
M  END
$$$$
