### 
### Created by X-TOOL on Mon Sep 10 21:13:19 2018
### 

@<TRIPOS>MOLECULE
4oru_ligand
  178   177     1     0     0
SMALL
GAST_HUCK


@<TRIPOS>ATOM
      1 OAB        42.5380  -16.5990   -1.9110 O.3       1 PEU        -0.3927
      2 CAC        42.7840  -16.3530   -3.2940 C.3       1 PEU         0.0676
      3 CAD        44.0680  -15.5490   -3.4400 C.3       1 PEU         0.0708
      4 OAE        44.9430  -16.1910   -4.3650 O.3       1 PEU        -0.3752
      5 CAF        46.3070  -16.0190   -3.9890 C.3       1 PEU         0.0711
      6 CAG        47.0130  -17.3690   -3.9280 C.3       1 PEU         0.0711
      7 OAH        47.3520  -17.8010   -5.2440 O.3       1 PEU        -0.3752
      8 CAI        47.6720  -19.1880   -5.2580 C.3       1 PEU         0.0711
      9 CAJ        47.9450  -19.6680   -6.6760 C.3       1 PEU         0.0711
     10 OAK        47.0300  -20.7030   -7.0260 O.3       1 PEU        -0.3752
     11 CAL        45.7630  -20.1620   -7.3870 C.3       1 PEU         0.0711
     12 CAM        44.7640  -21.2560   -7.7290 C.3       1 PEU         0.0711
     13 OAN        44.1490  -20.9510   -8.9790 O.3       1 PEU        -0.3752
     14 CAO        44.5000  -21.9100   -9.9710 C.3       1 PEU         0.0711
     15 CAP        43.6550  -21.6950  -11.2200 C.3       1 PEU         0.0711
     16 OAQ        43.1030  -22.9420  -11.6360 O.3       1 PEU        -0.3752
     17 CAR        42.0230  -23.3590  -10.8030 C.3       1 PEU         0.0711
     18 CAS        40.7040  -22.7860  -11.3050 C.3       1 PEU         0.0711
     19 OAT        39.6480  -23.1920  -10.4350 O.3       1 PEU        -0.3752
     20 CAU        39.5160  -22.3500   -9.2910 C.3       1 PEU         0.0711
     21 CAV        38.2740  -21.4830   -9.4480 C.3       1 PEU         0.0711
     22 OAW        38.3530  -20.3350   -8.6030 O.3       1 PEU        -0.3752
     23 CAX        38.0450  -20.6070   -7.2380 C.3       1 PEU         0.0711
     24 CAY        38.4930  -19.4400   -6.3620 C.3       1 PEU         0.0711
     25 OAZ        37.8540  -18.2330   -6.7800 O.3       1 PEU        -0.3752
     26 CBA        38.0170  -17.1590   -5.8530 C.3       1 PEU         0.0711
     27 CBB        37.6690  -15.8430   -6.5400 C.3       1 PEU         0.0711
     28 OBC        37.2740  -14.8540   -5.5920 O.3       1 PEU        -0.3752
     29 CCG        37.4070  -13.5280   -6.1090 C.3       1 PEU         0.0711
     30 CCF        36.1810  -12.6910   -5.7590 C.3       1 PEU         0.0711
     31 OCE        35.1430  -12.9650   -6.6980 O.3       1 PEU        -0.3752
     32 CCD        34.6520  -11.7680   -7.2920 C.3       1 PEU         0.0711
     33 CCC        33.8190  -12.1050   -8.5220 C.3       1 PEU         0.0711
     34 OCB        33.9000  -11.0210   -9.4450 O.3       1 PEU        -0.3752
     35 CCA        32.7820  -10.9740  -10.3330 C.3       1 PEU         0.0711
     36 CBZ        31.4910  -10.8200   -9.5350 C.3       1 PEU         0.0711
     37 OBY        31.2360   -9.4530   -9.2030 O.3       1 PEU        -0.3752
     38 CBX        30.0830   -9.3020   -8.3690 C.3       1 PEU         0.0711
     39 CBW        30.1750  -10.2090   -7.1460 C.3       1 PEU         0.0711
     40 OBV        30.8660   -9.5820   -6.0630 O.3       1 PEU        -0.3752
     41 CBU        29.9900   -9.4200   -4.9500 C.3       1 PEU         0.0711
     42 CBT        30.6180   -9.9500   -3.6710 C.3       1 PEU         0.0711
     43 OBS        29.6370  -10.6690   -2.9230 O.3       1 PEU        -0.3752
     44 CBR        28.5740   -9.8510   -2.4270 C.3       1 PEU         0.0711
     45 CBQ        29.1680   -8.8100   -1.4910 C.3       1 PEU         0.0711
     46 OBP        28.1960   -8.1260   -0.7160 O.3       1 PEU        -0.3752
     47 CBO        28.7970   -6.9900   -0.1000 C.3       1 PEU         0.0711
     48 CBN        27.8460   -6.2910    0.8620 C.3       1 PEU         0.0711
     49 OBM        28.5810   -5.3090    1.5960 O.3       1 PEU        -0.3752
     50 CBL        27.7400   -4.3200    2.1840 C.3       1 PEU         0.0711
     51 CBK        27.2790   -3.3250    1.1280 C.3       1 PEU         0.0711
     52 OBJ        28.2110   -2.2520    1.0640 O.3       1 PEU        -0.3752
     53 CBI        27.5710   -0.9840    0.9490 C.3       1 PEU         0.0711
     54 CBH        26.5910   -0.7660    2.0930 C.3       1 PEU         0.0711
     55 OBG        25.7790    0.3680    1.8040 O.3       1 PEU        -0.3752
     56 CBF        24.7350    0.5500    2.7550 C.3       1 PEU         0.0711
     57 CBE        23.3620    0.3730    2.1170 C.3       1 PEU         0.0711
     58 OBD        23.3730   -0.7910    1.2950 O.3       1 PEU        -0.3752
     59 CCH        22.0900   -1.1040    0.7480 C.3       1 PEU         0.0711
     60 CCI        21.1410   -1.5240    1.8610 C.3       1 PEU         0.0711
     61 OCJ        21.7590   -2.4960    2.7000 O.3       1 PEU        -0.3752
     62 CCK        21.2990   -2.3750    4.0450 C.3       1 PEU         0.0711
     63 CCL        21.3640   -3.7050    4.7880 C.3       1 PEU         0.0711
     64 OCM        20.3800   -4.5900    4.2570 O.3       1 PEU        -0.3752
     65 CCN        19.9190   -5.5440    5.2130 C.3       1 PEU         0.0711
     66 CCO        19.0030   -6.5540    4.5310 C.3       1 PEU         0.0711
     67 OCP        19.7800   -7.4770    3.7640 O.3       1 PEU        -0.3752
     68 CCQ        20.4910   -8.3990    4.5910 C.3       1 PEU         0.0711
     69 CCR        21.2470   -9.4060    3.7280 C.3       1 PEU         0.0711
     70 OCS        22.0500   -8.7370    2.7550 O.3       1 PEU        -0.3752
     71 CCT        23.4440   -8.8400    3.0390 C.3       1 PEU         0.0711
     72 CCU        23.9710   -7.4940    3.5250 C.3       1 PEU         0.0711
     73 OCV        24.7990   -6.9160    2.5130 O.3       1 PEU        -0.3752
     74 CCW        24.3380   -5.6380    2.0770 C.3       1 PEU         0.0708
     75 CCX        24.4080   -4.6300    3.2190 C.3       1 PEU         0.0676
     76 OCY        24.5040   -3.3000    2.6860 O.3       1 PEU        -0.3927
     77 H          41.7369  -17.1008   -1.8174 H         1 PEU         0.2095
     78 H          41.9443  -15.7855   -3.7216 H         1 PEU         0.0580
     79 H          42.8876  -17.3107   -3.8251 H         1 PEU         0.0580
     80 H          44.5642  -15.4741   -2.4611 H         1 PEU         0.0583
     81 H          43.8266  -14.5405   -3.8069 H         1 PEU         0.0583
     82 H          46.3532  -15.5403   -2.9997 H         1 PEU         0.0583
     83 H          46.8098  -15.3797   -4.7296 H         1 PEU         0.0583
     84 H          46.3453  -18.1088   -3.4623 H         1 PEU         0.0583
     85 H          47.9301  -17.2739   -3.3281 H         1 PEU         0.0583
     86 H          46.8275  -19.7567   -4.8417 H         1 PEU         0.0583
     87 H          48.5674  -19.3573   -4.6419 H         1 PEU         0.0583
     88 H          48.9729  -20.0546   -6.7380 H         1 PEU         0.0583
     89 H          47.8270  -18.8263   -7.3743 H         1 PEU         0.0583
     90 H          45.8903  -19.5085   -8.2626 H         1 PEU         0.0583
     91 H          45.3728  -19.5733   -6.5437 H         1 PEU         0.0583
     92 H          43.9954  -21.3117   -6.9441 H         1 PEU         0.0583
     93 H          45.2854  -22.2219   -7.8009 H         1 PEU         0.0583
     94 H          44.3214  -22.9223   -9.5794 H         1 PEU         0.0583
     95 H          45.5640  -21.7981  -10.2265 H         1 PEU         0.0583
     96 H          44.2847  -21.2856  -12.0237 H         1 PEU         0.0583
     97 H          42.8413  -20.9894  -10.9962 H         1 PEU         0.0583
     98 H          42.2021  -23.0072   -9.7763 H         1 PEU         0.0583
     99 H          41.9652  -24.4575  -10.8094 H         1 PEU         0.0583
    100 H          40.5056  -23.1578  -12.3210 H         1 PEU         0.0583
    101 H          40.7638  -21.6878  -11.3216 H         1 PEU         0.0583
    102 H          40.4044  -21.7074   -9.2026 H         1 PEU         0.0583
    103 H          39.4202  -22.9696   -8.3872 H         1 PEU         0.0583
    104 H          37.3854  -22.0716   -9.1761 H         1 PEU         0.0583
    105 H          38.1911  -21.1562  -10.4950 H         1 PEU         0.0583
    106 H          38.5671  -21.5220   -6.9216 H         1 PEU         0.0583
    107 H          36.9595  -20.7483   -7.1301 H         1 PEU         0.0583
    108 H          39.5833  -19.3211   -6.4456 H         1 PEU         0.0583
    109 H          38.2260  -19.6483   -5.3154 H         1 PEU         0.0583
    110 H          39.0605  -17.1278   -5.5065 H         1 PEU         0.0583
    111 H          37.3493  -17.3119   -4.9923 H         1 PEU         0.0583
    112 H          36.8423  -16.0142   -7.2451 H         1 PEU         0.0583
    113 H          38.5506  -15.4812   -7.0894 H         1 PEU         0.0583
    114 H          37.5124  -13.5752   -7.2029 H         1 PEU         0.0583
    115 H          38.3017  -13.0583   -5.6743 H         1 PEU         0.0583
    116 H          36.4409  -11.6229   -5.7991 H         1 PEU         0.0583
    117 H          35.8376  -12.9470   -4.7458 H         1 PEU         0.0583
    118 H          35.5000  -11.1331   -7.5883 H         1 PEU         0.0583
    119 H          34.0271  -11.2292   -6.5645 H         1 PEU         0.0583
    120 H          32.7709  -12.2613   -8.2269 H         1 PEU         0.0583
    121 H          34.2079  -13.0202   -8.9921 H         1 PEU         0.0583
    122 H          32.7408  -11.9052  -10.9171 H         1 PEU         0.0583
    123 H          32.8935  -10.1181  -11.0148 H         1 PEU         0.0583
    124 H          31.5741  -11.4032   -8.6060 H         1 PEU         0.0583
    125 H          30.6527  -11.2037  -10.1351 H         1 PEU         0.0583
    126 H          29.1840   -9.5649   -8.9458 H         1 PEU         0.0583
    127 H          30.0128   -8.2556   -8.0371 H         1 PEU         0.0583
    128 H          30.7120  -11.1276   -7.4251 H         1 PEU         0.0583
    129 H          29.1572  -10.4649   -6.8167 H         1 PEU         0.0583
    130 H          29.0571   -9.9691   -5.1453 H         1 PEU         0.0583
    131 H          29.7662   -8.3505   -4.8228 H         1 PEU         0.0583
    132 H          30.9931   -9.1083   -3.0703 H         1 PEU         0.0583
    133 H          31.4522  -10.6214   -3.9227 H         1 PEU         0.0583
    134 H          27.8504  -10.4731   -1.8798 H         1 PEU         0.0583
    135 H          28.0674   -9.3509   -3.2656 H         1 PEU         0.0583
    136 H          29.7153   -8.0709   -2.0945 H         1 PEU         0.0583
    137 H          29.8664   -9.3146   -0.8072 H         1 PEU         0.0583
    138 H          29.0958   -6.2781   -0.8835 H         1 PEU         0.0583
    139 H          29.6873   -7.3177    0.4567 H         1 PEU         0.0583
    140 H          27.4144   -7.0267    1.5566 H         1 PEU         0.0583
    141 H          27.0386   -5.8033    0.2962 H         1 PEU         0.0583
    142 H          28.2994   -3.7861    2.9663 H         1 PEU         0.0583
    143 H          26.8615   -4.8090    2.6302 H         1 PEU         0.0583
    144 H          26.2861   -2.9354    1.3969 H         1 PEU         0.0583
    145 H          27.2242   -3.8246    0.1495 H         1 PEU         0.0583
    146 H          27.0260   -0.9406   -0.0055 H         1 PEU         0.0583
    147 H          28.3338   -0.1918    0.9721 H         1 PEU         0.0583
    148 H          27.1472   -0.5921    3.0259 H         1 PEU         0.0583
    149 H          25.9539   -1.6555    2.2063 H         1 PEU         0.0583
    150 H          24.8062    1.5644    3.1745 H         1 PEU         0.0583
    151 H          24.8527   -0.1892    3.5610 H         1 PEU         0.0583
    152 H          23.1253    1.2545    1.5031 H         1 PEU         0.0583
    153 H          22.6023    0.2599    2.9045 H         1 PEU         0.0583
    154 H          22.1924   -1.9274    0.0259 H         1 PEU         0.0583
    155 H          21.6847   -0.2175    0.2383 H         1 PEU         0.0583
    156 H          20.2305   -1.9539    1.4181 H         1 PEU         0.0583
    157 H          20.8751   -0.6424    2.4627 H         1 PEU         0.0583
    158 H          20.2567   -2.0237    4.0345 H         1 PEU         0.0583
    159 H          21.9277   -1.6420    4.5717 H         1 PEU         0.0583
    160 H          21.1692   -3.5383    5.8577 H         1 PEU         0.0583
    161 H          22.3629   -4.1480    4.6618 H         1 PEU         0.0583
    162 H          19.3635   -5.0255    6.0083 H         1 PEU         0.0583
    163 H          20.7809   -6.0692    5.6503 H         1 PEU         0.0583
    164 H          18.3063   -6.0231    3.8656 H         1 PEU         0.0583
    165 H          18.4336   -7.1037    5.2949 H         1 PEU         0.0583
    166 H          19.7777   -8.9350    5.2343 H         1 PEU         0.0583
    167 H          21.2073   -7.8475    5.2177 H         1 PEU         0.0583
    168 H          20.5233  -10.0554    3.2136 H         1 PEU         0.0583
    169 H          21.8957  -10.0179    4.3720 H         1 PEU         0.0583
    170 H          23.9822   -9.1352    2.1262 H         1 PEU         0.0583
    171 H          23.6029   -9.5983    3.8199 H         1 PEU         0.0583
    172 H          24.5602   -7.6399    4.4424 H         1 PEU         0.0583
    173 H          23.1253   -6.8227    3.7351 H         1 PEU         0.0583
    174 H          23.2964   -5.7258    1.7344 H         1 PEU         0.0583
    175 H          24.9690   -5.2890    1.2463 H         1 PEU         0.0583
    176 H          25.2923   -4.8402    3.8385 H         1 PEU         0.0580
    177 H          23.5006   -4.7122    3.8353 H         1 PEU         0.0580
    178 H          23.7399   -3.1183    2.1514 H         1 PEU         0.2095
@<TRIPOS>BOND
     1    1    2 1  
     2    2    3 1  
     3    3    4 1  
     4    4    5 1  
     5    5    6 1  
     6    6    7 1  
     7    7    8 1  
     8    8    9 1  
     9    9   10 1  
    10   10   11 1  
    11   11   12 1  
    12   12   13 1  
    13   13   14 1  
    14   14   15 1  
    15   15   16 1  
    16   16   17 1  
    17   17   18 1  
    18   18   19 1  
    19   19   20 1  
    20   20   21 1  
    21   21   22 1  
    22   22   23 1  
    23   23   24 1  
    24   24   25 1  
    25   25   26 1  
    26   26   27 1  
    27   27   28 1  
    28   28   29 1  
    29   29   30 1  
    30   30   31 1  
    31   31   32 1  
    32   32   33 1  
    33   33   34 1  
    34   34   35 1  
    35   35   36 1  
    36   36   37 1  
    37   37   38 1  
    38   38   39 1  
    39   39   40 1  
    40   40   41 1  
    41   41   42 1  
    42   42   43 1  
    43   43   44 1  
    44   44   45 1  
    45   45   46 1  
    46   46   47 1  
    47   47   48 1  
    48   48   49 1  
    49   49   50 1  
    50   50   51 1  
    51   51   52 1  
    52   52   53 1  
    53   53   54 1  
    54   54   55 1  
    55   55   56 1  
    56   56   57 1  
    57   57   58 1  
    58   58   59 1  
    59   59   60 1  
    60   60   61 1  
    61   61   62 1  
    62   62   63 1  
    63   63   64 1  
    64   64   65 1  
    65   65   66 1  
    66   66   67 1  
    67   67   68 1  
    68   68   69 1  
    69   69   70 1  
    70   70   71 1  
    71   71   72 1  
    72   72   73 1  
    73   73   74 1  
    74   74   75 1  
    75   75   76 1  
    76    1   77 1  
    77    2   78 1  
    78    2   79 1  
    79    3   80 1  
    80    3   81 1  
    81    5   82 1  
    82    5   83 1  
    83    6   84 1  
    84    6   85 1  
    85    8   86 1  
    86    8   87 1  
    87    9   88 1  
    88    9   89 1  
    89   11   90 1  
    90   11   91 1  
    91   12   92 1  
    92   12   93 1  
    93   14   94 1  
    94   14   95 1  
    95   15   96 1  
    96   15   97 1  
    97   17   98 1  
    98   17   99 1  
    99   18  100 1  
   100   18  101 1  
   101   20  102 1  
   102   20  103 1  
   103   21  104 1  
   104   21  105 1  
   105   23  106 1  
   106   23  107 1  
   107   24  108 1  
   108   24  109 1  
   109   26  110 1  
   110   26  111 1  
   111   27  112 1  
   112   27  113 1  
   113   29  114 1  
   114   29  115 1  
   115   30  116 1  
   116   30  117 1  
   117   32  118 1  
   118   32  119 1  
   119   33  120 1  
   120   33  121 1  
   121   35  122 1  
   122   35  123 1  
   123   36  124 1  
   124   36  125 1  
   125   38  126 1  
   126   38  127 1  
   127   39  128 1  
   128   39  129 1  
   129   41  130 1  
   130   41  131 1  
   131   42  132 1  
   132   42  133 1  
   133   44  134 1  
   134   44  135 1  
   135   45  136 1  
   136   45  137 1  
   137   47  138 1  
   138   47  139 1  
   139   48  140 1  
   140   48  141 1  
   141   50  142 1  
   142   50  143 1  
   143   51  144 1  
   144   51  145 1  
   145   53  146 1  
   146   53  147 1  
   147   54  148 1  
   148   54  149 1  
   149   56  150 1  
   150   56  151 1  
   151   57  152 1  
   152   57  153 1  
   153   59  154 1  
   154   59  155 1  
   155   60  156 1  
   156   60  157 1  
   157   62  158 1  
   158   62  159 1  
   159   63  160 1  
   160   63  161 1  
   161   65  162 1  
   162   65  163 1  
   163   66  164 1  
   164   66  165 1  
   165   68  166 1  
   166   68  167 1  
   167   69  168 1  
   168   69  169 1  
   169   71  170 1  
   170   71  171 1  
   171   72  172 1  
   172   72  173 1  
   173   74  174 1  
   174   74  175 1  
   175   75  176 1  
   176   75  177 1  
   177   76  178 1  
@<TRIPOS>SUBSTRUCTURE
     1 PEU         1

