3si4_ligand
  -I-interpret- 

 55 57  0  0  0  0  0  0  0  0999 V2000
   16.6960  -15.5690   23.2920 N   0  3  0  0  0
   17.9550  -14.8470   23.2990 C   0  0  0  0  0
   17.7070  -13.4920   22.6930 C   0  0  0  0  0
   16.7810  -12.7970   23.0920 O   0  0  0  0  0
   18.4400  -14.7650   24.7430 C   0  0  0  0  0
   19.8390  -14.2060   24.8030 C   0  0  0  0  0
   20.9130  -14.8860   24.2310 C   0  0  0  0  0
   20.0440  -13.0020   25.4600 C   0  0  0  0  0
   22.1940  -14.3480   24.3120 C   0  0  0  0  0
   21.3220  -12.4660   25.5340 C   0  0  0  0  0
   22.3970  -13.1350   24.9610 C   0  0  0  0  0
   18.5140  -13.0720   21.7160 N   0  0  0  0  0
   18.2630  -11.7660   21.1060 C   0  0  0  0  0
   16.8660  -11.7520   20.5410 C   0  0  0  0  0
   16.4590  -12.7100   19.8990 O   0  0  0  0  0
   19.2930  -11.6620   19.9880 C   0  0  0  0  0
   20.3510  -12.6940   20.3150 C   0  0  0  0  0
   19.6530  -13.7790   21.1240 C   0  0  0  0  0
   16.0900  -10.6930   20.7800 N   0  0  0  0  0
   14.7210  -10.5330   20.2950 C   0  0  0  0  0
   13.7290  -10.4070   21.4310 C   0  0  0  0  0
   13.5170   -9.1730   22.0410 C   0  0  0  0  0
   12.6090   -9.0770   23.0860 C   0  0  0  0  0
   11.9200  -10.2160   23.4870 C   0  0  0  0  0
   12.1690  -11.4190   22.8380 C   0  0  0  0  0
   13.0570  -11.4940   21.8380 N   0  0  0  0  0
   13.2920  -12.7830   21.1790 C   0  0  0  0  0
   16.3500  -15.6374   22.3349 H   0  0  0  0  0
   16.8402  -16.5052   23.6704 H   0  0  0  0  0
   16.0161  -15.0700   23.8657 H   0  0  0  0  0
   18.7300  -15.3424   22.7141 H   0  0  0  0  0
   18.4417  -15.7670   25.1721 H   0  0  0  0  0
   17.7734  -14.1085   25.3023 H   0  0  0  0  0
   20.7501  -15.8360   23.7220 H   0  0  0  0  0
   19.2042  -12.4784   25.9167 H   0  0  0  0  0
   23.0371  -14.8768   23.8673 H   0  0  0  0  0
   21.4833  -11.5162   26.0438 H   0  0  0  0  0
   23.3986  -12.7092   25.0203 H   0  0  0  0  0
   18.3438  -10.9372   21.8094 H   0  0  0  0  0
   19.7177  -10.6599   19.9284 H   0  0  0  0  0
   18.8433  -11.8466   19.0124 H   0  0  0  0  0
   21.1709  -12.2500   20.8795 H   0  0  0  0  0
   20.7925  -13.1045   19.4069 H   0  0  0  0  0
   19.3497  -14.6299   20.5140 H   0  0  0  0  0
   20.3038  -14.2306   21.8727 H   0  0  0  0  0
   16.4820   -9.9386   21.3436 H   0  0  0  0  0
   14.4606  -11.4158   19.7111 H   0  0  0  0  0
   14.6746   -9.6216   19.6989 H   0  0  0  0  0
   14.0593   -8.2908   21.7007 H   0  0  0  0  0
   12.4386   -8.1230   23.5849 H   0  0  0  0  0
   11.1947  -10.1659   24.2991 H   0  0  0  0  0
   11.6331  -12.3162   23.1476 H   0  0  0  0  0
   13.0468  -12.6984   20.1203 H   0  0  0  0  0
   14.3403  -13.0603   21.2895 H   0  0  0  0  0
   12.6629  -13.5449   21.6392 H   0  0  0  0  0
  1  2  1  0  0  0
  2  3  1  0  0  0
  2  5  1  0  0  0
  3  4  2  0  0  0
  3 12  1  0  0  0
  5  6  1  0  0  0
  6  7  4  0  0  0
  6  8  4  0  0  0
  7  9  4  0  0  0
  8 10  4  0  0  0
  9 11  4  0  0  0
 10 11  4  0  0  0
 12 13  1  0  0  0
 12 18  1  0  0  0
 13 14  1  0  0  0
 13 16  1  0  0  0
 14 15  2  0  0  0
 14 19  1  0  0  0
 16 17  1  0  0  0
 17 18  1  0  0  0
 19 20  1  0  0  0
 20 21  1  0  0  0
 21 22  4  0  0  0
 21 26  4  0  0  0
 22 23  4  0  0  0
 23 24  4  0  0  0
 24 25  4  0  0  0
 25 26  4  0  0  0
 26 27  1  0  0  0
  1 28  1  0  0  0
  1 29  1  0  0  0
  1 30  1  0  0  0
  2 31  1  0  0  0
  5 32  1  0  0  0
  5 33  1  0  0  0
  7 34  1  0  0  0
  8 35  1  0  0  0
  9 36  1  0  0  0
 10 37  1  0  0  0
 11 38  1  0  0  0
 13 39  1  0  0  0
 16 40  1  0  0  0
 16 41  1  0  0  0
 17 42  1  0  0  0
 17 43  1  0  0  0
 18 44  1  0  0  0
 18 45  1  0  0  0
 19 46  1  0  0  0
 20 47  1  0  0  0
 20 48  1  0  0  0
 22 49  1  0  0  0
 23 50  1  0  0  0
 24 51  1  0  0  0
 25 52  1  0  0  0
 27 53  1  0  0  0
 27 54  1  0  0  0
 27 55  1  0  0  0
M  END
$$$$
