5t68_ligand
  -I-interpret- 

 39 43  0  0  0  0  0  0  0  0999 V2000
   25.0980   -5.1330   -7.5390 C   0  0  0  0  0
   24.7350   -3.8110   -7.6740 C   0  0  0  0  0
   23.9830    2.6060  -10.7340 C   0  0  0  0  0
   26.5260   -3.3190   -9.1970 C   0  0  0  0  0
   24.8300    3.2550  -11.5990 C   0  0  0  0  0
   26.2090   -5.5400   -8.2630 C   0  0  0  0  0
   24.6590    1.4200  -10.3490 C   0  0  0  0  0
   26.8940   -4.6390   -9.0520 C   0  0  0  0  0
   25.4040   -2.9220   -8.4890 C   0  0  0  0  0
   25.8760    1.4200  -10.9960 C   0  0  0  0  0
   26.8960   -6.7690   -8.4320 C   0  0  0  0  0
   26.7720    0.3820  -10.8480 C   0  0  0  0  0
   25.1900   -0.5750   -9.4090 C   0  0  0  0  0
   29.3050   -1.5580  -12.8120 C   0  0  0  0  0
   27.9720   -2.1390  -12.4500 C   0  0  0  0  0
   28.5800   -1.0590  -11.5970 C   0  0  0  0  0
   26.5500   -8.0600   -7.8150 C   0  0  0  0  0
   24.2990    0.4200   -9.5190 N   0  0  0  0  0
   27.9410   -6.6590   -9.2610 N   0  0  0  0  0
   26.3680   -0.6060  -10.0390 N   0  0  0  0  0
   27.9200   -5.3570   -9.6020 N   0  0  0  0  0
   24.8750   -1.6210   -8.5250 N   0  0  0  0  0
   28.0150    0.3000  -11.4960 N   0  0  0  0  0
   25.9790    2.5410  -11.7620 O   0  0  0  0  0
   24.5437   -5.8201   -6.8996 H   0  0  0  0  0
   23.8762   -3.4495   -7.1085 H   0  0  0  0  0
   22.9954    2.9346  -10.4103 H   0  0  0  0  0
   27.0840   -2.6294   -9.8304 H   0  0  0  0  0
   24.6137    4.2060  -12.0858 H   0  0  0  0  0
   29.8047   -1.1476  -13.6895 H   0  0  0  0  0
   30.3016   -1.9083  -13.0806 H   0  0  0  0  0
   27.5143   -3.1202  -12.3242 H   0  0  0  0  0
   27.0196   -2.3628  -12.9305 H   0  0  0  0  0
   28.8255   -0.9546  -10.5401 H   0  0  0  0  0
   26.5837   -7.9633   -6.7298 H   0  0  0  0  0
   25.5462   -8.3515   -8.1240 H   0  0  0  0  0
   27.2648   -8.8178   -8.1359 H   0  0  0  0  0
   24.1712   -1.4081   -7.8180 H   0  0  0  0  0
   28.4925    1.1203  -11.8696 H   0  0  0  0  0
  2  1  4  0  0  0
  1  6  4  0  0  0
  9  2  4  0  0  0
  5  3  4  0  0  0
  7  3  4  0  0  0
  4  8  4  0  0  0
  9  4  4  0  0  0
 24  5  4  0  0  0
  8  6  4  0  0  0
  6 11  4  0  0  0
 10  7  4  0  0  0
  7 18  4  0  0  0
  8 21  4  0  0  0
 22  9  1  0  0  0
 12 10  4  0  0  0
 10 24  4  0  0  0
 11 17  1  0  0  0
 11 19  4  0  0  0
 12 20  4  0  0  0
 23 12  1  0  0  0
 13 18  4  0  0  0
 20 13  4  0  0  0
 13 22  1  0  0  0
 15 14  1  0  0  0
 16 14  1  0  0  0
 16 15  1  0  0  0
 16 23  1  0  0  0
 19 21  4  0  0  0
  1 25  1  0  0  0
  2 26  1  0  0  0
  3 27  1  0  0  0
  4 28  1  0  0  0
  5 29  1  0  0  0
 14 30  1  0  0  0
 14 31  1  0  0  0
 15 32  1  0  0  0
 15 33  1  0  0  0
 16 34  1  0  0  0
 17 35  1  0  0  0
 17 36  1  0  0  0
 17 37  1  0  0  0
 22 38  1  0  0  0
 23 39  1  0  0  0
M  END
$$$$
