5u6d_ligand
  -I-interpret- 

 64 67  0  0  0  0  0  0  0  0999 V2000
  -11.7050  -27.9630   20.8830 C   0  0  0  0  0
  -17.8920  -23.4030   26.9230 C   0  0  0  0  0
  -16.2210  -25.0820   26.7370 C   0  0  0  0  0
  -17.9810  -23.3330   25.5460 C   0  0  0  0  0
  -16.3190  -25.0070   25.3610 C   0  0  0  0  0
  -11.5240  -27.0890   21.9370 C   0  0  0  0  0
  -12.6870  -27.7110   19.9530 C   0  0  0  0  0
  -17.8210  -23.8120   29.9270 C   0  0  0  0  0
  -15.8660  -24.8120   29.6930 C   0  0  0  0  0
  -17.0130  -24.2770   27.5260 C   0  0  0  0  0
  -16.9160  -24.3010   28.9580 C   0  0  0  0  0
  -17.1920  -24.1320   24.7450 C   0  0  0  0  0
  -12.3070  -25.9640   22.0780 C   0  0  0  0  0
  -13.2980  -25.7070   21.1450 C   0  0  0  0  0
  -13.4740  -26.5870   20.0900 C   0  0  0  0  0
  -15.4120  -23.9610   33.2650 C   0  0  0  0  0
  -15.9760  -23.5370   22.6680 C   0  0  0  0  0
  -16.4140  -25.5470   21.5490 C   0  0  0  0  0
  -17.2880  -24.0470   23.2390 C   0  0  0  0  0
  -17.5180  -25.4070   22.5740 C   0  0  0  0  0
  -12.0050  -25.0990   23.2690 C   0  0  0  0  0
  -19.1110  -26.5510   20.9960 C   0  0  0  0  0
  -19.9010  -25.5080   23.0320 C   0  0  0  0  0
  -14.1780  -24.5060   21.2400 C   0  0  0  0  0
  -15.3880  -24.9750   32.1500 C   0  0  0  0  0
  -17.3790  -24.0020   31.1720 N   0  0  0  0  0
  -16.1910  -24.6040   31.0010 N   0  0  0  0  0
  -15.3230  -24.7530   22.1440 N   0  3  0  0  0
  -14.7130  -24.4110   34.3550 N   0  0  0  0  0
  -18.8750  -25.4410   21.9560 N   0  3  0  0  0
  -15.9760  -22.8720   33.2210 O   0  0  0  0  0
  -14.4300  -26.3880   19.1580 F   0  0  0  0  0
  -11.0739  -28.8467   20.7886 H   0  0  0  0  0
  -18.5227  -22.7612   27.5382 H   0  0  0  0  0
  -15.5185  -25.7767   27.1974 H   0  0  0  0  0
  -18.6836  -22.6376   25.0868 H   0  0  0  0  0
  -15.6924  -25.6538   24.7469 H   0  0  0  0  0
  -10.7458  -27.2934   22.6724 H   0  0  0  0  0
  -12.8413  -28.3927   19.1166 H   0  0  0  0  0
  -18.7707  -23.3346   29.6855 H   0  0  0  0  0
  -14.9626  -25.2847   29.3075 H   0  0  0  0  0
  -15.3675  -23.0291   23.4163 H   0  0  0  0  0
  -16.1251  -22.7812   21.8969 H   0  0  0  0  0
  -16.7047  -25.1980   20.5581 H   0  0  0  0  0
  -16.1344  -26.5837   21.3616 H   0  0  0  0  0
  -18.1312  -23.3865   23.0369 H   0  0  0  0  0
  -17.4859  -26.2368   23.2800 H   0  0  0  0  0
  -12.1396  -25.6796   24.1816 H   0  0  0  0  0
  -10.9750  -24.7473   23.2092 H   0  0  0  0  0
  -12.6821  -24.2449   23.2771 H   0  0  0  0  0
  -18.3990  -26.4764   20.1741 H   0  0  0  0  0
  -18.9800  -27.5051   21.5064 H   0  0  0  0  0
  -20.1265  -26.4826   20.6060 H   0  0  0  0  0
  -19.7456  -26.4094   23.6248 H   0  0  0  0  0
  -19.8118  -24.6305   23.6724 H   0  0  0  0  0
  -20.8944  -25.5330   22.5840 H   0  0  0  0  0
  -14.5622  -24.2762   20.2462 H   0  0  0  0  0
  -13.5933  -23.6763   21.6373 H   0  0  0  0  0
  -15.7994  -25.9031   32.5469 H   0  0  0  0  0
  -14.3556  -25.0591   31.8105 H   0  0  0  0  0
  -14.8592  -25.2667   22.8933 H   0  0  0  0  0
  -14.6408  -23.8298   35.1901 H   0  0  0  0  0
  -14.2651  -25.3271   34.3310 H   0  0  0  0  0
  -18.9438  -24.5835   21.4079 H   0  0  0  0  0
  6  1  4  0  0  0
  7  1  4  0  0  0
  2  4  4  0  0  0
 10  2  4  0  0  0
  3  5  4  0  0  0
 10  3  4  0  0  0
  4 12  4  0  0  0
  5 12  4  0  0  0
 13  6  4  0  0  0
 15  7  4  0  0  0
 11  8  4  0  0  0
  8 26  4  0  0  0
  9 11  4  0  0  0
 27  9  4  0  0  0
 11 10  1  0  0  0
 12 19  1  0  0  0
 14 13  4  0  0  0
 13 21  1  0  0  0
 14 15  4  0  0  0
 24 14  1  0  0  0
 15 32  1  0  0  0
 25 16  1  0  0  0
 16 29  1  0  0  0
 16 31  2  0  0  0
 19 17  1  0  0  0
 17 28  1  0  0  0
 20 18  1  0  0  0
 18 28  1  0  0  0
 19 20  1  0  0  0
 20 30  1  0  0  0
 30 22  1  0  0  0
 30 23  1  0  0  0
 28 24  1  0  0  0
 25 27  1  0  0  0
 26 27  4  0  0  0
  1 33  1  0  0  0
  2 34  1  0  0  0
  3 35  1  0  0  0
  4 36  1  0  0  0
  5 37  1  0  0  0
  6 38  1  0  0  0
  7 39  1  0  0  0
  8 40  1  0  0  0
  9 41  1  0  0  0
 17 42  1  0  0  0
 17 43  1  0  0  0
 18 44  1  0  0  0
 18 45  1  0  0  0
 19 46  1  0  0  0
 20 47  1  0  0  0
 21 48  1  0  0  0
 21 49  1  0  0  0
 21 50  1  0  0  0
 22 51  1  0  0  0
 22 52  1  0  0  0
 22 53  1  0  0  0
 23 54  1  0  0  0
 23 55  1  0  0  0
 23 56  1  0  0  0
 24 57  1  0  0  0
 24 58  1  0  0  0
 25 59  1  0  0  0
 25 60  1  0  0  0
 28 61  1  0  0  0
 29 62  1  0  0  0
 29 63  1  0  0  0
 30 64  1  0  0  0
M  END
$$$$
