### 
### Created by X-TOOL on Mon Sep 10 21:12:53 2018
### 

@<TRIPOS>MOLECULE
1yid_ligand
   43    45     1     0     0
SMALL
GAST_HUCK


@<TRIPOS>ATOM
      1 PG         66.8050  -15.6970    1.5090 P.3       1 ATP         0.1879
      2 O1G        66.2150  -14.7100    2.6450 O.co2     1 ATP        -0.6091
      3 O2G        66.3690  -17.2300    1.9140 O.co2     1 ATP        -0.6091
      4 O3G        66.5840  -15.3470    0.1130 O.co2     1 ATP        -0.6091
      5 PB         69.8560  -14.8130    1.3460 P.3       1 ATP         0.3553
      6 O1B        69.5730  -13.5620    0.5700 O.co2     1 ATP        -0.5652
      7 O2B        70.7840  -15.7150    0.5220 O.co2     1 ATP        -0.5652
      8 O3B        68.4340  -15.8260    1.8640 O.3       1 ATP        -0.1546
      9 PA         70.2980  -13.4380    3.9020 P.3       1 ATP         0.3266
     10 O1A        70.0180  -12.1560    3.2240 O.co2     1 ATP        -0.5692
     11 O2A        69.2190  -13.9360    4.8040 O.co2     1 ATP        -0.5692
     12 O3A        70.7480  -14.4820    2.7110 O.3       1 ATP        -0.1171
     13 O5         71.5980  -13.1150    4.8080 O.3       1 ATP        -0.2441
     14 C5         72.1110  -14.1630    5.6420 C.3       1 ATP         0.1131
     15 C4         73.5930  -14.2340    5.8240 C.3       1 ATP         0.1189
     16 O4         74.2510  -15.1460    4.8760 O.3       1 ATP        -0.3364
     17 C3         74.4690  -12.9740    5.7400 C.3       1 ATP         0.1149
     18 O3         75.5890  -13.1340    6.6340 O.3       1 ATP        -0.3864
     19 C2         74.8460  -12.9530    4.2700 C.3       1 ATP         0.1385
     20 O2         75.9750  -12.1770    3.9200 O.3       1 ATP        -0.3836
     21 C1         75.0780  -14.4000    3.9580 C.3       1 ATP         0.2010
     22 N9         74.8860  -14.8310    2.5330 N.pl3     1 ATP        -0.1919
     23 C8         73.7680  -15.2780    1.8910 C.2       1 ATP         0.1123
     24 N7         73.9420  -15.5880    0.6210 N.2       1 ATP        -0.2958
     25 C5         75.2810  -15.3130    0.3840 C.ar      1 ATP         0.1045
     26 C6         76.0980  -15.4370   -0.7830 C.ar      1 ATP         0.1298
     27 N6         75.6330  -15.8620   -1.9750 N.pl3     1 ATP        -0.3152
     28 N1         77.4380  -15.0850   -0.6820 N.ar      1 ATP        -0.2698
     29 C2         77.9070  -14.6460    0.5070 C.ar      1 ATP         0.0533
     30 N3         77.2350  -14.4940    1.6810 N.ar      1 ATP        -0.2714
     31 C4         75.9050  -14.8490    1.5540 C.ar      1 ATP         0.1613
     32 H1         71.7858  -15.1197    5.2073 H         1 ATP         0.0648
     33 H2         71.6617  -14.0414    6.6386 H         1 ATP         0.0648
     34 H3         73.7267  -14.6392    6.8378 H         1 ATP         0.0651
     35 H4         73.9101  -12.0663    6.0117 H         1 ATP         0.0648
     36 H5         75.2703  -13.2491    7.5216 H         1 ATP         0.2100
     37 H6         73.9925  -12.5737    3.6889 H         1 ATP         0.0676
     38 H7         76.1194  -12.2348    2.9828 H         1 ATP         0.2101
     39 H8         76.1297  -14.6160    4.1971 H         1 ATP         0.0996
     40 H9         72.8045  -15.3717    2.3898 H         1 ATP         0.1349
     41 H10        76.2701  -15.9310   -2.7814 H         1 ATP         0.1820
     42 H11        74.6407  -16.1177   -2.0792 H         1 ATP         0.1820
     43 H12        78.9575  -14.3796    0.5287 H         1 ATP         0.0996
@<TRIPOS>BOND
     1    1    2 ar 
     2    1    3 ar 
     3    1    4 ar 
     4    8    1 1  
     5    5    6 ar 
     6    5    7 ar 
     7    5    8 1  
     8   12    5 1  
     9    9   10 ar 
    10    9   11 ar 
    11    9   12 1  
    12    9   13 1  
    13   13   14 1  
    14   14   15 1  
    15   15   16 1  
    16   15   17 1  
    17   16   21 1  
    18   17   18 1  
    19   17   19 1  
    20   19   20 1  
    21   19   21 1  
    22   21   22 1  
    23   22   23 1  
    24   22   31 1  
    25   23   24 2  
    26   24   25 1  
    27   25   26 ar 
    28   25   31 ar 
    29   26   27 1  
    30   26   28 ar 
    31   28   29 ar 
    32   29   30 ar 
    33   30   31 ar 
    34   14   32 1  
    35   14   33 1  
    36   15   34 1  
    37   17   35 1  
    38   18   36 1  
    39   19   37 1  
    40   20   38 1  
    41   21   39 1  
    42   23   40 1  
    43   27   41 1  
    44   27   42 1  
    45   29   43 1  
@<TRIPOS>SUBSTRUCTURE
     1 ATP         1

