3ms7_ligand
  -I-interpret- 

 42 43  0  0  0  0  0  0  0  0999 V2000
   19.2880   15.0630   56.0290 C   0  0  0  0  0
   18.8250   13.7930   55.4700 N   0  0  0  0  0
   18.1290   12.8390   57.8680 S   0  0  0  0  0
   15.8410    8.4530   52.4250 Cl  0  0  0  0  0
   20.7150   15.4200   55.5570 C   0  0  0  0  0
   17.8770   11.6780   55.5420 N   0  0  0  0  0
   21.7140   14.5490   56.1200 O   0  0  0  0  0
   21.0330   16.8970   55.8930 C   0  0  0  0  0
   17.9680   11.5900   54.3030 N   0  0  0  0  0
   16.2430   17.4800   55.2520 O   0  0  0  0  0
   19.9380   17.8380   55.3710 C   0  0  0  0  0
   20.1350   19.1730   55.8480 O   0  0  0  0  0
   18.5630   17.3680   55.8280 C   0  0  0  0  0
   18.3760   16.0000   55.4540 O   0  0  0  0  0
   17.4710   18.2090   55.1750 C   0  0  0  0  0
   22.2920   17.3170   55.3480 O   0  0  0  0  0
   18.2840   12.7840   56.1760 C   0  0  0  0  0
   17.5810   10.5640   53.6870 C   0  0  0  0  0
   17.7050   10.4870   52.2070 C   0  0  0  0  0
   16.9470    9.5440   51.5130 C   0  0  0  0  0
   17.0420    9.4390   50.1230 C   0  0  0  0  0
   17.8970   10.3030   49.4330 C   0  0  0  0  0
   18.6600   11.2540   50.1220 C   0  0  0  0  0
   18.5600   11.3530   51.5130 C   0  0  0  0  0
   19.3193   15.0442   57.1184 H   0  0  0  0  0
   18.9201   13.6619   54.4629 H   0  0  0  0  0
   20.7440   15.2800   54.4764 H   0  0  0  0  0
   21.5021   13.6383   55.9027 H   0  0  0  0  0
   21.0808   16.9534   56.9805 H   0  0  0  0  0
   15.5412   17.9936   54.8454 H   0  0  0  0  0
   19.9959   17.8254   54.2826 H   0  0  0  0  0
   19.4385   19.7392   55.5077 H   0  0  0  0  0
   18.5018   17.4735   56.9112 H   0  0  0  0  0
   17.3737   19.1644   55.6906 H   0  0  0  0  0
   17.7238   18.4103   54.1340 H   0  0  0  0  0
   22.9870   16.7364   55.6666 H   0  0  0  0  0
   16.5072   10.5274   53.8706 H   0  0  0  0  0
   18.2285    9.7678   54.0543 H   0  0  0  0  0
   16.4573    8.6935   49.5841 H   0  0  0  0  0
   17.9707   10.2359   48.3476 H   0  0  0  0  0
   19.3309   11.9161   49.5746 H   0  0  0  0  0
   19.1431   12.0986   52.0536 H   0  0  0  0  0
  2  1  1  0  0  0
  1  5  1  0  0  0
  1 14  1  0  0  0
 17  2  1  0  0  0
 17  3  2  0  0  0
 20  4  1  0  0  0
  5  7  1  0  0  0
  5  8  1  0  0  0
  9  6  2  0  0  0
  6 17  1  0  0  0
  8 11  1  0  0  0
  8 16  1  0  0  0
 18  9  1  0  0  0
 15 10  1  0  0  0
 11 12  1  0  0  0
 13 11  1  0  0  0
 14 13  1  0  0  0
 13 15  1  0  0  0
 19 18  1  0  0  0
 19 20  4  0  0  0
 19 24  4  0  0  0
 20 21  4  0  0  0
 21 22  4  0  0  0
 22 23  4  0  0  0
 23 24  4  0  0  0
  1 25  1  0  0  0
  2 26  1  0  0  0
  5 27  1  0  0  0
  7 28  1  0  0  0
  8 29  1  0  0  0
 10 30  1  0  0  0
 11 31  1  0  0  0
 12 32  1  0  0  0
 13 33  1  0  0  0
 15 34  1  0  0  0
 15 35  1  0  0  0
 16 36  1  0  0  0
 18 37  1  0  0  0
 18 38  1  0  0  0
 21 39  1  0  0  0
 22 40  1  0  0  0
 23 41  1  0  0  0
 24 42  1  0  0  0
M  END
$$$$
