4m8y_ligand
  -I-interpret- 

 98101  0  0  0  0  0  0  0  0999 V2000
  -11.7130   52.5480    2.1530 N   0  0  0  0  0
  -13.6420   51.3280   -1.4990 C   0  0  0  0  0
  -14.5730   47.0950    1.8150 O   0  0  0  0  0
  -11.8980   52.6670    3.5960 C   0  0  0  0  0
  -11.5780   51.3020    4.2250 C   0  0  0  0  0
  -12.3920   50.1710    3.5780 C   0  0  0  0  0
  -13.7750   50.1590    3.6670 C   0  0  0  0  0
  -14.4980   49.1220    3.0760 C   0  0  0  0  0
  -13.8530   48.0920    2.4010 C   0  0  0  0  0
  -15.4900   47.6750    0.8550 C   0  0  0  0  0
  -16.3720   46.4480   -0.2110 P   0  0  0  0  0
  -17.9580   46.8050   -0.2490 O   0  0  0  0  0
  -18.8740   46.2720    0.6790 C   0  0  0  0  0
  -20.1220   47.1540    0.6890 C   0  0  0  0  0
  -15.8510   46.6330   -1.7540 O   0  0  0  0  0
  -16.0110   44.9610    0.2420 O   0  0  0  0  0
  -14.7420   44.4310   -0.1650 C   0  0  0  0  0
  -14.6300   42.9500    0.1980 C   0  0  0  0  0
  -12.4660   48.1040    2.3230 C   0  0  0  0  0
  -11.7450   49.1370    2.9080 C   0  0  0  0  0
  -10.9730   53.7830    4.0930 C   0  0  0  0  0
   -9.6220   53.3680    3.8990 O   0  0  0  0  0
  -11.1640   54.1040    5.5710 C   0  0  0  0  0
  -12.3330   54.9660    5.8250 N   0  0  0  0  0
  -12.9790   55.4030    4.5810 C   0  0  0  0  0
  -12.6380   56.8560    4.3020 C   0  0  0  0  0
  -13.2680   57.7880    5.3230 C   0  0  0  0  0
  -11.1310   57.0230    4.3200 C   0  0  0  0  0
  -13.4030   54.1190    6.7100 S   0  0  0  0  0
  -13.2390   52.6510    6.4360 O   0  0  0  0  0
  -14.8020   54.5480    6.3500 O   0  0  0  0  0
  -13.1100   54.4660    8.4180 C   0  0  0  0  0
  -13.6920   55.5880    9.0090 C   0  0  0  0  0
  -13.4570   55.8880   10.3460 C   0  0  0  0  0
  -12.6310   55.0580   11.0980 C   0  0  0  0  0
  -12.3920   55.3320   12.4050 O   0  0  0  0  0
  -13.4800   56.0310   13.0120 C   0  0  0  0  0
  -12.0450   53.9400   10.5140 C   0  0  0  0  0
  -12.2850   53.6430    9.1780 C   0  0  0  0  0
  -12.6530   52.8530    1.2670 C   0  0  0  0  0
  -13.7690   53.2710    1.5730 O   0  0  0  0  0
  -12.2960   52.7110   -0.0360 O   0  0  0  0  0
  -13.3470   52.7400   -1.0020 C   0  0  0  0  0
  -12.7230   53.3770   -2.2130 C   0  0  0  0  0
  -11.9020   52.3460   -2.8110 O   0  0  0  0  0
  -12.5920   51.0770   -2.6000 C   0  0  0  0  0
  -11.6600   50.1070   -2.0380 O   0  0  0  0  0
  -12.4540   49.2760   -1.1610 C   0  0  0  0  0
  -13.3350   50.2780   -0.4290 C   0  0  0  0  0
  -10.8138   52.2127    1.8073 H   0  0  0  0  0
  -14.6866   51.2536   -1.8012 H   0  0  0  0  0
  -12.9189   52.9297    3.8732 H   0  0  0  0  0
  -11.8323   51.3446    5.2841 H   0  0  0  0  0
  -10.5192   51.0935    4.0711 H   0  0  0  0  0
  -14.2960   50.9566    4.1966 H   0  0  0  0  0
  -15.5858   49.1196    3.1447 H   0  0  0  0  0
  -14.8976   48.3041    0.1907 H   0  0  0  0  0
  -16.2525   48.2055    1.4253 H   0  0  0  0  0
  -18.4265   46.2490    1.6726 H   0  0  0  0  0
  -19.1402   45.2535    0.3963 H   0  0  0  0  0
  -19.8463   48.1682    0.9778 H   0  0  0  0  0
  -20.5648   47.1661   -0.3069 H   0  0  0  0  0
  -20.8420   46.7545    1.4032 H   0  0  0  0  0
  -13.9516   44.9791    0.3477 H   0  0  0  0  0
  -14.6478   44.5359   -1.2458 H   0  0  0  0  0
  -14.7304   42.8331    1.2771 H   0  0  0  0  0
  -15.4212   42.3933   -0.3042 H   0  0  0  0  0
  -13.6589   42.5715   -0.1210 H   0  0  0  0  0
  -11.9430   47.3019    1.8022 H   0  0  0  0  0
  -10.6570   49.1378    2.8414 H   0  0  0  0  0
  -11.2155   54.6822    3.5268 H   0  0  0  0  0
   -9.4820   53.1610    2.9721 H   0  0  0  0  0
  -10.2769   54.6370    5.9131 H   0  0  0  0  0
  -11.3235   53.1632    6.0979 H   0  0  0  0  0
  -14.0594   55.3012    4.6829 H   0  0  0  0  0
  -12.6229   54.7861    3.7559 H   0  0  0  0  0
  -13.0381   57.1193    3.3229 H   0  0  0  0  0
  -14.3520   57.6779    5.2933 H   0  0  0  0  0
  -12.9029   57.5346    6.3183 H   0  0  0  0  0
  -12.9995   58.8178    5.0874 H   0  0  0  0  0
  -10.7466   56.7365    5.2989 H   0  0  0  0  0
  -10.6871   56.3874    3.5537 H   0  0  0  0  0
  -10.8797   58.0647    4.1202 H   0  0  0  0  0
  -14.3376   56.2360    8.4163 H   0  0  0  0  0
  -13.9157   56.7657   10.8013 H   0  0  0  0  0
  -13.6411   56.9739   12.4895 H   0  0  0  0  0
  -14.3815   55.4213   12.9504 H   0  0  0  0  0
  -13.2447   56.2292   14.0577 H   0  0  0  0  0
  -11.3957   53.2950   11.1060 H   0  0  0  0  0
  -11.8263   52.7641    8.7249 H   0  0  0  0  0
  -14.2304   53.2217   -0.5828 H   0  0  0  0  0
  -12.1324   54.2529   -1.9445 H   0  0  0  0  0
  -13.4797   53.7393   -2.9089 H   0  0  0  0  0
  -13.0152   50.7169   -3.5377 H   0  0  0  0  0
  -11.8437   48.6804   -0.4822 H   0  0  0  0  0
  -13.0320   48.5274   -1.7029 H   0  0  0  0  0
  -14.2362   49.8221   -0.0189 H   0  0  0  0  0
  -12.8462   50.7036    0.4473 H   0  0  0  0  0
  1  4  1  0  0  0
 40  1  1  0  0  0
 43  2  1  0  0  0
  2 46  1  0  0  0
  2 49  1  0  0  0
  9  3  1  0  0  0
  3 10  1  0  0  0
  4  5  1  0  0  0
  4 21  1  0  0  0
  5  6  1  0  0  0
  6  7  4  0  0  0
  6 20  4  0  0  0
  7  8  4  0  0  0
  8  9  4  0  0  0
 19  9  4  0  0  0
 10 11  1  0  0  0
 11 12  1  0  0  0
 11 15  2  0  0  0
 11 16  1  0  0  0
 12 13  1  0  0  0
 13 14  1  0  0  0
 16 17  1  0  0  0
 17 18  1  0  0  0
 20 19  4  0  0  0
 21 22  1  0  0  0
 21 23  1  0  0  0
 23 24  1  0  0  0
 24 25  1  0  0  0
 24 29  1  0  0  0
 25 26  1  0  0  0
 26 27  1  0  0  0
 26 28  1  0  0  0
 29 30  2  0  0  0
 29 31  2  0  0  0
 29 32  1  0  0  0
 32 33  4  0  0  0
 32 39  4  0  0  0
 33 34  4  0  0  0
 34 35  4  0  0  0
 35 36  1  0  0  0
 38 35  4  0  0  0
 36 37  1  0  0  0
 39 38  4  0  0  0
 40 41  2  0  0  0
 42 40  1  0  0  0
 42 43  1  0  0  0
 43 44  1  0  0  0
 44 45  1  0  0  0
 45 46  1  0  0  0
 46 47  1  0  0  0
 47 48  1  0  0  0
 48 49  1  0  0  0
  1 50  1  0  0  0
  2 51  1  0  0  0
  4 52  1  0  0  0
  5 53  1  0  0  0
  5 54  1  0  0  0
  7 55  1  0  0  0
  8 56  1  0  0  0
 10 57  1  0  0  0
 10 58  1  0  0  0
 13 59  1  0  0  0
 13 60  1  0  0  0
 14 61  1  0  0  0
 14 62  1  0  0  0
 14 63  1  0  0  0
 17 64  1  0  0  0
 17 65  1  0  0  0
 18 66  1  0  0  0
 18 67  1  0  0  0
 18 68  1  0  0  0
 19 69  1  0  0  0
 20 70  1  0  0  0
 21 71  1  0  0  0
 22 72  1  0  0  0
 23 73  1  0  0  0
 23 74  1  0  0  0
 25 75  1  0  0  0
 25 76  1  0  0  0
 26 77  1  0  0  0
 27 78  1  0  0  0
 27 79  1  0  0  0
 27 80  1  0  0  0
 28 81  1  0  0  0
 28 82  1  0  0  0
 28 83  1  0  0  0
 33 84  1  0  0  0
 34 85  1  0  0  0
 37 86  1  0  0  0
 37 87  1  0  0  0
 37 88  1  0  0  0
 38 89  1  0  0  0
 39 90  1  0  0  0
 43 91  1  0  0  0
 44 92  1  0  0  0
 44 93  1  0  0  0
 46 94  1  0  0  0
 48 95  1  0  0  0
 48 96  1  0  0  0
 49 97  1  0  0  0
 49 98  1  0  0  0
M  END
$$$$
