4ac3_ligand
  -I-interpret- 

 60 62  0  0  0  0  0  0  0  0999 V2000
   43.9180   41.1500   80.2640 C   0  0  0  0  0
   44.0470   39.7090   79.9980 O   0  0  0  0  0
   44.4520   38.9560   81.1050 C   0  0  0  0  0
   44.3370   39.4320   82.4230 C   0  0  0  0  0
   44.7370   38.6260   83.4500 C   0  0  0  0  0
   44.7420   39.0660   84.7580 O   0  0  0  0  0
   44.0770   40.3840   84.9730 C   0  0  0  0  0
   45.2730   37.3500   83.1650 C   0  0  0  0  0
   45.3130   36.8540   81.8660 C   0  0  0  0  0
   44.8750   37.6420   80.8440 C   0  0  0  0  0
   44.9120   37.2800   79.4850 N   0  0  0  0  0
   45.8380   36.4750   78.8610 C   0  0  0  0  0
   46.6530   35.8460   79.5690 O   0  0  0  0  0
   45.6810   36.2960   77.3440 C   0  0  0  0  0
   45.7660   36.3010   84.4620 S   0  0  0  0  0
   46.6890   36.9190   85.2940 O   0  0  0  0  0
   46.0100   35.0430   83.8310 O   0  0  0  0  0
   44.4240   36.0370   85.4810 N   0  0  0  0  0
   43.1130   35.5830   84.9690 C   0  0  0  0  0
   42.0940   36.6920   85.1560 C   0  0  0  0  0
   41.1720   36.8930   84.1150 C   0  0  0  0  0
   40.2340   37.9200   84.2570 C   0  0  0  0  0
   40.1890   38.7120   85.4080 C   0  0  0  0  0
   41.0730   38.4870   86.4810 C   0  0  0  0  0
   42.0250   37.4700   86.3550 C   0  0  0  0  0
   42.9120   37.2140   87.4090 N   0  0  0  0  0
   43.0920   38.2780   88.4100 C   0  0  0  0  0
   44.2410   37.8860   89.3970 C   0  0  0  0  0
   44.1110   36.4470   89.9350 C   0  0  0  0  0
   43.5810   35.4320   88.8850 C   0  0  0  0  0
   42.3910   36.0540   88.1340 C   0  0  0  0  0
   43.1775   41.3086   81.0479 H   0  0  0  0  0
   44.8809   41.5463   80.5864 H   0  0  0  0  0
   43.6004   41.6591   79.3540 H   0  0  0  0  0
   43.9360   40.4260   82.6212 H   0  0  0  0  0
   44.5837   41.1461   84.3808 H   0  0  0  0  0
   43.0334   40.3174   84.6655 H   0  0  0  0  0
   44.1298   40.6481   86.0292 H   0  0  0  0  0
   45.6890   35.8502   81.6685 H   0  0  0  0  0
   44.1692   37.6563   78.8959 H   0  0  0  0  0
   46.6245   36.5324   76.8520 H   0  0  0  0  0
   45.4057   35.2637   77.1278 H   0  0  0  0  0
   44.9018   36.9652   76.9792 H   0  0  0  0  0
   44.5298   36.1985   86.4826 H   0  0  0  0  0
   42.7935   34.6961   85.5162 H   0  0  0  0  0
   43.1981   35.3388   83.9101 H   0  0  0  0  0
   41.1876   36.2667   83.2230 H   0  0  0  0  0
   39.5224   38.1072   83.4528 H   0  0  0  0  0
   39.4575   39.5172   85.4762 H   0  0  0  0  0
   41.0167   39.0903   87.3870 H   0  0  0  0  0
   42.1652   38.4086   88.9686 H   0  0  0  0  0
   43.3517   39.2084   87.9051 H   0  0  0  0  0
   44.1916   38.5640   90.2490 H   0  0  0  0  0
   45.1828   37.9522   88.8522 H   0  0  0  0  0
   43.3945   36.4699   90.7561 H   0  0  0  0  0
   45.1074   36.1188   90.2309 H   0  0  0  0  0
   43.2592   34.5202   89.3882 H   0  0  0  0  0
   44.3741   35.1909   88.1772 H   0  0  0  0  0
   41.9458   35.3342   87.4471 H   0  0  0  0  0
   41.6052   36.3507   88.8287 H   0  0  0  0  0
  1  2  1  0  0  0
  2  3  1  0  0  0
  3  4  4  0  0  0
  3 10  4  0  0  0
  4  5  4  0  0  0
  5  6  1  0  0  0
  5  8  4  0  0  0
  6  7  1  0  0  0
  8  9  4  0  0  0
  8 15  1  0  0  0
  9 10  4  0  0  0
 10 11  1  0  0  0
 11 12  1  0  0  0
 12 13  2  0  0  0
 12 14  1  0  0  0
 15 16  2  0  0  0
 15 17  2  0  0  0
 15 18  1  0  0  0
 18 19  1  0  0  0
 19 20  1  0  0  0
 20 21  4  0  0  0
 20 25  4  0  0  0
 21 22  4  0  0  0
 22 23  4  0  0  0
 23 24  4  0  0  0
 24 25  4  0  0  0
 25 26  1  0  0  0
 26 27  1  0  0  0
 26 31  1  0  0  0
 27 28  1  0  0  0
 28 29  1  0  0  0
 29 30  1  0  0  0
 30 31  1  0  0  0
  1 32  1  0  0  0
  1 33  1  0  0  0
  1 34  1  0  0  0
  4 35  1  0  0  0
  7 36  1  0  0  0
  7 37  1  0  0  0
  7 38  1  0  0  0
  9 39  1  0  0  0
 11 40  1  0  0  0
 14 41  1  0  0  0
 14 42  1  0  0  0
 14 43  1  0  0  0
 18 44  1  0  0  0
 19 45  1  0  0  0
 19 46  1  0  0  0
 21 47  1  0  0  0
 22 48  1  0  0  0
 23 49  1  0  0  0
 24 50  1  0  0  0
 27 51  1  0  0  0
 27 52  1  0  0  0
 28 53  1  0  0  0
 28 54  1  0  0  0
 29 55  1  0  0  0
 29 56  1  0  0  0
 30 57  1  0  0  0
 30 58  1  0  0  0
 31 59  1  0  0  0
 31 60  1  0  0  0
M  END
$$$$
