1fl6_ligand
  -I-interpret- 

 43 43  0  0  0  0  0  0  0  0999 V2000
   62.1250   47.5180   15.1330 C   0  0  0  0  0
   61.6420   46.3060   15.7070 C   0  0  0  0  0
   62.1630   45.0280   15.2370 C   0  0  0  0  0
   63.1330   45.0160   14.2200 C   0  0  0  0  0
   63.6180   46.2360   13.6430 C   0  0  0  0  0
   63.1180   47.4840   14.0970 C   0  0  0  0  0
   63.6290   48.7780   13.4910 N   0  0  0  0  0
   63.2180   49.8210   13.8600 O   0  0  0  0  0
   64.4690   48.7810   12.6380 O   0  0  0  0  0
   61.6410   43.7050   15.8550 C   0  0  0  0  0
   62.0660   43.3290   17.2510 N   0  3  0  0  0
   61.2030   43.9370   18.3460 C   0  0  0  0  0
   60.0800   42.8610   19.3580 P   0  0  0  0  0
   59.0170   42.1310   18.4900 O   0  0  0  0  0
   60.8800   41.6990   20.1600 O   0  0  0  0  0
   59.4190   43.7510   20.3010 O   0  0  0  0  0
   63.5690   43.6050   17.5810 C   0  0  0  0  0
   64.3640   42.3190   17.8340 C   0  0  0  0  0
   65.1310   41.9160   16.5680 C   0  0  0  0  0
   64.5970   40.5720   16.0600 C   0  0  0  0  0
   65.6590   39.5020   16.2510 C   0  0  0  0  0
   65.7570   38.8050   17.4400 O   0  0  0  0  0
   66.4360   39.2680   15.3320 O   0  0  0  0  0
   61.7384   48.4754   15.4825 H   0  0  0  0  0
   60.8873   46.3345   16.4930 H   0  0  0  0  0
   63.5235   44.0628   13.8636 H   0  0  0  0  0
   64.3709   46.2046   12.8555 H   0  0  0  0  0
   62.0474   42.9194   15.2180 H   0  0  0  0  0
   60.5603   43.8326   15.9167 H   0  0  0  0  0
   61.9289   42.3183   17.2454 H   0  0  0  0  0
   60.5280   44.6091   17.8161 H   0  0  0  0  0
   61.9192   44.3327   19.0661 H   0  0  0  0  0
   59.4586   41.5457   17.8703 H   0  0  0  0  0
   61.3125   41.1172   19.5307 H   0  0  0  0  0
   63.6076   44.2068   18.4890 H   0  0  0  0  0
   64.0130   44.1101   16.7232 H   0  0  0  0  0
   63.6744   41.5193   18.1043 H   0  0  0  0  0
   65.0740   42.4906   18.6431 H   0  0  0  0  0
   66.1926   41.8241   16.7977 H   0  0  0  0  0
   64.9941   42.6773   15.8000 H   0  0  0  0  0
   64.3503   40.6550   15.0015 H   0  0  0  0  0
   63.7022   40.3007   16.6202 H   0  0  0  0  0
   65.0778   39.1106   18.0457 H   0  0  0  0  0
  1  2  4  0  0  0
  1  6  4  0  0  0
  2  3  4  0  0  0
  3  4  4  0  0  0
  3 10  1  0  0  0
  4  5  4  0  0  0
  5  6  4  0  0  0
  6  7  1  0  0  0
  7  8  2  0  0  0
  7  9  2  0  0  0
 10 11  1  0  0  0
 11 12  1  0  0  0
 11 17  1  0  0  0
 12 13  1  0  0  0
 13 14  1  0  0  0
 13 15  1  0  0  0
 13 16  2  0  0  0
 17 18  1  0  0  0
 18 19  1  0  0  0
 19 20  1  0  0  0
 20 21  1  0  0  0
 21 22  1  0  0  0
 21 23  2  0  0  0
  1 24  1  0  0  0
  2 25  1  0  0  0
  4 26  1  0  0  0
  5 27  1  0  0  0
 10 28  1  0  0  0
 10 29  1  0  0  0
 11 30  1  0  0  0
 12 31  1  0  0  0
 12 32  1  0  0  0
 14 33  1  0  0  0
 15 34  1  0  0  0
 17 35  1  0  0  0
 17 36  1  0  0  0
 18 37  1  0  0  0
 18 38  1  0  0  0
 19 39  1  0  0  0
 19 40  1  0  0  0
 20 41  1  0  0  0
 20 42  1  0  0  0
 22 43  1  0  0  0
M  END
$$$$
