### 
### Created by X-TOOL on Mon Sep 10 21:12:48 2018
### 

@<TRIPOS>MOLECULE
1fl6_ligand
   40    40     1     0     0
SMALL
GAST_HUCK


@<TRIPOS>ATOM
      1 C1         62.1250   47.5180   15.1330 C.ar      1 AAH        -0.0251
      2 C2         61.6420   46.3060   15.7070 C.ar      1 AAH        -0.0467
      3 C3         62.1630   45.0280   15.2370 C.ar      1 AAH         0.0074
      4 C4         63.1330   45.0160   14.2200 C.ar      1 AAH        -0.0467
      5 C5         63.6180   46.2360   13.6430 C.ar      1 AAH        -0.0251
      6 C6         63.1180   47.4840   14.0970 C.ar      1 AAH         0.1925
      7 N7         63.6290   48.7780   13.4910 N.2       1 AAH         0.3095
      8 O8         63.2180   49.8210   13.8600 O.2       1 AAH         0.1751
      9 O9         64.4690   48.7810   12.6380 O.2       1 AAH         0.1751
     10 C10        61.6410   43.7050   15.8550 C.3       1 AAH         0.0060
     11 N11        62.0660   43.3290   17.2510 N.4       1 AAH         0.2598
     12 C12        61.2030   43.9370   18.3460 C.3       1 AAH         0.0389
     13 P13        60.0800   42.8610   19.3580 P.3       1 AAH         0.1070
     14 O14        59.0170   42.1310   18.4900 O.co2     1 AAH        -0.5587
     15 O15        60.8800   41.6990   20.1600 O.co2     1 AAH        -0.5587
     16 O16        59.4190   43.7510   20.3010 O.co2     1 AAH        -0.5587
     17 C17        63.5690   43.6050   17.5810 C.3       1 AAH        -0.0289
     18 C18        64.3640   42.3190   17.8340 C.3       1 AAH        -0.0110
     19 C19        65.1310   41.9160   16.5680 C.3       1 AAH        -0.0366
     20 C20        64.5970   40.5720   16.0600 C.3       1 AAH         0.0004
     21 C21        65.6590   39.5020   16.2510 C.2       1 AAH         0.0348
     22 O22        65.7570   38.8050   17.4400 O.co2     1 AAH        -0.5690
     23 O23        66.4360   39.2680   15.3320 O.co2     1 AAH        -0.5690
     24 H1         61.7405   48.4701   15.4805 H         1 AAH         0.0676
     25 H2         60.8915   46.3343   16.4886 H         1 AAH         0.0576
     26 H3         63.5213   44.0680   13.8656 H         1 AAH         0.0576
     27 H4         64.3668   46.2048   12.8598 H         1 AAH         0.0676
     28 H5         61.9636   42.8902   15.1902 H         1 AAH         0.0994
     29 H6         60.5425   43.7628   15.8579 H         1 AAH         0.0994
     30 H7         61.9415   42.3304   17.3083 H         1 AAH         0.2064
     31 H8         60.5662   44.6931   17.8635 H         1 AAH         0.1014
     32 H9         61.8880   44.4305   19.0511 H         1 AAH         0.1014
     33 H10        63.6219   44.2345   18.4815 H         1 AAH         0.0815
     34 H11        64.0234   44.1387   16.7333 H         1 AAH         0.0815
     35 H12        63.6708   41.5114   18.1120 H         1 AAH         0.0318
     36 H13        65.0779   42.4878   18.6536 H         1 AAH         0.0318
     37 H14        66.2018   41.8217   16.8012 H         1 AAH         0.0285
     38 H15        64.9908   42.6839   15.7930 H         1 AAH         0.0285
     39 H16        64.3487   40.6559   14.9917 H         1 AAH         0.0430
     40 H17        63.6944   40.2982   16.6259 H         1 AAH         0.0430
@<TRIPOS>BOND
     1    1    2 ar 
     2    1    6 ar 
     3    2    3 ar 
     4    3    4 ar 
     5    3   10 1  
     6    4    5 ar 
     7    5    6 ar 
     8    6    7 1  
     9    7    8 2  
    10    7    9 2  
    11   10   11 1  
    12   11   12 1  
    13   11   17 1  
    14   12   13 1  
    15   13   14 ar 
    16   13   15 ar 
    17   13   16 ar 
    18   17   18 1  
    19   18   19 1  
    20   19   20 1  
    21   20   21 1  
    22   21   22 ar 
    23   21   23 ar 
    24    1   24 1  
    25    2   25 1  
    26    4   26 1  
    27    5   27 1  
    28   10   28 1  
    29   10   29 1  
    30   11   30 1  
    31   12   31 1  
    32   12   32 1  
    33   17   33 1  
    34   17   34 1  
    35   18   35 1  
    36   18   36 1  
    37   19   37 1  
    38   19   38 1  
    39   20   39 1  
    40   20   40 1  
@<TRIPOS>SUBSTRUCTURE
     1 AAH         1

