3qvv_ligand
  -I-interpret- 

 19 20  0  0  0  0  0  0  0  0999 V2000
    2.1220   12.1180   12.7420 C   0  0  0  0  0
    4.5130    5.1180   11.6260 N   0  0  0  0  0
    1.5030   13.2900   13.0350 O   0  0  0  0  0
    3.3610   12.1270   12.1130 C   0  0  0  0  0
    1.5850    6.3140   13.0970 O   0  0  0  0  0
    3.9940   10.9270   11.8180 C   0  0  0  0  0
    1.5090    8.5480   13.1190 O   0  0  0  0  0
    3.3840    9.7240   12.1510 C   0  0  0  0  0
    4.0160    8.5300   11.8510 C   0  0  0  0  0
    3.3770    7.3480   12.1840 C   0  0  0  0  0
    3.9950    6.0980   11.8810 C   0  0  0  0  0
    2.1360    7.3760   12.8100 C   0  0  0  0  0
    2.1410    9.7100   12.7780 C   0  0  0  0  0
    1.5140   10.9140   13.0730 C   0  0  0  0  0
    0.6637   13.1087   13.4643 H   0  0  0  0  0
    3.8346   13.0734   11.8519 H   0  0  0  0  0
    4.9669   10.9287   11.3265 H   0  0  0  0  0
    4.9917    8.5205   11.3651 H   0  0  0  0  0
    0.5418   10.9138   13.5658 H   0  0  0  0  0
  1  3  1  0  0  0
  4  1  4  0  0  0
  1 14  4  0  0  0
 11  2  3  0  0  0
  6  4  4  0  0  0
 12  5  2  0  0  0
  8  6  4  0  0  0
  7 12  1  0  0  0
 13  7  1  0  0  0
  9  8  1  0  0  0
  8 13  4  0  0  0
 10  9  2  0  0  0
 10 11  1  0  0  0
 10 12  1  0  0  0
 13 14  4  0  0  0
  3 15  1  0  0  0
  4 16  1  0  0  0
  6 17  1  0  0  0
  9 18  1  0  0  0
 14 19  1  0  0  0
M  END
$$$$
