5yjk_ligand
  -I-interpret- 

 66 68  0  0  0  0  0  0  0  0999 V2000
   18.9440   38.3110   22.9260 C   0  0  0  0  0
   17.8390   38.4270   23.4440 O   0  0  0  0  0
   16.4780   34.2500   17.4410 Cl  0  0  0  0  0
   17.1550   35.7860   17.7790 C   0  0  0  0  0
   17.1700   36.2830   19.0810 C   0  0  0  0  0
   17.6830   36.5470   16.7380 C   0  0  0  0  0
   18.2620   37.7820   16.9830 C   0  0  0  0  0
   18.3020   38.3080   18.2830 C   0  0  0  0  0
   18.8430   39.5200   18.5630 O   0  0  0  0  0
   19.4270   40.3080   17.5410 C   0  0  0  0  0
   17.7290   37.5450   19.3250 C   0  0  0  0  0
   17.7060   37.9910   20.7600 C   0  0  0  0  0
   19.0400   37.8250   21.4810 C   0  0  0  0  0
   19.6590   36.4170   21.3350 C   0  0  0  0  0
   21.0690   36.2570   21.6410 N   0  0  0  0  0
   21.8960   37.0800   22.3920 C   0  0  0  0  0
   23.1400   36.8940   22.6080 N   0  0  0  0  0
   23.7270   35.7890   22.0690 N   0  0  0  0  0
   24.6790   36.1200   20.9960 C   0  0  0  0  0
   24.1020   34.8120   23.0790 C   0  0  0  0  0
   21.3940   38.3840   23.0180 C   0  0  0  0  0
   20.0580   38.5060   23.6120 N   0  0  0  0  0
   20.0270   38.9770   25.0030 C   0  0  0  0  0
   19.4380   40.3680   25.1590 C   0  0  0  0  0
   19.8300   41.1890   24.3490 O   0  0  0  0  0
   18.5550   40.5770   26.1430 N   0  0  0  0  0
   17.8870   41.7820   26.4730 C   0  0  0  0  0
   18.1190   43.0300   25.8400 C   0  0  0  0  0
   16.9340   41.7470   27.4980 C   0  0  0  0  0
   16.2330   42.9080   27.8640 C   0  0  0  0  0
   16.4600   44.1320   27.2190 C   0  0  0  0  0
   17.4210   44.1970   26.2040 C   0  0  0  0  0
   17.8090   45.7080   25.3040 S   0  0  0  0  0
   18.3160   45.2690   24.0200 O   0  0  0  0  0
   16.6430   46.5570   25.1430 O   0  0  0  0  0
   19.1300   46.6540   26.1290 C   0  0  0  0  0
   16.7520   35.6973   19.8997 H   0  0  0  0  0
   17.6401   36.1660   15.7177 H   0  0  0  0  0
   18.6906   38.3503   16.1575 H   0  0  0  0  0
   20.2515   39.7586   17.0867 H   0  0  0  0  0
   18.6765   40.5318   16.7829 H   0  0  0  0  0
   19.8008   41.2378   17.9697 H   0  0  0  0  0
   16.9770   37.3700   21.2806 H   0  0  0  0  0
   17.4652   39.0540   20.7650 H   0  0  0  0  0
   19.7568   38.4719   20.9751 H   0  0  0  0  0
   19.5623   36.1669   20.2785 H   0  0  0  0  0
   19.1337   35.7939   22.0587 H   0  0  0  0  0
   21.5126   35.4257   21.2504 H   0  0  0  0  0
   24.1557   36.6451   20.1969 H   0  0  0  0  0
   25.4677   36.7574   21.3957 H   0  0  0  0  0
   25.1160   35.2017   20.6037 H   0  0  0  0  0
   24.8088   35.2638   23.7750 H   0  0  0  0  0
   23.2120   34.4910   23.6203 H   0  0  0  0  0
   24.5652   33.9516   22.5961 H   0  0  0  0  0
   21.3603   39.0736   22.1745 H   0  0  0  0  0
   22.0628   38.5321   23.8658 H   0  0  0  0  0
   21.0566   39.0156   25.3587 H   0  0  0  0  0
   19.3971   38.2895   25.5675 H   0  0  0  0  0
   18.3362   39.7697   26.7268 H   0  0  0  0  0
   18.8626   43.0873   25.0451 H   0  0  0  0  0
   16.7340   40.8097   28.0171 H   0  0  0  0  0
   15.4971   42.8562   28.6664 H   0  0  0  0  0
   15.8960   45.0201   27.5041 H   0  0  0  0  0
   20.0026   46.0150   26.2642 H   0  0  0  0  0
   19.3988   47.5127   25.5137 H   0  0  0  0  0
   18.7760   46.9982   27.1008 H   0  0  0  0  0
  1  2  2  0  0  0
 13  1  1  0  0  0
  1 22  1  0  0  0
  4  3  1  0  0  0
  5  4  4  0  0  0
  4  6  4  0  0  0
 11  5  4  0  0  0
  7  6  4  0  0  0
  8  7  4  0  0  0
  8  9  1  0  0  0
 11  8  4  0  0  0
  9 10  1  0  0  0
 12 11  1  0  0  0
 12 13  1  0  0  0
 13 14  1  0  0  0
 14 15  1  0  0  0
 15 16  1  0  0  0
 16 17  2  0  0  0
 16 21  1  0  0  0
 17 18  1  0  0  0
 18 19  1  0  0  0
 18 20  1  0  0  0
 21 22  1  0  0  0
 22 23  1  0  0  0
 23 24  1  0  0  0
 24 25  2  0  0  0
 24 26  1  0  0  0
 26 27  1  0  0  0
 27 28  4  0  0  0
 27 29  4  0  0  0
 28 32  4  0  0  0
 29 30  4  0  0  0
 30 31  4  0  0  0
 31 32  4  0  0  0
 32 33  1  0  0  0
 33 34  2  0  0  0
 33 35  2  0  0  0
 33 36  1  0  0  0
  5 37  1  0  0  0
  6 38  1  0  0  0
  7 39  1  0  0  0
 10 40  1  0  0  0
 10 41  1  0  0  0
 10 42  1  0  0  0
 12 43  1  0  0  0
 12 44  1  0  0  0
 13 45  1  0  0  0
 14 46  1  0  0  0
 14 47  1  0  0  0
 15 48  1  0  0  0
 19 49  1  0  0  0
 19 50  1  0  0  0
 19 51  1  0  0  0
 20 52  1  0  0  0
 20 53  1  0  0  0
 20 54  1  0  0  0
 21 55  1  0  0  0
 21 56  1  0  0  0
 23 57  1  0  0  0
 23 58  1  0  0  0
 26 59  1  0  0  0
 28 60  1  0  0  0
 29 61  1  0  0  0
 30 62  1  0  0  0
 31 63  1  0  0  0
 36 64  1  0  0  0
 36 65  1  0  0  0
 36 66  1  0  0  0
M  END
$$$$
