6bh3_ligand
  -I-interpret- 

 42 44  0  0  0  0  0  0  0  0999 V2000
  -22.8170   16.8680    4.0640 C   0  0  0  0  0
  -22.0220   17.6740    3.0640 C   0  0  0  0  0
  -21.1590   18.7890    3.1900 C   0  0  0  0  0
  -20.7210   19.0850    1.8830 C   0  0  0  0  0
  -19.7950   20.1530    1.3530 C   0  0  0  0  0
  -18.3560   19.6130    1.2070 C   0  0  0  0  0
  -20.3130   20.7140    0.0080 C   0  0  0  0  0
  -23.4610   16.2900    6.3640 C   0  0  0  0  0
  -22.7610   16.5700    7.7300 C   0  0  0  0  0
  -22.2700   18.0500    7.5810 C   0  0  0  0  0
  -23.8680   19.1930    9.0270 C   0  0  0  0  0
  -25.0080   20.1760    9.1310 C   0  0  0  0  0
  -25.1330   20.9710   10.4350 C   0  0  0  0  0
  -26.1040   19.8230   10.1420 C   0  0  0  0  0
  -21.8360   18.0490    6.1200 C   0  0  0  0  0
  -21.2760   18.2220    1.0510 N   0  0  0  0  0
  -22.0590   17.3700    1.7520 N   0  0  0  0  0
  -22.6810   17.0890    5.3920 N   0  0  0  0  0
  -23.3770   18.9790    7.7960 N   0  0  0  0  0
  -23.5590   16.0370    3.6480 O   0  0  0  0  0
  -23.4070   18.6190   10.0130 O   0  0  0  0  0
  -20.8889   19.3110    4.1080 H   0  0  0  0  0
  -19.7759   20.9700    2.0743 H   0  0  0  0  0
  -18.3424   18.8146    0.4651 H   0  0  0  0  0
  -17.6973   20.4200    0.8862 H   0  0  0  0  0
  -18.0159   19.2245    2.1670 H   0  0  0  0  0
  -19.6645   21.5268   -0.3191 H   0  0  0  0  0
  -20.3097   19.9214   -0.7402 H   0  0  0  0  0
  -21.3285   21.0878    0.1387 H   0  0  0  0  0
  -24.5152   16.5670    6.3753 H   0  0  0  0  0
  -23.4702   15.2291    6.1141 H   0  0  0  0  0
  -21.9472   15.8749    7.9367 H   0  0  0  0  0
  -23.4274   16.4308    8.5813 H   0  0  0  0  0
  -21.4963   18.3547    8.2858 H   0  0  0  0  0
  -24.9777   20.4420    8.0744 H   0  0  0  0  0
  -25.1709   22.0115   10.7576 H   0  0  0  0  0
  -24.4931   21.3129   11.2485 H   0  0  0  0  0
  -26.5004   18.9397   10.6428 H   0  0  0  0  0
  -27.1782   19.6383   10.1519 H   0  0  0  0  0
  -20.7875   17.7622    6.0400 H   0  0  0  0  0
  -21.9483   19.0461    5.6943 H   0  0  0  0  0
  -23.7822   19.4716    7.0001 H   0  0  0  0  0
  1  2  1  0  0  0
 18  1  1  0  0  0
  1 20  2  0  0  0
  2  3  4  0  0  0
  2 17  4  0  0  0
  3  4  4  0  0  0
  4  5  1  0  0  0
  4 16  4  0  0  0
  5  6  1  0  0  0
  5  7  1  0  0  0
  9  8  1  0  0  0
  8 18  1  0  0  0
 10  9  1  0  0  0
 10 15  1  0  0  0
 19 10  1  0  0  0
 11 12  1  0  0  0
 11 19  1  0  0  0
 11 21  2  0  0  0
 12 13  1  0  0  0
 12 14  1  0  0  0
 13 14  1  0  0  0
 15 18  1  0  0  0
 16 17  4  0  0  0
  3 22  1  0  0  0
  5 23  1  0  0  0
  6 24  1  0  0  0
  6 25  1  0  0  0
  6 26  1  0  0  0
  7 27  1  0  0  0
  7 28  1  0  0  0
  7 29  1  0  0  0
  8 30  1  0  0  0
  8 31  1  0  0  0
  9 32  1  0  0  0
  9 33  1  0  0  0
 10 34  1  0  0  0
 12 35  1  0  0  0
 13 36  1  0  0  0
 13 37  1  0  0  0
 14 38  1  0  0  0
 14 39  1  0  0  0
 15 40  1  0  0  0
 15 41  1  0  0  0
 19 42  1  0  0  0
M  END
$$$$
