2j7d_ligand
  -I-interpret- 

 34 35  0  0  0  0  0  0  0  0999 V2000
   -0.8960   10.5930   10.5900 C   0  0  0  0  0
    0.0790   11.3970    9.8090 C   0  0  0  0  0
    0.3250   12.6490   10.4320 O   0  0  0  0  0
   -0.4530   11.6990    8.4080 C   0  0  0  0  0
    0.6740   11.9900    7.5790 O   0  0  0  0  0
   -1.3380   10.5470    7.8970 C   0  0  0  0  0
   -2.6760    9.4050   11.1250 C   0  0  0  0  0
   -2.1030   10.1490   10.1590 N   0  0  0  0  0
   -1.6680   10.6890    6.5180 O   0  0  0  0  0
   -2.6030   10.4470    8.7850 C   0  0  0  0  0
   -3.5510    9.3730    8.3240 C   0  0  0  0  0
   -3.0290    8.0670    8.5650 O   0  0  0  0  0
   -0.7000   10.1480   11.8460 N   0  0  0  0  0
   -1.7760    9.4130   12.1750 C   0  0  0  0  0
   -2.1320    8.7220   13.4410 C   0  0  0  0  0
   -2.8830    7.5150   13.2500 O   0  0  0  0  0
   -0.1880    7.3170   14.0820 C   0  0  0  0  0
   -0.9590    8.5300   14.2460 O   0  0  0  0  0
    0.9929   10.8053    9.7562 H   0  0  0  0  0
    0.6621   12.5031   11.3189 H   0  0  0  0  0
   -1.1111   12.5679    8.4027 H   0  0  0  0  0
    1.1730   12.7151    7.9622 H   0  0  0  0  0
   -0.7752    9.6165    7.9713 H   0  0  0  0  0
   -3.6430    8.9035   11.0871 H   0  0  0  0  0
   -0.8610   10.7476    6.0014 H   0  0  0  0  0
   -3.1734   11.3747    8.7401 H   0  0  0  0  0
   -3.7041    9.4884    7.2510 H   0  0  0  0  0
   -4.4833    9.4773    8.8790 H   0  0  0  0  0
   -3.6589    7.4104    8.2591 H   0  0  0  0  0
   -2.8146    9.3751   13.9846 H   0  0  0  0  0
   -3.0781    7.1223   14.1040 H   0  0  0  0  0
   -0.8174    6.4552   14.3039 H   0  0  0  0  0
    0.1704    7.2519   13.0547 H   0  0  0  0  0
    0.6619    7.3332   14.7643 H   0  0  0  0  0
  1  2  1  0  0  0
  1  8  4  0  0  0
  1 13  4  0  0  0
  2  3  1  0  0  0
  2  4  1  0  0  0
  4  5  1  0  0  0
  4  6  1  0  0  0
  6  9  1  0  0  0
  6 10  1  0  0  0
  8  7  4  0  0  0
  7 14  4  0  0  0
  8 10  1  0  0  0
 10 11  1  0  0  0
 11 12  1  0  0  0
 13 14  4  0  0  0
 14 15  1  0  0  0
 15 16  1  0  0  0
 15 18  1  0  0  0
 18 17  1  0  0  0
  2 19  1  0  0  0
  3 20  1  0  0  0
  4 21  1  0  0  0
  5 22  1  0  0  0
  6 23  1  0  0  0
  7 24  1  0  0  0
  9 25  1  0  0  0
 10 26  1  0  0  0
 11 27  1  0  0  0
 11 28  1  0  0  0
 12 29  1  0  0  0
 15 30  1  0  0  0
 16 31  1  0  0  0
 17 32  1  0  0  0
 17 33  1  0  0  0
 17 34  1  0  0  0
M  END
$$$$
