3btl_ligand
  -I-interpret- 

 51 53  0  0  0  0  0  0  0  0999 V2000
  -70.3360  -46.3280    5.9500 C   0  0  0  0  0
  -70.8320  -47.7320    6.2580 C   0  0  0  0  0
  -70.9740  -48.2340    7.6350 C   0  0  0  0  0
  -71.4300  -49.5870    7.9170 C   0  0  0  0  0
  -71.7780  -50.5120    6.8150 C   0  0  0  0  0
  -71.6530  -50.0260    5.4390 C   0  0  0  0  0
  -71.1990  -48.6720    5.1800 C   0  0  0  0  0
  -69.0870  -46.0890    5.0500 C   0  0  0  0  0
  -68.0730  -47.2160    4.8340 C   0  0  0  0  0
  -66.8930  -47.1060    4.0080 C   0  0  0  0  0
  -66.5950  -45.8090    3.3100 C   0  0  0  0  0
  -67.5770  -44.6260    3.5040 C   0  0  0  0  0
  -68.7750  -44.7810    4.3580 C   0  0  0  0  0
  -71.0700  -45.2170    6.5850 C   0  0  0  0  0
  -70.3530  -44.2860    7.4750 C   0  0  0  0  0
  -71.0390  -43.2050    8.1100 C   0  0  0  0  0
  -72.4410  -43.0150    7.8630 C   0  0  0  0  0
  -73.1760  -43.9220    7.0000 C   0  0  0  0  0
  -72.4970  -44.9870    6.3750 C   0  0  0  0  0
  -65.1430  -44.3950    1.7150 C   0  0  0  0  0
  -64.4760  -46.8640    2.1970 C   0  0  0  0  0
  -73.2940  -41.8310    9.9060 C   0  0  0  0  0
  -73.7290  -40.9430    7.5320 C   0  0  0  0  0
  -65.4560  -45.7130    2.4590 N   0  0  0  0  0
  -73.0910  -42.0000    8.4210 N   0  0  0  0  0
  -69.9478  -46.0314    4.9756 H   0  0  0  0  0
  -70.7306  -47.5733    8.4670 H   0  0  0  0  0
  -71.5162  -49.9227    8.9504 H   0  0  0  0  0
  -72.1179  -51.5268    7.0218 H   0  0  0  0  0
  -71.9019  -50.6838    4.6062 H   0  0  0  0  0
  -71.1259  -48.3348    4.1461 H   0  0  0  0  0
  -68.2539  -48.1656    5.3377 H   0  0  0  0  0
  -66.2233  -47.9581    3.8918 H   0  0  0  0  0
  -67.3840  -43.6745    3.0085 H   0  0  0  0  0
  -69.4477  -43.9338    4.4914 H   0  0  0  0  0
  -69.2862  -44.4238    7.6510 H   0  0  0  0  0
  -70.5023  -42.5299    8.7766 H   0  0  0  0  0
  -74.2444  -43.7804    6.8368 H   0  0  0  0  0
  -73.0513  -45.6567    5.7175 H   0  0  0  0  0
  -65.9776  -44.1412    1.0614 H   0  0  0  0  0
  -64.9926  -43.5962    2.4412 H   0  0  0  0  0
  -64.2389  -44.5213    1.1195 H   0  0  0  0  0
  -64.0237  -47.1758    3.1384 H   0  0  0  0  0
  -65.0130  -47.7032    1.7549 H   0  0  0  0  0
  -63.6975  -46.5278    1.5122 H   0  0  0  0  0
  -73.8464  -42.6861   10.2955 H   0  0  0  0  0
  -72.3240  -41.7682   10.3992 H   0  0  0  0  0
  -73.8578  -40.9170   10.0926 H   0  0  0  0  0
  -72.9589  -40.4689    6.9234 H   0  0  0  0  0
  -74.4681  -41.4134    6.8835 H   0  0  0  0  0
  -74.2155  -40.1920    8.1544 H   0  0  0  0  0
  1  2  1  0  0  0
  1  8  1  0  0  0
  1 14  1  0  0  0
  2  3  4  0  0  0
  2  7  4  0  0  0
  3  4  4  0  0  0
  4  5  4  0  0  0
  5  6  4  0  0  0
  6  7  4  0  0  0
  8  9  4  0  0  0
  8 13  4  0  0  0
  9 10  4  0  0  0
 10 11  4  0  0  0
 11 12  4  0  0  0
 11 24  1  0  0  0
 12 13  4  0  0  0
 14 15  4  0  0  0
 14 19  4  0  0  0
 15 16  4  0  0  0
 16 17  4  0  0  0
 17 18  4  0  0  0
 17 25  1  0  0  0
 18 19  4  0  0  0
 24 20  1  0  0  0
 24 21  1  0  0  0
 25 22  1  0  0  0
 25 23  1  0  0  0
  1 26  1  0  0  0
  3 27  1  0  0  0
  4 28  1  0  0  0
  5 29  1  0  0  0
  6 30  1  0  0  0
  7 31  1  0  0  0
  9 32  1  0  0  0
 10 33  1  0  0  0
 12 34  1  0  0  0
 13 35  1  0  0  0
 15 36  1  0  0  0
 16 37  1  0  0  0
 18 38  1  0  0  0
 19 39  1  0  0  0
 20 40  1  0  0  0
 20 41  1  0  0  0
 20 42  1  0  0  0
 21 43  1  0  0  0
 21 44  1  0  0  0
 21 45  1  0  0  0
 22 46  1  0  0  0
 22 47  1  0  0  0
 22 48  1  0  0  0
 23 49  1  0  0  0
 23 50  1  0  0  0
 23 51  1  0  0  0
M  END
$$$$
