5d7a_ligand
  -I-interpret- 

 48 52  0  0  0  0  0  0  0  0999 V2000
  263.9690   -4.6090   10.1630 C   0  0  0  0  0
  264.2210   -5.9830   10.4620 C   0  0  0  0  0
  264.2730   -3.6900   11.2050 C   0  0  0  0  0
  265.0180   -5.3410   12.6490 C   0  0  0  0  0
  263.0660   -5.1410    8.0020 C   0  0  0  0  0
  263.3640   -6.5250    8.2220 C   0  0  0  0  0
  263.4370   -4.2060    8.9050 C   0  0  0  0  0
  265.1490   -9.2630   14.8800 C   0  0  0  0  0
  265.0260  -11.4050   15.5720 C   0  0  0  0  0
  264.7710   -3.9770   12.3950 N   0  0  0  0  0
  264.5260   -8.2470    9.4670 O   0  0  0  0  0
  264.7470   -6.3240   11.7060 N   0  0  0  0  0
  263.9180   -6.9940    9.4090 C   0  0  0  0  0
  262.2700   -9.4600    9.5620 C   0  0  0  0  0
  263.7800   -9.4860    9.1970 C   0  0  0  0  0
  261.9720   -9.6480   11.0600 C   0  0  0  0  0
  262.6450  -10.8880   11.6740 C   0  0  0  0  0
  264.1420  -10.8010   11.3730 C   0  0  0  0  0
  264.4150  -10.7220    9.8710 C   0  0  0  0  0
  266.4920   -7.1340   15.7610 C   0  0  0  0  0
  265.5330   -5.6410   13.9250 N   0  0  0  0  0
  265.6550   -6.9330   14.6010 C   0  0  0  0  0
  266.6350   -8.3380   16.4240 C   0  0  0  0  0
  265.9600   -9.5150   16.0240 C   0  0  0  0  0
  264.9750   -8.0730   14.1820 C   0  0  0  0  0
  265.8660  -10.8770   16.4400 N   0  0  0  0  0
  264.5440  -10.5380   14.6080 N   0  0  0  0  0
  262.4330  -10.9220   13.0530 O   0  0  0  0  0
  264.0743   -2.6380   11.0005 H   0  0  0  0  0
  262.5356   -4.8394    7.0988 H   0  0  0  0  0
  263.1480   -7.2393    7.4275 H   0  0  0  0  0
  263.3293   -3.1469    8.6710 H   0  0  0  0  0
  264.7313  -12.4537   15.6113 H   0  0  0  0  0
  261.8005  -10.2917    9.0366 H   0  0  0  0  0
  261.8912   -8.4769    9.2824 H   0  0  0  0  0
  263.8481   -9.5604    8.1117 H   0  0  0  0  0
  260.8947   -9.7768   11.1642 H   0  0  0  0  0
  262.3615   -8.7739   11.5819 H   0  0  0  0  0
  262.2222  -11.7980   11.2483 H   0  0  0  0  0
  264.6225  -11.6987   11.7620 H   0  0  0  0  0
  264.5337   -9.8976   11.8405 H   0  0  0  0  0
  265.4944  -10.6518    9.7363 H   0  0  0  0  0
  263.9785  -11.6082    9.4104 H   0  0  0  0  0
  267.0492   -6.2770   16.1394 H   0  0  0  0  0
  265.8710   -4.8388   14.4567 H   0  0  0  0  0
  267.2948   -8.3825   17.2905 H   0  0  0  0  0
  264.3136   -8.0333   13.3165 H   0  0  0  0  0
  262.8579  -11.6998   13.4219 H   0  0  0  0  0
  2  1  4  0  0  0
  3  1  4  0  0  0
  1  7  4  0  0  0
 12  2  4  0  0  0
  2 13  4  0  0  0
 10  3  4  0  0  0
  4 10  4  0  0  0
  4 12  4  0  0  0
 21  4  1  0  0  0
  6  5  4  0  0  0
  7  5  4  0  0  0
 13  6  4  0  0  0
  8 24  4  0  0  0
 25  8  4  0  0  0
  8 27  4  0  0  0
  9 26  4  0  0  0
 27  9  4  0  0  0
 13 11  1  0  0  0
 11 15  1  0  0  0
 15 14  1  0  0  0
 14 16  1  0  0  0
 15 19  1  0  0  0
 16 17  1  0  0  0
 18 17  1  0  0  0
 17 28  1  0  0  0
 19 18  1  0  0  0
 22 20  4  0  0  0
 20 23  4  0  0  0
 22 21  1  0  0  0
 22 25  4  0  0  0
 23 24  4  0  0  0
 24 26  4  0  0  0
  3 29  1  0  0  0
  5 30  1  0  0  0
  6 31  1  0  0  0
  7 32  1  0  0  0
  9 33  1  0  0  0
 14 34  1  0  0  0
 14 35  1  0  0  0
 15 36  1  0  0  0
 16 37  1  0  0  0
 16 38  1  0  0  0
 17 39  1  0  0  0
 18 40  1  0  0  0
 18 41  1  0  0  0
 19 42  1  0  0  0
 19 43  1  0  0  0
 20 44  1  0  0  0
 21 45  1  0  0  0
 23 46  1  0  0  0
 25 47  1  0  0  0
 28 48  1  0  0  0
M  END
$$$$
