3ttp_ligand
  -I-interpret- 

 75 78  0  0  0  0  0  0  0  0999 V2000
  -10.1180   15.7390   35.0410 N   0  0  0  0  0
   -9.8680   15.5250   33.7290 C   0  0  0  0  0
   -9.2720   16.5370   33.0040 C   0  0  0  0  0
   -9.0040   16.3610   31.6610 C   0  0  0  0  0
   -9.3320   15.1620   31.0310 C   0  0  0  0  0
   -9.9280   14.1320   31.7540 C   0  0  0  0  0
  -10.1930   14.3100   33.1160 C   0  0  0  0  0
   -9.0120   15.0020   29.4820 S   0  0  0  0  0
   -7.7980   15.7080   29.1980 O   0  0  0  0  0
   -8.7770   13.6090   29.2320 O   0  0  0  0  0
  -10.2060   15.5340   28.5050 N   0  0  0  0  0
  -11.5450   14.9960   28.8260 C   0  0  0  0  0
  -12.3850   14.7400   27.5670 C   0  0  0  0  0
  -11.5830   14.1430   26.4120 C   0  0  0  0  0
  -13.5540   13.8200   27.8920 C   0  0  0  0  0
  -10.2440   17.0030   28.4310 C   0  0  0  0  0
   -9.9630   17.4030   26.9750 C   0  0  0  0  0
  -10.3090   18.7700   26.7610 O   0  0  0  0  0
   -8.5200   17.1360   26.5300 C   0  0  0  0  0
   -8.4960   17.3790   25.0930 N   0  0  0  0  0
   -8.3800   16.4490   24.1390 C   0  0  0  0  0
   -8.2800   15.2430   24.3030 O   0  0  0  0  0
   -8.3830   16.9510   22.7820 O   0  0  0  0  0
   -7.9640   16.0660   21.7630 C   0  0  0  0  0
   -8.9760   16.3060   20.6720 C   0  0  0  0  0
   -8.4460   17.4010   19.9050 O   0  0  0  0  0
   -7.1030   17.7070   20.2910 C   0  0  0  0  0
   -7.0080   18.9160   21.0680 O   0  0  0  0  0
   -6.1270   18.7650   22.1960 C   0  0  0  0  0
   -5.7280   17.2740   22.2030 C   0  0  0  0  0
   -6.6560   16.5920   21.2020 C   0  0  0  0  0
   -7.5180   18.1280   27.1180 C   0  0  0  0  0
   -5.5040   18.6740   25.7120 C   0  0  0  0  0
   -4.2300   18.3740   25.2270 C   0  0  0  0  0
   -3.6020   17.1960   25.6110 C   0  0  0  0  0
   -4.2400   16.3220   26.4870 C   0  0  0  0  0
   -5.5040   16.6240   26.9850 C   0  0  0  0  0
   -6.1430   17.7990   26.5910 C   0  0  0  0  0
   -9.8670   16.6300   35.4693 H   0  0  0  0  0
  -10.5576   15.0093   35.6021 H   0  0  0  0  0
   -9.0126   17.4764   33.4923 H   0  0  0  0  0
   -8.5341   17.1628   31.0914 H   0  0  0  0  0
  -10.1861   13.1940   31.2624 H   0  0  0  0  0
  -10.6495   13.5077   33.6957 H   0  0  0  0  0
  -12.0676   15.7309   29.4384 H   0  0  0  0  0
  -11.4132   14.0462   29.3443 H   0  0  0  0  0
  -12.7438   15.7159   27.2399 H   0  0  0  0  0
  -10.7805   14.8273   26.1367 H   0  0  0  0  0
  -11.1579   13.1883   26.7218 H   0  0  0  0  0
  -12.2404   13.9889   25.5563 H   0  0  0  0  0
  -13.1736   12.8698   28.2668 H   0  0  0  0  0
  -14.1816   14.2865   28.6513 H   0  0  0  0  0
  -14.1407   13.6475   26.9897 H   0  0  0  0  0
   -9.4961   17.4363   29.0951 H   0  0  0  0  0
  -11.2195   17.3741   28.7454 H   0  0  0  0  0
  -10.5919   16.7637   26.3554 H   0  0  0  0  0
  -10.1283   19.0055   25.8481 H   0  0  0  0  0
   -8.2469   16.1292   26.8460 H   0  0  0  0  0
   -8.5750   18.3486   24.7865 H   0  0  0  0  0
   -7.8676   15.0347   22.1023 H   0  0  0  0  0
   -9.9604   16.5376   21.0787 H   0  0  0  0  0
   -9.1251   15.4181   20.0577 H   0  0  0  0  0
   -6.5064   17.8251   19.3864 H   0  0  0  0  0
   -6.6136   19.0549   23.1273 H   0  0  0  0  0
   -5.2549   19.4137   22.1141 H   0  0  0  0  0
   -5.8298   16.8405   23.1979 H   0  0  0  0  0
   -4.6816   17.1418   21.9281 H   0  0  0  0  0
   -6.1051   15.7514   20.7801 H   0  0  0  0  0
   -7.5235   18.0581   28.2057 H   0  0  0  0  0
   -7.7909   19.1434   26.8305 H   0  0  0  0  0
   -6.0007   19.5938   25.4034 H   0  0  0  0  0
   -3.7285   19.0633   24.5477 H   0  0  0  0  0
   -2.6106   16.9561   25.2268 H   0  0  0  0  0
   -3.7470   15.3964   26.7843 H   0  0  0  0  0
   -5.9934   15.9434   27.6816 H   0  0  0  0  0
  2  1  1  0  0  0
  3  2  4  0  0  0
  7  2  4  0  0  0
  4  3  4  0  0  0
  5  4  4  0  0  0
  5  6  4  0  0  0
  8  5  1  0  0  0
  6  7  4  0  0  0
  8  9  2  0  0  0
  8 10  2  0  0  0
 11  8  1  0  0  0
 11 12  1  0  0  0
 16 11  1  0  0  0
 12 13  1  0  0  0
 13 14  1  0  0  0
 13 15  1  0  0  0
 17 16  1  0  0  0
 17 18  1  0  0  0
 19 17  1  0  0  0
 19 20  1  0  0  0
 32 19  1  0  0  0
 20 21  1  0  0  0
 21 22  2  0  0  0
 21 23  1  0  0  0
 23 24  1  0  0  0
 24 25  1  0  0  0
 24 31  1  0  0  0
 25 26  1  0  0  0
 27 26  1  0  0  0
 27 28  1  0  0  0
 31 27  1  0  0  0
 29 28  1  0  0  0
 30 29  1  0  0  0
 31 30  1  0  0  0
 38 32  1  0  0  0
 33 34  4  0  0  0
 33 38  4  0  0  0
 34 35  4  0  0  0
 35 36  4  0  0  0
 36 37  4  0  0  0
 37 38  4  0  0  0
  1 39  1  0  0  0
  1 40  1  0  0  0
  3 41  1  0  0  0
  4 42  1  0  0  0
  6 43  1  0  0  0
  7 44  1  0  0  0
 12 45  1  0  0  0
 12 46  1  0  0  0
 13 47  1  0  0  0
 14 48  1  0  0  0
 14 49  1  0  0  0
 14 50  1  0  0  0
 15 51  1  0  0  0
 15 52  1  0  0  0
 15 53  1  0  0  0
 16 54  1  0  0  0
 16 55  1  0  0  0
 17 56  1  0  0  0
 18 57  1  0  0  0
 19 58  1  0  0  0
 20 59  1  0  0  0
 24 60  1  0  0  0
 25 61  1  0  0  0
 25 62  1  0  0  0
 27 63  1  0  0  0
 29 64  1  0  0  0
 29 65  1  0  0  0
 30 66  1  0  0  0
 30 67  1  0  0  0
 31 68  1  0  0  0
 32 69  1  0  0  0
 32 70  1  0  0  0
 33 71  1  0  0  0
 34 72  1  0  0  0
 35 73  1  0  0  0
 36 74  1  0  0  0
 37 75  1  0  0  0
M  END
$$$$
