1ke6_ligand
  -I-interpret- 

 42 45  0  0  0  0  0  0  0  0999 V2000
   26.5500   15.5690   13.4080 N   0  0  0  0  0
   26.0960   14.6940   12.4600 C   0  0  0  0  0
   26.7910   13.3850   12.6280 C   0  0  0  0  0
   28.5820   12.6570   14.4330 C   0  0  0  0  0
   29.2930   13.1430   15.6760 C   0  0  0  0  0
   29.0870   14.5130   16.1560 C   0  0  0  0  0
   28.1730   15.4350   15.4190 C   0  0  0  0  0
   27.4450   14.9380   14.2280 C   0  0  0  0  0
   27.6550   13.5730   13.7640 C   0  0  0  0  0
   25.2610   14.8730   11.5720 O   0  0  0  0  0
   26.5880   12.2050   11.8110 N   0  0  0  0  0
   29.0340   11.0610   14.0640 S   0  0  0  0  0
   30.0340   10.9520   15.4460 C   0  0  0  0  0
   30.0640   12.0930   16.1860 N   0  0  0  0  0
   26.1900   12.2200   10.6240 N   0  0  0  0  0
   25.9420   11.1170    9.8670 C   0  0  0  0  0
   24.6700   11.0850    9.1060 C   0  0  0  0  0
   24.2740    9.8510    8.3950 C   0  0  0  0  0
   25.1700    8.6650    8.4120 C   0  0  0  0  0
   26.4270    8.6910    9.1900 C   0  0  0  0  0
   26.8640    9.9290    9.8230 C   0  0  0  0  0
   24.8910    7.4670    7.5500 C   0  0  0  0  0
   26.0100    7.1890    6.1740 S   0  0  0  0  0
   26.3310    8.4560    5.5640 O   0  0  0  0  0
   25.4880    6.1380    5.3390 O   0  0  0  0  0
   27.4280    6.5770    6.7500 N   0  0  0  0  0
   27.4910    5.3730    7.5610 C   0  0  0  0  0
   26.2644   16.5447   13.4911 H   0  0  0  0  0
   29.6020   14.8588   17.0523 H   0  0  0  0  0
   28.0424   16.4640   15.7539 H   0  0  0  0  0
   30.5938   10.0545   15.7090 H   0  0  0  0  0
   26.0398   13.1309   10.1903 H   0  0  0  0  0
   24.0302   11.9668    9.0710 H   0  0  0  0  0
   23.3259    9.8108    7.8588 H   0  0  0  0  0
   27.0259    7.7858    9.2900 H   0  0  0  0  0
   27.8585    9.9941   10.2644 H   0  0  0  0  0
   23.9083    7.6353    7.1096 H   0  0  0  0  0
   24.9919    6.5981    8.2003 H   0  0  0  0  0
   28.2967    7.0633    6.5281 H   0  0  0  0  0
   26.9085    5.5184    8.4708 H   0  0  0  0  0
   27.0827    4.5346    6.9967 H   0  0  0  0  0
   28.5289    5.1660    7.8218 H   0  0  0  0  0
  1  8  1  0  0  0
  1  2  1  0  0  0
  2 10  2  0  0  0
  2  3  1  0  0  0
  3 11  2  0  0  0
  3  9  1  0  0  0
  9  8  4  0  0  0
  9  4  4  0  0  0
  4 12  4  0  0  0
  4  5  4  0  0  0
  5 14  4  0  0  0
  5  6  4  0  0  0
  6  7  4  0  0  0
  7  8  4  0  0  0
 14 13  4  0  0  0
 13 12  4  0  0  0
 11 15  1  0  0  0
 15 16  1  0  0  0
 16 21  4  0  0  0
 16 17  4  0  0  0
 17 18  4  0  0  0
 18 19  4  0  0  0
 19 22  1  0  0  0
 19 20  4  0  0  0
 20 21  4  0  0  0
 22 23  1  0  0  0
 23 26  1  0  0  0
 23 25  2  0  0  0
 23 24  2  0  0  0
 26 27  1  0  0  0
  1 28  1  0  0  0
  6 29  1  0  0  0
  7 30  1  0  0  0
 13 31  1  0  0  0
 15 32  1  0  0  0
 17 33  1  0  0  0
 18 34  1  0  0  0
 20 35  1  0  0  0
 21 36  1  0  0  0
 22 37  1  0  0  0
 22 38  1  0  0  0
 26 39  1  0  0  0
 27 40  1  0  0  0
 27 41  1  0  0  0
 27 42  1  0  0  0
M  END
$$$$
