1v2v_ligand
  -I-interpret- 

 17 17  0  0  0  0  0  0  0  0999 V2000
   -3.1900    8.9750   19.6480 C   0  0  0  0  0
   -1.8280    8.7350   19.2290 C   0  0  0  0  0
   -1.2400    7.4330   19.3660 C   0  0  0  0  0
   -2.0070    6.3540   19.9250 C   0  0  0  0  0
   -3.3530    6.5790   20.3430 C   0  0  0  0  0
   -3.9450    7.8830   20.2070 C   0  0  0  0  0
   -3.8220   10.3670   19.4980 C   0  0  0  0  0
   -5.1220   10.5100   19.6390 N   0  0  0  0  0
   -3.0550   11.4030   19.2200 N   0  0  0  0  0
   -1.2418    9.5503   18.8050 H   0  0  0  0  0
   -0.2120    7.2626   19.0462 H   0  0  0  0  0
   -1.5613    5.3648   20.0297 H   0  0  0  0  0
   -3.9343    5.7601   20.7667 H   0  0  0  0  0
   -4.9733    8.0461   20.5296 H   0  0  0  0  0
   -5.5482   11.4306   19.5333 H   0  0  0  0  0
   -3.4684   12.3292   19.1117 H   0  0  0  0  0
   -2.0483   11.2782   19.1133 H   0  0  0  0  0
  1  2  4  0  0  0
  1  6  4  0  0  0
  1  7  1  0  0  0
  2  3  4  0  0  0
  3  4  4  0  0  0
  4  5  4  0  0  0
  5  6  4  0  0  0
  7  8  2  0  0  0
  7  9  1  0  0  0
  2 10  1  0  0  0
  3 11  1  0  0  0
  4 12  1  0  0  0
  5 13  1  0  0  0
  6 14  1  0  0  0
  8 15  1  0  0  0
  9 16  1  0  0  0
  9 17  1  0  0  0
M  END
$$$$
