3jyr_ligand
  -I-interpret- 

 88 91  0  0  0  0  0  0  0  0999 V2000
   22.3770   -8.7970   17.0440 C   0  0  0  0  0
   23.4350   -7.7180   17.3630 C   0  0  0  0  0
   24.6690   -7.8500   16.4820 C   0  0  0  0  0
   25.3240   -9.2300   16.5740 C   0  0  0  0  0
   24.3120  -10.3310   16.4460 C   0  0  0  0  0
   24.7850  -11.7240   16.1080 C   0  0  0  0  0
   22.9960  -10.1250   16.6280 C   0  0  0  0  0
   22.9240   -6.3910   17.1640 O   0  0  0  0  0
   25.6190   -6.8420   16.8600 O   0  0  0  0  0
   26.3010   -9.3380   15.5240 O   0  0  0  0  0
   24.9570  -12.4460   17.3300 O   0  0  0  0  0
   17.3090   -8.1560   15.2270 C   0  0  0  0  0
   17.6650   -8.0190   16.7110 C   0  0  0  0  0
   19.1810   -7.8220   16.8860 C   0  0  0  0  0
   20.0340   -8.8340   16.1080 C   0  0  0  0  0
   19.5150   -9.0210   14.6760 C   0  0  0  0  0
   20.1640  -10.2520   14.0300 C   0  0  0  0  0
   21.4270   -8.3680   16.0280 N   0  3  0  0  0
   16.9600   -6.9210   17.3060 O   0  0  0  0  0
   19.4990   -7.8650   18.2920 O   0  0  0  0  0
   18.0900   -9.1850   14.6270 O   0  0  0  0  0
   15.6510   -4.1670   12.1430 C   0  0  0  0  0
   14.8650   -4.6500   13.3580 C   0  0  0  0  0
   15.8500   -5.2780   14.3420 C   0  0  0  0  0
   16.5660   -6.4740   13.6900 C   0  0  0  0  0
   17.2260   -6.0320   12.3750 C   0  0  0  0  0
   17.7110   -7.2420   11.5760 C   0  0  0  0  0
   14.1970   -3.5200   13.9460 O   0  0  0  0  0
   15.1500   -5.6700   15.5440 O   0  0  0  0  0
   17.5970   -6.9430   14.5420 O   0  0  0  0  0
   16.2760   -5.3130   11.5660 O   0  0  0  0  0
   18.7060   -6.7910   10.6440 O   0  0  0  0  0
   17.9050    0.5850   11.5080 C   0  0  0  0  0
   16.4010    0.3700   11.6360 C   0  0  0  0  0
   16.0800   -0.9150   12.4030 C   0  0  0  0  0
   16.7810   -2.0850   11.7170 C   0  0  0  0  0
   18.2810   -1.7940   11.5870 C   0  0  0  0  0
   19.0190   -2.9350   10.8620 C   0  0  0  0  0
   18.4780    0.7960   12.7940 O   0  0  0  0  0
   15.8780    1.5110   12.3160 O   0  0  0  0  0
   14.6710   -1.1520   12.4370 O   0  0  0  0  0
   16.6340   -3.2180   12.5570 O   0  0  0  0  0
   18.5240   -0.5460   10.8930 O   0  0  0  0  0
   20.4440   -2.7750   11.0140 O   0  0  0  0  0
   21.8395   -8.9457   17.9805 H   0  0  0  0  0
   23.6957   -7.8753   18.4096 H   0  0  0  0  0
   24.3494   -7.7205   15.4480 H   0  0  0  0  0
   25.7961   -9.3339   17.5510 H   0  0  0  0  0
   25.7284  -11.6778   15.5640 H   0  0  0  0  0
   24.0520  -12.2257   15.4763 H   0  0  0  0  0
   22.3244  -10.9682   16.4664 H   0  0  0  0  0
   22.1408   -6.2664   17.7050 H   0  0  0  0  0
   25.2064   -5.9771   16.8017 H   0  0  0  0  0
   26.9441   -8.6308   15.6129 H   0  0  0  0  0
   25.2582  -13.3363   17.1346 H   0  0  0  0  0
   16.2475   -8.3932   15.1560 H   0  0  0  0  0
   17.3662   -8.9387   17.2140 H   0  0  0  0  0
   19.4302   -6.8485   16.4637 H   0  0  0  0  0
   19.9750   -9.7825   16.6419 H   0  0  0  0  0
   19.7791   -8.1147   14.1310 H   0  0  0  0  0
   21.2454  -10.1185   14.0023 H   0  0  0  0  0
   19.9209  -11.1387   14.6155 H   0  0  0  0  0
   19.7851  -10.3703   13.0149 H   0  0  0  0  0
   21.7835   -8.7572   15.1552 H   0  0  0  0  0
   21.3706   -7.3550   16.1334 H   0  0  0  0  0
   17.1980   -6.8544   18.2336 H   0  0  0  0  0
   20.4440   -7.7427   18.4091 H   0  0  0  0  0
   14.9995   -3.6822   11.4159 H   0  0  0  0  0
   14.1169   -5.3931   13.0821 H   0  0  0  0  0
   16.6117   -4.5469   14.6129 H   0  0  0  0  0
   15.8287   -7.2563   13.5100 H   0  0  0  0  0
   18.0742   -5.3950   12.6259 H   0  0  0  0  0
   16.8772   -7.6995   11.0435 H   0  0  0  0  0
   18.1353   -7.9895   12.2463 H   0  0  0  0  0
   13.6973   -3.8087   14.7132 H   0  0  0  0  0
   15.7712   -6.0643   16.1606 H   0  0  0  0  0
   19.0242   -7.5375   10.1312 H   0  0  0  0  0
   18.0736    1.4632   10.8848 H   0  0  0  0  0
   15.9485    0.2589   10.6506 H   0  0  0  0  0
   16.4312   -0.8124   13.4298 H   0  0  0  0  0
   16.3518   -2.2474   10.7283 H   0  0  0  0  0
   18.6697   -1.7130   12.6021 H   0  0  0  0  0
   18.7661   -2.9093    9.8020 H   0  0  0  0  0
   18.7170   -3.8891   11.2940 H   0  0  0  0  0
   19.4242    0.9303   12.7034 H   0  0  0  0  0
   14.9283    1.4143   12.4172 H   0  0  0  0  0
   14.4954   -1.9615   12.9223 H   0  0  0  0  0
   20.8954   -3.4899   10.5594 H   0  0  0  0  0
  1  2  1  0  0  0
  1  7  1  0  0  0
 18  1  1  0  0  0
  2  3  1  0  0  0
  2  8  1  0  0  0
  3  4  1  0  0  0
  3  9  1  0  0  0
  5  4  1  0  0  0
  4 10  1  0  0  0
  5  6  1  0  0  0
  7  5  2  0  0  0
  6 11  1  0  0  0
 12 13  1  0  0  0
 12 21  1  0  0  0
 30 12  1  0  0  0
 13 14  1  0  0  0
 13 19  1  0  0  0
 14 15  1  0  0  0
 14 20  1  0  0  0
 16 15  1  0  0  0
 15 18  1  0  0  0
 16 17  1  0  0  0
 21 16  1  0  0  0
 22 23  1  0  0  0
 22 31  1  0  0  0
 42 22  1  0  0  0
 23 24  1  0  0  0
 23 28  1  0  0  0
 24 25  1  0  0  0
 24 29  1  0  0  0
 26 25  1  0  0  0
 25 30  1  0  0  0
 26 27  1  0  0  0
 31 26  1  0  0  0
 27 32  1  0  0  0
 34 33  1  0  0  0
 33 39  1  0  0  0
 33 43  1  0  0  0
 35 34  1  0  0  0
 34 40  1  0  0  0
 36 35  1  0  0  0
 35 41  1  0  0  0
 36 37  1  0  0  0
 36 42  1  0  0  0
 37 38  1  0  0  0
 37 43  1  0  0  0
 38 44  1  0  0  0
  1 45  1  0  0  0
  2 46  1  0  0  0
  3 47  1  0  0  0
  4 48  1  0  0  0
  6 49  1  0  0  0
  6 50  1  0  0  0
  7 51  1  0  0  0
  8 52  1  0  0  0
  9 53  1  0  0  0
 10 54  1  0  0  0
 11 55  1  0  0  0
 12 56  1  0  0  0
 13 57  1  0  0  0
 14 58  1  0  0  0
 15 59  1  0  0  0
 16 60  1  0  0  0
 17 61  1  0  0  0
 17 62  1  0  0  0
 17 63  1  0  0  0
 18 64  1  0  0  0
 18 65  1  0  0  0
 19 66  1  0  0  0
 20 67  1  0  0  0
 22 68  1  0  0  0
 23 69  1  0  0  0
 24 70  1  0  0  0
 25 71  1  0  0  0
 26 72  1  0  0  0
 27 73  1  0  0  0
 27 74  1  0  0  0
 28 75  1  0  0  0
 29 76  1  0  0  0
 32 77  1  0  0  0
 33 78  1  0  0  0
 34 79  1  0  0  0
 35 80  1  0  0  0
 36 81  1  0  0  0
 37 82  1  0  0  0
 38 83  1  0  0  0
 38 84  1  0  0  0
 39 85  1  0  0  0
 40 86  1  0  0  0
 41 87  1  0  0  0
 44 88  1  0  0  0
M  END
$$$$
