3q6z_ligand
  -I-interpret- 

 59 62  0  0  0  0  0  0  0  0999 V2000
   18.0150   25.5180   15.6540 N   0  0  0  0  0
   17.9270   24.4720   16.4920 C   0  0  0  0  0
   17.0890   23.4510   16.2850 N   0  0  0  0  0
   16.2890   23.4600   15.2090 C   0  0  0  0  0
   16.3360   24.5230   14.2850 C   0  0  0  0  0
   17.2510   25.5890   14.5370 C   0  0  0  0  0
   17.4000   26.6520   13.7260 N   0  0  0  0  0
   15.4300   24.2200   13.3120 N   0  0  0  0  0
   14.8540   23.0470   13.6260 C   0  0  0  0  0
   15.3810   22.5840   14.7770 N   0  0  0  0  0
   15.0320   21.3330   15.5130 C   0  0  0  0  0
   13.6880   20.9140   14.9430 C   0  0  0  0  0
   12.6590   21.6580   15.6060 O   0  0  0  0  0
   13.6520   19.4450   15.3210 C   0  0  0  0  0
   13.2640   19.3480   16.6760 O   0  0  0  0  0
   15.9240   20.2410   15.2660 O   0  0  0  0  0
   15.1200   19.0080   15.1460 C   0  0  0  0  0
   15.4020   18.3070   13.7740 C   0  0  0  0  0
   14.7700   19.0290   12.6870 O   0  0  0  0  0
   15.4290   19.2230   11.2560 P   0  0  0  0  0
   16.6810   19.9870   11.4840 O   0  0  0  0  0
   14.4720   19.8250   10.2880 O   0  0  0  0  0
   15.8680   17.5870   10.8840 O   0  0  0  0  0
   15.1420   16.4690    9.8170 P   0  0  0  0  0
   13.7660   16.7060   10.3370 O   0  0  0  0  0
   16.0510   15.3940   10.3620 O   0  0  0  0  0
   15.6730   17.3990    8.6690 O   0  0  0  0  0
   16.8150   17.0280    7.9370 C   0  0  0  0  0
   16.6290   19.2720    7.3780 O   0  0  0  0  0
   17.1240   20.7250    5.7280 O   0  0  0  0  0
   17.6910   20.1980    6.9610 C   0  0  0  0  0
   19.9810   19.8330    5.9950 O   0  0  0  0  0
   18.9150   19.2790    6.8060 C   0  0  0  0  0
   17.9780   18.5080    4.6610 O   0  0  0  0  0
   18.2350   18.1310    6.0500 C   0  0  0  0  0
   16.8990   17.9980    6.7850 C   0  0  0  0  0
   18.5643   24.4549   17.3761 H   0  0  0  0  0
   18.0756   27.3800   13.9583 H   0  0  0  0  0
   16.8373   26.7300   12.8788 H   0  0  0  0  0
   14.0813   22.5480   13.0412 H   0  0  0  0  0
   15.0608   21.5393   16.5829 H   0  0  0  0  0
   13.5478   21.0838   13.8755 H   0  0  0  0  0
   11.8033   21.4020   15.2542 H   0  0  0  0  0
   12.9619   18.8388   14.7341 H   0  0  0  0  0
   13.2355   18.4238   16.9341 H   0  0  0  0  0
   15.3727   18.2640   15.9015 H   0  0  0  0  0
   14.9969   17.2956   13.8064 H   0  0  0  0  0
   16.4785   18.2878   13.6040 H   0  0  0  0  0
   13.6997   19.2602   10.2100 H   0  0  0  0  0
   16.8862   15.4127    9.8891 H   0  0  0  0  0
   16.7425   15.9992    7.5842 H   0  0  0  0  0
   17.7120   17.0682    8.5550 H   0  0  0  0  0
   17.7331   21.3589    5.3423 H   0  0  0  0  0
   17.9948   21.0286    7.5981 H   0  0  0  0  0
   20.7045   19.2039    5.9463 H   0  0  0  0  0
   19.4134   19.0504    7.7480 H   0  0  0  0  0
   17.5529   17.7775    4.2058 H   0  0  0  0  0
   18.8341   17.2207    6.0271 H   0  0  0  0  0
   16.2118   17.6327    6.0218 H   0  0  0  0  0
  2  1  4  0  0  0
  6  1  4  0  0  0
  3  2  4  0  0  0
  4  3  4  0  0  0
  4  5  4  0  0  0
 10  4  4  0  0  0
  5  6  4  0  0  0
  8  5  4  0  0  0
  6  7  1  0  0  0
  9  8  4  0  0  0
 10  9  4  0  0  0
 11 10  1  0  0  0
 11 12  1  0  0  0
 16 11  1  0  0  0
 12 13  1  0  0  0
 14 12  1  0  0  0
 14 15  1  0  0  0
 17 14  1  0  0  0
 17 16  1  0  0  0
 18 17  1  0  0  0
 19 18  1  0  0  0
 20 19  1  0  0  0
 20 21  2  0  0  0
 20 22  1  0  0  0
 23 20  1  0  0  0
 24 23  1  0  0  0
 24 25  2  0  0  0
 24 26  1  0  0  0
 27 24  1  0  0  0
 28 27  1  0  0  0
 36 28  1  0  0  0
 29 31  1  0  0  0
 29 36  1  0  0  0
 31 30  1  0  0  0
 31 33  1  0  0  0
 33 32  1  0  0  0
 33 35  1  0  0  0
 35 34  1  0  0  0
 35 36  1  0  0  0
  2 37  1  0  0  0
  7 38  1  0  0  0
  7 39  1  0  0  0
  9 40  1  0  0  0
 11 41  1  0  0  0
 12 42  1  0  0  0
 13 43  1  0  0  0
 14 44  1  0  0  0
 15 45  1  0  0  0
 17 46  1  0  0  0
 18 47  1  0  0  0
 18 48  1  0  0  0
 22 49  1  0  0  0
 26 50  1  0  0  0
 28 51  1  0  0  0
 28 52  1  0  0  0
 30 53  1  0  0  0
 31 54  1  0  0  0
 32 55  1  0  0  0
 33 56  1  0  0  0
 34 57  1  0  0  0
 35 58  1  0  0  0
 36 59  1  0  0  0
M  END
$$$$
