3vqs_ligand
  -I-interpret- 

 70 75  0  0  0  0  0  0  0  0999 V2000
   50.1140   33.1550   47.6920 N   0  0  0  0  0
   48.9010   33.7970   45.2790 N   0  0  0  0  0
   47.6100   34.3230   44.4820 S   0  0  0  0  0
   46.3200   34.4030   45.5890 C   0  0  0  0  0
   47.2850   33.3730   43.4900 O   0  0  0  0  0
   47.8290   35.7480   44.0780 O   0  0  0  0  0
   46.1700   35.5600   46.3970 C   0  0  0  0  0
   45.0210   35.6420   47.2540 C   0  0  0  0  0
   44.0990   34.5890   47.2040 C   0  0  0  0  0
   44.2040   33.4670   46.3670 C   0  0  0  0  0
   45.3190   33.4170   45.5370 C   0  0  0  0  0
   48.9280   32.3510   45.5680 C   0  0  0  0  0
   49.1700   32.2380   47.1130 C   0  0  0  0  0
   50.0460   34.5890   47.2850 C   0  0  0  0  0
   49.9270   34.7070   45.7580 C   0  0  0  0  0
   50.0860   31.6240   44.8390 C   0  0  0  0  0
   50.5080   30.4720   45.2220 O   0  0  0  0  0
   50.7020   32.3070   43.8020 N   0  0  0  0  0
   51.6350   31.5290   42.9850 C   0  0  0  0  0
   51.0580   30.6640   41.8820 C   0  0  0  0  0
   51.1630   29.2630   42.0110 C   0  0  0  0  0
   50.5900   28.4290   41.0370 C   0  0  0  0  0
   50.0400   29.0300   39.9000 C   0  0  0  0  0
   49.9180   30.4340   39.7930 C   0  0  0  0  0
   50.4130   31.2430   40.7810 C   0  0  0  0  0
   51.2920   32.6870   48.2700 C   0  0  0  0  0
   51.5330   30.9430   48.5830 S   0  0  0  0  0
   52.2270   33.5210   48.6760 N   0  0  0  0  0
   53.2450   32.7630   49.2690 C   0  0  0  0  0
   53.0140   31.3560   49.2590 C   0  0  0  0  0
   54.0430   30.5940   49.8120 C   0  0  0  0  0
   55.1360   31.1820   50.3350 N   0  0  0  0  0
   55.3010   32.5150   50.2620 C   0  0  0  0  0
   54.3990   33.3790   49.7470 N   0  0  0  0  0
   49.5410   28.3230   38.8630 O   0  0  0  0  0
   48.2320   27.8390   38.9190 C   0  0  0  0  0
   42.8280   34.6650   48.0320 C   0  0  0  0  0
   56.5480   33.1860   50.7840 C   0  0  0  0  0
   57.1480   32.7440   52.1230 C   0  0  0  0  0
   57.8560   32.4670   50.8150 C   0  0  0  0  0
   47.9620   27.2670   37.7530 F   0  0  0  0  0
   47.3950   28.8290   39.1160 F   0  0  0  0  0
   48.0280   26.9650   39.8900 F   0  0  0  0  0
   42.4240   33.5180   48.6110 F   0  0  0  0  0
   41.7450   35.0640   47.2610 F   0  0  0  0  0
   42.7310   35.5370   49.0310 F   0  0  0  0  0
   49.3790   30.8980   38.6750 F   0  0  0  0  0
   46.9060   36.3634   46.3678 H   0  0  0  0  0
   44.8718   36.4926   47.9191 H   0  0  0  0  0
   43.4524   32.6776   46.3675 H   0  0  0  0  0
   45.4191   32.5939   44.8295 H   0  0  0  0  0
   47.9993   31.8893   45.2327 H   0  0  0  0  0
   48.2116   32.4601   47.5823 H   0  0  0  0  0
   49.5810   31.2421   47.2788 H   0  0  0  0  0
   50.9555   35.0940   47.6104 H   0  0  0  0  0
   49.1712   35.0478   47.7458 H   0  0  0  0  0
   49.6575   35.7294   45.4931 H   0  0  0  0  0
   50.8819   34.4512   45.2989 H   0  0  0  0  0
   50.5163   33.2931   43.6190 H   0  0  0  0  0
   52.1178   30.8367   43.6748 H   0  0  0  0  0
   52.2618   32.2640   42.4801 H   0  0  0  0  0
   51.6867   28.8296   42.8631 H   0  0  0  0  0
   50.5744   27.3465   41.1633 H   0  0  0  0  0
   50.3064   32.3256   40.7116 H   0  0  0  0  0
   53.9614   29.5071   49.8210 H   0  0  0  0  0
   56.2053   34.1290   50.3580 H   0  0  0  0  0
   56.8504   32.2192   53.0308 H   0  0  0  0  0
   57.3623   33.1539   53.1100 H   0  0  0  0  0
   58.8547   32.5908   50.3963 H   0  0  0  0  0
   58.3224   31.6187   50.3140 H   0  0  0  0  0
 13  1  1  0  0  0
  1 14  1  0  0  0
  1 26  1  0  0  0
  2  3  1  0  0  0
 12  2  1  0  0  0
  2 15  1  0  0  0
  3  4  1  0  0  0
  3  5  2  0  0  0
  3  6  2  0  0  0
  4  7  4  0  0  0
  4 11  4  0  0  0
  7  8  4  0  0  0
  8  9  4  0  0  0
 10  9  4  0  0  0
  9 37  1  0  0  0
 11 10  4  0  0  0
 12 13  1  0  0  0
 12 16  1  0  0  0
 14 15  1  0  0  0
 16 17  2  0  0  0
 16 18  1  0  0  0
 18 19  1  0  0  0
 19 20  1  0  0  0
 20 21  4  0  0  0
 20 25  4  0  0  0
 21 22  4  0  0  0
 22 23  4  0  0  0
 23 24  4  0  0  0
 23 35  1  0  0  0
 24 25  4  0  0  0
 24 47  1  0  0  0
 26 27  4  0  0  0
 26 28  4  0  0  0
 27 30  4  0  0  0
 28 29  4  0  0  0
 29 30  4  0  0  0
 29 34  4  0  0  0
 30 31  4  0  0  0
 31 32  4  0  0  0
 32 33  4  0  0  0
 33 34  4  0  0  0
 33 38  1  0  0  0
 35 36  1  0  0  0
 36 41  1  0  0  0
 36 42  1  0  0  0
 36 43  1  0  0  0
 37 44  1  0  0  0
 37 45  1  0  0  0
 37 46  1  0  0  0
 38 39  1  0  0  0
 38 40  1  0  0  0
 39 40  1  0  0  0
  7 48  1  0  0  0
  8 49  1  0  0  0
 10 50  1  0  0  0
 11 51  1  0  0  0
 12 52  1  0  0  0
 13 53  1  0  0  0
 13 54  1  0  0  0
 14 55  1  0  0  0
 14 56  1  0  0  0
 15 57  1  0  0  0
 15 58  1  0  0  0
 18 59  1  0  0  0
 19 60  1  0  0  0
 19 61  1  0  0  0
 21 62  1  0  0  0
 22 63  1  0  0  0
 25 64  1  0  0  0
 31 65  1  0  0  0
 38 66  1  0  0  0
 39 67  1  0  0  0
 39 68  1  0  0  0
 40 69  1  0  0  0
 40 70  1  0  0  0
M  END
$$$$
