1usn_ligand
  -I-interpret- 

 37 38  0  0  0  0  0  0  0  0999 V2000
   30.2460   46.7170   48.5170 C   0  0  0  0  0
   31.5450   48.6720   48.9840 C   0  0  0  0  0
   28.0690   45.4910   48.7770 C   0  0  0  0  0
   25.2580   44.2280   47.2870 C   0  0  0  0  0
   24.5330   46.5630   46.8750 C   0  0  0  0  0
   25.4050   45.5580   46.6030 C   0  0  0  0  0
   26.3780   45.7110   45.6450 C   0  0  0  0  0
   26.5220   46.9180   45.0240 C   0  0  0  0  0
   25.6820   47.9480   45.3290 C   0  0  0  0  0
   24.6970   47.7870   46.2570 C   0  0  0  0  0
   24.3630   41.3640   50.6840 C   0  0  0  0  0
   29.9770   48.1660   49.3840 S   0  0  0  0  0
   31.4160   46.6130   47.9580 N   0  0  0  0  0
   32.1760   47.7510   48.2380 N   0  0  0  0  0
   29.3610   45.5620   48.4130 N   0  0  0  0  0
   32.3620   50.2300   49.4090 S   0  0  0  0  0
   27.4500   46.5950   49.3110 O   0  0  0  0  0
   27.3770   44.2800   48.4840 N   0  0  0  0  0
   25.9460   44.2060   48.6720 C   0  0  0  0  0
   25.7070   42.8950   49.3170 C   0  0  0  0  0
   26.4450   41.9680   49.0470 O   0  0  0  0  0
   24.5620   42.7460   50.1680 N   0  0  0  0  0
   27.2580   44.7130   45.3510 F   0  0  0  0  0
   27.4790   47.1340   44.0660 F   0  0  0  0  0
   25.7740   49.1330   44.6540 F   0  0  0  0  0
   23.8030   48.8230   46.4920 F   0  0  0  0  0
   23.4670   46.4350   47.7380 F   0  0  0  0  0
   24.1949   44.0366   47.4327 H   0  0  0  0  0
   25.7296   43.4702   46.6613 H   0  0  0  0  0
   24.2312   40.6800   49.8456 H   0  0  0  0  0
   25.2357   41.0652   51.2647 H   0  0  0  0  0
   23.4769   41.3384   51.3182 H   0  0  0  0  0
   29.7682   44.7133   48.0201 H   0  0  0  0  0
   31.5419   50.9716   50.1482 H   0  0  0  0  0
   27.8905   43.4675   48.1425 H   0  0  0  0  0
   25.5588   45.0331   49.2670 H   0  0  0  0  0
   23.9386   43.5195   50.3994 H   0  0  0  0  0
  1 15  1  0  0  0
 13  1  4  0  0  0
  1 12  4  0  0  0
 14 13  4  0  0  0
 15  3  1  0  0  0
  3 17  2  0  0  0
  3 18  1  0  0  0
 18 19  1  0  0  0
 19 20  1  0  0  0
 19  4  1  0  0  0
  4  6  1  0  0  0
  6  5  4  0  0  0
  6  7  4  0  0  0
  7  8  4  0  0  0
  8  9  4  0  0  0
 10  9  4  0  0  0
  5 10  4  0  0  0
 20 22  1  0  0  0
 20 21  2  0  0  0
 22 11  1  0  0  0
  7 23  1  0  0  0
  2 16  1  0  0  0
 14  2  4  0  0  0
 12  2  4  0  0  0
  8 24  1  0  0  0
  9 25  1  0  0  0
 10 26  1  0  0  0
  5 27  1  0  0  0
  4 28  1  0  0  0
  4 29  1  0  0  0
 11 30  1  0  0  0
 11 31  1  0  0  0
 11 32  1  0  0  0
 15 33  1  0  0  0
 16 34  1  0  0  0
 18 35  1  0  0  0
 19 36  1  0  0  0
 22 37  1  0  0  0
M  END
$$$$
