3rzi_ligand
  -I-interpret- 

 27 28  0  0  0  0  0  0  0  0999 V2000
  -65.3320   93.2790   -7.7920 N   0  3  0  0  0
  -65.3910   94.6330   -7.1790 C   0  0  0  0  0
  -66.4120   94.7010   -6.0470 C   0  0  0  0  0
  -67.2720   93.8480   -5.8490 O   0  0  0  0  0
  -65.7350   95.6790   -8.2270 C   0  0  0  0  0
  -66.9860   95.3660   -8.9770 C   0  0  0  0  0
  -67.1360   94.4570   -9.9850 C   0  0  0  0  0
  -68.2690   95.9550   -8.7730 C   0  0  0  0  0
  -68.4390   94.4470  -10.4240 N   0  0  0  0  0
  -69.1600   95.3390   -9.6780 C   0  0  0  0  0
  -68.7620   96.9090   -7.8800 C   0  0  0  0  0
  -70.5140   95.6710   -9.7360 C   0  0  0  0  0
  -70.1060   97.2350   -7.9350 C   0  0  0  0  0
  -70.9640   96.6280   -8.8670 C   0  0  0  0  0
  -66.4390   95.6830   -5.3330 O   0  0  0  0  0
  -65.1003   92.5920   -7.0745 H   0  0  0  0  0
  -66.2385   93.0525   -8.2012 H   0  0  0  0  0
  -64.6169   93.2672   -8.5192 H   0  0  0  0  0
  -64.4041   94.8378   -6.7642 H   0  0  0  0  0
  -67.1518   93.1243   -6.4681 H   0  0  0  0  0
  -64.9164   95.7094   -8.9460 H   0  0  0  0  0
  -65.8862   96.6274   -7.7114 H   0  0  0  0  0
  -66.3384   93.8302  -10.3838 H   0  0  0  0  0
  -68.1025   97.3865   -7.1553 H   0  0  0  0  0
  -71.1863   95.1877  -10.4448 H   0  0  0  0  0
  -70.5058   97.9760   -7.2428 H   0  0  0  0  0
  -72.0120   96.9259   -8.8989 H   0  0  0  0  0
  1  2  1  0  0  0
  2  3  1  0  0  0
  2  5  1  0  0  0
  3  4  1  0  0  0
  3 15  2  0  0  0
  5  6  1  0  0  0
  6  7  4  0  0  0
  6  8  4  0  0  0
  7  9  4  0  0  0
  8 10  4  0  0  0
  8 11  4  0  0  0
  9 10  4  0  0  0
 10 12  4  0  0  0
 11 13  4  0  0  0
 12 14  4  0  0  0
 13 14  4  0  0  0
  1 16  1  0  0  0
  1 17  1  0  0  0
  1 18  1  0  0  0
  2 19  1  0  0  0
  4 20  1  0  0  0
  5 21  1  0  0  0
  5 22  1  0  0  0
  7 23  1  0  0  0
 11 24  1  0  0  0
 12 25  1  0  0  0
 13 26  1  0  0  0
 14 27  1  0  0  0
M  END
$$$$
