2pcu_ligand
  -I-interpret- 

 91 92  0  0  0  0  0  0  0  0999 V2000
    5.4480   48.4730   24.2180 N   0  3  0  0  0
    4.3940   48.7120   23.1890 C   0  0  0  0  0
    3.0940   49.1270   23.8710 C   0  0  0  0  0
    2.9430   48.9280   25.0600 O   0  0  0  0  0
    4.1880   47.4530   22.3370 C   0  0  0  0  0
    4.0990   46.1790   23.1460 C   0  0  0  0  0
    5.2080   45.3500   23.2720 C   0  0  0  0  0
    2.9360   45.8500   23.8050 C   0  0  0  0  0
    5.1470   44.1880   24.0290 C   0  0  0  0  0
    2.8590   44.6900   24.5690 C   0  0  0  0  0
    3.9730   43.8710   24.7020 C   0  0  0  0  0
    2.1560   49.6740   23.0910 N   0  0  0  0  0
    0.9010   50.1580   23.6450 C   0  0  0  0  0
   -0.3100   49.4230   23.1620 C   0  0  0  0  0
   -1.4200   49.6300   23.6930 O   0  0  0  0  0
    0.7760   51.6560   23.3140 C   0  0  0  0  0
    1.8680   52.4640   24.0310 C   0  0  0  0  0
    1.9660   52.4210   25.2570 O   0  0  0  0  0
    2.7120   53.1310   23.2900 N   0  0  0  0  0
   -0.1330   48.5930   22.1380 N   0  0  0  0  0
   -1.2110   47.7250   21.6660 C   0  0  0  0  0
   -0.6970   46.3000   21.5240 C   0  0  0  0  0
    0.5110   46.0710   21.4110 O   0  0  0  0  0
   -1.7240   48.1830   20.3150 C   0  0  0  0  0
   -2.0970   49.6760   20.2570 C   0  0  0  0  0
   -3.0080   49.8930   19.0910 C   0  0  0  0  0
   -3.1700   51.3200   18.7450 N   0  0  0  0  0
   -4.1020   51.7330   17.8840 C   0  0  0  0  0
   -5.0080   50.8580   17.4320 N   0  0  0  0  0
   -4.1890   53.0140   17.5080 N   0  0  0  0  0
   -1.6130   45.3210   21.6270 N   0  0  0  0  0
   -1.1390   43.9470   21.5560 C   0  0  0  0  0
   -0.5580   43.5540   20.1810 C   0  0  0  0  0
   -0.8370   44.1680   19.1010 O   0  0  0  0  0
   -2.3770   43.1100   21.9240 C   0  0  0  0  0
   -3.5580   43.9910   21.5440 C   0  0  0  0  0
   -3.0660   45.3890   21.9240 C   0  0  0  0  0
    0.2690   42.5350   20.2570 N   0  0  0  0  0
    1.1120   42.1370   19.0900 C   0  0  0  0  0
    0.7400   40.7300   18.5120 C   0  0  0  0  0
    1.5190   39.9760   17.8900 O   0  0  0  0  0
    2.6050   42.2590   19.4680 C   0  0  0  0  0
    3.0020   43.7390   19.5760 C   0  0  0  0  0
    2.9660   41.4700   20.7540 C   0  0  0  0  0
   -0.4280   40.3160   18.5520 O   0  0  0  0  0
    5.5741   49.3173   24.7763 H   0  0  0  0  0
    5.1623   47.7033   24.8232 H   0  0  0  0  0
    6.3255   48.2356   23.7554 H   0  0  0  0  0
    4.7126   49.5181   22.5280 H   0  0  0  0  0
    5.0513   47.3608   21.6780 H   0  0  0  0  0
    3.2425   47.5692   21.8073 H   0  0  0  0  0
    6.1380   45.6161   22.7696 H   0  0  0  0  0
    2.0677   46.5043   23.7275 H   0  0  0  0  0
    6.0130   43.5294   24.0951 H   0  0  0  0  0
    1.9246   44.4238   25.0632 H   0  0  0  0  0
    3.9266   42.9827   25.3320 H   0  0  0  0  0
    2.3236   49.7535   22.0880 H   0  0  0  0  0
    0.9333   49.9831   24.7204 H   0  0  0  0  0
   -0.1998   52.0100   23.6468 H   0  0  0  0  0
    0.8883   51.7895   22.2381 H   0  0  0  0  0
    3.4827   53.6380   23.7252 H   0  0  0  0  0
    2.6003   53.1448   22.2762 H   0  0  0  0  0
    0.7738   48.5612   21.6721 H   0  0  0  0  0
   -2.0212   47.7699   22.3938 H   0  0  0  0  0
   -2.6308   47.6157   20.1053 H   0  0  0  0  0
   -0.9220   48.0228   19.5944 H   0  0  0  0  0
   -1.1969   50.2801   20.1432 H   0  0  0  0  0
   -2.5972   49.9705   21.1796 H   0  0  0  0  0
   -3.9897   49.5020   19.3585 H   0  0  0  0  0
   -2.5708   49.3892   18.2289 H   0  0  0  0  0
   -2.5527   52.0082   19.1759 H   0  0  0  0  0
   -5.7526   51.1708   16.8091 H   0  0  0  0  0
   -4.9539   49.8782   17.7104 H   0  0  0  0  0
   -3.5335   53.7007   17.8811 H   0  0  0  0  0
   -0.2973   43.7842   22.2292 H   0  0  0  0  0
   -2.3901   42.8419   22.9804 H   0  0  0  0  0
   -2.3947   42.1542   21.4004 H   0  0  0  0  0
   -4.4804   43.7106   22.0526 H   0  0  0  0  0
   -3.8322   43.9065   20.4924 H   0  0  0  0  0
   -3.5740   46.1808   21.3735 H   0  0  0  0  0
   -3.2742   45.6431   22.9633 H   0  0  0  0  0
    0.3361   42.0074   21.1273 H   0  0  0  0  0
    0.9070   42.8265   18.2711 H   0  0  0  0  0
    2.4017   40.3535   17.8971 H   0  0  0  0  0
    3.1857   41.7997   18.6681 H   0  0  0  0  0
    2.8334   44.2300   18.6175 H   0  0  0  0  0
    2.3970   44.2210   20.3440 H   0  0  0  0  0
    4.0563   43.8125   19.8429 H   0  0  0  0  0
    2.3782   41.8507   21.5893 H   0  0  0  0  0
    2.7451   40.4132   20.6044 H   0  0  0  0  0
    4.0275   41.5938   20.9687 H   0  0  0  0  0
  1  2  1  0  0  0
  2  3  1  0  0  0
  2  5  1  0  0  0
  3  4  2  0  0  0
  3 12  1  0  0  0
  5  6  1  0  0  0
  6  7  4  0  0  0
  6  8  4  0  0  0
  7  9  4  0  0  0
  8 10  4  0  0  0
  9 11  4  0  0  0
 10 11  4  0  0  0
 12 13  1  0  0  0
 13 14  1  0  0  0
 13 16  1  0  0  0
 14 15  2  0  0  0
 14 20  1  0  0  0
 16 17  1  0  0  0
 17 18  2  0  0  0
 17 19  1  0  0  0
 20 21  1  0  0  0
 21 22  1  0  0  0
 21 24  1  0  0  0
 22 23  2  0  0  0
 22 31  1  0  0  0
 24 25  1  0  0  0
 25 26  1  0  0  0
 26 27  1  0  0  0
 27 28  1  0  0  0
 28 29  1  0  0  0
 28 30  2  0  0  0
 31 32  1  0  0  0
 31 37  1  0  0  0
 32 33  1  0  0  0
 32 35  1  0  0  0
 33 34  2  0  0  0
 33 38  1  0  0  0
 35 36  1  0  0  0
 36 37  1  0  0  0
 38 39  1  0  0  0
 39 40  1  0  0  0
 39 42  1  0  0  0
 40 41  1  0  0  0
 40 45  2  0  0  0
 42 43  1  0  0  0
 42 44  1  0  0  0
  1 46  1  0  0  0
  1 47  1  0  0  0
  1 48  1  0  0  0
  2 49  1  0  0  0
  5 50  1  0  0  0
  5 51  1  0  0  0
  7 52  1  0  0  0
  8 53  1  0  0  0
  9 54  1  0  0  0
 10 55  1  0  0  0
 11 56  1  0  0  0
 12 57  1  0  0  0
 13 58  1  0  0  0
 16 59  1  0  0  0
 16 60  1  0  0  0
 19 61  1  0  0  0
 19 62  1  0  0  0
 20 63  1  0  0  0
 21 64  1  0  0  0
 24 65  1  0  0  0
 24 66  1  0  0  0
 25 67  1  0  0  0
 25 68  1  0  0  0
 26 69  1  0  0  0
 26 70  1  0  0  0
 27 71  1  0  0  0
 29 72  1  0  0  0
 29 73  1  0  0  0
 30 74  1  0  0  0
 32 75  1  0  0  0
 35 76  1  0  0  0
 35 77  1  0  0  0
 36 78  1  0  0  0
 36 79  1  0  0  0
 37 80  1  0  0  0
 37 81  1  0  0  0
 38 82  1  0  0  0
 39 83  1  0  0  0
 41 84  1  0  0  0
 42 85  1  0  0  0
 43 86  1  0  0  0
 43 87  1  0  0  0
 43 88  1  0  0  0
 44 89  1  0  0  0
 44 90  1  0  0  0
 44 91  1  0  0  0
M  END
$$$$
