1hi5_ligand
  -I-interpret- 

 42 44  0  0  0  0  0  0  0  0999 V2000
   14.5960   14.3740    9.6300 P   0  0  0  0  0
   14.6160   15.7120   10.3480 O   0  0  0  0  0
   15.9180   13.6710    9.8600 O   0  0  0  0  0
   13.4440   13.5430   10.1630 O   0  0  0  0  0
   14.0640   13.7200    6.9350 P   0  0  0  0  0
   14.3700   12.2490    7.1720 O   0  0  0  0  0
   14.7240   14.2520    5.6760 O   0  0  0  0  0
   14.3660   14.6040    8.1450 O   0  0  0  0  0
   12.4560   13.8060    6.6750 O   0  0  0  0  0
   11.7700   15.0780    6.6220 C   0  0  0  0  0
   10.8650   15.1420    5.4060 C   0  0  0  0  0
   11.6710   15.0110    4.2000 O   0  0  0  0  0
    9.7830   14.0650    5.3210 C   0  0  0  0  0
    8.5770   14.5770    4.7480 O   0  0  0  0  0
   10.4100   13.0240    4.4010 C   0  0  0  0  0
    9.4310   12.2580    3.7220 O   0  0  0  0  0
   11.2220   13.9010    3.4400 C   0  0  0  0  0
   12.4050   13.2350    2.8770 N   0  0  0  0  0
   13.2570   12.3640    3.5270 C   0  0  0  0  0
   14.2390   11.9160    2.7740 N   0  0  0  0  0
   14.0280   12.5310    1.5490 C   0  0  0  0  0
   14.7330   12.4720    0.3190 C   0  0  0  0  0
   15.8320   11.7350    0.1370 N   0  0  0  0  0
   14.2580   13.2090   -0.7250 N   0  0  0  0  0
   13.1460   13.9570   -0.5360 C   0  0  0  0  0
   12.3970   14.0920    0.5780 N   0  0  0  0  0
   12.8960   13.3480    1.5930 C   0  0  0  0  0
   13.7803   16.1626   10.2059 H   0  0  0  0  0
   12.6178   14.0063   10.0071 H   0  0  0  0  0
   13.9333   11.9580    7.9759 H   0  0  0  0  0
   12.5088   15.8768    6.5566 H   0  0  0  0  0
   11.1644   15.1920    7.5211 H   0  0  0  0  0
   10.3574   16.1020    5.5003 H   0  0  0  0  0
    9.4991   13.6742    6.2981 H   0  0  0  0  0
    7.9204   13.8777    4.7092 H   0  0  0  0  0
   11.0081   12.2788    4.9254 H   0  0  0  0  0
    9.8650   11.6163    3.1550 H   0  0  0  0  0
   10.5820   14.1629    2.5975 H   0  0  0  0  0
   13.1278   12.0737    4.5697 H   0  0  0  0  0
   16.2046   11.1767    0.9050 H   0  0  0  0  0
   16.2986   11.7305   -0.7700 H   0  0  0  0  0
   12.8099   14.5280   -1.4015 H   0  0  0  0  0
  1  2  1  0  0  0
  1  3  2  0  0  0
  1  4  1  0  0  0
  8  1  1  0  0  0
  5  6  1  0  0  0
  5  7  2  0  0  0
  5  8  1  0  0  0
  5  9  1  0  0  0
  9 10  1  0  0  0
 10 11  1  0  0  0
 11 12  1  0  0  0
 11 13  1  0  0  0
 12 17  1  0  0  0
 13 14  1  0  0  0
 13 15  1  0  0  0
 15 16  1  0  0  0
 15 17  1  0  0  0
 17 18  1  0  0  0
 18 19  4  0  0  0
 18 27  4  0  0  0
 19 20  4  0  0  0
 20 21  4  0  0  0
 21 22  4  0  0  0
 21 27  4  0  0  0
 22 23  1  0  0  0
 22 24  4  0  0  0
 24 25  4  0  0  0
 25 26  4  0  0  0
 26 27  4  0  0  0
  2 28  1  0  0  0
  4 29  1  0  0  0
  6 30  1  0  0  0
 10 31  1  0  0  0
 10 32  1  0  0  0
 11 33  1  0  0  0
 13 34  1  0  0  0
 14 35  1  0  0  0
 15 36  1  0  0  0
 16 37  1  0  0  0
 17 38  1  0  0  0
 19 39  1  0  0  0
 23 40  1  0  0  0
 23 41  1  0  0  0
 25 42  1  0  0  0
M  END
$$$$
