4pf3_ligand
  -I-interpret- 

 48 51  0  0  0  0  0  0  0  0999 V2000
   -0.4490   30.3940   38.6280 N   0  0  0  0  0
   -0.8050   29.1720   45.4360 N   0  0  0  0  0
   -0.3650   29.7270   43.1400 C   0  0  0  0  0
    0.4920   30.1780   42.1190 C   0  0  0  0  0
    1.8040   30.5740   42.4110 C   0  0  0  0  0
    2.2390   30.5170   43.7450 C   0  0  0  0  0
    0.0480   29.6540   44.4480 C   0  0  0  0  0
    0.7860   29.9450   47.0890 C   0  0  0  0  0
    0.1990   33.2820   40.6430 C   0  0  0  0  0
    1.6380   34.9060   39.6880 C   0  0  0  0  0
    1.6050   32.7320   38.7280 C   0  0  0  0  0
   -2.2830   31.4280   37.3050 C   0  0  0  0  0
   -3.3200   30.3210   37.4620 C   0  0  0  0  0
   -2.5130   32.2680   38.3520 F   0  0  0  0  0
   -2.5300   32.0870   36.1850 F   0  0  0  0  0
   -3.1830   29.3370   36.4550 O   0  0  0  0  0
   -0.8110   30.9240   37.3080 C   0  0  0  0  0
   -0.8770   29.1230   38.9070 N   0  0  0  0  0
   -0.6250   28.9360   40.2070 C   0  0  0  0  0
   -0.9420   27.6410   40.8900 C   0  0  0  0  0
   -0.0050   30.0900   40.7410 C   0  0  0  0  0
    0.0810   30.9870   39.7130 C   0  0  0  0  0
    0.6410   32.3760   39.6890 C   0  0  0  0  0
    2.1190   34.0180   38.7350 C   0  0  0  0  0
    2.0980   36.1700   39.6770 F   0  0  0  0  0
    0.7020   34.5650   40.6530 C   0  0  0  0  0
    1.3600   30.0470   44.7420 C   0  0  0  0  0
    1.7830   29.9150   46.0410 O   0  0  0  0  0
   -0.4930   29.2020   46.7140 C   0  0  0  0  0
   -1.1920   28.6890   47.5480 O   0  0  0  0  0
   -1.7055   28.7809   45.1594 H   0  0  0  0  0
   -1.3821   29.4281   42.8865 H   0  0  0  0  0
    2.4715   30.9183   41.6210 H   0  0  0  0  0
    3.2484   30.8337   44.0076 H   0  0  0  0  0
    0.5244   30.9876   47.2696 H   0  0  0  0  0
    1.2101   29.4557   47.9658 H   0  0  0  0  0
   -0.5434   32.9798   41.3817 H   0  0  0  0  0
    1.9425   32.0059   37.9884 H   0  0  0  0  0
   -4.3128   30.7633   37.3802 H   0  0  0  0  0
   -3.1739   29.8456   38.4319 H   0  0  0  0  0
   -3.8482   28.6565   36.5815 H   0  0  0  0  0
   -0.7081   30.1300   36.5683 H   0  0  0  0  0
   -0.1515   31.7585   37.0695 H   0  0  0  0  0
   -2.0113   27.4438   40.8138 H   0  0  0  0  0
   -0.3874   26.8340   40.4113 H   0  0  0  0  0
   -0.6572   27.7063   41.9401 H   0  0  0  0  0
    2.8778   34.3237   38.0146 H   0  0  0  0  0
    0.3739   35.2905   41.3974 H   0  0  0  0  0
  1 17  1  0  0  0
  1 18  4  0  0  0
 22  1  4  0  0  0
  7  2  1  0  0  0
  2 29  1  0  0  0
  4  3  4  0  0  0
  3  7  4  0  0  0
  4  5  4  0  0  0
 21  4  1  0  0  0
  5  6  4  0  0  0
  6 27  4  0  0  0
  7 27  4  0  0  0
  8 28  1  0  0  0
 29  8  1  0  0  0
 23  9  4  0  0  0
  9 26  4  0  0  0
 24 10  4  0  0  0
 10 25  1  0  0  0
 26 10  4  0  0  0
 23 11  4  0  0  0
 11 24  4  0  0  0
 12 13  1  0  0  0
 12 14  1  0  0  0
 12 15  1  0  0  0
 17 12  1  0  0  0
 13 16  1  0  0  0
 19 18  4  0  0  0
 19 20  1  0  0  0
 21 19  4  0  0  0
 22 21  4  0  0  0
 22 23  1  0  0  0
 27 28  1  0  0  0
 29 30  2  0  0  0
  2 31  1  0  0  0
  3 32  1  0  0  0
  5 33  1  0  0  0
  6 34  1  0  0  0
  8 35  1  0  0  0
  8 36  1  0  0  0
  9 37  1  0  0  0
 11 38  1  0  0  0
 13 39  1  0  0  0
 13 40  1  0  0  0
 16 41  1  0  0  0
 17 42  1  0  0  0
 17 43  1  0  0  0
 20 44  1  0  0  0
 20 45  1  0  0  0
 20 46  1  0  0  0
 24 47  1  0  0  0
 26 48  1  0  0  0
M  END
$$$$
