3kdm_ligand
  -I-interpret- 

 49 52  0  0  0  0  0  0  0  0999 V2000
   -2.3190   -0.7560   20.8670 C   0  0  0  0  0
   -3.5090   -1.5580   20.3430 C   0  0  0  0  0
   -4.0150   -1.0440   19.0150 C   0  0  0  0  0
   -5.1770   -1.2470   18.6760 O   0  0  0  0  0
   -3.0820   -0.3000   18.1300 C   0  0  0  0  0
   -1.8460    0.0410   18.5040 C   0  0  0  0  0
   -1.0220    0.8260   17.5120 C   0  0  0  0  0
   -0.0510    1.8220   18.1370 C   0  0  0  0  0
    0.6210    1.3010   19.4000 C   0  0  0  0  0
   -0.4330    0.7950   20.3830 C   0  0  0  0  0
   -1.2620   -0.3770   19.8300 C   0  0  0  0  0
    0.1210    0.5260   21.7990 C   0  0  0  0  0
    0.8720    1.7450   22.3820 C   0  0  0  0  0
    1.9910    2.1080   21.4220 C   0  0  0  0  0
    1.4230    2.4250   20.0590 C   0  0  0  0  0
    2.6250    2.9640   19.2960 C   0  0  0  0  0
    3.4790    3.6420   20.3730 C   0  0  0  0  0
    2.7260    3.4240   21.6900 C   0  0  0  0  0
    3.5840    3.3960   22.8450 O   0  0  0  0  0
    3.0190    0.9660   21.3550 C   0  0  0  0  0
   -0.3810   -1.6000   19.5890 C   0  0  0  0  0
   -1.8185   -1.3909   21.5981 H   0  0  0  0  0
   -2.7242    0.1809   21.2493 H   0  0  0  0  0
   -4.3185   -1.4702   21.0677 H   0  0  0  0  0
   -3.1836   -2.5887   20.2023 H   0  0  0  0  0
   -3.4208   -0.0204   17.1324 H   0  0  0  0  0
   -1.7204    1.4020   16.9049 H   0  0  0  0  0
   -0.4228    0.1048   16.9562 H   0  0  0  0  0
   -0.6218    2.7093   18.4109 H   0  0  0  0  0
    0.7327    2.0196   17.4057 H   0  0  0  0  0
    1.2880    0.4819   19.1311 H   0  0  0  0  0
   -1.1315    1.6234   20.5008 H   0  0  0  0  0
    0.8256   -0.3030   21.7327 H   0  0  0  0  0
   -0.7221    0.3056   22.4538 H   0  0  0  0  0
    1.2806    1.5023   23.3629 H   0  0  0  0  0
    0.1896    2.5866   22.5013 H   0  0  0  0  0
    0.6215    3.1628   20.0958 H   0  0  0  0  0
    2.3344    3.6555   18.5051 H   0  0  0  0  0
    3.1688    2.1763   18.7746 H   0  0  0  0  0
    3.6182    4.7025   20.1633 H   0  0  0  0  0
    4.4827    3.2187   20.4120 H   0  0  0  0  0
    2.0522    4.2413   21.9471 H   0  0  0  0  0
    4.0081    4.2511   22.9480 H   0  0  0  0  0
    3.4378    0.7972   22.3471 H   0  0  0  0  0
    2.5283    0.0571   21.0070 H   0  0  0  0  0
    3.8169    1.2372   20.6637 H   0  0  0  0  0
    0.3973   -1.3492   18.8683 H   0  0  0  0  0
    0.0777   -1.9067   20.5290 H   0  0  0  0  0
   -0.9911   -2.4144   19.1982 H   0  0  0  0  0
  1  2  1  0  0  0
  1 11  1  0  0  0
  2  3  1  0  0  0
  3  4  2  0  0  0
  3  5  1  0  0  0
  5  6  2  0  0  0
  6  7  1  0  0  0
  6 11  1  0  0  0
  7  8  1  0  0  0
  8  9  1  0  0  0
  9 10  1  0  0  0
  9 15  1  0  0  0
 10 11  1  0  0  0
 10 12  1  0  0  0
 11 21  1  0  0  0
 12 13  1  0  0  0
 13 14  1  0  0  0
 14 15  1  0  0  0
 14 18  1  0  0  0
 14 20  1  0  0  0
 15 16  1  0  0  0
 16 17  1  0  0  0
 17 18  1  0  0  0
 18 19  1  0  0  0
  1 22  1  0  0  0
  1 23  1  0  0  0
  2 24  1  0  0  0
  2 25  1  0  0  0
  5 26  1  0  0  0
  7 27  1  0  0  0
  7 28  1  0  0  0
  8 29  1  0  0  0
  8 30  1  0  0  0
  9 31  1  0  0  0
 10 32  1  0  0  0
 12 33  1  0  0  0
 12 34  1  0  0  0
 13 35  1  0  0  0
 13 36  1  0  0  0
 15 37  1  0  0  0
 16 38  1  0  0  0
 16 39  1  0  0  0
 17 40  1  0  0  0
 17 41  1  0  0  0
 18 42  1  0  0  0
 19 43  1  0  0  0
 20 44  1  0  0  0
 20 45  1  0  0  0
 20 46  1  0  0  0
 21 47  1  0  0  0
 21 48  1  0  0  0
 21 49  1  0  0  0
M  END
$$$$
