3f16_ligand
  -I-interpret- 

 33 33  0  0  0  0  0  0  0  0999 V2000
   -4.0330   -3.1390   -4.2650 O   0  0  0  0  0
   -2.8350   -3.2600   -4.3480 C   0  0  0  0  0
   -2.1170   -2.5480   -5.2300 N   0  0  0  0  0
   -2.7970   -1.5770   -5.9840 O   0  0  0  0  0
   -1.7820   -4.2410   -3.7640 C   0  0  0  0  0
   -1.3610   -4.0100   -2.4770 C   0  0  0  0  0
   -2.5240   -3.6340   -1.6980 O   0  0  0  0  0
   -2.3020   -5.6730   -3.6680 N   0  0  0  0  0
   -1.9000   -6.4430   -5.0230 S   0  0  0  0  0
   -1.8310   -7.8360   -4.6690 O   0  0  0  0  0
   -0.6020   -5.9870   -5.4460 O   0  0  0  0  0
   -2.9500   -6.2610   -6.2420 C   0  0  0  0  0
   -4.0980   -7.0610   -6.3130 C   0  0  0  0  0
   -5.0090   -6.9350   -7.3650 C   0  0  0  0  0
   -4.7760   -6.0080   -8.3880 C   0  0  0  0  0
   -3.6300   -5.2120   -8.3300 C   0  0  0  0  0
   -2.7210   -5.3390   -7.2740 C   0  0  0  0  0
   -5.6410   -5.8620   -9.4510 O   0  0  0  0  0
   -6.7410   -6.7420   -9.6840 C   0  0  0  0  0
   -1.1162   -2.7056   -5.3485 H   0  0  0  0  0
   -2.1781   -1.1400   -6.5736 H   0  0  0  0  0
   -0.9707   -4.0834   -4.4746 H   0  0  0  0  0
   -0.6159   -3.2147   -2.4570 H   0  0  0  0  0
   -0.8974   -4.9048   -2.0616 H   0  0  0  0  0
   -2.2593   -3.4658   -0.7907 H   0  0  0  0  0
   -2.8149   -6.0724   -2.8820 H   0  0  0  0  0
   -4.2844   -7.7972   -5.5311 H   0  0  0  0  0
   -5.9022   -7.5592   -7.3892 H   0  0  0  0  0
   -3.4413   -4.4824   -9.1175 H   0  0  0  0  0
   -1.8269   -4.7159   -7.2531 H   0  0  0  0  0
   -6.3694   -7.7574   -9.8220 H   0  0  0  0  0
   -7.4150   -6.7136   -8.8278 H   0  0  0  0  0
   -7.2754   -6.4244  -10.5794 H   0  0  0  0  0
  1  2  2  0  0  0
  2  3  1  0  0  0
  2  5  1  0  0  0
  3  4  1  0  0  0
  5  6  1  0  0  0
  5  8  1  0  0  0
  6  7  1  0  0  0
  8  9  1  0  0  0
  9 10  2  0  0  0
  9 11  2  0  0  0
  9 12  1  0  0  0
 12 13  4  0  0  0
 12 17  4  0  0  0
 13 14  4  0  0  0
 14 15  4  0  0  0
 15 16  4  0  0  0
 15 18  1  0  0  0
 16 17  4  0  0  0
 18 19  1  0  0  0
  3 20  1  0  0  0
  4 21  1  0  0  0
  5 22  1  0  0  0
  6 23  1  0  0  0
  6 24  1  0  0  0
  7 25  1  0  0  0
  8 26  1  0  0  0
 13 27  1  0  0  0
 14 28  1  0  0  0
 16 29  1  0  0  0
 17 30  1  0  0  0
 19 31  1  0  0  0
 19 32  1  0  0  0
 19 33  1  0  0  0
M  END
$$$$
