6boe_ligand
  -I-interpret- 

 41 44  0  0  0  0  0  0  0  0999 V2000
   -5.2710  -28.3390   -5.6050 C   0  0  0  0  0
   -3.9970  -28.7050   -6.3980 C   0  0  0  0  0
   -2.8290  -27.8480   -5.8630 C   0  0  0  0  0
   -4.2080  -28.6490   -7.9370 C   0  0  0  0  0
   -5.4310  -28.2820   -8.5340 C   0  0  0  0  0
   -5.6440  -28.2260   -9.9300 C   0  0  0  0  0
   -4.5670  -28.5600  -10.7970 C   0  0  0  0  0
   -3.8120  -29.0580  -13.0430 C   0  0  0  0  0
   -3.2480  -29.7280  -15.2620 C   0  0  0  0  0
   -1.9210  -30.1600  -14.8850 C   0  0  0  0  0
   -1.6390  -29.9840  -13.5120 C   0  0  0  0  0
   -2.5440  -29.4470  -12.5890 C   0  0  0  0  0
   -2.2730  -29.2630  -11.1640 C   0  0  0  0  0
   -3.3580  -28.9240  -10.2390 C   0  0  0  0  0
   -3.1790  -28.9710   -8.8380 C   0  0  0  0  0
   -0.9270  -30.7420  -15.8510 C   0  0  0  0  0
    1.2340  -30.8650  -14.3750 C   0  0  0  0  0
   -4.1870  -29.1810  -14.3670 N   0  0  0  0  0
   -3.6560  -29.8450  -16.5870 N   0  0  0  0  0
    0.4870  -31.0480  -15.5810 N   0  0  0  0  0
    1.4300  -29.7510  -13.5910 N   0  0  0  0  0
    2.2270  -30.1290  -12.5510 N   0  0  0  0  0
    2.5550  -31.3920  -12.6040 N   0  0  0  0  0
    1.9560  -31.9140  -13.7360 N   0  0  0  0  0
   -4.7910  -28.5010  -12.1960 O   0  0  0  0  0
   -1.0860  -29.4060  -10.7230 O   0  0  0  0  0
   -1.2690  -31.0260  -17.0220 O   0  0  0  0  0
   -5.5792  -27.3257   -5.8626 H   0  0  0  0  0
   -6.0682  -29.0380   -5.8579 H   0  0  0  0  0
   -5.0614  -28.3959   -4.5368 H   0  0  0  0  0
   -3.7390  -29.7511   -6.2334 H   0  0  0  0  0
   -1.8965  -28.1830   -6.3172 H   0  0  0  0  0
   -3.0023  -26.8019   -6.1153 H   0  0  0  0  0
   -2.7667  -27.9564   -4.7802 H   0  0  0  0  0
   -6.2635  -28.0257   -7.8788 H   0  0  0  0  0
   -6.6131  -27.9330  -10.3338 H   0  0  0  0  0
   -0.6562  -30.2849  -13.1490 H   0  0  0  0  0
   -2.2078  -29.2677   -8.4421 H   0  0  0  0  0
   -3.0204  -30.2332  -17.2840 H   0  0  0  0  0
   -4.5907  -29.5426  -16.8614 H   0  0  0  0  0
    1.0069  -31.4462  -16.3630 H   0  0  0  0  0
  2  1  1  0  0  0
  2  3  1  0  0  0
  4  2  1  0  0  0
  5  4  4  0  0  0
  4 15  4  0  0  0
  6  5  4  0  0  0
  7  6  4  0  0  0
  7 14  4  0  0  0
 25  7  1  0  0  0
  8 12  4  0  0  0
 18  8  4  0  0  0
  8 25  1  0  0  0
  9 10  4  0  0  0
  9 18  4  0  0  0
  9 19  1  0  0  0
 10 11  4  0  0  0
 10 16  1  0  0  0
 11 12  4  0  0  0
 12 13  1  0  0  0
 13 14  1  0  0  0
 13 26  2  0  0  0
 14 15  4  0  0  0
 16 20  1  0  0  0
 16 27  2  0  0  0
 20 17  1  0  0  0
 17 21  4  0  0  0
 17 24  4  0  0  0
 21 22  4  0  0  0
 22 23  4  0  0  0
 23 24  4  0  0  0
  1 28  1  0  0  0
  1 29  1  0  0  0
  1 30  1  0  0  0
  2 31  1  0  0  0
  3 32  1  0  0  0
  3 33  1  0  0  0
  3 34  1  0  0  0
  5 35  1  0  0  0
  6 36  1  0  0  0
 11 37  1  0  0  0
 15 38  1  0  0  0
 19 39  1  0  0  0
 19 40  1  0  0  0
 20 41  1  0  0  0
M  END
$$$$
