3v51_ligand
  -I-interpret- 

 54 58  0  0  0  0  0  0  0  0999 V2000
   17.5330   17.8720   63.3040 C   0  0  0  0  0
   17.5160   16.5880   62.4770 C   0  0  0  0  0
   17.4140   16.9150   60.9690 C   0  0  0  0  0
   16.3950   15.7050   62.8790 N   0  0  0  0  0
   15.2470   16.0710   63.1930 N   0  0  0  0  0
   16.5240   14.3880   62.9050 C   0  0  0  0  0
   17.5700   13.5810   62.6500 N   0  0  0  0  0
   17.4310   12.2710   62.7750 C   0  0  0  0  0
   16.2800   11.7150   63.1410 N   0  0  0  0  0
   15.1950   12.4770   63.4180 C   0  0  0  0  0
   14.0690   11.8450   63.7770 N   0  0  0  0  0
   15.2950   13.8700   63.3070 C   0  0  0  0  0
   14.4860   15.0100   63.5050 C   0  0  0  0  0
   13.1230   15.0230   63.8770 C   0  0  0  0  0
   12.6270   14.3670   65.0030 C   0  0  0  0  0
   12.2150   15.7750   63.1030 C   0  0  0  0  0
   10.8550   15.8130   63.4260 C   0  0  0  0  0
   10.3640   15.1280   64.5220 C   0  0  0  0  0
    9.0160   15.1700   64.8330 C   0  0  0  0  0
   11.2660   14.4120   65.3270 C   0  0  0  0  0
   10.7910   13.7280   66.4270 C   0  0  0  0  0
    9.4420   13.7650   66.7380 C   0  0  0  0  0
    8.5440   14.4890   65.9430 C   0  0  0  0  0
    7.2300   14.4700   66.3220 O   0  0  0  0  0
    6.1450   14.8770   65.4390 C   0  0  0  0  0
    4.8880   15.0650   66.0690 C   0  0  0  0  0
    3.8240   15.6870   65.4080 C   0  0  0  0  0
    2.6290   15.8800   66.0930 C   0  0  0  0  0
    1.3210   16.6410   65.2720 Cl  0  0  0  0  0
    2.4610   15.4820   67.4100 C   0  0  0  0  0
    3.5260   14.8710   68.0740 C   0  0  0  0  0
    4.7120   14.6800   67.3980 C   0  0  0  0  0
   16.5964   18.4098   63.1569 H   0  0  0  0  0
   17.6480   17.6219   64.3587 H   0  0  0  0  0
   18.3666   18.4974   62.9846 H   0  0  0  0  0
   18.4517   16.0613   62.6645 H   0  0  0  0  0
   17.4601   15.9901   60.3940 H   0  0  0  0  0
   16.4687   17.4205   60.7713 H   0  0  0  0  0
   18.2415   17.5641   60.6825 H   0  0  0  0  0
   18.2869   11.6275   62.5715 H   0  0  0  0  0
   14.0515   10.8267   63.8333 H   0  0  0  0  0
   13.2296   12.3823   63.9939 H   0  0  0  0  0
   13.3113   13.8092   65.6423 H   0  0  0  0  0
   12.5784   16.3344   62.2410 H   0  0  0  0  0
   10.1716   16.3914   62.8043 H   0  0  0  0  0
    8.3279   15.7373   64.2063 H   0  0  0  0  0
   11.4783   13.1578   67.0520 H   0  0  0  0  0
    9.0750   13.2250   67.6108 H   0  0  0  0  0
    6.0138   14.0728   64.7150 H   0  0  0  0  0
    6.4303   15.8412   65.0183 H   0  0  0  0  0
    3.9294   16.0149   64.3738 H   0  0  0  0  0
    1.5112   15.6437   67.9197 H   0  0  0  0  0
    3.4215   14.5501   69.1104 H   0  0  0  0  0
    5.5442   14.2101   67.9221 H   0  0  0  0  0
  1  2  1  0  0  0
  2  3  1  0  0  0
  2  4  1  0  0  0
  4  5  4  0  0  0
  4  6  4  0  0  0
  5 13  4  0  0  0
  6  7  4  0  0  0
  6 12  4  0  0  0
  7  8  4  0  0  0
  8  9  4  0  0  0
  9 10  4  0  0  0
 10 11  1  0  0  0
 10 12  4  0  0  0
 12 13  4  0  0  0
 13 14  1  0  0  0
 14 15  4  0  0  0
 14 16  4  0  0  0
 15 20  4  0  0  0
 16 17  4  0  0  0
 17 18  4  0  0  0
 18 19  4  0  0  0
 18 20  4  0  0  0
 19 23  4  0  0  0
 20 21  4  0  0  0
 21 22  4  0  0  0
 22 23  4  0  0  0
 23 24  1  0  0  0
 24 25  1  0  0  0
 25 26  1  0  0  0
 26 27  4  0  0  0
 26 32  4  0  0  0
 27 28  4  0  0  0
 28 29  1  0  0  0
 28 30  4  0  0  0
 30 31  4  0  0  0
 31 32  4  0  0  0
  1 33  1  0  0  0
  1 34  1  0  0  0
  1 35  1  0  0  0
  2 36  1  0  0  0
  3 37  1  0  0  0
  3 38  1  0  0  0
  3 39  1  0  0  0
  8 40  1  0  0  0
 11 41  1  0  0  0
 11 42  1  0  0  0
 15 43  1  0  0  0
 16 44  1  0  0  0
 17 45  1  0  0  0
 19 46  1  0  0  0
 21 47  1  0  0  0
 22 48  1  0  0  0
 25 49  1  0  0  0
 25 50  1  0  0  0
 27 51  1  0  0  0
 30 52  1  0  0  0
 31 53  1  0  0  0
 32 54  1  0  0  0
M  END
$$$$
