4r02_ligand
  -I-interpret- 

 97 98  0  0  0  0  0  0  0  0999 V2000
   12.3010 -138.2160   22.0520 O   0  0  0  0  0
   11.6520 -137.1800   22.1080 C   0  0  0  0  0
   11.8280 -136.3110   23.2650 O   0  0  0  0  0
   13.1370 -135.9500   23.7130 C   0  0  0  0  0
   13.3720 -136.3320   25.1620 C   0  0  0  0  0
   14.3430 -135.6400   25.8840 C   0  0  0  0  0
   14.5900 -135.9620   27.2160 C   0  0  0  0  0
   13.8680 -136.9800   27.8330 C   0  0  0  0  0
   12.8970 -137.6750   27.1160 C   0  0  0  0  0
   12.6490 -137.3540   25.7820 C   0  0  0  0  0
   10.7810 -136.8030   21.1670 N   0  0  0  0  0
   10.5310 -137.6240   19.9860 C   0  0  0  0  0
   11.4110 -137.2180   18.8340 C   0  0  0  0  0
   11.9700 -136.1310   18.7990 O   0  0  0  0  0
    9.0610 -137.7240   19.5340 C   0  0  0  0  0
    8.0920 -136.6650   20.0560 C   0  0  0  0  0
    8.2990 -135.3380   19.3300 C   0  0  0  0  0
    6.6510 -137.1650   19.9460 C   0  0  0  0  0
   11.5440 -138.1690   17.9120 N   0  0  0  0  0
   12.4320 -138.0960   16.7720 C   0  0  0  0  0
   11.6300 -138.0430   15.5100 C   0  0  0  0  0
   10.5640 -138.6370   15.4410 O   0  0  0  0  0
   13.3270 -139.3390   16.7860 C   0  0  0  0  0
   14.8190 -139.0440   16.9440 C   0  0  0  0  0
   15.1200 -138.1510   18.1500 C   0  0  0  0  0
   15.6000 -140.3590   17.0060 C   0  0  0  0  0
   12.1430 -137.3250   14.5120 N   0  0  0  0  0
   11.4620 -137.2050   13.2400 C   0  0  0  0  0
   11.5200 -135.7780   12.6910 C   0  0  0  0  0
   10.9370 -134.7210   13.6320 C   0  0  0  0  0
    9.5050 -135.0350   14.0720 C   0  0  0  0  0
   11.0300 -133.3440   12.9720 C   0  0  0  0  0
   12.0330 -138.2120   12.2440 C   0  0  0  0  0
   11.5350 -139.4620   12.6860 O   0  0  0  0  0
   13.5360 -138.3490   12.2440 C   0  0  0  0  0
   14.2020 -137.4610   11.7380 O   0  0  0  0  0
   14.0150 -139.5030   12.7260 N   0  0  0  0  0
   15.2990 -139.9630   12.6020 C   0  0  0  0  0
   16.3410 -139.2160   12.0290 C   0  0  0  0  0
   17.6300 -139.7380   11.9240 C   0  0  0  0  0
   17.9300 -141.0200   12.3780 C   0  0  0  0  0
   19.3370 -141.5430   12.2430 C   0  0  0  0  0
   16.9400 -141.8160   12.9500 C   0  0  0  0  0
   15.6350 -141.3450   13.0800 C   0  0  0  0  0
   14.6260 -142.2760   13.7130 C   0  0  0  0  0
   13.2388 -134.8682   23.6266 H   0  0  0  0  0
   13.8642 -136.4821   23.0997 H   0  0  0  0  0
   14.9114 -134.8434   25.4039 H   0  0  0  0  0
   15.3494 -135.4165   27.7762 H   0  0  0  0  0
   14.0623 -137.2327   28.8754 H   0  0  0  0  0
   12.3301 -138.4711   27.5985 H   0  0  0  0  0
   11.8903 -137.9010   25.2223 H   0  0  0  0  0
   10.2795 -135.9216   21.2765 H   0  0  0  0  0
   10.7908 -138.6307   20.3135 H   0  0  0  0  0
    8.6969 -138.6742   19.9246 H   0  0  0  0  0
    9.0769 -137.6002   18.4512 H   0  0  0  0  0
    8.2965 -136.4856   21.1115 H   0  0  0  0  0
    9.3199 -134.9921   19.4919 H   0  0  0  0  0
    8.1265 -135.4783   18.2629 H   0  0  0  0  0
    7.5979 -134.5994   19.7187 H   0  0  0  0  0
    6.4198 -137.3764   18.9020 H   0  0  0  0  0
    6.5373 -138.0744   20.5360 H   0  0  0  0  0
    5.9724 -136.3993   20.3219 H   0  0  0  0  0
   10.9782 -139.0112   18.0169 H   0  0  0  0  0
   13.0468 -137.1974   16.8225 H   0  0  0  0  0
   13.1999 -139.8346   15.8235 H   0  0  0  0  0
   13.0274 -139.9382   17.6458 H   0  0  0  0  0
   15.1431 -138.4792   16.0699 H   0  0  0  0  0
   14.6013 -137.1994   18.0343 H   0  0  0  0  0
   14.7783 -138.6442   19.0600 H   0  0  0  0  0
   16.1940 -137.9757   18.2116 H   0  0  0  0  0
   15.2545 -140.9455   17.8573 H   0  0  0  0  0
   15.4371 -140.9206   16.0861 H   0  0  0  0  0
   16.6626 -140.1440   17.1186 H   0  0  0  0  0
   13.0352 -136.8493   14.6470 H   0  0  0  0  0
   10.4078 -137.4325   13.3983 H   0  0  0  0  0
   10.9249 -135.7597   11.7780 H   0  0  0  0  0
   12.5716 -135.5324   12.5428 H   0  0  0  0  0
   11.5316 -134.7262   14.5455 H   0  0  0  0  0
    8.8604 -135.0893   13.1947 H   0  0  0  0  0
    9.4886 -135.9905   14.5962 H   0  0  0  0  0
    9.1498 -134.2480   14.7373 H   0  0  0  0  0
   12.0747 -133.1112   12.7656 H   0  0  0  0  0
   10.4668 -133.3510   12.0388 H   0  0  0  0  0
   10.6146 -132.5921   13.6430 H   0  0  0  0  0
   11.7522 -137.8859   11.2425 H   0  0  0  0  0
   11.8534 -140.1559   12.1040 H   0  0  0  0  0
   13.3601 -140.0969   13.2347 H   0  0  0  0  0
   16.1388 -138.2106   11.6598 H   0  0  0  0  0
   18.4178 -139.1309   11.4780 H   0  0  0  0  0
   19.6187 -141.5568   11.1901 H   0  0  0  0  0
   20.0185 -140.8951   12.7943 H   0  0  0  0  0
   19.3878 -142.5540   12.6473 H   0  0  0  0  0
   17.1889 -142.8180   13.2996 H   0  0  0  0  0
   14.2220 -141.8137   14.6136 H   0  0  0  0  0
   13.8176 -142.4676   13.0074 H   0  0  0  0  0
   15.1135 -143.2156   13.9728 H   0  0  0  0  0
  1  2  2  0  0  0
  2  3  1  0  0  0
  2 11  1  0  0  0
  3  4  1  0  0  0
  4  5  1  0  0  0
  5  6  4  0  0  0
  5 10  4  0  0  0
  6  7  4  0  0  0
  7  8  4  0  0  0
  8  9  4  0  0  0
  9 10  4  0  0  0
 11 12  1  0  0  0
 12 13  1  0  0  0
 12 15  1  0  0  0
 13 14  2  0  0  0
 13 19  1  0  0  0
 15 16  1  0  0  0
 16 17  1  0  0  0
 16 18  1  0  0  0
 19 20  1  0  0  0
 20 21  1  0  0  0
 20 23  1  0  0  0
 21 22  2  0  0  0
 21 27  1  0  0  0
 23 24  1  0  0  0
 24 25  1  0  0  0
 24 26  1  0  0  0
 27 28  1  0  0  0
 28 29  1  0  0  0
 28 33  1  0  0  0
 29 30  1  0  0  0
 30 31  1  0  0  0
 30 32  1  0  0  0
 33 34  1  0  0  0
 33 35  1  0  0  0
 35 36  2  0  0  0
 35 37  1  0  0  0
 37 38  1  0  0  0
 38 39  4  0  0  0
 38 44  4  0  0  0
 39 40  4  0  0  0
 40 41  4  0  0  0
 41 42  1  0  0  0
 41 43  4  0  0  0
 43 44  4  0  0  0
 44 45  1  0  0  0
  4 46  1  0  0  0
  4 47  1  0  0  0
  6 48  1  0  0  0
  7 49  1  0  0  0
  8 50  1  0  0  0
  9 51  1  0  0  0
 10 52  1  0  0  0
 11 53  1  0  0  0
 12 54  1  0  0  0
 15 55  1  0  0  0
 15 56  1  0  0  0
 16 57  1  0  0  0
 17 58  1  0  0  0
 17 59  1  0  0  0
 17 60  1  0  0  0
 18 61  1  0  0  0
 18 62  1  0  0  0
 18 63  1  0  0  0
 19 64  1  0  0  0
 20 65  1  0  0  0
 23 66  1  0  0  0
 23 67  1  0  0  0
 24 68  1  0  0  0
 25 69  1  0  0  0
 25 70  1  0  0  0
 25 71  1  0  0  0
 26 72  1  0  0  0
 26 73  1  0  0  0
 26 74  1  0  0  0
 27 75  1  0  0  0
 28 76  1  0  0  0
 29 77  1  0  0  0
 29 78  1  0  0  0
 30 79  1  0  0  0
 31 80  1  0  0  0
 31 81  1  0  0  0
 31 82  1  0  0  0
 32 83  1  0  0  0
 32 84  1  0  0  0
 32 85  1  0  0  0
 33 86  1  0  0  0
 34 87  1  0  0  0
 37 88  1  0  0  0
 39 89  1  0  0  0
 40 90  1  0  0  0
 42 91  1  0  0  0
 42 92  1  0  0  0
 42 93  1  0  0  0
 43 94  1  0  0  0
 45 95  1  0  0  0
 45 96  1  0  0  0
 45 97  1  0  0  0
M  END
$$$$
