2jdn_ligand
  -I-interpret- 

 27 27  0  0  0  0  0  0  0  0999 V2000
   38.7390    2.4480   -4.3800 C   0  0  0  0  0
   37.3660    2.1590   -3.7650 C   0  0  0  0  0
   36.5960    3.4540   -3.5520 C   0  0  0  0  0
   37.4020    4.4970   -2.8290 C   0  0  0  0  0
   38.6660    4.7360   -3.6600 C   0  0  0  0  0
   39.5880    5.7890   -3.0810 C   0  0  0  0  0
   39.6690    2.8300   -6.5130 C   0  0  0  0  0
   38.4490    2.7680   -5.7330 O   0  0  0  0  0
   37.5340    1.5910   -2.4580 O   0  0  0  0  0
   35.3930    3.1860   -2.7920 O   0  0  0  0  0
   36.5900    5.6920   -2.7090 O   0  0  0  0  0
   39.4020    3.5040   -3.7220 O   0  0  0  0  0
   40.1340    5.3900   -1.8090 O   0  0  0  0  0
   39.4186    1.6007   -4.2889 H   0  0  0  0  0
   36.8373    1.4879   -4.4418 H   0  0  0  0  0
   36.3547    3.8449   -4.5405 H   0  0  0  0  0
   37.6914    4.1908   -1.8237 H   0  0  0  0  0
   38.3381    5.0892   -4.6377 H   0  0  0  0  0
   39.0111    6.7018   -2.9324 H   0  0  0  0  0
   40.4153    5.9359   -3.7754 H   0  0  0  0  0
   40.3243    3.5968   -6.0999 H   0  0  0  0  0
   40.1712    1.8633   -6.4771 H   0  0  0  0  0
   39.4258    3.0764   -7.5466 H   0  0  0  0  0
   38.0175    0.7647   -2.5292 H   0  0  0  0  0
   34.8708    2.5205   -3.2458 H   0  0  0  0  0
   35.8114    5.4969   -2.1824 H   0  0  0  0  0
   40.7105    6.0826   -1.4781 H   0  0  0  0  0
  1  2  1  0  0  0
  1  8  1  0  0  0
  1 12  1  0  0  0
  2  3  1  0  0  0
  2  9  1  0  0  0
  3  4  1  0  0  0
  3 10  1  0  0  0
  4  5  1  0  0  0
  4 11  1  0  0  0
  5  6  1  0  0  0
  5 12  1  0  0  0
  6 13  1  0  0  0
  8  7  1  0  0  0
  1 14  1  0  0  0
  2 15  1  0  0  0
  3 16  1  0  0  0
  4 17  1  0  0  0
  5 18  1  0  0  0
  6 19  1  0  0  0
  6 20  1  0  0  0
  7 21  1  0  0  0
  7 22  1  0  0  0
  7 23  1  0  0  0
  9 24  1  0  0  0
 10 25  1  0  0  0
 11 26  1  0  0  0
 13 27  1  0  0  0
M  END
$$$$
