2wf0_ligand
  -I-interpret- 

 80 84  0  0  0  0  0  0  0  0999 V2000
   30.1720   -2.3020   35.2710 C   0  0  0  0  0
   29.9920   -1.0900   34.5150 C   0  0  0  0  0
   30.4400    0.1660   35.0330 C   0  0  0  0  0
   31.0700    0.2280   36.3080 C   0  0  0  0  0
   31.2600   -0.9510   37.0720 C   0  0  0  0  0
   30.8240   -2.2210   36.5710 C   0  0  0  0  0
   30.2780    1.4090   34.2740 C   0  0  0  0  0
   29.0530    1.5770   33.6940 N   0  0  0  0  0
   31.1760    2.2470   34.1250 O   0  0  0  0  0
   28.8410    2.4820   32.5490 C   0  0  0  0  0
   28.1350    1.6880   31.4250 C   0  0  0  0  0
   28.0300    3.7220   32.9920 C   0  0  0  0  0
   27.8120    4.5820   31.9050 O   0  0  0  0  0
   28.8790    0.4280   30.9970 C   0  0  0  0  0
   28.7280    4.5260   34.0890 C   0  0  0  0  0
   27.9440    5.7060   34.4820 N   0  3  0  0  0
   28.7060    6.8530   35.0270 C   0  0  0  0  0
   28.1380   -0.7430   30.6980 C   0  0  0  0  0
   28.7920   -1.9380   30.3080 C   0  0  0  0  0
   30.2040   -1.9810   30.2210 C   0  0  0  0  0
   30.9610   -0.8170   30.5160 C   0  0  0  0  0
   30.3050    0.3740   30.9010 C   0  0  0  0  0
   29.7360   -3.6010   34.7830 C   0  0  0  0  0
   33.5660   -0.6280   39.9310 C   0  0  0  0  0
   32.2300   -0.9430   40.6150 C   0  0  0  0  0
   31.2260   -1.0820   39.4830 C   0  0  0  0  0
   31.8740   -0.8910   38.2970 N   0  0  0  0  0
   33.2980   -0.6110   38.4300 C   0  0  0  0  0
   30.0350   -1.3360   39.6720 O   0  0  0  0  0
   30.6020   -4.5980   36.8410 C   0  0  0  0  0
   31.0080   -3.3920   37.3060 N   0  0  0  0  0
   27.5200   -3.8140   33.5570 C   0  0  0  0  0
   29.0470   -3.8060   33.4480 C   0  0  0  0  0
   30.3620    8.4640   31.9240 C   0  0  0  0  0
   31.7360    8.4260   32.3130 C   0  0  0  0  0
   32.1140    7.8830   33.5630 C   0  0  0  0  0
   31.1310    7.3750   34.4420 C   0  0  0  0  0
   29.7560    7.4020   34.0800 C   0  0  0  0  0
   29.3850    7.9470   32.8270 C   0  0  0  0  0
   29.9070    9.0390   30.5870 C   0  0  0  0  0
   29.0560   10.0150   30.8270 F   0  0  0  0  0
   29.3120    8.0770   29.9110 F   0  0  0  0  0
   30.9340    9.4850   29.8850 F   0  0  0  0  0
   29.9640   -4.7430   35.5920 C   0  0  0  0  0
   29.5096   -1.1298   33.5384 H   0  0  0  0  0
   31.4083    1.1875   36.6991 H   0  0  0  0  0
   28.2571    1.0585   34.0657 H   0  0  0  0  0
   29.7926    2.8516   32.1669 H   0  0  0  0  0
   28.0766    2.3413   30.5544 H   0  0  0  0  0
   27.1639    1.3760   31.8095 H   0  0  0  0  0
   27.0883    3.3376   33.3839 H   0  0  0  0  0
   27.3081    5.3448   32.1979 H   0  0  0  0  0
   29.6904    4.8655   33.7060 H   0  0  0  0  0
   28.8446    3.8849   34.9628 H   0  0  0  0  0
   27.3241    5.3970   35.2307 H   0  0  0  0  0
   27.4952    6.0437   33.6306 H   0  0  0  0  0
   29.2263    6.5015   35.9180 H   0  0  0  0  0
   27.9920    7.6542   35.2177 H   0  0  0  0  0
   27.0505   -0.7239   30.7691 H   0  0  0  0  0
   28.2059   -2.8268   30.0743 H   0  0  0  0  0
   30.7073   -2.9027   29.9291 H   0  0  0  0  0
   32.0484   -0.8418   30.4456 H   0  0  0  0  0
   30.8934    1.2631   31.1277 H   0  0  0  0  0
   34.3167   -1.3772   40.1826 H   0  0  0  0  0
   33.9564    0.3329   40.2663 H   0  0  0  0  0
   31.9414   -0.1583   41.3144 H   0  0  0  0  0
   32.2893   -1.8518   41.2138 H   0  0  0  0  0
   33.9050   -1.3473   37.9033 H   0  0  0  0  0
   33.5644    0.3469   37.9833 H   0  0  0  0  0
   30.7740   -5.4843   37.4518 H   0  0  0  0  0
   27.2085   -4.6225   34.2183 H   0  0  0  0  0
   27.1809   -2.8605   33.9620 H   0  0  0  0  0
   27.0872   -3.9647   32.5680 H   0  0  0  0  0
   29.3570   -4.7764   33.0602 H   0  0  0  0  0
   29.3289   -2.9773   32.7985 H   0  0  0  0  0
   32.4992    8.8186   31.6411 H   0  0  0  0  0
   33.1655    7.8563   33.8489 H   0  0  0  0  0
   31.4289    6.9594   35.4046 H   0  0  0  0  0
   28.3321    7.9723   32.5463 H   0  0  0  0  0
   29.6475   -5.7284   35.2499 H   0  0  0  0  0
  2  1  4  0  0  0
  1  6  4  0  0  0
  1 23  4  0  0  0
  3  2  4  0  0  0
  3  4  4  0  0  0
  7  3  1  0  0  0
  4  5  4  0  0  0
  5  6  4  0  0  0
  5 27  1  0  0  0
  6 31  4  0  0  0
  8  7  1  0  0  0
  7  9  2  0  0  0
 10  8  1  0  0  0
 10 11  1  0  0  0
 12 10  1  0  0  0
 11 14  1  0  0  0
 12 13  1  0  0  0
 15 12  1  0  0  0
 14 18  4  0  0  0
 14 22  4  0  0  0
 16 15  1  0  0  0
 17 16  1  0  0  0
 38 17  1  0  0  0
 18 19  4  0  0  0
 19 20  4  0  0  0
 21 20  4  0  0  0
 22 21  4  0  0  0
 23 33  1  0  0  0
 23 44  4  0  0  0
 24 25  1  0  0  0
 28 24  1  0  0  0
 26 25  1  0  0  0
 27 26  1  0  0  0
 26 29  2  0  0  0
 27 28  1  0  0  0
 31 30  4  0  0  0
 44 30  4  0  0  0
 33 32  1  0  0  0
 35 34  4  0  0  0
 34 39  4  0  0  0
 34 40  1  0  0  0
 36 35  4  0  0  0
 37 36  4  0  0  0
 37 38  4  0  0  0
 38 39  4  0  0  0
 40 41  1  0  0  0
 40 42  1  0  0  0
 40 43  1  0  0  0
  2 45  1  0  0  0
  4 46  1  0  0  0
  8 47  1  0  0  0
 10 48  1  0  0  0
 11 49  1  0  0  0
 11 50  1  0  0  0
 12 51  1  0  0  0
 13 52  1  0  0  0
 15 53  1  0  0  0
 15 54  1  0  0  0
 16 55  1  0  0  0
 16 56  1  0  0  0
 17 57  1  0  0  0
 17 58  1  0  0  0
 18 59  1  0  0  0
 19 60  1  0  0  0
 20 61  1  0  0  0
 21 62  1  0  0  0
 22 63  1  0  0  0
 24 64  1  0  0  0
 24 65  1  0  0  0
 25 66  1  0  0  0
 25 67  1  0  0  0
 28 68  1  0  0  0
 28 69  1  0  0  0
 30 70  1  0  0  0
 32 71  1  0  0  0
 32 72  1  0  0  0
 32 73  1  0  0  0
 33 74  1  0  0  0
 33 75  1  0  0  0
 35 76  1  0  0  0
 36 77  1  0  0  0
 37 78  1  0  0  0
 39 79  1  0  0  0
 44 80  1  0  0  0
M  END
$$$$
