5lma_ligand
  -I-interpret- 

 45 47  0  0  0  0  0  0  0  0999 V2000
   26.9780  -43.1740   34.9940 C   0  0  0  0  0
   26.7620  -42.0330   32.5740 C   0  0  0  0  0
   25.9050  -42.3170   34.6660 C   0  0  0  0  0
   23.6810  -38.4980   36.8320 C   0  0  0  0  0
   24.4640  -37.5530   37.7080 C   0  0  0  0  0
   26.2040  -45.3790   42.6820 C   0  0  0  0  0
   26.1680  -44.8920   41.2540 C   0  0  0  0  0
   27.0500  -45.3870   40.3080 C   0  0  0  0  0
   27.0240  -44.9430   38.9970 C   0  0  0  0  0
   26.0960  -43.9890   38.5860 C   0  0  0  0  0
   25.2180  -43.4880   39.5440 C   0  0  0  0  0
   25.2580  -43.9320   40.8500 C   0  0  0  0  0
   26.0750  -43.4700   37.1960 C   0  0  0  0  0
   27.0620  -43.7380   36.2840 C   0  0  0  0  0
   27.9560  -43.4390   34.0770 N   0  0  0  0  0
   27.8250  -42.8620   32.8930 C   0  0  0  0  0
   25.7970  -41.7500   33.4340 N   0  0  0  0  0
   24.9290  -42.0770   35.6910 C   0  0  0  0  0
   23.8770  -41.2870   35.4630 N   0  0  0  0  0
   22.9340  -40.8890   36.4940 C   0  0  0  0  0
   23.5180  -39.8730   37.4530 C   0  0  0  0  0
   24.5170  -36.2050   37.1370 N   0  3  0  0  0
   25.0420  -42.6410   36.9080 N   0  0  0  0  0
   26.7188  -41.5969   31.5760 H   0  0  0  0  0
   24.2265  -38.6161   35.8958 H   0  0  0  0  0
   22.6865  -38.0754   36.6889 H   0  0  0  0  0
   25.4831  -37.9297   37.7954 H   0  0  0  0  0
   23.9715  -37.4961   38.6787 H   0  0  0  0  0
   26.0216  -46.4534   42.7028 H   0  0  0  0  0
   27.1828  -45.1669   43.1123 H   0  0  0  0  0
   25.4336  -44.8671   43.2586 H   0  0  0  0  0
   27.7796  -46.1417   40.6017 H   0  0  0  0  0
   27.7380  -45.3446   38.2780 H   0  0  0  0  0
   24.4867  -42.7323   39.2573 H   0  0  0  0  0
   24.5591  -43.5183   41.5770 H   0  0  0  0  0
   27.9017  -44.3792   36.5522 H   0  0  0  0  0
   28.5869  -43.0472   32.1358 H   0  0  0  0  0
   23.7274  -40.9445   34.5139 H   0  0  0  0  0
   22.6670  -41.7772   37.0666 H   0  0  0  0  0
   22.0731  -40.4335   36.0046 H   0  0  0  0  0
   22.8323  -39.7782   38.2950 H   0  0  0  0  0
   24.5070  -40.2241   37.7474 H   0  0  0  0  0
   25.0530  -35.5960   37.7553 H   0  0  0  0  0
   24.9657  -36.2422   36.2217 H   0  0  0  0  0
   23.5691  -35.8415   37.0378 H   0  0  0  0  0
  3  1  4  0  0  0
  1 14  4  0  0  0
  1 15  4  0  0  0
  2 16  4  0  0  0
 17  2  4  0  0  0
  3 17  4  0  0  0
 18  3  4  0  0  0
  4  5  1  0  0  0
 21  4  1  0  0  0
  5 22  1  0  0  0
  7  6  1  0  0  0
  8  7  4  0  0  0
 12  7  4  0  0  0
  9  8  4  0  0  0
 10  9  4  0  0  0
 10 11  4  0  0  0
 13 10  1  0  0  0
 11 12  4  0  0  0
 13 14  4  0  0  0
 23 13  4  0  0  0
 15 16  4  0  0  0
 19 18  1  0  0  0
 18 23  4  0  0  0
 20 19  1  0  0  0
 20 21  1  0  0  0
  2 24  1  0  0  0
  4 25  1  0  0  0
  4 26  1  0  0  0
  5 27  1  0  0  0
  5 28  1  0  0  0
  6 29  1  0  0  0
  6 30  1  0  0  0
  6 31  1  0  0  0
  8 32  1  0  0  0
  9 33  1  0  0  0
 11 34  1  0  0  0
 12 35  1  0  0  0
 14 36  1  0  0  0
 16 37  1  0  0  0
 19 38  1  0  0  0
 20 39  1  0  0  0
 20 40  1  0  0  0
 21 41  1  0  0  0
 21 42  1  0  0  0
 22 43  1  0  0  0
 22 44  1  0  0  0
 22 45  1  0  0  0
M  END
$$$$
