2ymt_ligand
  -I-interpret- 

104108  0  0  0  0  0  0  0  0999 V2000
  -17.2370   11.0940   12.2380 N   0  3  0  0  0
  -17.2540   10.1310   13.3330 C   0  0  0  0  0
  -15.8970    9.4490   13.5210 C   0  0  0  0  0
  -15.4360    9.2810   14.6480 O   0  0  0  0  0
  -18.3670    9.0980   13.1280 C   0  0  0  0  0
  -19.4450    9.1310   14.2080 C   0  0  0  0  0
  -20.8430    8.8670   13.6650 C   0  0  0  0  0
  -20.9590    8.3710   12.5230 O   0  0  0  0  0
  -21.8250    9.1680   14.3790 O   0  0  0  0  0
  -15.2610    9.0560   12.4200 N   0  0  0  0  0
  -13.9190    8.4810   12.4940 C   0  0  0  0  0
  -12.8440    9.5620   12.4320 C   0  0  0  0  0
  -12.9870   10.5590   11.7290 O   0  0  0  0  0
  -13.6750    7.4870   11.3590 C   0  0  0  0  0
  -14.3520    6.1650   11.5070 C   0  0  0  0  0
  -15.5730    5.8140   11.0130 C   0  0  0  0  0
  -13.8350    4.9980   12.1640 C   0  0  0  0  0
  -15.8560    4.5060   11.3300 N   0  0  0  0  0
  -14.8050    3.9830   12.0350 C   0  0  0  0  0
  -12.6530    4.7150   12.8560 C   0  0  0  0  0
  -14.6280    2.7090   12.5690 C   0  0  0  0  0
  -12.4800    3.4520   13.3840 C   0  0  0  0  0
  -13.4640    2.4640   13.2390 C   0  0  0  0  0
  -11.7560    9.3460   13.1610 N   0  0  0  0  0
  -10.6110   10.2280   13.0870 C   0  0  0  0  0
   -9.8200    9.9720   11.8210 C   0  0  0  0  0
  -10.2030    9.1340   10.9990 O   0  0  0  0  0
   -8.7020   10.6890   11.6590 N   0  0  0  0  0
   -7.8300   10.5610   10.4890 C   0  0  0  0  0
   -7.0150    9.2740   10.5500 C   0  0  0  0  0
   -6.8070    8.7180   11.6330 O   0  0  0  0  0
   -6.9010   11.7660   10.6310 C   0  0  0  0  0
   -6.7970   11.9630   12.1010 C   0  0  0  0  0
   -8.1730   11.6590   12.6350 C   0  0  0  0  0
   -6.5600    8.8030    9.3970 N   0  0  0  0  0
   -5.6030    7.7110    9.3800 C   0  0  0  0  0
   -4.3230    8.1790   10.0520 C   0  0  0  0  0
   -3.8530    9.2900    9.8040 O   0  0  0  0  0
   -5.2930    7.2730    7.9540 C   0  0  0  0  0
   -6.3760    6.4950    7.2950 C   0  0  0  0  0
   -7.1610    6.9060    6.2620 C   0  0  0  0  0
   -6.7950    5.1620    7.6130 C   0  0  0  0  0
   -8.0400    5.9120    5.9110 N   0  0  0  0  0
   -7.8390    4.8310    6.7260 C   0  0  0  0  0
   -6.3850    4.2150    8.5540 C   0  0  0  0  0
   -8.4810    3.5960    6.7540 C   0  0  0  0  0
   -7.0280    2.9890    8.5870 C   0  0  0  0  0
   -8.0650    2.6900    7.6910 C   0  0  0  0  0
   -3.7770    7.3400   10.9240 N   0  0  0  0  0
   -2.4970    7.6260   11.5500 C   0  0  0  0  0
   -1.5270    6.5370   11.1330 C   0  0  0  0  0
   -1.8830    5.3610   11.1190 O   0  0  0  0  0
   -2.6190    7.6640   13.0920 C   0  0  0  0  0
   -1.2590    7.8880   13.7390 C   0  0  0  0  0
   -3.6030    8.7480   13.5170 C   0  0  0  0  0
   -0.3080    6.9270   10.7810 N   0  0  0  0  0
  -16.4903   11.7712   12.3939 H   0  0  0  0  0
  -17.0749   10.6039   11.3583 H   0  0  0  0  0
  -18.1339   11.5781   12.1986 H   0  0  0  0  0
  -17.4609   10.6837   14.2494 H   0  0  0  0  0
  -17.9047    8.1114   13.1604 H   0  0  0  0  0
  -18.8512    9.3262   12.1785 H   0  0  0  0  0
  -19.4433   10.1286   14.6473 H   0  0  0  0  0
  -19.2159    8.3460   14.9287 H   0  0  0  0  0
  -21.5145    9.5315   15.2115 H   0  0  0  0  0
  -15.7159    9.1573   11.5127 H   0  0  0  0  0
  -13.8573    7.9629   13.4510 H   0  0  0  0  0
  -12.6035    7.2875   11.3457 H   0  0  0  0  0
  -14.0781    7.9429   10.4547 H   0  0  0  0  0
  -16.2304    6.4749   10.4481 H   0  0  0  0  0
  -11.8833    5.4774   12.9759 H   0  0  0  0  0
  -15.3895    1.9373   12.4564 H   0  0  0  0  0
  -11.5621    3.2183   13.9234 H   0  0  0  0  0
  -13.2958    1.4775   13.6711 H   0  0  0  0  0
  -11.7263    8.5411   13.7868 H   0  0  0  0  0
   -9.9681   10.0442   13.9478 H   0  0  0  0  0
  -10.9608   11.2603   13.0816 H   0  0  0  0  0
   -8.3818   10.5290    9.5495 H   0  0  0  0  0
   -7.2857   12.6488   10.1204 H   0  0  0  0  0
   -5.9299   11.5983   10.1652 H   0  0  0  0  0
   -6.4820   12.9761   12.3510 H   0  0  0  0  0
   -6.0405   11.3142   12.5425 H   0  0  0  0  0
   -8.1538   11.2668   13.6518 H   0  0  0  0  0
   -8.7963   12.5486   12.7261 H   0  0  0  0  0
   -6.8833    9.2091    8.5190 H   0  0  0  0  0
   -6.0291    6.8598    9.9110 H   0  0  0  0  0
   -4.4197    6.6226    8.0041 H   0  0  0  0  0
   -5.1508    8.1802    7.3667 H   0  0  0  0  0
   -7.1004    7.8831    5.7828 H   0  0  0  0  0
   -5.5749    4.4365    9.2488 H   0  0  0  0  0
   -9.2843    3.3599    6.0561 H   0  0  0  0  0
   -6.7231    2.2437    9.3217 H   0  0  0  0  0
   -8.5497    1.7151    7.7423 H   0  0  0  0  0
   -4.2661    6.4765   11.1596 H   0  0  0  0  0
   -2.1445    8.6064   11.2296 H   0  0  0  0  0
   -2.9969    6.6994   13.4309 H   0  0  0  0  0
   -0.5872    7.0763   13.4598 H   0  0  0  0  0
   -0.8467    8.8369   13.3959 H   0  0  0  0  0
   -1.3730    7.9105   14.8228 H   0  0  0  0  0
   -3.2499    9.7165   13.1629 H   0  0  0  0  0
   -4.5820    8.5372   13.0866 H   0  0  0  0  0
   -3.6782    8.7626   14.6043 H   0  0  0  0  0
    0.3815    6.2375   10.4818 H   0  0  0  0  0
   -0.0608    7.9162   10.8097 H   0  0  0  0  0
  1  2  1  0  0  0
  2  3  1  0  0  0
  2  5  1  0  0  0
  3  4  2  0  0  0
  3 10  1  0  0  0
  5  6  1  0  0  0
  6  7  1  0  0  0
  7  8  2  0  0  0
  7  9  1  0  0  0
 10 11  1  0  0  0
 11 12  1  0  0  0
 11 14  1  0  0  0
 12 13  2  0  0  0
 12 24  1  0  0  0
 14 15  1  0  0  0
 15 16  4  0  0  0
 15 17  4  0  0  0
 16 18  4  0  0  0
 17 19  4  0  0  0
 17 20  4  0  0  0
 18 19  4  0  0  0
 19 21  4  0  0  0
 20 22  4  0  0  0
 21 23  4  0  0  0
 22 23  4  0  0  0
 24 25  1  0  0  0
 25 26  1  0  0  0
 26 27  2  0  0  0
 26 28  1  0  0  0
 28 29  1  0  0  0
 28 34  1  0  0  0
 29 30  1  0  0  0
 29 32  1  0  0  0
 30 31  2  0  0  0
 30 35  1  0  0  0
 32 33  1  0  0  0
 33 34  1  0  0  0
 35 36  1  0  0  0
 36 37  1  0  0  0
 36 39  1  0  0  0
 37 38  2  0  0  0
 37 49  1  0  0  0
 39 40  1  0  0  0
 40 41  4  0  0  0
 40 42  4  0  0  0
 41 43  4  0  0  0
 42 44  4  0  0  0
 42 45  4  0  0  0
 43 44  4  0  0  0
 44 46  4  0  0  0
 45 47  4  0  0  0
 46 48  4  0  0  0
 47 48  4  0  0  0
 49 50  1  0  0  0
 50 51  1  0  0  0
 50 53  1  0  0  0
 51 52  2  0  0  0
 51 56  1  0  0  0
 53 54  1  0  0  0
 53 55  1  0  0  0
  1 57  1  0  0  0
  1 58  1  0  0  0
  1 59  1  0  0  0
  2 60  1  0  0  0
  5 61  1  0  0  0
  5 62  1  0  0  0
  6 63  1  0  0  0
  6 64  1  0  0  0
  9 65  1  0  0  0
 10 66  1  0  0  0
 11 67  1  0  0  0
 14 68  1  0  0  0
 14 69  1  0  0  0
 16 70  1  0  0  0
 20 71  1  0  0  0
 21 72  1  0  0  0
 22 73  1  0  0  0
 23 74  1  0  0  0
 24 75  1  0  0  0
 25 76  1  0  0  0
 25 77  1  0  0  0
 29 78  1  0  0  0
 32 79  1  0  0  0
 32 80  1  0  0  0
 33 81  1  0  0  0
 33 82  1  0  0  0
 34 83  1  0  0  0
 34 84  1  0  0  0
 35 85  1  0  0  0
 36 86  1  0  0  0
 39 87  1  0  0  0
 39 88  1  0  0  0
 41 89  1  0  0  0
 45 90  1  0  0  0
 46 91  1  0  0  0
 47 92  1  0  0  0
 48 93  1  0  0  0
 49 94  1  0  0  0
 50 95  1  0  0  0
 53 96  1  0  0  0
 54 97  1  0  0  0
 54 98  1  0  0  0
 54 99  1  0  0  0
 55100  1  0  0  0
 55101  1  0  0  0
 55102  1  0  0  0
 56103  1  0  0  0
 56104  1  0  0  0
M  END
$$$$
