2o5k_ligand
  -I-interpret- 

 53 56  0  0  0  0  0  0  0  0999 V2000
   12.6940   32.1200   -7.0910 C   0  0  0  0  0
   13.1860   33.8080   -8.8920 C   0  0  0  0  0
   11.3450   32.0610   -9.1550 C   0  0  0  0  0
    9.7050   32.4190  -12.3080 C   0  0  0  0  0
   10.2440   32.8290  -13.6510 C   0  0  0  0  0
   11.6220   31.4910   -7.8370 C   0  0  0  0  0
   13.4520   33.2390   -7.5920 C   0  0  0  0  0
   12.1250   33.2380   -9.7060 C   0  0  0  0  0
   10.4250   31.6800  -10.0340 N   0  0  0  0  0
   10.5100   32.5030  -11.1550 C   0  0  0  0  0
   11.5430   33.4580  -10.9700 N   0  0  0  0  0
    9.4860   32.7690  -14.8500 C   0  0  0  0  0
    8.0970   32.2880  -14.8260 C   0  0  0  0  0
    7.4720   31.8630  -13.5890 C   0  0  0  0  0
    8.2090   31.9120  -12.3580 C   0  0  0  0  0
    7.2040   32.2260  -16.2910 Cl  0  0  0  0  0
    7.3180   31.3670  -10.9620 Cl  0  0  0  0  0
   10.9130   30.3350   -7.2080 C   0  0  0  0  0
    9.8420   29.6890   -7.9300 N   0  0  0  0  0
    9.6050   28.2410   -7.8410 C   0  0  0  0  0
    9.4320   27.6960   -9.2830 C   0  0  0  0  0
    8.1030   26.9260   -9.6250 C   0  0  0  0  0
    6.8750   27.6250  -10.1620 C   0  0  0  0  0
    5.6430   26.8880  -10.4740 C   0  0  0  0  0
    5.5840   25.4040  -10.2620 C   0  0  0  0  0
    6.7870   24.7100   -9.7370 C   0  0  0  0  0
    8.0040   25.4460   -9.4290 C   0  0  0  0  0
    4.4120   24.6440  -10.5450 N   0  0  0  0  0
    4.3310   23.8470  -12.0890 S   0  0  0  0  0
    2.5700   23.7350  -12.6020 C   0  0  0  0  0
    4.9510   24.6940  -13.0950 O   0  0  0  0  0
    4.7690   22.4350  -11.9830 O   0  0  0  0  0
   11.3030   30.0020   -6.0710 O   0  0  0  0  0
   14.0370   34.8510   -9.1310 O   0  0  0  0  0
   12.9386   31.7280   -6.1038 H   0  0  0  0  0
   11.2705   33.1912  -13.7067 H   0  0  0  0  0
   14.2436   33.6651   -6.9757 H   0  0  0  0  0
    9.9359   33.0810  -15.7925 H   0  0  0  0  0
    6.4421   31.5061  -13.5935 H   0  0  0  0  0
    9.2315   30.2547   -8.5196 H   0  0  0  0  0
    8.7099   28.0407   -7.2521 H   0  0  0  0  0
   10.4459   27.7505   -7.3507 H   0  0  0  0  0
   10.2316   26.9671   -9.4152 H   0  0  0  0  0
    9.4315   28.5753   -9.9271 H   0  0  0  0  0
    6.9043   28.7028  -10.3217 H   0  0  0  0  0
    4.7725   27.4190  -10.8592 H   0  0  0  0  0
    6.7581   23.6318   -9.5797 H   0  0  0  0  0
    8.8679   24.9037   -9.0446 H   0  0  0  0  0
    3.6514   24.5704   -9.8694 H   0  0  0  0  0
    2.1334   24.7336  -12.6181 H   0  0  0  0  0
    2.5101   23.2948  -13.5973 H   0  0  0  0  0
    2.0256   23.1104  -11.8937 H   0  0  0  0  0
   13.8518   35.2217   -9.9970 H   0  0  0  0  0
  6  1  4  0  0  0
  1  7  4  0  0  0
  2  7  4  0  0  0
  8  2  4  0  0  0
  2 34  1  0  0  0
  3  6  4  0  0  0
  3  8  4  0  0  0
  9  3  4  0  0  0
  4  5  4  0  0  0
 10  4  1  0  0  0
  4 15  4  0  0  0
  5 12  4  0  0  0
  6 18  1  0  0  0
  8 11  4  0  0  0
  9 10  4  0  0  0
 10 11  4  0  0  0
 12 13  4  0  0  0
 13 14  4  0  0  0
 13 16  1  0  0  0
 14 15  4  0  0  0
 15 17  1  0  0  0
 18 19  1  0  0  0
 18 33  2  0  0  0
 19 20  1  0  0  0
 20 21  1  0  0  0
 21 22  1  0  0  0
 22 23  4  0  0  0
 22 27  4  0  0  0
 23 24  4  0  0  0
 24 25  4  0  0  0
 25 26  4  0  0  0
 25 28  1  0  0  0
 26 27  4  0  0  0
 28 29  1  0  0  0
 29 30  1  0  0  0
 29 31  2  0  0  0
 29 32  2  0  0  0
  1 35  1  0  0  0
  5 36  1  0  0  0
  7 37  1  0  0  0
 12 38  1  0  0  0
 14 39  1  0  0  0
 19 40  1  0  0  0
 20 41  1  0  0  0
 20 42  1  0  0  0
 21 43  1  0  0  0
 21 44  1  0  0  0
 23 45  1  0  0  0
 24 46  1  0  0  0
 26 47  1  0  0  0
 27 48  1  0  0  0
 28 49  1  0  0  0
 30 50  1  0  0  0
 30 51  1  0  0  0
 30 52  1  0  0  0
 34 53  1  0  0  0
M  END
$$$$
