2ynd_ligand
  -I-interpret- 

 57 60  0  0  0  0  0  0  0  0999 V2000
  -20.9130   10.5990  -25.7300 C   0  0  0  0  0
  -25.9680   12.1440  -26.4570 C   0  0  0  0  0
  -25.6380   10.8960  -23.7680 C   0  0  0  0  0
  -21.0630   13.4850  -26.8280 O   0  0  0  0  0
  -21.4930   13.3780  -29.3120 O   0  0  0  0  0
  -24.7160   13.5590  -29.7220 Cl  0  0  0  0  0
  -21.6920   15.7720  -25.5930 Cl  0  0  0  0  0
  -28.8780   17.5230  -26.7580 C   0  0  0  0  0
  -27.6820   17.0370  -27.2870 C   0  0  0  0  0
  -25.4640   15.4590  -27.9570 C   0  0  0  0  0
  -24.1550   16.3910  -26.2110 C   0  0  0  0  0
  -26.6260   17.4980  -25.1670 C   0  0  0  0  0
  -29.4310   19.5100  -21.4520 C   0  0  0  0  0
  -27.1520   18.8770  -21.1340 C   0  0  0  0  0
  -29.3670   18.7590  -22.8080 C   0  0  0  0  0
  -26.7730   18.7330  -22.5900 C   0  0  0  0  0
  -28.9410   17.9640  -25.4900 N   0  0  0  0  0
  -23.1640   10.5840  -24.4350 N   0  0  0  0  0
  -28.1110   19.9910  -20.9920 N   0  3  0  0  0
  -22.7900   11.9910  -27.8460 N   0  0  0  0  0
  -22.3620   10.8420  -25.5370 C   0  0  0  0  0
  -24.6220   11.6330  -25.9890 C   0  0  0  0  0
  -24.4160   14.6140  -28.3090 C   0  0  0  0  0
  -23.1310   15.5210  -26.5750 C   0  0  0  0  0
  -26.5090   17.1250  -26.5320 C   0  0  0  0  0
  -25.3160   16.4180  -26.9590 C   0  0  0  0  0
  -27.8610   17.9720  -24.6640 C   0  0  0  0  0
  -23.2410   11.5050  -26.5390 C   0  0  0  0  0
  -23.1950   14.5950  -27.6410 C   0  0  0  0  0
  -28.0010   18.4740  -23.3410 N   0  0  0  0  0
  -24.5270   10.9080  -24.7380 N   0  0  0  0  0
  -22.0240   13.4290  -27.9420 S   0  0  0  0  0
  -20.3496   11.1569  -24.9821 H   0  0  0  0  0
  -20.7070    9.5341  -25.6222 H   0  0  0  0  0
  -20.6204   10.9278  -26.7272 H   0  0  0  0  0
  -25.8855   13.2006  -26.7119 H   0  0  0  0  0
  -26.2838   11.5806  -27.3351 H   0  0  0  0  0
  -26.7005   12.0174  -25.6598 H   0  0  0  0  0
  -25.7454    9.8939  -23.3529 H   0  0  0  0  0
  -25.4255   11.6022  -22.9654 H   0  0  0  0  0
  -26.5612   11.1831  -24.2713 H   0  0  0  0  0
  -29.7723   17.5453  -27.3807 H   0  0  0  0  0
  -27.6625   16.5919  -28.2818 H   0  0  0  0  0
  -26.4198   15.3682  -28.4730 H   0  0  0  0  0
  -24.0419   17.0437  -25.3454 H   0  0  0  0  0
  -25.7633   17.4191  -24.5055 H   0  0  0  0  0
  -29.8078   18.8119  -20.7045 H   0  0  0  0  0
  -30.0724   20.3811  -21.5860 H   0  0  0  0  0
  -26.2604   19.0830  -20.5418 H   0  0  0  0  0
  -27.6091   17.9526  -20.7810 H   0  0  0  0  0
  -29.8491   19.4087  -23.5385 H   0  0  0  0  0
  -29.8368   17.7897  -22.6413 H   0  0  0  0  0
  -26.0666   17.9132  -22.7205 H   0  0  0  0  0
  -26.2909   19.6419  -22.9499 H   0  0  0  0  0
  -28.1627   20.2926  -20.0190 H   0  0  0  0  0
  -27.8109   20.7907  -21.5495 H   0  0  0  0  0
  -22.9531   11.4366  -28.6865 H   0  0  0  0  0
 21  1  1  0  0  0
 22  2  1  0  0  0
 31  3  1  0  0  0
 32  4  2  0  0  0
 32  5  2  0  0  0
 23  6  1  0  0  0
 24  7  1  0  0  0
  9  8  4  0  0  0
  8 17  4  0  0  0
 25  9  4  0  0  0
 23 10  4  0  0  0
 10 26  4  0  0  0
 24 11  4  0  0  0
 11 26  4  0  0  0
 25 12  4  0  0  0
 12 27  4  0  0  0
 15 13  1  0  0  0
 13 19  1  0  0  0
 16 14  1  0  0  0
 14 19  1  0  0  0
 30 15  1  0  0  0
 30 16  1  0  0  0
 27 17  4  0  0  0
 21 18  4  0  0  0
 31 18  4  0  0  0
 20 28  1  0  0  0
 32 20  1  0  0  0
 28 21  4  0  0  0
 28 22  4  0  0  0
 22 31  4  0  0  0
 29 23  4  0  0  0
 29 24  4  0  0  0
 26 25  1  0  0  0
 27 30  1  0  0  0
 29 32  1  0  0  0
  1 33  1  0  0  0
  1 34  1  0  0  0
  1 35  1  0  0  0
  2 36  1  0  0  0
  2 37  1  0  0  0
  2 38  1  0  0  0
  3 39  1  0  0  0
  3 40  1  0  0  0
  3 41  1  0  0  0
  8 42  1  0  0  0
  9 43  1  0  0  0
 10 44  1  0  0  0
 11 45  1  0  0  0
 12 46  1  0  0  0
 13 47  1  0  0  0
 13 48  1  0  0  0
 14 49  1  0  0  0
 14 50  1  0  0  0
 15 51  1  0  0  0
 15 52  1  0  0  0
 16 53  1  0  0  0
 16 54  1  0  0  0
 19 55  1  0  0  0
 19 56  1  0  0  0
 20 57  1  0  0  0
M  END
$$$$
