6baw_ligand
  -I-interpret- 

 52 54  0  0  0  0  0  0  0  0999 V2000
   -2.9590   42.0060  -26.1110 C   0  0  0  0  0
   -3.9250   41.3740  -24.1390 C   0  0  0  0  0
   -3.8810   40.6720  -22.9350 C   0  0  0  0  0
   -2.9060   41.0340  -22.0130 C   0  0  0  0  0
   -2.7850   40.3920  -20.7900 C   0  0  0  0  0
   -3.6670   39.3620  -20.5020 C   0  0  0  0  0
   -4.6510   38.9760  -21.4040 C   0  0  0  0  0
   -5.5060   37.9350  -21.0570 C   0  0  0  0  0
   -7.4940   37.1690  -20.2300 C   0  0  0  0  0
   -4.7670   39.6320  -22.6310 C   0  0  0  0  0
   -5.7550   39.2310  -23.5350 C   0  0  0  0  0
   -7.0180   40.0820  -23.3550 C   0  0  0  0  0
   -8.2000   39.4770  -24.1220 C   0  0  0  0  0
  -10.0130   38.4300  -24.5270 C   0  0  0  0  0
   -9.5470   38.9160  -25.6780 C   0  0  0  0  0
   -7.5680   40.2640  -26.4510 C   0  0  0  0  0
   -6.7310   39.3880  -27.1530 C   0  0  0  0  0
   -5.7560   39.9160  -27.9930 C   0  0  0  0  0
   -4.9110   39.0750  -28.7080 C   0  0  0  0  0
   -5.0350   37.6970  -28.5860 C   0  0  0  0  0
   -6.0070   37.1630  -27.7490 C   0  0  0  0  0
   -6.8510   38.0070  -27.0360 C   0  0  0  0  0
   -9.1770   38.7810  -23.5540 N   0  0  0  0  0
   -8.4080   39.5660  -25.4340 N   0  0  0  0  0
   -2.7960   41.2780  -24.8910 O   0  0  0  0  0
   -4.8950   42.0640  -24.4510 O   0  0  0  0  0
   -2.0840   42.0550  -22.3760 O   0  0  0  0  0
   -3.6200   38.6790  -19.3280 O   0  0  0  0  0
   -5.1250   36.7660  -21.0960 O   0  0  0  0  0
   -6.7480   38.3150  -20.6500 O   0  0  0  0  0
   -3.7992   41.5933  -26.6694 H   0  0  0  0  0
   -3.1519   43.0545  -25.8840 H   0  0  0  0  0
   -2.0497   41.9231  -26.7063 H   0  0  0  0  0
   -2.0178   40.6889  -20.0749 H   0  0  0  0  0
   -7.5854   36.4714  -21.0626 H   0  0  0  0  0
   -6.9765   36.6835  -19.4026 H   0  0  0  0  0
   -8.4865   37.4819  -19.9059 H   0  0  0  0  0
   -6.0015   38.1851  -23.3520 H   0  0  0  0  0
   -5.3812   39.3593  -24.5508 H   0  0  0  0  0
   -6.8244   41.0824  -23.7420 H   0  0  0  0  0
   -7.2691   40.1165  -22.2949 H   0  0  0  0  0
  -10.9242   37.8446  -24.4044 H   0  0  0  0  0
  -10.0178   38.8014  -26.6544 H   0  0  0  0  0
   -8.2367   40.7368  -27.1703 H   0  0  0  0  0
   -6.9373   40.9829  -25.9281 H   0  0  0  0  0
   -5.6538   40.9967  -28.0913 H   0  0  0  0  0
   -4.1506   39.4973  -29.3649 H   0  0  0  0  0
   -4.3720   37.0367  -29.1450 H   0  0  0  0  0
   -6.1079   36.0821  -27.6513 H   0  0  0  0  0
   -7.6122   37.5836  -26.3807 H   0  0  0  0  0
   -1.4530   42.2220  -21.6721 H   0  0  0  0  0
   -4.3084   38.0099  -19.3206 H   0  0  0  0  0
 25  1  1  0  0  0
  3  2  1  0  0  0
  2 25  1  0  0  0
  2 26  2  0  0  0
  3  4  4  0  0  0
 10  3  4  0  0  0
  4  5  4  0  0  0
  4 27  1  0  0  0
  6  5  4  0  0  0
  7  6  4  0  0  0
  6 28  1  0  0  0
  7  8  1  0  0  0
 10  7  4  0  0  0
  8 29  2  0  0  0
  8 30  1  0  0  0
 30  9  1  0  0  0
 11 10  1  0  0  0
 12 11  1  0  0  0
 13 12  1  0  0  0
 13 23  4  0  0  0
 24 13  4  0  0  0
 15 14  4  0  0  0
 14 23  4  0  0  0
 24 15  4  0  0  0
 16 17  1  0  0  0
 16 24  1  0  0  0
 17 18  4  0  0  0
 17 22  4  0  0  0
 18 19  4  0  0  0
 19 20  4  0  0  0
 20 21  4  0  0  0
 21 22  4  0  0  0
  1 31  1  0  0  0
  1 32  1  0  0  0
  1 33  1  0  0  0
  5 34  1  0  0  0
  9 35  1  0  0  0
  9 36  1  0  0  0
  9 37  1  0  0  0
 11 38  1  0  0  0
 11 39  1  0  0  0
 12 40  1  0  0  0
 12 41  1  0  0  0
 14 42  1  0  0  0
 15 43  1  0  0  0
 16 44  1  0  0  0
 16 45  1  0  0  0
 18 46  1  0  0  0
 19 47  1  0  0  0
 20 48  1  0  0  0
 21 49  1  0  0  0
 22 50  1  0  0  0
 27 51  1  0  0  0
 28 52  1  0  0  0
M  END
$$$$
