6upj_ligand
  -I-interpret- 

 44 46  0  0  0  0  0  0  0  0999 V2000
   -0.3910   18.2260   20.7610 C   0  0  0  0  0
   -1.5590   17.6530   21.3460 C   0  0  0  0  0
   -1.7710   16.4940   21.2540 O   0  0  0  0  0
   -2.5020   18.3810   21.9930 O   0  0  0  0  0
   -2.2600   19.7610   22.0620 C   0  0  0  0  0
   -1.1310   20.4070   21.5150 C   0  0  0  0  0
   -0.1860   19.5920   20.8550 C   0  0  0  0  0
    0.9740   20.0970   20.3010 O   0  0  0  0  0
    0.0220   16.6320   18.7530 C   0  0  0  0  0
   -0.3250   17.3520   17.5770 C   0  0  0  0  0
   -0.8470   16.6580   16.4670 C   0  0  0  0  0
   -1.0470   15.2640   16.5180 C   0  0  0  0  0
   -0.7110   14.5580   17.6780 C   0  0  0  0  0
   -0.1860   15.2220   18.8000 C   0  0  0  0  0
    0.6250   17.3830   19.9550 C   0  0  0  0  0
    1.6480   16.5950   20.7860 C   0  0  0  0  0
    1.1130   15.4320   21.6200 C   0  0  0  0  0
   -3.3620   20.5360   22.8040 C   0  0  0  0  0
   -3.9960   21.7450   22.1160 C   0  0  0  0  0
   -3.4120   22.1280   20.7460 C   0  0  0  0  0
   -1.9750   22.6960   20.7700 C   0  0  0  0  0
   -0.9560   21.9070   21.6170 C   0  0  0  0  0
    1.0009   21.0480   20.4293 H   0  0  0  0  0
   -0.1883   18.4326   17.5343 H   0  0  0  0  0
   -1.0989   17.2057   15.5588 H   0  0  0  0  0
   -1.4615   14.7384   15.6578 H   0  0  0  0  0
   -0.8583   13.4785   17.7122 H   0  0  0  0  0
    0.0610   14.6618   19.7018 H   0  0  0  0  0
    1.2579   18.1378   19.4882 H   0  0  0  0  0
    2.0646   17.3065   21.4990 H   0  0  0  0  0
    2.3392   16.1539   20.0679 H   0  0  0  0  0
    0.3791   15.8059   22.3339 H   0  0  0  0  0
    0.6424   14.7012   20.9623 H   0  0  0  0  0
    1.9372   14.9621   22.1567 H   0  0  0  0  0
   -2.8772   20.9373   23.6940 H   0  0  0  0  0
   -4.1757   19.8219   22.9305 H   0  0  0  0  0
   -5.0395   21.4835   21.9404 H   0  0  0  0  0
   -3.8185   22.5971   22.7722 H   0  0  0  0  0
   -3.3733   21.2110   20.1580 H   0  0  0  0  0
   -4.0503   22.9158   20.3460 H   0  0  0  0  0
   -1.6132   22.6620   19.7424 H   0  0  0  0  0
   -2.0435   23.6883   21.2159 H   0  0  0  0  0
    0.0400   22.1495   21.2464 H   0  0  0  0  0
   -1.1057   22.1870   22.6597 H   0  0  0  0  0
  1 15  1  0  0  0
  1  7  2  0  0  0
  1  2  1  0  0  0
  2  4  1  0  0  0
  2  3  2  0  0  0
  4  5  1  0  0  0
  5 18  1  0  0  0
  5  6  2  0  0  0
  6 22  1  0  0  0
  6  7  1  0  0  0
  7  8  1  0  0  0
 22 21  1  0  0  0
 21 20  1  0  0  0
 20 19  1  0  0  0
 19 18  1  0  0  0
 15 16  1  0  0  0
 15  9  1  0  0  0
  9 14  4  0  0  0
  9 10  4  0  0  0
 10 11  4  0  0  0
 11 12  4  0  0  0
 12 13  4  0  0  0
 13 14  4  0  0  0
 16 17  1  0  0  0
  8 23  1  0  0  0
 10 24  1  0  0  0
 11 25  1  0  0  0
 12 26  1  0  0  0
 13 27  1  0  0  0
 14 28  1  0  0  0
 15 29  1  0  0  0
 16 30  1  0  0  0
 16 31  1  0  0  0
 17 32  1  0  0  0
 17 33  1  0  0  0
 17 34  1  0  0  0
 18 35  1  0  0  0
 18 36  1  0  0  0
 19 37  1  0  0  0
 19 38  1  0  0  0
 20 39  1  0  0  0
 20 40  1  0  0  0
 21 41  1  0  0  0
 21 42  1  0  0  0
 22 43  1  0  0  0
 22 44  1  0  0  0
M  END
$$$$
