3g1d_ligand
  -I-interpret- 

 34 35  0  0  0  0  0  0  0  0999 V2000
   25.8690   -1.2150    7.9160 O   0  0  0  0  0
   24.8370   -2.2650    8.5560 P   0  0  0  0  0
   24.1130   -3.0850    7.5190 O   0  0  0  0  0
   25.6110   -3.1380    9.5060 O   0  0  0  0  0
   23.8220   -1.4830    9.4760 O   0  0  0  0  0
   22.6990   -0.7620    8.9500 C   0  0  0  0  0
   22.0560   -0.0450   10.1200 C   0  0  0  0  0
   20.9880    0.8080    9.6530 O   0  0  0  0  0
   21.3870   -0.8830   11.2020 C   0  0  0  0  0
   21.4580   -0.2270   12.4690 O   0  0  0  0  0
   19.9720   -1.0020   10.7350 C   0  0  0  0  0
   19.0570   -1.3360   11.7760 O   0  0  0  0  0
   19.7290    0.3440   10.0990 C   0  0  0  0  0
   18.7970    0.4210    8.9570 N   0  0  0  0  0
   18.9500   -0.3900    7.7960 C   0  0  0  0  0
   19.9060   -1.1160    7.6390 O   0  0  0  0  0
   17.9290   -0.2710    6.8730 N   0  0  0  0  0
   16.8550    0.6420    6.8880 C   0  0  0  0  0
   16.1160    0.6690    5.9230 O   0  0  0  0  0
   16.7710    1.4590    8.0830 C   0  0  0  0  0
   17.7210    1.3500    9.0380 C   0  0  0  0  0
   25.4022   -0.6422    7.3032 H   0  0  0  0  0
   23.6303   -2.5003    6.9302 H   0  0  0  0  0
   21.9910   -1.4396    8.4728 H   0  0  0  0  0
   23.0161   -0.0522    8.1859 H   0  0  0  0  0
   22.9205    0.4509   10.5614 H   0  0  0  0  0
   21.8644   -1.8526   11.3436 H   0  0  0  0  0
   21.0313   -0.7717   13.1345 H   0  0  0  0  0
   19.8113   -1.8268   10.0407 H   0  0  0  0  0
   18.1702   -1.3972   11.4136 H   0  0  0  0  0
   19.2420    0.9375   10.8727 H   0  0  0  0  0
   17.9554   -0.9210    6.0873 H   0  0  0  0  0
   15.9448    2.1584    8.2106 H   0  0  0  0  0
   17.6608    2.0024    9.9091 H   0  0  0  0  0
  1  2  1  0  0  0
  2  3  1  0  0  0
  2  4  2  0  0  0
  2  5  1  0  0  0
  5  6  1  0  0  0
  6  7  1  0  0  0
  7  8  1  0  0  0
  7  9  1  0  0  0
  8 13  1  0  0  0
  9 10  1  0  0  0
  9 11  1  0  0  0
 11 12  1  0  0  0
 11 13  1  0  0  0
 13 14  1  0  0  0
 14 15  1  0  0  0
 14 21  1  0  0  0
 15 16  2  0  0  0
 15 17  1  0  0  0
 17 18  1  0  0  0
 18 19  2  0  0  0
 18 20  1  0  0  0
 20 21  2  0  0  0
  1 22  1  0  0  0
  3 23  1  0  0  0
  6 24  1  0  0  0
  6 25  1  0  0  0
  7 26  1  0  0  0
  9 27  1  0  0  0
 10 28  1  0  0  0
 11 29  1  0  0  0
 12 30  1  0  0  0
 13 31  1  0  0  0
 17 32  1  0  0  0
 20 33  1  0  0  0
 21 34  1  0  0  0
M  END
$$$$
