4dcd_ligand
  -I-interpret- 

 60 61  0  0  0  0  0  0  0  0999 V2000
    8.3580    8.9300   32.8330 C   0  0  0  0  0
    9.5160    9.6110   32.3290 O   0  0  0  0  0
    9.7440    9.6310   30.9030 C   0  0  0  0  0
    8.8820    9.2600   30.1120 O   0  0  0  0  0
    7.3630    9.9550   33.3240 C   0  0  0  0  0
    6.7390   10.7680   32.3970 C   0  0  0  0  0
    5.8070   11.7100   32.8180 C   0  0  0  0  0
    5.5330   11.8480   34.1740 C   0  0  0  0  0
    6.1710   11.0450   35.1070 C   0  0  0  0  0
    7.0900   10.0890   34.6820 C   0  0  0  0  0
   10.9600   10.1030   30.5080 N   0  0  0  0  0
   11.5580    9.8310   29.2040 C   0  0  0  0  0
   11.4120    8.4740   28.5740 C   0  0  0  0  0
   11.7510    7.4950   29.2320 O   0  0  0  0  0
   12.8660   10.5580   28.8820 C   0  0  0  0  0
   12.9150   11.9880   29.4130 C   0  0  0  0  0
   14.3590   12.4210   29.6240 C   0  0  0  0  0
   12.2040   12.9390   28.4730 C   0  0  0  0  0
   10.9900    8.3640   27.2770 N   0  0  0  0  0
   10.8250    7.0390   26.6400 C   0  0  0  0  0
   11.4550    6.9850   25.2520 C   0  0  0  0  0
   12.8680    7.1640   25.3480 O   0  0  0  0  0
    9.3380    6.7400   26.4790 C   0  0  0  0  0
    8.6370    6.6300   27.8090 C   0  0  0  0  0
    9.1520    5.5270   28.7220 C   0  0  0  0  0
    7.9130    5.0260   29.4520 C   0  0  0  0  0
    6.7920    5.3270   28.5580 N   0  0  0  0  0
    7.2240    6.2170   27.6280 C   0  0  0  0  0
    6.4860    6.5880   26.7230 O   0  0  0  0  0
    8.6451    8.2725   33.6536 H   0  0  0  0  0
    7.9092    8.3305   32.0410 H   0  0  0  0  0
    6.9770   10.6710   31.3377 H   0  0  0  0  0
    5.2939   12.3370   32.0888 H   0  0  0  0  0
    4.8107   12.5936   34.5064 H   0  0  0  0  0
    5.9541   11.1615   36.1688 H   0  0  0  0  0
    7.5922    9.4499   35.4082 H   0  0  0  0  0
   11.4847   10.6819   31.1637 H   0  0  0  0  0
   10.7979   10.3587   28.6280 H   0  0  0  0  0
   12.9539   10.6086   27.7967 H   0  0  0  0  0
   13.6745   10.0038   29.3587 H   0  0  0  0  0
   12.3983   12.0164   30.3723 H   0  0  0  0  0
   14.8349   11.7557   30.3444 H   0  0  0  0  0
   14.8936   12.3735   28.6753 H   0  0  0  0  0
   14.3789   13.4428   30.0029 H   0  0  0  0  0
   12.6867   12.9109   27.4961 H   0  0  0  0  0
   11.1613   12.6374   28.3733 H   0  0  0  0  0
   12.2540   13.9508   28.8754 H   0  0  0  0  0
   10.7862    9.2079   26.7415 H   0  0  0  0  0
   11.3193    6.3100   27.2821 H   0  0  0  0  0
   11.0344    7.7804   24.6368 H   0  0  0  0  0
   11.2469    6.0143   24.8020 H   0  0  0  0  0
   13.2543    7.1284   24.4699 H   0  0  0  0  0
    9.2362    5.7868   25.9601 H   0  0  0  0  0
    8.8841    7.5590   25.9211 H   0  0  0  0  0
    8.7956    7.6190   28.2388 H   0  0  0  0  0
    9.9135    5.8904   29.4120 H   0  0  0  0  0
    9.6462    4.7321   28.1635 H   0  0  0  0  0
    7.7948    5.5095   30.4217 H   0  0  0  0  0
    7.9784    3.9600   29.6699 H   0  0  0  0  0
    5.8519    4.9365   28.6228 H   0  0  0  0  0
  1  2  1  0  0  0
  1  5  1  0  0  0
  2  3  1  0  0  0
  3  4  2  0  0  0
  3 11  1  0  0  0
  5  6  4  0  0  0
  5 10  4  0  0  0
  6  7  4  0  0  0
  7  8  4  0  0  0
  8  9  4  0  0  0
  9 10  4  0  0  0
 11 12  1  0  0  0
 12 13  1  0  0  0
 12 15  1  0  0  0
 13 14  2  0  0  0
 13 19  1  0  0  0
 15 16  1  0  0  0
 16 17  1  0  0  0
 16 18  1  0  0  0
 19 20  1  0  0  0
 20 21  1  0  0  0
 20 23  1  0  0  0
 21 22  1  0  0  0
 23 24  1  0  0  0
 24 25  1  0  0  0
 24 28  1  0  0  0
 25 26  1  0  0  0
 26 27  1  0  0  0
 27 28  1  0  0  0
 28 29  2  0  0  0
  1 30  1  0  0  0
  1 31  1  0  0  0
  6 32  1  0  0  0
  7 33  1  0  0  0
  8 34  1  0  0  0
  9 35  1  0  0  0
 10 36  1  0  0  0
 11 37  1  0  0  0
 12 38  1  0  0  0
 15 39  1  0  0  0
 15 40  1  0  0  0
 16 41  1  0  0  0
 17 42  1  0  0  0
 17 43  1  0  0  0
 17 44  1  0  0  0
 18 45  1  0  0  0
 18 46  1  0  0  0
 18 47  1  0  0  0
 19 48  1  0  0  0
 20 49  1  0  0  0
 21 50  1  0  0  0
 21 51  1  0  0  0
 22 52  1  0  0  0
 23 53  1  0  0  0
 23 54  1  0  0  0
 24 55  1  0  0  0
 25 56  1  0  0  0
 25 57  1  0  0  0
 26 58  1  0  0  0
 26 59  1  0  0  0
 27 60  1  0  0  0
M  END
$$$$
