3m9f_ligand
  -I-interpret- 

 94 96  0  0  0  0  0  0  0  0999 V2000
  -13.7280   23.8690   -2.7340 C   0  0  0  0  0
  -12.9780   24.4600   -1.7810 N   0  0  0  0  0
  -17.9530   21.7060   -5.5680 O   0  0  0  0  0
  -16.3170   21.8720   -6.0010 S   0  0  0  0  0
  -13.6140   24.1790   -4.0880 C   0  0  0  0  0
  -14.3950   23.5670   -5.0720 C   0  0  0  0  0
  -15.3670   22.6010   -4.7850 C   0  0  0  0  0
  -15.4890   22.2980   -3.4310 C   0  0  0  0  0
  -14.7000   22.9030   -2.4450 C   0  0  0  0  0
  -15.6970   20.3240   -6.3300 N   0  0  0  0  0
  -16.1120   22.7840   -7.4070 O   0  0  0  0  0
  -16.2970   19.1910   -5.5510 C   0  0  0  0  0
  -16.9660   18.1000   -6.4050 C   0  0  0  0  0
  -14.9460   20.1280   -7.6000 C   0  0  0  0  0
  -13.4440   20.3240   -7.4430 C   0  0  0  0  0
  -13.0000   21.6920   -7.9520 C   0  0  0  0  0
  -13.4550   21.9340   -9.3960 C   0  0  0  0  0
  -11.4720   21.7510   -7.9050 C   0  0  0  0  0
  -18.2260   18.6580   -7.0930 C   0  0  0  0  0
  -18.8900   17.7100   -8.1040 C   0  0  0  0  0
  -19.4910   16.4720   -7.4360 C   0  0  0  0  0
  -20.6910   16.8280   -6.6860 N   0  0  0  0  0
  -21.2030   16.1570   -5.6410 C   0  0  0  0  0
  -22.5330   16.6210   -5.1110 C   0  0  0  0  0
  -23.5800   15.6720   -5.4830 N   0  0  0  0  0
  -24.5860   15.7710   -6.3710 C   0  0  0  0  0
  -25.3890   14.7020   -6.4900 O   0  0  0  0  0
  -26.5620   14.7750   -7.3370 C   0  0  0  0  0
  -24.8640   16.7280   -7.0890 O   0  0  0  0  0
  -15.4730   18.6230   -4.3780 C   0  0  0  0  0
  -14.0880   18.3200   -4.6190 O   0  0  0  0  0
  -20.6330   15.2210   -5.1020 O   0  0  0  0  0
  -23.6100   17.7300   -2.9820 C   0  0  0  0  0
  -21.1340   17.8830   -3.3570 C   0  0  0  0  0
  -20.0610   17.2570   -2.7250 C   0  0  0  0  0
  -18.8950   17.9760   -2.4410 C   0  0  0  0  0
  -18.7420   19.3210   -2.7690 C   0  0  0  0  0
  -19.8060   19.9630   -3.4000 C   0  0  0  0  0
  -20.9640   19.2340   -3.6660 C   0  0  0  0  0
  -23.7220   17.5600   -1.5990 C   0  0  0  0  0
  -24.7800   18.1120   -0.8850 C   0  0  0  0  0
  -25.7570   18.8630   -1.5420 C   0  0  0  0  0
  -25.6550   19.0510   -2.9170 C   0  0  0  0  0
  -24.5870   18.4870   -3.6230 C   0  0  0  0  0
  -19.9070   15.4960   -8.5470 C   0  0  0  0  0
  -22.4080   17.1100   -3.6670 C   0  0  0  0  0
  -12.2905   25.1679   -2.0391 H   0  0  0  0  0
  -13.0984   24.1989   -0.8024 H   0  0  0  0  0
  -12.8852   24.9303   -4.3921 H   0  0  0  0  0
  -14.2402   23.8552   -6.1118 H   0  0  0  0  0
  -16.2298   21.5588   -3.1261 H   0  0  0  0  0
  -14.8490   22.6090   -1.4060 H   0  0  0  0  0
  -17.1071   19.7136   -5.0424 H   0  0  0  0  0
  -17.2510   17.2683   -5.7607 H   0  0  0  0  0
  -16.2633   17.7639   -7.1675 H   0  0  0  0  0
  -15.3037   20.8699   -8.3139 H   0  0  0  0  0
  -15.1134   19.1022   -7.9285 H   0  0  0  0  0
  -12.9338   19.5573   -8.0261 H   0  0  0  0  0
  -13.1963   20.2536   -6.3838 H   0  0  0  0  0
  -13.4496   22.4581   -7.3203 H   0  0  0  0  0
  -13.0254   21.1699  -10.0438 H   0  0  0  0  0
  -14.5427   21.8849   -9.4459 H   0  0  0  0  0
  -13.1192   22.9187   -9.7212 H   0  0  0  0  0
  -11.1355   21.6069   -6.8783 H   0  0  0  0  0
  -11.0597   20.9649   -8.5376 H   0  0  0  0  0
  -11.1359   22.7231   -8.2658 H   0  0  0  0  0
  -17.9146   19.5421   -7.6493 H   0  0  0  0  0
  -18.9582   18.8411   -6.3066 H   0  0  0  0  0
  -18.1255   17.3766   -8.8057 H   0  0  0  0  0
  -19.6973   18.2532   -8.5953 H   0  0  0  0  0
  -18.7573   16.0341   -6.7593 H   0  0  0  0  0
  -21.1889   17.6669   -6.9838 H   0  0  0  0  0
  -22.8884   17.5320   -5.5925 H   0  0  0  0  0
  -23.5417   14.7829   -4.9845 H   0  0  0  0  0
  -27.2209   15.5646   -6.9757 H   0  0  0  0  0
  -26.2567   14.9945   -8.3601 H   0  0  0  0  0
  -27.0879   13.8206   -7.3102 H   0  0  0  0  0
  -15.9405   17.6708   -4.1272 H   0  0  0  0  0
  -15.4727   19.4033   -3.6169 H   0  0  0  0  0
  -13.6922   17.9762   -3.8148 H   0  0  0  0  0
  -20.1305   16.2042   -2.4512 H   0  0  0  0  0
  -18.0727   17.4627   -1.9427 H   0  0  0  0  0
  -17.8196   19.8544   -2.5395 H   0  0  0  0  0
  -19.7341   21.0140   -3.6799 H   0  0  0  0  0
  -21.7924   19.7535   -4.1476 H   0  0  0  0  0
  -22.9642   16.9827   -1.0692 H   0  0  0  0  0
  -24.8470   17.9578    0.1920 H   0  0  0  0  0
  -26.5881   19.2960   -0.9854 H   0  0  0  0  0
  -26.4073   19.6378   -3.4441 H   0  0  0  0  0
  -24.5182   18.6438   -4.6995 H   0  0  0  0  0
  -20.6440   15.9744   -9.1920 H   0  0  0  0  0
  -19.0310   15.2221   -9.1350 H   0  0  0  0  0
  -20.3401   14.6014   -8.0996 H   0  0  0  0  0
  -22.3464   16.1301   -3.1936 H   0  0  0  0  0
  1  2  1  0  0  0
  5  1  4  0  0  0
  9  1  4  0  0  0
  4  3  2  0  0  0
  4  7  1  0  0  0
 10  4  1  0  0  0
  4 11  2  0  0  0
  6  5  4  0  0  0
  7  6  4  0  0  0
  7  8  4  0  0  0
  8  9  4  0  0  0
 12 10  1  0  0  0
 10 14  1  0  0  0
 13 12  1  0  0  0
 12 30  1  0  0  0
 19 13  1  0  0  0
 14 15  1  0  0  0
 15 16  1  0  0  0
 16 17  1  0  0  0
 16 18  1  0  0  0
 20 19  1  0  0  0
 21 20  1  0  0  0
 22 21  1  0  0  0
 21 45  1  0  0  0
 23 22  1  0  0  0
 24 23  1  0  0  0
 23 32  2  0  0  0
 24 25  1  0  0  0
 46 24  1  0  0  0
 25 26  1  0  0  0
 26 27  1  0  0  0
 26 29  2  0  0  0
 27 28  1  0  0  0
 30 31  1  0  0  0
 33 40  4  0  0  0
 33 44  4  0  0  0
 46 33  1  0  0  0
 34 35  4  0  0  0
 34 39  4  0  0  0
 34 46  1  0  0  0
 35 36  4  0  0  0
 36 37  4  0  0  0
 37 38  4  0  0  0
 38 39  4  0  0  0
 40 41  4  0  0  0
 41 42  4  0  0  0
 42 43  4  0  0  0
 43 44  4  0  0  0
  2 47  1  0  0  0
  2 48  1  0  0  0
  5 49  1  0  0  0
  6 50  1  0  0  0
  8 51  1  0  0  0
  9 52  1  0  0  0
 12 53  1  0  0  0
 13 54  1  0  0  0
 13 55  1  0  0  0
 14 56  1  0  0  0
 14 57  1  0  0  0
 15 58  1  0  0  0
 15 59  1  0  0  0
 16 60  1  0  0  0
 17 61  1  0  0  0
 17 62  1  0  0  0
 17 63  1  0  0  0
 18 64  1  0  0  0
 18 65  1  0  0  0
 18 66  1  0  0  0
 19 67  1  0  0  0
 19 68  1  0  0  0
 20 69  1  0  0  0
 20 70  1  0  0  0
 21 71  1  0  0  0
 22 72  1  0  0  0
 24 73  1  0  0  0
 25 74  1  0  0  0
 28 75  1  0  0  0
 28 76  1  0  0  0
 28 77  1  0  0  0
 30 78  1  0  0  0
 30 79  1  0  0  0
 31 80  1  0  0  0
 35 81  1  0  0  0
 36 82  1  0  0  0
 37 83  1  0  0  0
 38 84  1  0  0  0
 39 85  1  0  0  0
 40 86  1  0  0  0
 41 87  1  0  0  0
 42 88  1  0  0  0
 43 89  1  0  0  0
 44 90  1  0  0  0
 45 91  1  0  0  0
 45 92  1  0  0  0
 45 93  1  0  0  0
 46 94  1  0  0  0
M  END
$$$$
