1ndv_ligand
  -I-interpret- 

 39 42  0  0  0  0  0  0  0  0999 V2000
   45.8910   47.9120   17.0220 N   0  0  0  0  0
   45.3540   47.5620   18.2420 C   0  0  0  0  0
   46.2410   48.0930   19.2240 C   0  0  0  0  0
   47.2490   48.7360   18.5330 N   0  0  0  0  0
   47.0230   48.5890   17.2490 C   0  0  0  0  0
   44.2280   46.8170   18.6340 C   0  0  0  0  0
   44.0150   46.6370   20.0250 C   0  0  0  0  0
   44.9070   47.1630   21.0030 C   0  0  0  0  0
   46.0220   47.8960   20.6040 C   0  0  0  0  0
   48.0120   48.9800   16.2160 N   0  0  0  0  0
   49.2730   49.6300   16.5560 C   0  0  0  0  0
   48.9460   50.9970   17.0030 C   0  0  0  0  0
   49.6110   51.8090   18.3630 S   0  0  0  0  0
   48.7250   53.3350   17.9660 C   0  0  0  0  0
   47.8580   53.1270   16.8110 C   0  0  0  0  0
   47.9940   51.7910   16.2720 C   0  0  0  0  0
   48.6830   54.5530   18.5670 C   0  0  0  0  0
   49.7550   54.4920   19.6080 N   0  0  0  0  0
   50.1180   55.5990   20.3060 C   0  0  0  0  0
   48.9360   56.8070   19.8700 S   0  0  0  0  0
   48.1940   55.7730   18.7610 C   0  0  0  0  0
   50.9400   55.7150   21.3940 N   0  0  0  0  0
   51.1020   54.7290   22.3200 C   0  0  0  0  0
   51.1160   53.4800   21.9470 N   0  0  0  0  0
   51.2040   54.9610   23.6260 N   0  0  0  0  0
   43.5449   46.3939   17.8975 H   0  0  0  0  0
   43.1400   46.0778   20.3562 H   0  0  0  0  0
   44.7172   46.9920   22.0626 H   0  0  0  0  0
   46.7104   48.3085   21.3416 H   0  0  0  0  0
   47.8040   48.7884   15.2360 H   0  0  0  0  0
   49.9391   49.6550   15.6936 H   0  0  0  0  0
   49.7907   49.0804   17.3421 H   0  0  0  0  0
   47.1894   53.8855   16.4038 H   0  0  0  0  0
   47.4374   51.4266   15.4085 H   0  0  0  0  0
   47.3167   56.1051   18.2059 H   0  0  0  0  0
   51.4582   56.5848   21.5180 H   0  0  0  0  0
   51.0056   53.2407   20.9616 H   0  0  0  0  0
   51.2876   54.1807   24.2776 H   0  0  0  0  0
   51.1986   55.9192   23.9757 H   0  0  0  0  0
  1  2  4  0  0  0
  1  5  4  0  0  0
  2  3  4  0  0  0
  2  6  4  0  0  0
  3  4  4  0  0  0
  3  9  4  0  0  0
  4  5  4  0  0  0
  5 10  1  0  0  0
  6  7  4  0  0  0
  7  8  4  0  0  0
  8  9  4  0  0  0
 10 11  1  0  0  0
 11 12  1  0  0  0
 12 13  4  0  0  0
 12 16  4  0  0  0
 13 14  4  0  0  0
 14 15  4  0  0  0
 14 17  1  0  0  0
 15 16  4  0  0  0
 17 18  4  0  0  0
 17 21  4  0  0  0
 18 19  4  0  0  0
 19 20  4  0  0  0
 19 22  1  0  0  0
 20 21  4  0  0  0
 22 23  1  0  0  0
 23 24  2  0  0  0
 23 25  1  0  0  0
  6 26  1  0  0  0
  7 27  1  0  0  0
  8 28  1  0  0  0
  9 29  1  0  0  0
 10 30  1  0  0  0
 11 31  1  0  0  0
 11 32  1  0  0  0
 15 33  1  0  0  0
 16 34  1  0  0  0
 21 35  1  0  0  0
 22 36  1  0  0  0
 24 37  1  0  0  0
 25 38  1  0  0  0
 25 39  1  0  0  0
M  END
$$$$
