5toe_ligand
  -I-interpret- 

 40 43  0  0  0  0  0  0  0  0999 V2000
   22.0690   35.5450   -8.2200 C   0  0  0  0  0
   22.8360   35.2050   -9.4880 C   0  0  0  0  0
   22.4200   33.9230  -10.0890 N   0  3  0  0  0
   22.7100   32.9210   -9.0440 C   0  0  0  0  0
   21.9370   33.1630   -7.7570 C   0  0  0  0  0
   22.2720   34.4880   -7.2210 N   0  0  0  0  0
   22.3730   34.7360   -5.9100 C   0  0  0  0  0
   22.6940   36.0130   -5.4650 C   0  0  0  0  0
   22.8000   36.2670   -4.1030 C   0  0  0  0  0
   22.1570   33.7140   -4.9940 C   0  0  0  0  0
   22.2610   33.9690   -3.6320 C   0  0  0  0  0
   22.5840   35.2450   -3.1860 C   0  0  0  0  0
   22.6840   35.4830   -1.8820 C   0  0  0  0  0
   23.0120   36.6480   -1.3400 C   0  0  0  0  0
   23.0120   36.4700   -0.0200 C   0  0  0  0  0
   23.2690   37.3210    0.9730 C   0  0  0  0  0
   23.6130   38.6740    0.6780 C   0  0  0  0  0
   23.8870   39.7490    0.4460 N   0  0  0  0  0
   23.2060   36.9020    2.2950 C   0  0  0  0  0
   22.8700   35.5850    2.5630 C   0  0  0  0  0
   22.6110   34.7360    1.4860 N   0  0  0  0  0
   22.6870   35.1960    0.2290 C   0  0  0  0  0
   22.4870   34.5810   -0.9330 N   0  0  0  0  0
   21.0067   35.6253   -8.4506 H   0  0  0  0  0
   22.4308   36.4930   -7.8219 H   0  0  0  0  0
   23.8905   35.1212   -9.2252 H   0  0  0  0  0
   22.6386   35.9919  -10.2159 H   0  0  0  0  0
   22.9163   33.7268  -10.9583 H   0  0  0  0  0
   21.4359   33.9253  -10.3570 H   0  0  0  0  0
   23.7726   32.9840   -8.8097 H   0  0  0  0  0
   22.4155   31.9449   -9.4294 H   0  0  0  0  0
   22.2035   32.3994   -7.0262 H   0  0  0  0  0
   20.8677   33.1162   -7.9633 H   0  0  0  0  0
   22.8625   36.8147   -6.1840 H   0  0  0  0  0
   23.0526   37.2681   -3.7536 H   0  0  0  0  0
   21.9061   32.7125   -5.3436 H   0  0  0  0  0
   22.0892   33.1679   -2.9131 H   0  0  0  0  0
   23.2379   37.5723   -1.8718 H   0  0  0  0  0
   23.4172   37.5969    3.1078 H   0  0  0  0  0
   22.8095   35.2212    3.5887 H   0  0  0  0  0
  1  2  1  0  0  0
  1  6  1  0  0  0
  2  3  1  0  0  0
  3  4  1  0  0  0
  4  5  1  0  0  0
  5  6  1  0  0  0
  6  7  1  0  0  0
  7  8  4  0  0  0
  7 10  4  0  0  0
  8  9  4  0  0  0
  9 12  4  0  0  0
 10 11  4  0  0  0
 11 12  4  0  0  0
 12 13  1  0  0  0
 13 14  4  0  0  0
 13 23  4  0  0  0
 14 15  4  0  0  0
 15 16  4  0  0  0
 15 22  4  0  0  0
 16 17  1  0  0  0
 16 19  4  0  0  0
 17 18  3  0  0  0
 19 20  4  0  0  0
 20 21  4  0  0  0
 21 22  4  0  0  0
 22 23  4  0  0  0
  1 24  1  0  0  0
  1 25  1  0  0  0
  2 26  1  0  0  0
  2 27  1  0  0  0
  3 28  1  0  0  0
  3 29  1  0  0  0
  4 30  1  0  0  0
  4 31  1  0  0  0
  5 32  1  0  0  0
  5 33  1  0  0  0
  8 34  1  0  0  0
  9 35  1  0  0  0
 10 36  1  0  0  0
 11 37  1  0  0  0
 14 38  1  0  0  0
 19 39  1  0  0  0
 20 40  1  0  0  0
M  END
$$$$
