2hwo_ligand
  -I-interpret- 

 38 40  0  0  0  0  0  0  0  0999 V2000
    6.1730   -7.9010   -2.1520 O   0  0  0  0  0
    6.8600   -8.5610   -1.3850 C   0  0  0  0  0
    6.2970   -9.0460   -0.0510 C   0  0  0  0  0
    6.3980   -7.9910    1.0580 C   0  0  0  0  0
    8.1570   -8.8160   -1.5890 N   0  0  0  0  0
    8.9280   -8.2930   -2.5920 C   0  0  0  0  0
    8.4280   -7.4440   -3.5960 C   0  0  0  0  0
   10.2850   -8.6390   -2.6050 C   0  0  0  0  0
   11.1260   -8.1470   -3.6050 C   0  0  0  0  0
   10.6190   -7.2970   -4.5910 C   0  0  0  0  0
    9.2680   -6.9460   -4.5970 C   0  0  0  0  0
    8.8020   -6.0940   -5.6130 C   0  0  0  0  0
    9.6790   -5.6540   -6.5430 N   0  0  0  0  0
   10.9710   -6.0120   -6.5100 C   0  0  0  0  0
   11.4450   -6.8140   -5.5520 N   0  0  0  0  0
    7.4870   -5.7290   -5.6620 N   0  0  0  0  0
    6.8700   -4.9190   -6.5640 C   0  0  0  0  0
    7.5360   -4.3370   -7.6400 C   0  0  0  0  0
    5.5100   -4.6720   -6.3790 C   0  0  0  0  0
    4.8080   -3.8610   -7.2720 C   0  0  0  0  0
    5.4770   -3.2840   -8.3550 C   0  0  0  0  0
    6.8460   -3.5160   -8.5290 C   0  0  0  0  0
    6.8789   -9.9134    0.2605 H   0  0  0  0  0
    5.2414   -9.2744   -0.1983 H   0  0  0  0  0
    7.4444   -7.7287    1.2140 H   0  0  0  0  0
    5.8393   -7.1024    0.7643 H   0  0  0  0  0
    5.9818   -8.3949    1.9809 H   0  0  0  0  0
    8.6122   -9.4573   -0.9394 H   0  0  0  0  0
    7.3728   -7.1709   -3.5937 H   0  0  0  0  0
   10.6859   -9.2945   -1.8319 H   0  0  0  0  0
   12.1795   -8.4264   -3.6164 H   0  0  0  0  0
   11.6479   -5.6415   -7.2798 H   0  0  0  0  0
    6.8912   -6.1128   -4.9284 H   0  0  0  0  0
    8.5997   -4.5244   -7.7868 H   0  0  0  0  0
    4.9908   -5.1161   -5.5297 H   0  0  0  0  0
    3.7434   -3.6786   -7.1255 H   0  0  0  0  0
    4.9345   -2.6557   -9.0614 H   0  0  0  0  0
    7.3740   -3.0529   -9.3626 H   0  0  0  0  0
  1  2  2  0  0  0
  2  3  1  0  0  0
  2  5  1  0  0  0
  3  4  1  0  0  0
  5  6  1  0  0  0
  6  7  4  0  0  0
  6  8  4  0  0  0
  7 11  4  0  0  0
  8  9  4  0  0  0
  9 10  4  0  0  0
 10 11  4  0  0  0
 10 15  4  0  0  0
 11 12  4  0  0  0
 12 13  4  0  0  0
 12 16  1  0  0  0
 13 14  4  0  0  0
 14 15  4  0  0  0
 16 17  1  0  0  0
 17 18  4  0  0  0
 17 19  4  0  0  0
 18 22  4  0  0  0
 19 20  4  0  0  0
 20 21  4  0  0  0
 21 22  4  0  0  0
  3 23  1  0  0  0
  3 24  1  0  0  0
  4 25  1  0  0  0
  4 26  1  0  0  0
  4 27  1  0  0  0
  5 28  1  0  0  0
  7 29  1  0  0  0
  8 30  1  0  0  0
  9 31  1  0  0  0
 14 32  1  0  0  0
 16 33  1  0  0  0
 18 34  1  0  0  0
 19 35  1  0  0  0
 20 36  1  0  0  0
 21 37  1  0  0  0
 22 38  1  0  0  0
M  END
$$$$
