4cbt_ligand
  -I-interpret- 

 42 45  0  0  0  0  0  0  0  0999 V2000
   -0.1740    3.8830  133.6610 F   0  0  0  0  0
    0.9760    4.1340  134.2920 C   0  0  0  0  0
    2.1880    3.9940  133.6660 C   0  0  0  0  0
    3.3650    4.2410  134.2740 N   0  0  0  0  0
    1.0060    4.5450  135.6010 C   0  0  0  0  0
    2.1520    4.7990  136.2640 N   0  0  0  0  0
    3.2980    4.6350  135.5660 C   0  0  0  0  0
    4.5560    4.8970  136.2690 C   0  0  0  0  0
    5.6510    5.4640  135.6090 C   0  0  0  0  0
    6.8350    5.7390  136.2920 C   0  0  0  0  0
    4.7010    4.5940  137.6310 C   0  0  0  0  0
    5.8980    4.8520  138.3060 C   0  0  0  0  0
    6.9890    5.4420  137.6530 C   0  0  0  0  0
    8.3090    5.7330  138.3050 C   0  0  0  0  0
    8.4950    6.9660  139.1410 C   0  0  0  0  0
    9.7130    7.7790  139.0540 C   0  0  0  0  0
    9.6540    8.9390  139.7730 N   0  0  0  0  0
   10.8020    9.7280  139.8200 O   0  0  0  0  0
   10.6830    7.4640  138.3660 O   0  0  0  0  0
    8.5430    5.6120  139.8040 C   0  0  0  0  0
    9.7970    4.8520  140.1750 C   0  0  0  0  0
   10.7380    5.3220  141.0970 C   0  0  0  0  0
   10.0360    3.5880  139.5980 C   0  0  0  0  0
   11.1830    2.8530  139.8760 C   0  0  0  0  0
   12.1140    3.3520  140.7720 C   0  0  0  0  0
   11.8830    4.5730  141.3960 C   0  0  0  0  0
    2.2000    3.6671  132.6262 H   0  0  0  0  0
    0.0606    4.6718  136.1284 H   0  0  0  0  0
    5.5778    5.6941  134.5461 H   0  0  0  0  0
    7.6637    6.1976  135.7526 H   0  0  0  0  0
    3.8659    4.1497  138.1726 H   0  0  0  0  0
    5.9844    4.5893  139.3603 H   0  0  0  0  0
    8.7864    5.2984  137.4267 H   0  0  0  0  0
    7.9162    7.8792  139.2795 H   0  0  0  0  0
    8.8009    9.2176  140.2578 H   0  0  0  0  0
   10.6311   10.5083  140.3525 H   0  0  0  0  0
    8.0507    5.2488  140.7061 H   0  0  0  0  0
   10.5784    6.2818  141.5882 H   0  0  0  0  0
    9.2976    3.1735  138.9117 H   0  0  0  0  0
   11.3485    1.8905  139.3920 H   0  0  0  0  0
   13.0231    2.7904  140.9869 H   0  0  0  0  0
   12.6000    4.9508  142.1249 H   0  0  0  0  0
  1  2  1  0  0  0
  2  3  4  0  0  0
  2  5  4  0  0  0
  3  4  4  0  0  0
  4  7  4  0  0  0
  5  6  4  0  0  0
  6  7  4  0  0  0
  7  8  1  0  0  0
  8  9  4  0  0  0
  8 11  4  0  0  0
  9 10  4  0  0  0
 10 13  4  0  0  0
 11 12  4  0  0  0
 12 13  4  0  0  0
 13 14  1  0  0  0
 14 15  1  0  0  0
 14 20  1  0  0  0
 15 16  1  0  0  0
 15 20  1  0  0  0
 16 17  1  0  0  0
 16 19  2  0  0  0
 17 18  1  0  0  0
 20 21  1  0  0  0
 21 22  4  0  0  0
 21 23  4  0  0  0
 22 26  4  0  0  0
 23 24  4  0  0  0
 24 25  4  0  0  0
 25 26  4  0  0  0
  3 27  1  0  0  0
  5 28  1  0  0  0
  9 29  1  0  0  0
 10 30  1  0  0  0
 11 31  1  0  0  0
 12 32  1  0  0  0
 14 33  1  0  0  0
 15 34  1  0  0  0
 17 35  1  0  0  0
 18 36  1  0  0  0
 20 37  1  0  0  0
 22 38  1  0  0  0
 23 39  1  0  0  0
 24 40  1  0  0  0
 25 41  1  0  0  0
 26 42  1  0  0  0
M  END
$$$$
