3f34_ligand
  -I-interpret- 

 25 25  0  0  0  0  0  0  0  0999 V2000
   30.5590    0.2460   34.5090 C   0  0  0  0  0
   31.4600   -0.7170   35.2990 C   0  0  0  0  0
   32.8650   -0.1710   35.6390 C   0  0  0  0  0
   33.0490    0.2930   36.9310 C   0  0  0  0  0
   34.2730    0.7960   37.3490 C   0  0  0  0  0
   35.3510    0.8320   36.4800 C   0  0  0  0  0
   35.2050    0.3620   35.1800 C   0  0  0  0  0
   36.4310    0.4260   34.2540 C   0  0  0  0  0
   36.0200    0.5430   32.7820 C   0  0  0  0  0
   33.9650   -0.1340   34.7750 C   0  0  0  0  0
   33.8330   -0.5890   33.4980 O   0  0  0  0  0
   30.4076    1.1572   35.0878 H   0  0  0  0  0
   31.0359    0.4918   33.5602 H   0  0  0  0  0
   29.5969   -0.2305   34.3209 H   0  0  0  0  0
   31.6084   -1.5947   34.6700 H   0  0  0  0  0
   30.9593   -0.9072   36.2483 H   0  0  0  0  0
   32.2160    0.2625   37.6333 H   0  0  0  0  0
   34.3868    1.1653   38.3682 H   0  0  0  0  0
   36.3102    1.2274   36.8143 H   0  0  0  0  0
   37.0058   -0.4916   34.3794 H   0  0  0  0  0
   37.0175    1.3057   34.5190 H   0  0  0  0  0
   35.4220   -0.3245   32.5030 H   0  0  0  0  0
   35.4334    1.4508   32.6409 H   0  0  0  0  0
   36.9134    0.5856   32.1589 H   0  0  0  0  0
   34.6706   -0.4962   33.0382 H   0  0  0  0  0
  1  2  1  0  0  0
  2  3  1  0  0  0
  3  4  4  0  0  0
  3 10  4  0  0  0
  4  5  4  0  0  0
  5  6  4  0  0  0
  6  7  4  0  0  0
  7  8  1  0  0  0
  7 10  4  0  0  0
  8  9  1  0  0  0
 10 11  1  0  0  0
  1 12  1  0  0  0
  1 13  1  0  0  0
  1 14  1  0  0  0
  2 15  1  0  0  0
  2 16  1  0  0  0
  4 17  1  0  0  0
  5 18  1  0  0  0
  6 19  1  0  0  0
  8 20  1  0  0  0
  8 21  1  0  0  0
  9 22  1  0  0  0
  9 23  1  0  0  0
  9 24  1  0  0  0
 11 25  1  0  0  0
M  END
$$$$
