5l2y_ligand
  -I-interpret- 

 82 87  0  0  0  0  0  0  0  0999 V2000
    7.3630   38.0210   24.3090 C   0  0  0  0  0
    9.4670   33.2600   27.3060 C   0  0  0  0  0
    9.2840   33.6210   28.6650 C   0  0  0  0  0
    8.6300   34.8650   28.9510 C   0  0  0  0  0
    8.1840   35.6720   27.8740 C   0  0  0  0  0
    9.0320   34.0660   26.3020 C   0  0  0  0  0
    8.4800   35.2440   30.3000 C   0  0  0  0  0
    9.0020   34.4020   31.3140 C   0  0  0  0  0
    9.7610   32.8300   29.7820 C   0  0  0  0  0
    0.7070   35.6700   26.8300 C   0  0  0  0  0
    6.0660   39.6310   21.9610 C   0  0  0  0  0
    1.3530   35.9550   25.4650 C   0  0  0  0  0
    0.6140   37.1550   24.8010 C   0  0  0  0  0
    2.8730   36.1570   25.5340 C   0  0  0  0  0
    3.4210   36.9060   26.5750 C   0  0  0  0  0
    4.7730   37.2040   26.6020 C   0  0  0  0  0
    5.6160   36.7730   25.5900 C   0  0  0  0  0
    5.0750   36.0090   24.5610 C   0  0  0  0  0
    3.7210   35.6820   24.5180 C   0  0  0  0  0
    3.2380   34.7660   23.4040 C   0  0  0  0  0
    7.0840   37.1770   25.5560 C   0  0  0  0  0
    7.9670   36.0290   25.4800 N   0  0  0  0  0
    8.3800   35.2700   26.5670 C   0  0  0  0  0
    9.6270   33.2510   31.0620 N   0  0  0  0  0
    7.8630   37.4710   23.3360 O   0  0  0  0  0
    6.9940   39.3210   24.2530 N   0  0  0  0  0
    7.1380   39.9980   22.9640 C   0  0  0  0  0
    6.2170   39.8630   20.5810 C   0  0  0  0  0
    5.1410   39.5700   19.7440 C   0  0  0  0  0
    3.9620   39.0280   20.2290 C   0  0  0  0  0
    3.7960   38.8310   21.5900 C   0  0  0  0  0
    4.8620   39.1050   22.4440 C   0  0  0  0  0
    2.5620   38.3020   22.0540 N   0  0  0  0  0
    1.1330   37.3690   23.4650 O   0  0  0  0  0
    2.1120   38.2900   23.3310 C   0  0  0  0  0
    2.4630   39.0470   24.2050 O   0  0  0  0  0
    6.4040   40.0970   25.3450 C   0  0  0  0  0
   10.3580   31.6360   29.6110 N   0  0  0  0  0
    7.5370   40.3490   19.9440 C   0  0  0  0  0
    7.7970   36.3770   30.6020 F   0  0  0  0  0
    7.9320   41.7170   20.5600 C   0  0  0  0  0
    7.7640   40.3440   18.3990 C   0  0  0  0  0
    9.1340   39.7010   18.6220 C   0  0  0  0  0
    8.6570   39.2640   20.0070 C   0  0  0  0  0
    6.9740   42.5870   20.5640 O   0  0  0  0  0
    9.0500   41.9520   20.9890 O   0  0  0  0  0
    9.9645   32.3211   27.0628 H   0  0  0  0  0
    7.6822   36.6177   28.0790 H   0  0  0  0  0
    9.1962   33.7650   25.2673 H   0  0  0  0  0
    8.8867   34.7111   32.3529 H   0  0  0  0  0
    0.7928   36.5534   27.4627 H   0  0  0  0  0
   -0.3454   35.4239   26.6882 H   0  0  0  0  0
    1.2169   34.8312   27.3038 H   0  0  0  0  0
    1.2350   35.0705   24.8391 H   0  0  0  0  0
    0.7728   38.0527   25.3985 H   0  0  0  0  0
   -0.4522   36.9360   24.7438 H   0  0  0  0  0
    2.7761   37.2618   27.3785 H   0  0  0  0  0
    5.1794   37.7850   27.4298 H   0  0  0  0  0
    5.7298   35.6555   23.7645 H   0  0  0  0  0
    2.8481   33.8445   23.8364 H   0  0  0  0  0
    2.4505   35.2659   22.8401 H   0  0  0  0  0
    4.0705   34.5334   22.7400 H   0  0  0  0  0
    7.2726   37.7286   26.4770 H   0  0  0  0  0
    8.3106   35.7587   24.5584 H   0  0  0  0  0
    7.0591   41.0695   23.1480 H   0  0  0  0  0
    8.0964   39.6953   22.5422 H   0  0  0  0  0
    5.2301   39.7734   18.6769 H   0  0  0  0  0
    3.1636   38.7561   19.5385 H   0  0  0  0  0
    4.7564   38.9057   23.5104 H   0  0  0  0  0
    1.9503   37.8874   21.3509 H   0  0  0  0  0
    7.0205   40.9746   25.5398 H   0  0  0  0  0
    5.3993   40.4124   25.0634 H   0  0  0  0  0
    6.3544   39.4799   26.2421 H   0  0  0  0  0
   10.4872   31.2603   28.6716 H   0  0  0  0  0
   10.6813   31.1068   30.4208 H   0  0  0  0  0
    7.6740   41.2662   17.8249 H   0  0  0  0  0
    7.0363   39.8765   17.7357 H   0  0  0  0  0
   10.0501   40.2794   18.5021 H   0  0  0  0  0
    9.5342   38.9761   17.9132 H   0  0  0  0  0
    8.4041   38.2213   20.1993 H   0  0  0  0  0
    9.3520   39.2373   20.8463 H   0  0  0  0  0
    6.1852   42.1945   20.1827 H   0  0  0  0  0
  1 21  1  0  0  0
  1 25  2  0  0  0
 26  1  1  0  0  0
  2  3  4  0  0  0
  6  2  4  0  0  0
  4  3  4  0  0  0
  3  9  4  0  0  0
  5  4  4  0  0  0
  4  7  4  0  0  0
 23  5  4  0  0  0
 23  6  4  0  0  0
  7  8  4  0  0  0
  7 40  1  0  0  0
  8 24  4  0  0  0
  9 24  4  0  0  0
  9 38  1  0  0  0
 12 10  1  0  0  0
 27 11  1  0  0  0
 11 28  4  0  0  0
 11 32  4  0  0  0
 12 13  1  0  0  0
 14 12  1  0  0  0
 13 34  1  0  0  0
 15 14  4  0  0  0
 19 14  4  0  0  0
 16 15  4  0  0  0
 17 16  4  0  0  0
 17 18  4  0  0  0
 21 17  1  0  0  0
 18 19  4  0  0  0
 19 20  1  0  0  0
 21 22  1  0  0  0
 22 23  1  0  0  0
 26 27  1  0  0  0
 26 37  1  0  0  0
 28 29  4  0  0  0
 28 39  1  0  0  0
 29 30  4  0  0  0
 30 31  4  0  0  0
 31 32  4  0  0  0
 31 33  1  0  0  0
 33 35  1  0  0  0
 34 35  1  0  0  0
 35 36  2  0  0  0
 39 41  1  0  0  0
 39 42  1  0  0  0
 39 44  1  0  0  0
 41 45  1  0  0  0
 41 46  2  0  0  0
 42 43  1  0  0  0
 43 44  1  0  0  0
  2 47  1  0  0  0
  5 48  1  0  0  0
  6 49  1  0  0  0
  8 50  1  0  0  0
 10 51  1  0  0  0
 10 52  1  0  0  0
 10 53  1  0  0  0
 12 54  1  0  0  0
 13 55  1  0  0  0
 13 56  1  0  0  0
 15 57  1  0  0  0
 16 58  1  0  0  0
 18 59  1  0  0  0
 20 60  1  0  0  0
 20 61  1  0  0  0
 20 62  1  0  0  0
 21 63  1  0  0  0
 22 64  1  0  0  0
 27 65  1  0  0  0
 27 66  1  0  0  0
 29 67  1  0  0  0
 30 68  1  0  0  0
 32 69  1  0  0  0
 33 70  1  0  0  0
 37 71  1  0  0  0
 37 72  1  0  0  0
 37 73  1  0  0  0
 38 74  1  0  0  0
 38 75  1  0  0  0
 42 76  1  0  0  0
 42 77  1  0  0  0
 43 78  1  0  0  0
 43 79  1  0  0  0
 44 80  1  0  0  0
 44 81  1  0  0  0
 45 82  1  0  0  0
M  END
$$$$
