2aac_ligand
  -I-interpret- 

 23 23  0  0  0  0  0  0  0  0999 V2000
   39.7740    2.5030   42.5190 C   0  0  0  0  0
   39.6580    2.0070   41.0830 C   0  0  0  0  0
   38.4640    2.6540   40.3860 C   0  0  0  0  0
   37.1990    2.5190   41.2150 C   0  0  0  0  0
   37.4570    3.0510   42.6210 C   0  0  0  0  0
   36.2440    2.9120   43.5180 C   0  0  0  0  0
   40.7570    1.7910   43.1640 O   0  0  0  0  0
   40.8410    2.3290   40.3790 O   0  0  0  0  0
   38.2750    2.0400   39.1200 O   0  0  0  0  0
   36.8240    1.1460   41.2920 O   0  0  0  0  0
   38.5500    2.3040   43.2170 O   0  0  0  0  0
   40.0131    3.5663   42.5003 H   0  0  0  0  0
   39.5135    0.9267   41.0964 H   0  0  0  0  0
   38.6709    3.7169   40.2614 H   0  0  0  0  0
   36.3963    3.0898   40.7481 H   0  0  0  0  0
   37.6977    4.1103   42.5314 H   0  0  0  0  0
   35.9759    1.8590   43.6038 H   0  0  0  0  0
   36.4764    3.3107   44.5055 H   0  0  0  0  0
   35.4101    3.4667   43.0878 H   0  0  0  0  0
   41.5919    1.9134   42.7063 H   0  0  0  0  0
   41.5929    1.9227   40.8163 H   0  0  0  0  0
   39.0771    2.1280   38.6000 H   0  0  0  0  0
   36.6613    0.8098   40.4076 H   0  0  0  0  0
 11  1  1  0  0  0
  1  7  1  0  0  0
  1  2  1  0  0  0
  2  8  1  0  0  0
  2  3  1  0  0  0
  3  9  1  0  0  0
  3  4  1  0  0  0
  4 10  1  0  0  0
  4  5  1  0  0  0
  5 11  1  0  0  0
  5  6  1  0  0  0
  1 12  1  0  0  0
  2 13  1  0  0  0
  3 14  1  0  0  0
  4 15  1  0  0  0
  5 16  1  0  0  0
  6 17  1  0  0  0
  6 18  1  0  0  0
  6 19  1  0  0  0
  7 20  1  0  0  0
  8 21  1  0  0  0
  9 22  1  0  0  0
 10 23  1  0  0  0
M  END
$$$$
