5fp0_ligand
  -I-interpret- 

 45 48  0  0  0  0  0  0  0  0999 V2000
   13.6590  -12.4160  -19.5260 C   0  0  0  0  0
   17.5780  -11.3420  -14.3700 C   0  0  0  0  0
   17.3010   -9.0240  -14.8280 C   0  0  0  0  0
   18.4970  -11.0600  -13.3820 C   0  0  0  0  0
   18.2010   -8.7300  -13.8300 C   0  0  0  0  0
   14.2680  -12.7840  -18.3410 C   0  0  0  0  0
   13.6840  -11.1160  -19.9910 C   0  0  0  0  0
   16.9690  -10.3330  -15.1000 C   0  0  0  0  0
   18.8130   -9.7430  -13.1170 C   0  0  0  0  0
   14.9010  -11.7730  -17.6250 C   0  0  0  0  0
   14.9400  -10.4840  -18.1000 C   0  0  0  0  0
   14.3360  -10.1190  -19.2860 C   0  0  0  0  0
   16.0710  -10.6550  -16.1860 C   0  0  0  0  0
   10.4420   -7.9560  -17.0270 C   0  0  0  0  0
   10.5110   -6.5180  -17.4720 C   0  0  0  0  0
   11.4170   -8.7400  -17.8680 C   0  0  0  0  0
   11.2310   -6.4870  -18.7980 C   0  0  0  0  0
   11.8710   -7.8450  -18.9970 C   0  0  0  0  0
   19.8030   -9.3940  -12.0450 C   0  0  0  0  0
   15.6010  -11.8440  -16.4540 N   0  0  0  0  0
   15.6630   -9.7980  -17.1650 N   0  0  0  0  0
   13.3250   -7.6570  -18.8560 N   0  0  0  0  0
   15.6950   -7.9500  -19.7410 O   0  0  0  0  0
   13.7560   -8.5880  -21.2630 O   0  0  0  0  0
   19.3030   -9.5720  -10.7920 F   0  0  0  0  0
   20.9760  -10.0840  -12.1320 F   0  0  0  0  0
   20.2020   -8.1030  -12.0810 F   0  0  0  0  0
   14.3580   -8.4740  -19.9450 S   0  0  0  0  0
   13.1426  -13.1762  -20.1121 H   0  0  0  0  0
   17.3247  -12.3808  -14.5818 H   0  0  0  0  0
   16.8488   -8.2180  -15.4059 H   0  0  0  0  0
   18.9673  -11.8656  -12.8182 H   0  0  0  0  0
   18.4331   -7.6901  -13.6000 H   0  0  0  0  0
   14.2531  -13.8143  -17.9855 H   0  0  0  0  0
   13.1827  -10.8712  -20.9274 H   0  0  0  0  0
    9.4318   -8.3453  -17.1533 H   0  0  0  0  0
   10.6974   -8.0400  -15.9707 H   0  0  0  0  0
   11.0433   -5.9163  -16.7353 H   0  0  0  0  0
    9.5086   -6.1019  -17.5729 H   0  0  0  0  0
   10.9416   -9.6379  -18.2629 H   0  0  0  0  0
   12.2698   -9.0548  -17.2666 H   0  0  0  0  0
   11.9883   -5.7030  -18.8035 H   0  0  0  0  0
   10.5331   -6.2711  -19.6070 H   0  0  0  0  0
   11.6089   -8.2737  -19.9643 H   0  0  0  0  0
   13.7059   -7.0542  -18.1266 H   0  0  0  0  0
  1  6  4  0  0  0
  7  1  4  0  0  0
  2  4  4  0  0  0
  8  2  4  0  0  0
  3  5  4  0  0  0
  8  3  4  0  0  0
  4  9  4  0  0  0
  5  9  4  0  0  0
 10  6  4  0  0  0
 12  7  4  0  0  0
 13  8  1  0  0  0
  9 19  1  0  0  0
 11 10  4  0  0  0
 10 20  4  0  0  0
 12 11  4  0  0  0
 11 21  4  0  0  0
 28 12  1  0  0  0
 13 20  4  0  0  0
 21 13  4  0  0  0
 15 14  1  0  0  0
 16 14  1  0  0  0
 17 15  1  0  0  0
 18 16  1  0  0  0
 18 17  1  0  0  0
 22 18  1  0  0  0
 19 25  1  0  0  0
 19 26  1  0  0  0
 19 27  1  0  0  0
 22 28  1  0  0  0
 28 23  2  0  0  0
 28 24  2  0  0  0
  1 29  1  0  0  0
  2 30  1  0  0  0
  3 31  1  0  0  0
  4 32  1  0  0  0
  5 33  1  0  0  0
  6 34  1  0  0  0
  7 35  1  0  0  0
 14 36  1  0  0  0
 14 37  1  0  0  0
 15 38  1  0  0  0
 15 39  1  0  0  0
 16 40  1  0  0  0
 16 41  1  0  0  0
 17 42  1  0  0  0
 17 43  1  0  0  0
 18 44  1  0  0  0
 22 45  1  0  0  0
M  END
$$$$
