2xjx_ligand
  -I-interpret- 

 63 66  0  0  0  0  0  0  0  0999 V2000
   13.7900    0.2930   10.8000 C   0  0  0  0  0
   13.0970   -0.4090    9.6270 C   0  0  0  0  0
   13.5650    0.1830    8.3020 C   0  0  0  0  0
   13.2800   -1.9250    9.7160 C   0  0  0  0  0
   14.3780   -2.5560    9.1330 C   0  0  0  0  0
   14.5930   -3.9280    9.2840 C   0  0  0  0  0
   15.7630   -4.5690    8.6230 C   0  0  0  0  0
   16.6840   -4.9850    9.2970 O   0  0  0  0  0
   15.7930   -4.5970    7.2830 N   0  0  0  0  0
   16.8820   -5.2180    6.5150 C   0  0  0  0  0
   16.2660   -5.3750    5.1530 C   0  0  0  0  0
   16.7890   -5.9840    4.0190 C   0  0  0  0  0
   16.0530   -6.0150    2.8480 C   0  0  0  0  0
   14.7880   -5.4370    2.7930 C   0  0  0  0  0
   13.9870   -5.4480    1.5140 C   0  0  0  0  0
   14.2970   -4.2660    0.6280 N   0  3  0  0  0
   14.3080   -2.9860    1.4120 C   0  0  0  0  0
   14.6380   -1.7950    0.5240 C   0  0  0  0  0
   15.9580   -2.0120   -0.1410 N   0  3  0  0  0
   16.3690   -0.8250   -0.9480 C   0  0  0  0  0
   15.9120   -3.2530   -0.9730 C   0  0  0  0  0
   15.5990   -4.4530   -0.0930 C   0  0  0  0  0
   14.2820   -4.8340    3.9410 C   0  0  0  0  0
   15.0190   -4.8100    5.1120 C   0  0  0  0  0
   14.6670   -4.1830    6.4330 C   0  0  0  0  0
   13.7150   -4.6850   10.0390 C   0  0  0  0  0
   13.9370   -6.0300   10.1850 O   0  0  0  0  0
   12.6260   -4.0730   10.6590 C   0  0  0  0  0
   12.4170   -2.7110   10.5120 C   0  0  0  0  0
   11.3200   -2.1630   11.1170 O   0  0  0  0  0
   13.3599   -0.0589   11.7377 H   0  0  0  0  0
   14.8558    0.0654   10.7796 H   0  0  0  0  0
   13.6454    1.3699   10.7140 H   0  0  0  0  0
   12.0229   -0.2320    9.6825 H   0  0  0  0  0
   14.6259   -0.0270    8.1663 H   0  0  0  0  0
   12.9976   -0.2635    7.4854 H   0  0  0  0  0
   13.4048    1.2611    8.3105 H   0  0  0  0  0
   15.0833   -1.9666    8.5472 H   0  0  0  0  0
   17.2238   -6.1609    6.9419 H   0  0  0  0  0
   17.7944   -4.6217    6.5064 H   0  0  0  0  0
   17.7796   -6.4375    4.0520 H   0  0  0  0  0
   16.4669   -6.4958    1.9616 H   0  0  0  0  0
   12.9305   -5.4024    1.7783 H   0  0  0  0  0
   14.2411   -6.3552    0.9657 H   0  0  0  0  0
   13.5545   -4.2050   -0.0687 H   0  0  0  0  0
   15.0699   -3.0614    2.1879 H   0  0  0  0  0
   13.3177   -2.8342    1.8415 H   0  0  0  0  0
   14.6848   -0.8924    1.1333 H   0  0  0  0  0
   13.8644   -1.6862   -0.2361 H   0  0  0  0  0
   16.6669   -2.1341    0.5822 H   0  0  0  0  0
   15.6220   -0.6349   -1.7187 H   0  0  0  0  0
   16.4503    0.0451   -0.2966 H   0  0  0  0  0
   17.3337   -1.0217   -1.4158 H   0  0  0  0  0
   16.8795   -3.4009   -1.4527 H   0  0  0  0  0
   15.1353   -3.1499   -1.7308 H   0  0  0  0  0
   15.5255   -5.3392   -0.7234 H   0  0  0  0  0
   16.3943   -4.5629    0.6442 H   0  0  0  0  0
   13.2935   -4.3753    3.9173 H   0  0  0  0  0
   14.5458   -3.1012    6.3767 H   0  0  0  0  0
   13.6983   -4.5035    6.8165 H   0  0  0  0  0
   13.2456   -6.4098   10.7321 H   0  0  0  0  0
   11.9379   -4.6671   11.2604 H   0  0  0  0  0
   10.8563   -2.8422   11.6122 H   0  0  0  0  0
  1  2  1  0  0  0
  2  3  1  0  0  0
  2  4  1  0  0  0
  4  5  4  0  0  0
  4 29  4  0  0  0
  5  6  4  0  0  0
  6  7  1  0  0  0
  6 26  4  0  0  0
  7  8  2  0  0  0
  7  9  1  0  0  0
  9 10  1  0  0  0
  9 25  1  0  0  0
 10 11  1  0  0  0
 11 12  4  0  0  0
 11 24  4  0  0  0
 12 13  4  0  0  0
 13 14  4  0  0  0
 14 15  1  0  0  0
 14 23  4  0  0  0
 15 16  1  0  0  0
 16 17  1  0  0  0
 16 22  1  0  0  0
 17 18  1  0  0  0
 18 19  1  0  0  0
 19 20  1  0  0  0
 19 21  1  0  0  0
 21 22  1  0  0  0
 23 24  4  0  0  0
 24 25  1  0  0  0
 26 27  1  0  0  0
 26 28  4  0  0  0
 28 29  4  0  0  0
 29 30  1  0  0  0
  1 31  1  0  0  0
  1 32  1  0  0  0
  1 33  1  0  0  0
  2 34  1  0  0  0
  3 35  1  0  0  0
  3 36  1  0  0  0
  3 37  1  0  0  0
  5 38  1  0  0  0
 10 39  1  0  0  0
 10 40  1  0  0  0
 12 41  1  0  0  0
 13 42  1  0  0  0
 15 43  1  0  0  0
 15 44  1  0  0  0
 16 45  1  0  0  0
 17 46  1  0  0  0
 17 47  1  0  0  0
 18 48  1  0  0  0
 18 49  1  0  0  0
 19 50  1  0  0  0
 20 51  1  0  0  0
 20 52  1  0  0  0
 20 53  1  0  0  0
 21 54  1  0  0  0
 21 55  1  0  0  0
 22 56  1  0  0  0
 22 57  1  0  0  0
 23 58  1  0  0  0
 25 59  1  0  0  0
 25 60  1  0  0  0
 27 61  1  0  0  0
 28 62  1  0  0  0
 30 63  1  0  0  0
M  END
$$$$
