1mqj_ligand
  -I-interpret- 

 24 24  0  0  0  0  0  0  0  0999 V2000
   16.2660    1.7120   15.4300 N   0  0  0  0  0
   16.3910    0.4090   14.8630 C   0  0  0  0  0
   16.4680   -0.6340   15.5440 O   0  0  0  0  0
   16.4210    0.3860   13.4680 N   0  0  0  0  0
   16.3400    1.5070   12.6140 C   0  0  0  0  0
   16.3810    1.3700   11.4040 O   0  0  0  0  0
   16.2110    2.7990   13.2910 C   0  0  0  0  0
   16.1540    2.8610   14.6430 C   0  0  0  0  0
   16.1540    1.8670   16.8930 C   0  0  0  0  0
   14.8540    1.3310   17.4900 C   0  0  0  0  0
   13.7290    2.3010   17.2460 N   0  3  0  0  0
   14.9480    0.9720   18.9800 C   0  0  0  0  0
   14.1470    1.4500   19.7430 O   0  0  0  0  0
   15.9380    0.2100   19.2820 O   0  0  0  0  0
   16.5099   -0.5276   13.0232 H   0  0  0  0  0
   16.1606    3.7159   12.7038 H   0  0  0  0  0
   16.0178    3.8280   15.1273 H   0  0  0  0  0
   16.1844    2.9361   17.1035 H   0  0  0  0  0
   16.9685    1.2949   17.3374 H   0  0  0  0  0
   14.6507    0.3920   16.9752 H   0  0  0  0  0
   12.8686    1.9304   17.6495 H   0  0  0  0  0
   13.9525    3.1957   17.6818 H   0  0  0  0  0
   13.6062    2.4318   16.2419 H   0  0  0  0  0
   16.4139   -0.0264   18.4825 H   0  0  0  0  0
  1  2  1  0  0  0
  1  8  1  0  0  0
  1  9  1  0  0  0
  2  3  2  0  0  0
  2  4  1  0  0  0
  4  5  1  0  0  0
  5  6  2  0  0  0
  5  7  1  0  0  0
  7  8  2  0  0  0
  9 10  1  0  0  0
 10 11  1  0  0  0
 10 12  1  0  0  0
 12 13  2  0  0  0
 12 14  1  0  0  0
  4 15  1  0  0  0
  7 16  1  0  0  0
  8 17  1  0  0  0
  9 18  1  0  0  0
  9 19  1  0  0  0
 10 20  1  0  0  0
 11 21  1  0  0  0
 11 22  1  0  0  0
 11 23  1  0  0  0
 14 24  1  0  0  0
M  END
$$$$
