4cfx_ligand
  -I-interpret- 

 49 52  0  0  0  0  0  0  0  0999 V2000
  -34.5520   14.2000   30.4040 N   0  0  0  0  0
  -33.9770   14.3730   29.2210 C   0  0  0  0  0
  -33.7540   13.3300   28.4610 N   0  0  0  0  0
  -33.6390   15.5950   28.7990 N   0  0  0  0  0
  -33.8680   16.6590   29.5690 C   0  0  0  0  0
  -34.4360   16.5010   30.7470 C   0  0  0  0  0
  -34.7650   15.2860   31.1460 C   0  0  0  0  0
  -35.3500   15.2540   32.3500 O   0  0  0  0  0
  -34.5660   17.6880   31.3240 N   0  0  0  0  0
  -34.0550   18.5700   30.4830 C   0  0  0  0  0
  -33.6340   17.9450   29.3970 N   0  0  0  0  0
  -35.0360   14.1650   33.1930 C   0  0  0  0  0
  -35.6410   14.5770   34.4890 C   0  0  0  0  0
  -37.1110   14.9610   34.2970 C   0  0  0  0  0
  -37.6710   15.4230   35.5740 C   0  0  0  0  0
  -37.5750   14.2510   36.5480 C   0  0  0  0  0
  -36.1180   13.8140   36.7350 C   0  0  0  0  0
  -35.5480   13.4100   35.4130 C   0  0  0  0  0
  -33.9960   19.8870   30.6670 C   0  0  0  0  0
  -33.3980   20.6830   29.6920 C   0  0  0  0  0
  -33.3230   22.0520   29.8350 C   0  0  0  0  0
  -33.8580   22.6410   30.9600 C   0  0  0  0  0
  -34.4640   21.8700   31.9360 C   0  0  0  0  0
  -34.5380   20.4840   31.8040 C   0  0  0  0  0
  -35.0730   22.7160   33.2650 S   0  0  0  0  0
  -33.8810   23.3170   34.0160 O   0  0  0  0  0
  -35.8410   21.8480   34.1760 N   0  0  0  0  0
  -35.9890   23.8270   32.7610 O   0  0  0  0  0
  -34.0217   12.3992   28.7810 H   0  0  0  0  0
  -33.3127   13.4485   27.5491 H   0  0  0  0  0
  -33.9652   13.9736   33.2629 H   0  0  0  0  0
  -35.4214   13.2143   32.8245 H   0  0  0  0  0
  -35.1153   15.4426   34.8921 H   0  0  0  0  0
  -37.6698   14.0919   33.9500 H   0  0  0  0  0
  -37.1829   15.7606   33.5598 H   0  0  0  0  0
  -38.7064   15.7405   35.4507 H   0  0  0  0  0
  -37.1196   16.2850   35.9496 H   0  0  0  0  0
  -38.1436   13.4128   36.1453 H   0  0  0  0  0
  -37.9741   14.5634   37.5130 H   0  0  0  0  0
  -36.0764   12.9696   37.4230 H   0  0  0  0  0
  -35.5389   14.6421   37.1437 H   0  0  0  0  0
  -34.5075   13.1071   35.5304 H   0  0  0  0  0
  -36.1050   12.5655   35.0072 H   0  0  0  0  0
  -32.9820   20.2146   28.8000 H   0  0  0  0  0
  -32.8462   22.6614   29.0673 H   0  0  0  0  0
  -33.8034   23.7228   31.0819 H   0  0  0  0  0
  -35.0114   19.8779   32.5764 H   0  0  0  0  0
  -35.5403   21.7314   35.1437 H   0  0  0  0  0
  -36.6731   21.3640   33.8387 H   0  0  0  0  0
  1  2  4  0  0  0
  1  7  4  0  0  0
  2  3  1  0  0  0
  2  4  4  0  0  0
  4  5  4  0  0  0
  5  6  4  0  0  0
  5 11  4  0  0  0
  6  7  4  0  0  0
  6  9  4  0  0  0
  7  8  1  0  0  0
  8 12  1  0  0  0
  9 10  4  0  0  0
 10 11  4  0  0  0
 10 19  1  0  0  0
 12 13  1  0  0  0
 13 14  1  0  0  0
 13 18  1  0  0  0
 14 15  1  0  0  0
 15 16  1  0  0  0
 16 17  1  0  0  0
 17 18  1  0  0  0
 19 20  4  0  0  0
 19 24  4  0  0  0
 20 21  4  0  0  0
 21 22  4  0  0  0
 22 23  4  0  0  0
 23 24  4  0  0  0
 23 25  1  0  0  0
 25 26  2  0  0  0
 25 27  1  0  0  0
 25 28  2  0  0  0
  3 29  1  0  0  0
  3 30  1  0  0  0
 12 31  1  0  0  0
 12 32  1  0  0  0
 13 33  1  0  0  0
 14 34  1  0  0  0
 14 35  1  0  0  0
 15 36  1  0  0  0
 15 37  1  0  0  0
 16 38  1  0  0  0
 16 39  1  0  0  0
 17 40  1  0  0  0
 17 41  1  0  0  0
 18 42  1  0  0  0
 18 43  1  0  0  0
 20 44  1  0  0  0
 21 45  1  0  0  0
 22 46  1  0  0  0
 24 47  1  0  0  0
 27 48  1  0  0  0
 27 49  1  0  0  0
M  END
$$$$
