2qrh_ligand
  -I-interpret- 

 38 40  0  0  0  0  0  0  0  0999 V2000
   36.8630   24.4410   30.8680 C   0  0  0  0  0
   37.6340   24.8740   31.9530 C   0  0  0  0  0
   37.0060   25.3460   33.1030 C   0  0  0  0  0
   35.6120   25.3910   33.1770 C   0  0  0  0  0
   34.8420   24.9550   32.0950 C   0  0  0  0  0
   35.4680   24.4780   30.9410 C   0  0  0  0  0
   34.7020   24.0540   29.8520 C   0  0  0  0  0
   35.2310   23.3450   28.6120 C   0  0  0  0  0
   33.3890   24.2240   29.7090 N   0  0  0  0  0
   32.9030   23.7020   28.4730 O   0  0  0  0  0
   33.9570   22.9260   27.8830 C   0  0  0  0  0
   33.7250   21.5120   28.1200 O   0  0  0  0  0
   32.4970   21.0230   27.5240 C   0  0  0  0  0
   32.3190   19.5650   27.9670 C   0  0  0  0  0
   33.3060   18.7600   27.3130 O   0  0  0  0  0
   32.5900   21.1960   25.9930 C   0  0  0  0  0
   31.3940   20.7240   25.3640 O   0  0  0  0  0
   32.8320   22.6630   25.6110 C   0  0  0  0  0
   33.0330   22.7460   24.1940 O   0  0  0  0  0
   34.0550   23.2250   26.3670 C   0  0  0  0  0
   34.1880   24.6390   26.1340 O   0  0  0  0  0
   37.3513   24.0745   29.9650 H   0  0  0  0  0
   38.7221   24.8419   31.8981 H   0  0  0  0  0
   37.6052   25.6819   33.9493 H   0  0  0  0  0
   35.1252   25.7657   34.0774 H   0  0  0  0  0
   33.7540   24.9872   32.1517 H   0  0  0  0  0
   35.8762   22.5000   28.8527 H   0  0  0  0  0
   35.8741   23.9818   28.0046 H   0  0  0  0  0
   31.6179   21.5797   27.8485 H   0  0  0  0  0
   31.3216   19.2167   27.6988 H   0  0  0  0  0
   32.4386   19.4903   29.0478 H   0  0  0  0  0
   33.2022   17.8450   27.5845 H   0  0  0  0  0
   33.4376   20.6060   25.6444 H   0  0  0  0  0
   31.4671   20.8382   24.4136 H   0  0  0  0  0
   31.9644   23.2606   25.8908 H   0  0  0  0  0
   33.1852   23.6610   23.9466 H   0  0  0  0  0
   34.9465   22.7281   25.9844 H   0  0  0  0  0
   34.2471   24.8024   25.1899 H   0  0  0  0  0
  1  2  4  0  0  0
  1  6  4  0  0  0
  2  3  4  0  0  0
  3  4  4  0  0  0
  4  5  4  0  0  0
  5  6  4  0  0  0
  6  7  1  0  0  0
  7  8  1  0  0  0
  7  9  2  0  0  0
  8 11  1  0  0  0
  9 10  1  0  0  0
 10 11  1  0  0  0
 11 12  1  0  0  0
 11 20  1  0  0  0
 12 13  1  0  0  0
 13 14  1  0  0  0
 13 16  1  0  0  0
 14 15  1  0  0  0
 16 17  1  0  0  0
 16 18  1  0  0  0
 18 19  1  0  0  0
 18 20  1  0  0  0
 20 21  1  0  0  0
  1 22  1  0  0  0
  2 23  1  0  0  0
  3 24  1  0  0  0
  4 25  1  0  0  0
  5 26  1  0  0  0
  8 27  1  0  0  0
  8 28  1  0  0  0
 13 29  1  0  0  0
 14 30  1  0  0  0
 14 31  1  0  0  0
 15 32  1  0  0  0
 16 33  1  0  0  0
 17 34  1  0  0  0
 18 35  1  0  0  0
 19 36  1  0  0  0
 20 37  1  0  0  0
 21 38  1  0  0  0
M  END
$$$$
