4qwr_ligand
  -I-interpret- 

114116  0  0  0  0  0  0  0  0999 V2000
   58.8520 -135.9810   31.2730 C   0  0  0  0  0
   59.6620 -135.1310   30.9000 O   0  0  0  0  0
   58.3490 -137.1080   30.3560 C   0  0  0  0  0
   58.1730 -136.7100   28.9400 N   0  3  0  0  0
   58.4630 -135.2720   26.6920 O   0  0  0  0  0
   59.4600 -136.6640   28.2000 C   0  0  0  0  0
   57.4100 -135.4440   28.7820 C   0  0  0  0  0
   59.0970 -136.5430   26.7570 C   0  0  0  0  0
   57.1720 -135.2050   27.3630 C   0  0  0  0  0
   58.3320 -136.0310   32.5000 N   0  0  0  0  0
   58.6950 -135.0750   33.5420 C   0  0  0  0  0
   59.8870 -135.6320   34.2860 C   0  0  0  0  0
   60.0880 -136.8450   34.3190 O   0  0  0  0  0
   57.5900 -135.0140   34.5550 C   0  0  0  0  0
   56.7880 -133.7710   34.2440 C   0  0  0  0  0
   55.5220 -133.9020   34.8640 C   0  0  0  0  0
   54.3690 -133.5470   34.1630 C   0  0  0  0  0
   55.3890 -134.3610   36.1810 C   0  0  0  0  0
   53.1160 -133.6620   34.7580 C   0  0  0  0  0
   54.1360 -134.4790   36.7740 C   0  0  0  0  0
   52.9970 -134.1280   36.0630 C   0  0  0  0  0
   60.6150 -134.7270   34.9430 N   0  0  0  0  0
   61.7460 -135.1590   35.7630 C   0  0  0  0  0
   61.2260 -135.2880   37.1790 C   0  0  0  0  0
   60.4770 -134.4330   37.6520 O   0  0  0  0  0
   62.8260 -134.1360   35.8070 C   0  0  0  0  0
   63.3170 -133.9540   34.3560 C   0  0  0  0  0
   63.3150 -132.4530   34.0290 C   0  0  0  0  0
   64.7460 -134.4890   34.1620 C   0  0  0  0  0
   61.6570 -136.3700   37.8260 N   0  0  0  0  0
   61.2870 -136.6250   39.2150 C   0  0  0  0  0
   62.5820 -136.6080   40.0060 C   0  0  0  0  0
   63.6680 -136.6190   39.4250 O   0  0  0  0  0
   60.6000 -137.9430   39.3520 C   0  0  0  0  0
   59.3280 -137.7450   38.8020 C   0  0  0  0  0
   59.0890 -138.0340   37.4580 C   0  0  0  0  0
   58.2900 -137.2550   39.5950 C   0  0  0  0  0
   57.8240 -137.8380   36.9110 C   0  0  0  0  0
   57.0250 -137.0580   39.0470 C   0  0  0  0  0
   56.7910 -137.3510   37.7060 C   0  0  0  0  0
   62.4180 -136.5590   41.3320 N   0  0  0  0  0
   63.5370 -136.3920   42.2540 C   0  0  0  0  0
   63.3450 -134.9590   42.7350 C   0  0  0  0  0
   64.4270 -133.9670   42.2200 C   0  0  0  0  0
   63.8590 -132.5410   42.3410 C   0  0  0  0  0
   64.8790 -134.1870   40.7640 C   0  0  0  0  0
   63.4600 -137.3330   43.4790 C   0  0  0  0  0
   63.8520 -138.8800   43.2500 C   0  0  0  0  0
   65.0490 -138.9960   42.2700 C   0  0  0  0  0
   62.6870 -139.6510   42.5930 C   0  0  0  0  0
   61.5010 -138.8540   42.7340 O   0  0  0  0  0
   62.1440 -137.2370   44.0360 O   0  0  0  0  0
   57.3701 -137.4108   30.7278 H   0  0  0  0  0
   59.1008 -137.8970   30.3760 H   0  0  0  0  0
   57.6068 -137.4464   28.5186 H   0  0  0  0  0
   60.0553 -137.5581   28.3850 H   0  0  0  0  0
   60.0742 -135.8244   28.5256 H   0  0  0  0  0
   57.9811 -134.6164   29.2028 H   0  0  0  0  0
   56.4573 -135.5219   29.3058 H   0  0  0  0  0
   59.9608 -136.6184   26.0965 H   0  0  0  0  0
   58.4542 -137.3536   26.4138 H   0  0  0  0  0
   56.4895 -135.9518   26.9573 H   0  0  0  0  0
   56.7105 -134.2294   27.2104 H   0  0  0  0  0
   57.6565 -136.7634   32.7183 H   0  0  0  0  0
   58.8897 -134.1013   33.0924 H   0  0  0  0  0
   57.9916 -134.9753   35.5676 H   0  0  0  0  0
   56.9639 -135.9047   34.5026 H   0  0  0  0  0
   56.6701 -133.6582   33.1663 H   0  0  0  0  0
   57.3023 -132.8866   34.6201 H   0  0  0  0  0
   54.4502 -133.1766   33.1411 H   0  0  0  0  0
   56.2797 -134.6294   36.7490 H   0  0  0  0  0
   52.2228 -133.3852   34.1979 H   0  0  0  0  0
   54.0489 -134.8469   37.7963 H   0  0  0  0  0
   52.0138 -134.2171   36.5251 H   0  0  0  0  0
   60.3831 -133.7362   34.8734 H   0  0  0  0  0
   62.1486 -136.0827   35.3472 H   0  0  0  0  0
   63.6403 -134.4561   36.4571 H   0  0  0  0  0
   62.4558 -133.1952   36.2144 H   0  0  0  0  0
   62.6510 -134.5128   33.6985 H   0  0  0  0  0
   62.3032 -132.0611   34.1332 H   0  0  0  0  0
   63.9806 -131.9317   34.7170 H   0  0  0  0  0
   63.6598 -132.3049   33.0056 H   0  0  0  0  0
   65.4265 -133.9521   34.8229 H   0  0  0  0  0
   64.7699 -135.5524   34.4000 H   0  0  0  0  0
   65.0508 -134.3403   33.1261 H   0  0  0  0  0
   62.2588 -137.0349   37.3401 H   0  0  0  0  0
   60.5887 -135.8721   39.5805 H   0  0  0  0  0
   60.5457 -138.2650   40.3919 H   0  0  0  0  0
   61.1430 -138.7376   38.8404 H   0  0  0  0  0
   59.8968 -138.4151   36.8333 H   0  0  0  0  0
   58.4695 -137.0259   40.6454 H   0  0  0  0  0
   57.6428 -138.0659   35.8606 H   0  0  0  0  0
   56.2165 -136.6737   39.6690 H   0  0  0  0  0
   55.7995 -137.1990   37.2794 H   0  0  0  0  0
   61.4756 -136.6414   41.7135 H   0  0  0  0  0
   64.4899 -136.6120   41.7727 H   0  0  0  0  0
   63.4106 -134.9721   43.8229 H   0  0  0  0  0
   62.3839 -134.6159   42.3520 H   0  0  0  0  0
   65.3116 -134.1341   42.8345 H   0  0  0  0  0
   62.9544 -132.4593   41.7384 H   0  0  0  0  0
   63.6221 -132.3330   43.3844 H   0  0  0  0  0
   64.5998 -131.8248   41.9855 H   0  0  0  0  0
   65.3008 -135.1870   40.6630 H   0  0  0  0  0
   64.0214 -134.0842   40.0992 H   0  0  0  0  0
   65.6336 -133.4449   40.5031 H   0  0  0  0  0
   64.2376 -136.9801   44.1563 H   0  0  0  0  0
   64.0941 -139.2924   44.2295 H   0  0  0  0  0
   64.7769 -138.5528   41.3121 H   0  0  0  0  0
   65.9086 -138.4692   42.6844 H   0  0  0  0  0
   65.2996 -140.0472   42.1274 H   0  0  0  0  0
   62.5529 -140.6190   43.0758 H   0  0  0  0  0
   62.8989 -139.8324   41.5393 H   0  0  0  0  0
   60.7592 -139.3123   42.3324 H   0  0  0  0  0
   62.0777 -137.8157   44.7991 H   0  0  0  0  0
  1  2  2  0  0  0
  3  1  1  0  0  0
  1 10  1  0  0  0
  4  3  1  0  0  0
  6  4  1  0  0  0
  4  7  1  0  0  0
  8  5  1  0  0  0
  5  9  1  0  0  0
  6  8  1  0  0  0
  7  9  1  0  0  0
 10 11  1  0  0  0
 11 12  1  0  0  0
 11 14  1  0  0  0
 12 13  2  0  0  0
 12 22  1  0  0  0
 14 15  1  0  0  0
 15 16  1  0  0  0
 16 17  4  0  0  0
 16 18  4  0  0  0
 17 19  4  0  0  0
 18 20  4  0  0  0
 19 21  4  0  0  0
 20 21  4  0  0  0
 22 23  1  0  0  0
 23 24  1  0  0  0
 23 26  1  0  0  0
 24 25  2  0  0  0
 24 30  1  0  0  0
 26 27  1  0  0  0
 27 28  1  0  0  0
 27 29  1  0  0  0
 30 31  1  0  0  0
 31 32  1  0  0  0
 31 34  1  0  0  0
 32 33  2  0  0  0
 32 41  1  0  0  0
 34 35  1  0  0  0
 35 36  4  0  0  0
 35 37  4  0  0  0
 36 38  4  0  0  0
 37 39  4  0  0  0
 38 40  4  0  0  0
 39 40  4  0  0  0
 41 42  1  0  0  0
 42 43  1  0  0  0
 42 47  1  0  0  0
 43 44  1  0  0  0
 44 45  1  0  0  0
 44 46  1  0  0  0
 47 48  1  0  0  0
 47 52  1  0  0  0
 48 49  1  0  0  0
 48 50  1  0  0  0
 50 51  1  0  0  0
  3 53  1  0  0  0
  3 54  1  0  0  0
  4 55  1  0  0  0
  6 56  1  0  0  0
  6 57  1  0  0  0
  7 58  1  0  0  0
  7 59  1  0  0  0
  8 60  1  0  0  0
  8 61  1  0  0  0
  9 62  1  0  0  0
  9 63  1  0  0  0
 10 64  1  0  0  0
 11 65  1  0  0  0
 14 66  1  0  0  0
 14 67  1  0  0  0
 15 68  1  0  0  0
 15 69  1  0  0  0
 17 70  1  0  0  0
 18 71  1  0  0  0
 19 72  1  0  0  0
 20 73  1  0  0  0
 21 74  1  0  0  0
 22 75  1  0  0  0
 23 76  1  0  0  0
 26 77  1  0  0  0
 26 78  1  0  0  0
 27 79  1  0  0  0
 28 80  1  0  0  0
 28 81  1  0  0  0
 28 82  1  0  0  0
 29 83  1  0  0  0
 29 84  1  0  0  0
 29 85  1  0  0  0
 30 86  1  0  0  0
 31 87  1  0  0  0
 34 88  1  0  0  0
 34 89  1  0  0  0
 36 90  1  0  0  0
 37 91  1  0  0  0
 38 92  1  0  0  0
 39 93  1  0  0  0
 40 94  1  0  0  0
 41 95  1  0  0  0
 42 96  1  0  0  0
 43 97  1  0  0  0
 43 98  1  0  0  0
 44 99  1  0  0  0
 45100  1  0  0  0
 45101  1  0  0  0
 45102  1  0  0  0
 46103  1  0  0  0
 46104  1  0  0  0
 46105  1  0  0  0
 47106  1  0  0  0
 48107  1  0  0  0
 49108  1  0  0  0
 49109  1  0  0  0
 49110  1  0  0  0
 50111  1  0  0  0
 50112  1  0  0  0
 51113  1  0  0  0
 52114  1  0  0  0
M  END
$$$$
