### 
### Created by X-TOOL on Mon Sep 10 21:13:23 2018
### 

@<TRIPOS>MOLECULE
4qwr_ligand
  114   116     1     0     0
SMALL
GAST_HUCK


@<TRIPOS>ATOM
      1 C8         58.8520 -135.9810   31.2730 C.2       1 3BV         0.2238
      2 O9         59.6620 -135.1310   30.9000 O.2       1 3BV        -0.3910
      3 C7         58.3490 -137.1080   30.3560 C.3       1 3BV         0.0582
      4 N4         58.1730 -136.7100   28.9400 N.4       1 3BV         0.2552
      5 O1         58.4630 -135.2720   26.6920 O.3       1 3BV        -0.3693
      6 C5         59.4600 -136.6640   28.2000 C.3       1 3BV        -0.0060
      7 C3         57.4100 -135.4440   28.7820 C.3       1 3BV        -0.0060
      8 C6         59.0970 -136.5430   26.7570 C.3       1 3BV         0.0878
      9 C2         57.1720 -135.2050   27.3630 C.3       1 3BV         0.0878
     10 N10        58.3320 -136.0310   32.5000 N.am      1 3BV        -0.2611
     11 C11        58.6950 -135.0750   33.5420 C.3       1 3BV         0.1328
     12 C20        59.8870 -135.6320   34.2860 C.2       1 3BV         0.2041
     13 O21        60.0880 -136.8450   34.3190 O.2       1 3BV        -0.3944
     14 C12        57.5900 -135.0140   34.5550 C.3       1 3BV        -0.0027
     15 C13        56.7880 -133.7710   34.2440 C.3       1 3BV        -0.0149
     16 C14        55.5220 -133.9020   34.8640 C.ar      1 3BV        -0.0428
     17 C19        54.3690 -133.5470   34.1630 C.ar      1 3BV        -0.0603
     18 C15        55.3890 -134.3610   36.1810 C.ar      1 3BV        -0.0603
     19 C18        53.1160 -133.6620   34.7580 C.ar      1 3BV        -0.0686
     20 C16        54.1360 -134.4790   36.7740 C.ar      1 3BV        -0.0686
     21 C17        52.9970 -134.1280   36.0630 C.ar      1 3BV        -0.0687
     22 N22        60.6150 -134.7270   34.9430 N.am      1 3BV        -0.2637
     23 C23        61.7460 -135.1590   35.7630 C.3       1 3BV         0.1312
     24 C28        61.2260 -135.2880   37.1790 C.2       1 3BV         0.2040
     25 O29        60.4770 -134.4330   37.6520 O.2       1 3BV        -0.3944
     26 C24        62.8260 -134.1360   35.8070 C.3       1 3BV        -0.0101
     27 C25        63.3170 -133.9540   34.3560 C.3       1 3BV        -0.0425
     28 C26        63.3150 -132.4530   34.0290 C.3       1 3BV        -0.0625
     29 C27        64.7460 -134.4890   34.1620 C.3       1 3BV        -0.0625
     30 N30        61.6570 -136.3700   37.8260 N.am      1 3BV        -0.2619
     31 C31        61.2870 -136.6250   39.2150 C.3       1 3BV         0.1403
     32 C39        62.5820 -136.6080   40.0060 C.2       1 3BV         0.2040
     33 O40        63.6680 -136.6190   39.4250 O.2       1 3BV        -0.3943
     34 C32        60.6000 -137.9430   39.3520 C.3       1 3BV         0.0214
     35 C33        59.3280 -137.7450   38.8020 C.ar      1 3BV        -0.0386
     36 C34        59.0890 -138.0340   37.4580 C.ar      1 3BV        -0.0601
     37 C38        58.2900 -137.2550   39.5950 C.ar      1 3BV        -0.0601
     38 C35        57.8240 -137.8380   36.9110 C.ar      1 3BV        -0.0686
     39 C37        57.0250 -137.0580   39.0470 C.ar      1 3BV        -0.0686
     40 C36        56.7910 -137.3510   37.7060 C.ar      1 3BV        -0.0687
     41 N41        62.4180 -136.5590   41.3320 N.am      1 3BV        -0.2794
     42 C42        63.5370 -136.3920   42.2540 C.3       1 3BV         0.0685
     43 C43        63.3450 -134.9590   42.7350 C.3       1 3BV        -0.0251
     44 C44        64.4270 -133.9670   42.2200 C.3       1 3BV        -0.0446
     45 C45        63.8590 -132.5410   42.3410 C.3       1 3BV        -0.0626
     46 C46        64.8790 -134.1870   40.7640 C.3       1 3BV        -0.0626
     47 C47        63.4600 -137.3330   43.4790 C.3       1 3BV         0.0827
     48 C51        63.8520 -138.8800   43.2500 C.3       1 3BV         0.0075
     49 C58        65.0490 -138.9960   42.2700 C.3       1 3BV        -0.0579
     50 C59        62.6870 -139.6510   42.5930 C.3       1 3BV         0.0492
     51 O60        61.5010 -138.8540   42.7340 O.3       1 3BV        -0.3947
     52 O48        62.1440 -137.2370   44.0360 O.3       1 3BV        -0.3892
     53 H1         57.3784 -137.4562   30.7390 H         1 3BV         0.1063
     54 H2         59.0756 -137.9330   30.3940 H         1 3BV         0.1063
     55 H3         57.6188 -137.4336   28.5096 H         1 3BV         0.2054
     56 H4         60.0348 -137.5855   28.3741 H         1 3BV         0.0837
     57 H5         60.0543 -135.7952   28.5193 H         1 3BV         0.0837
     58 H6         57.9892 -134.6095   29.2041 H         1 3BV         0.0837
     59 H7         56.4476 -135.5256   29.3084 H         1 3BV         0.0837
     60 H8         59.9935 -136.5706   26.1202 H         1 3BV         0.0613
     61 H9         58.4074 -137.3447   26.4543 H         1 3BV         0.0613
     62 H10        56.4972 -135.9742   26.9594 H         1 3BV         0.0613
     63 H11        56.7233 -134.2111   27.2184 H         1 3BV         0.0613
     64 H12        57.6697 -136.7490   32.7140 H         1 3BV         0.1884
     65 H13        58.9066 -134.0842   33.1137 H         1 3BV         0.0801
     66 H14        58.0087 -134.9515   35.5703 H         1 3BV         0.0334
     67 H15        56.9524 -135.9069   34.4756 H         1 3BV         0.0334
     68 H16        56.6623 -133.6701   33.1559 H         1 3BV         0.0428
     69 H17        57.3063 -132.8840   34.6371 H         1 3BV         0.0428
     70 H18        54.4498 -133.1786   33.1467 H         1 3BV         0.0557
     71 H19        56.2748 -134.6280   36.7459 H         1 3BV         0.0557
     72 H20        52.2277 -133.3868   34.2010 H         1 3BV         0.0599
     73 H21        54.0494 -134.8449   37.7907 H         1 3BV         0.0599
     74 H22        52.0193 -134.2166   36.5226 H         1 3BV         0.0559
     75 H23        60.3876 -133.7556   34.8747 H         1 3BV         0.1883
     76 H24        62.1419 -136.1158   35.3917 H         1 3BV         0.0800
     77 H25        63.6512 -134.4820   36.4467 H         1 3BV         0.0315
     78 H26        62.4333 -133.1855   36.1972 H         1 3BV         0.0315
     79 H27        62.6365 -134.4862   33.6751 H         1 3BV         0.0298
     80 H28        63.6628 -132.3023   32.9964 H         1 3BV         0.0232
     81 H29        63.9864 -131.9257   34.7226 H         1 3BV         0.0232
     82 H30        62.2944 -132.0562   34.1337 H         1 3BV         0.0232
     83 H31        64.7691 -135.5645   34.3916 H         1 3BV         0.0232
     84 H32        65.4320 -133.9554   34.8362 H         1 3BV         0.0232
     85 H33        65.0588 -134.3298   33.1195 H         1 3BV         0.0232
     86 H34        62.2470 -137.0219   37.3496 H         1 3BV         0.1885
     87 H35        60.6157 -135.8319   39.5760 H         1 3BV         0.0823
     88 H36        60.5232 -138.2312   40.4108 H         1 3BV         0.0474
     89 H37        61.1440 -138.7224   38.7983 H         1 3BV         0.0474
     90 H38        59.8924 -138.4130   36.8367 H         1 3BV         0.0557
     91 H39        58.4685 -137.0272   40.6397 H         1 3BV         0.0557
     92 H40        57.6438 -138.0646   35.8664 H         1 3BV         0.0599
     93 H41        56.2210 -136.6758   39.6655 H         1 3BV         0.0599
     94 H42        55.8050 -137.1999   37.2817 H         1 3BV         0.0559
     95 H43        61.4941 -136.6398   41.7060 H         1 3BV         0.1856
     96 H44        64.4986 -136.5291   41.7377 H         1 3BV         0.0582
     97 H45        63.3699 -134.9572   43.8347 H         1 3BV         0.0291
     98 H46        62.3615 -134.6074   42.3899 H         1 3BV         0.0291
     99 H47        65.3115 -134.0634   42.8668 H         1 3BV         0.0296
    100 H48        64.6058 -131.8173   41.9826 H         1 3BV         0.0232
    101 H49        63.6195 -132.3298   43.3936 H         1 3BV         0.0232
    102 H50        62.9460 -132.4572   41.7332 H         1 3BV         0.0232
    103 H51        65.2887 -135.2022   40.6567 H         1 3BV         0.0232
    104 H52        65.6533 -133.4499   40.5051 H         1 3BV         0.0232
    105 H53        64.0178 -134.0662   40.0904 H         1 3BV         0.0232
    106 H54        64.1726 -136.9420   44.2201 H         1 3BV         0.0620
    107 H55        64.1084 -139.3357   44.2178 H         1 3BV         0.0346
    108 H56        65.3029 -140.0565   42.1252 H         1 3BV         0.0234
    109 H57        65.9172 -138.4648   42.6871 H         1 3BV         0.0234
    110 H58        64.7757 -138.5491   41.3028 H         1 3BV         0.0234
    111 H59        62.5489 -140.6200   43.0949 H         1 3BV         0.0560
    112 H60        62.9019 -139.8174   41.5271 H         1 3BV         0.0560
    113 H61        61.3246 -138.7112   43.6566 H         1 3BV         0.2094
    114 H62        61.5193 -137.6328   43.4397 H         1 3BV         0.2099
@<TRIPOS>BOND
     1    1    2 2  
     2    3    1 1  
     3    1   10 am 
     4    4    3 1  
     5    6    4 1  
     6    4    7 1  
     7    8    5 1  
     8    5    9 1  
     9    6    8 1  
    10    7    9 1  
    11   10   11 1  
    12   11   12 1  
    13   11   14 1  
    14   12   13 2  
    15   12   22 am 
    16   14   15 1  
    17   15   16 1  
    18   16   17 ar 
    19   16   18 ar 
    20   17   19 ar 
    21   18   20 ar 
    22   19   21 ar 
    23   20   21 ar 
    24   22   23 1  
    25   23   24 1  
    26   23   26 1  
    27   24   25 2  
    28   24   30 am 
    29   26   27 1  
    30   27   28 1  
    31   27   29 1  
    32   30   31 1  
    33   31   32 1  
    34   31   34 1  
    35   32   33 2  
    36   32   41 am 
    37   34   35 1  
    38   35   36 ar 
    39   35   37 ar 
    40   36   38 ar 
    41   37   39 ar 
    42   38   40 ar 
    43   39   40 ar 
    44   41   42 1  
    45   42   43 1  
    46   42   47 1  
    47   43   44 1  
    48   44   45 1  
    49   44   46 1  
    50   47   48 1  
    51   47   52 1  
    52   48   49 1  
    53   48   50 1  
    54   50   51 1  
    55    3   53 1  
    56    3   54 1  
    57    4   55 1  
    58    6   56 1  
    59    6   57 1  
    60    7   58 1  
    61    7   59 1  
    62    8   60 1  
    63    8   61 1  
    64    9   62 1  
    65    9   63 1  
    66   10   64 1  
    67   11   65 1  
    68   14   66 1  
    69   14   67 1  
    70   15   68 1  
    71   15   69 1  
    72   17   70 1  
    73   18   71 1  
    74   19   72 1  
    75   20   73 1  
    76   21   74 1  
    77   22   75 1  
    78   23   76 1  
    79   26   77 1  
    80   26   78 1  
    81   27   79 1  
    82   28   80 1  
    83   28   81 1  
    84   28   82 1  
    85   29   83 1  
    86   29   84 1  
    87   29   85 1  
    88   30   86 1  
    89   31   87 1  
    90   34   88 1  
    91   34   89 1  
    92   36   90 1  
    93   37   91 1  
    94   38   92 1  
    95   39   93 1  
    96   40   94 1  
    97   41   95 1  
    98   42   96 1  
    99   43   97 1  
   100   43   98 1  
   101   44   99 1  
   102   45  100 1  
   103   45  101 1  
   104   45  102 1  
   105   46  103 1  
   106   46  104 1  
   107   46  105 1  
   108   47  106 1  
   109   48  107 1  
   110   49  108 1  
   111   49  109 1  
   112   49  110 1  
   113   50  111 1  
   114   50  112 1  
   115   51  113 1  
   116   52  114 1  
@<TRIPOS>SUBSTRUCTURE
     1 3BV         1

