4b71_ligand
  -I-interpret- 

 35 36  0  0  0  0  0  0  0  0999 V2000
    7.7680   13.4270  -39.4550 C   0  0  0  0  0
    7.1580   13.4280  -38.2140 C   0  0  0  0  0
    5.8280   13.7970  -38.0940 C   0  0  0  0  0
    5.1050   14.1660  -39.2150 C   0  0  0  0  0
    5.7170   14.1650  -40.4640 C   0  0  0  0  0
    7.0530   13.7940  -40.5790 C   0  0  0  0  0
    5.1250   14.5100  -41.6870 O   0  0  0  0  0
    3.8310   15.0160  -41.7490 C   0  0  0  0  0
    3.4620   16.3190  -41.3980 C   0  0  0  0  0
    2.1500   16.7420  -41.4900 C   0  0  0  0  0
    1.1700   15.8830  -41.9320 C   0  0  0  0  0
    1.4900   14.5790  -42.2910 C   0  0  0  0  0
    2.8320   14.1670  -42.1910 C   0  0  0  0  0
    4.6360   17.4580  -40.8330 Cl  0  0  0  0  0
    0.5340   12.2930  -42.1410 N   0  3  0  0  0
    0.1150   14.7410  -45.0340 C   0  0  0  0  0
    0.4300   13.4730  -44.2950 C   0  0  0  0  0
    3.1500   12.9070  -42.5370 F   0  0  0  0  0
    0.4080   13.6340  -42.7790 C   0  0  0  0  0
    8.8145   13.1362  -39.5467 H   0  0  0  0  0
    7.7243   13.1381  -37.3290 H   0  0  0  0  0
    5.3499   13.7967  -37.1144 H   0  0  0  0  0
    4.0588   14.4566  -39.1193 H   0  0  0  0  0
    7.5359   13.7929  -41.5562 H   0  0  0  0  0
    1.8894   17.7629  -41.2106 H   0  0  0  0  0
    0.1380   16.2269  -42.0009 H   0  0  0  0  0
   -0.2052   11.6818  -42.4882 H   0  0  0  0  0
    1.4436   11.8927  -42.3706 H   0  0  0  0  0
    0.4495   12.3899  -41.1291 H   0  0  0  0  0
   -0.8811   15.0846  -44.7552 H   0  0  0  0  0
    0.8496   15.5033  -44.7745 H   0  0  0  0  0
    0.1486   14.5526  -46.1071 H   0  0  0  0  0
    1.4377   13.1693  -44.5785 H   0  0  0  0  0
   -0.3332   12.7409  -44.5587 H   0  0  0  0  0
   -0.5434   14.0821  -42.4925 H   0  0  0  0  0
  1  2  4  0  0  0
  6  1  4  0  0  0
  3  2  4  0  0  0
  4  3  4  0  0  0
  5  4  4  0  0  0
  5  6  4  0  0  0
  7  5  1  0  0  0
  8  7  1  0  0  0
  8  9  4  0  0  0
 13  8  4  0  0  0
 10  9  4  0  0  0
  9 14  1  0  0  0
 11 10  4  0  0  0
 12 11  4  0  0  0
 12 13  4  0  0  0
 19 12  1  0  0  0
 13 18  1  0  0  0
 19 15  1  0  0  0
 17 16  1  0  0  0
 17 19  1  0  0  0
  1 20  1  0  0  0
  2 21  1  0  0  0
  3 22  1  0  0  0
  4 23  1  0  0  0
  6 24  1  0  0  0
 10 25  1  0  0  0
 11 26  1  0  0  0
 15 27  1  0  0  0
 15 28  1  0  0  0
 15 29  1  0  0  0
 16 30  1  0  0  0
 16 31  1  0  0  0
 16 32  1  0  0  0
 17 33  1  0  0  0
 17 34  1  0  0  0
 19 35  1  0  0  0
M  END
$$$$
