5ix1_ligand
  -I-interpret- 

168167  0  0  0  0  0  0  0  0999 V2000
   69.2420   65.7210   -2.9540 N   0  3  0  0  0
   70.3800   65.6440   -3.8380 C   0  0  0  0  0
   70.6330   64.2100   -4.1510 C   0  0  0  0  0
   69.7890   63.3740   -3.9250 O   0  0  0  0  0
   71.5960   66.2570   -3.1990 C   0  0  0  0  0
   71.7950   63.9250   -4.6970 N   0  0  0  0  0
   72.0740   62.5850   -5.1320 C   0  0  0  0  0
   72.5780   61.7050   -4.0100 C   0  0  0  0  0
   73.4390   62.1070   -3.2530 O   0  0  0  0  0
   73.0660   62.6160   -6.2790 C   0  0  0  0  0
   72.4660   62.1750   -7.5950 C   0  0  0  0  0
   73.5450   61.9100   -8.6100 C   0  0  0  0  0
   73.4150   60.5810   -9.1640 N   0  0  0  0  0
   74.4180   59.9240   -9.7100 C   0  0  0  0  0
   74.2300   58.7110  -10.1880 N   0  0  0  0  0
   75.6050   60.4880   -9.7710 N   0  0  0  0  0
   72.0540   60.4910   -3.9170 N   0  0  0  0  0
   72.4300   59.6080   -2.8350 C   0  0  0  0  0
   72.6360   58.1620   -3.2390 C   0  0  0  0  0
   71.7180   57.5160   -3.6790 O   0  0  0  0  0
   71.3520   59.6200   -1.7590 C   0  0  0  0  0
   70.2360   58.8580   -2.2090 O   0  0  0  0  0
   70.8930   61.0100   -1.5040 C   0  0  0  0  0
   73.8430   57.6600   -3.0460 N   0  0  0  0  0
   74.1860   56.2740   -3.2500 C   0  0  0  0  0
   75.6730   56.1210   -3.0850 C   0  0  0  0  0
   76.4970   56.4260   -4.3040 C   0  0  0  0  0
   77.5990   55.3960   -4.4130 C   0  0  0  0  0
   78.7590   55.7280   -3.5010 C   0  0  0  0  0
   80.0170   55.3820   -4.1460 N   0  3  0  0  0
   73.6760   55.4740   -2.1080 C   0  0  0  0  0
   73.1610   56.0580   -1.1580 O   0  0  0  0  0
   80.0660   53.9640   -4.4820 C   0  0  0  0  0
   81.1210   55.6910   -3.2530 C   0  0  0  0  0
   80.1810   56.1840   -5.3440 C   0  0  0  0  0
   73.7860   54.1570   -2.1760 N   0  0  0  0  0
   73.5890   53.2930   -1.0280 C   0  0  0  0  0
   74.6290   52.2020   -1.0640 C   0  0  0  0  0
   75.1750   51.9310   -2.1000 O   0  0  0  0  0
   72.1940   52.7120   -1.0120 C   0  0  0  0  0
   71.2010   53.6070   -0.3090 C   0  0  0  0  0
   70.0680   52.8390    0.3130 C   0  0  0  0  0
   70.0140   51.6240    0.2320 O   0  0  0  0  0
   69.1530   53.5470    0.9380 N   0  0  0  0  0
   74.9440   51.6000    0.0710 N   0  0  0  0  0
   75.9730   50.5730    0.0940 C   0  0  0  0  0
   75.8360   49.5260    1.1770 C   0  0  0  0  0
   75.1360   49.7060    2.1590 O   0  0  0  0  0
   77.3550   51.2090    0.1290 C   0  0  0  0  0
   77.5170   51.9520   -1.0690 O   0  0  0  0  0
   78.4300   50.1680    0.1840 C   0  0  0  0  0
   76.4930   48.4040    0.9480 N   0  0  0  0  0
   76.5760   47.3530    1.9350 C   0  0  0  0  0
   77.5820   47.7280    2.9850 C   0  0  0  0  0
   78.5670   48.3780    2.6910 O   0  0  0  0  0
   76.9630   46.0440    1.2880 C   0  0  0  0  0
   77.3470   47.2740    4.2040 N   0  0  0  0  0
   78.2320   47.5600    5.3130 C   0  0  0  0  0
   78.9420   46.2860    5.6900 C   0  0  0  0  0
   78.3620   45.2290    5.6290 O   0  0  0  0  0
   77.4240   48.0730    6.5020 C   0  0  0  0  0
   77.5600   49.5560    6.8130 C   0  0  0  0  0
   76.3540   50.0920    7.5740 C   0  0  0  0  0
   76.4540   51.5230    7.8140 N   0  0  0  0  0
   75.4220   52.3300    7.9780 C   0  0  0  0  0
   74.1980   51.8720    7.9580 N   0  0  0  0  0
   75.6200   53.6060    8.1590 N   0  0  0  0  0
   80.2160   46.4060    6.0180 N   0  0  0  0  0
   80.9920   45.3850    6.7140 C   0  0  0  0  0
   81.9510   44.6120    5.8560 C   0  0  0  0  0
   82.7510   43.8520    6.3870 O   0  0  0  0  0
   80.1170   44.4080    7.5050 C   0  0  0  0  0
   80.6180   44.1110    8.9050 C   0  0  0  0  0
   81.6720   43.0220    8.9100 C   0  0  0  0  0
   82.7890   43.3430    9.8850 C   0  0  0  0  0
   83.8170   42.2660    9.9160 N   0  3  0  0  0
   81.9160   44.7550    4.6400 O   0  0  0  0  0
   68.4313   65.3001   -3.4079 H   0  0  0  0  0
   69.4489   65.2185   -2.0908 H   0  0  0  0  0
   69.0442   66.6986   -2.7407 H   0  0  0  0  0
   70.1704   66.1989   -4.7525 H   0  0  0  0  0
   71.8274   65.7247   -2.2764 H   0  0  0  0  0
   72.4407   66.1837   -3.8839 H   0  0  0  0  0
   71.3979   67.3052   -2.9752 H   0  0  0  0  0
   72.4978   64.6553   -4.8115 H   0  0  0  0  0
   71.1366   62.1457   -5.4731 H   0  0  0  0  0
   73.8744   61.9264   -6.0362 H   0  0  0  0  0
   73.4030   63.6458   -6.3974 H   0  0  0  0  0
   71.8173   62.9670   -7.9693 H   0  0  0  0  0
   71.9006   61.2571   -7.4342 H   0  0  0  0  0
   74.5154   61.9929   -8.1206 H   0  0  0  0  0
   73.4541   62.6371   -9.4169 H   0  0  0  0  0
   72.5010   60.1294   -9.1305 H   0  0  0  0  0
   75.0076   58.2025  -10.6090 H   0  0  0  0  0
   73.3068   58.2802  -10.1372 H   0  0  0  0  0
   75.7433   61.4269   -9.3972 H   0  0  0  0  0
   71.3796   60.1768   -4.6147 H   0  0  0  0  0
   73.3859   59.9939   -2.4807 H   0  0  0  0  0
   71.7660   59.1975   -0.8435 H   0  0  0  0  0
   69.5536   58.8627   -1.5338 H   0  0  0  0  0
   71.7365   61.6143   -1.1701 H   0  0  0  0  0
   70.4842   61.4306   -2.4227 H   0  0  0  0  0
   70.1228   61.0012   -0.7327 H   0  0  0  0  0
   74.5790   58.2930   -2.7328 H   0  0  0  0  0
   73.7980   55.9689   -4.2218 H   0  0  0  0  0
   75.8514   55.0727   -2.8455 H   0  0  0  0  0
   75.9747   56.8372   -2.3207 H   0  0  0  0  0
   76.9287   57.4233   -4.2196 H   0  0  0  0  0
   75.8687   56.3923   -5.1941 H   0  0  0  0  0
   77.9603   55.3840   -5.4413 H   0  0  0  0  0
   77.1960   54.4264   -4.1205 H   0  0  0  0  0
   78.6621   55.1581   -2.5769 H   0  0  0  0  0
   78.7497   56.7963   -3.2848 H   0  0  0  0  0
   79.9675   53.3726   -3.5717 H   0  0  0  0  0
   79.2488   53.7247   -5.1624 H   0  0  0  0  0
   81.0182   53.7384   -4.9622 H   0  0  0  0  0
   81.1120   56.7560   -3.0212 H   0  0  0  0  0
   81.0140   55.1166   -2.3328 H   0  0  0  0  0
   82.0622   55.4313   -3.7376 H   0  0  0  0  0
   79.3548   55.9874   -6.0272 H   0  0  0  0  0
   80.1878   57.2401   -5.0745 H   0  0  0  0  0
   81.1231   55.9248   -5.8270 H   0  0  0  0  0
   74.0191   53.7318   -3.0734 H   0  0  0  0  0
   73.6998   53.8753   -0.1132 H   0  0  0  0  0
   72.2311   51.7644   -0.4745 H   0  0  0  0  0
   71.8673   52.5946   -2.0453 H   0  0  0  0  0
   70.7787   54.2858   -1.0499 H   0  0  0  0  0
   71.7281   54.1309    0.4883 H   0  0  0  0  0
   68.3600   53.0806    1.3784 H   0  0  0  0  0
   69.2363   54.5626    0.9824 H   0  0  0  0  0
   74.4633   51.8572    0.9331 H   0  0  0  0  0
   75.8320   50.0186   -0.8338 H   0  0  0  0  0
   77.4362   51.8382    1.0154 H   0  0  0  0  0
   78.3835   52.3653   -1.0732 H   0  0  0  0  0
   78.3025   49.5630    1.0817 H   0  0  0  0  0
   78.3624   49.5308   -0.6978 H   0  0  0  0  0
   79.4048   50.6551    0.2080 H   0  0  0  0  0
   76.9554   48.2757    0.0479 H   0  0  0  0  0
   75.5979   47.2281    2.3995 H   0  0  0  0  0
   76.2137   45.7722    0.5445 H   0  0  0  0  0
   77.9339   46.1522    0.8045 H   0  0  0  0  0
   77.0196   45.2664    2.0498 H   0  0  0  0  0
   76.5167   46.7048    4.3681 H   0  0  0  0  0
   78.9554   48.3242    5.0288 H   0  0  0  0  0
   77.7978   47.5418    7.3773 H   0  0  0  0  0
   76.3757   47.9080    6.2529 H   0  0  0  0  0
   77.6358   50.0967    5.8696 H   0  0  0  0  0
   78.4445   49.6943    7.4347 H   0  0  0  0  0
   76.3074   49.5868    8.5387 H   0  0  0  0  0
   75.4628   49.9083    6.9739 H   0  0  0  0  0
   77.3873   51.9320    7.8588 H   0  0  0  0  0
   73.4124   52.5105    8.0831 H   0  0  0  0  0
   74.0284   50.8761    7.8173 H   0  0  0  0  0
   76.5697   53.9777    8.1735 H   0  0  0  0  0
   80.6906   47.2733    5.7671 H   0  0  0  0  0
   81.5951   45.9736    7.4053 H   0  0  0  0  0
   80.1163   43.4648    6.9587 H   0  0  0  0  0
   79.1348   44.8694    7.6079 H   0  0  0  0  0
   79.7736   43.7716    9.5049 H   0  0  0  0  0
   81.0645   45.0201    9.3078 H   0  0  0  0  0
   82.0961   42.9441    7.9089 H   0  0  0  0  0
   81.2034   42.0861    9.2141 H   0  0  0  0  0
   82.3589   43.4370   10.8821 H   0  0  0  0  0
   83.2692   44.2680    9.5657 H   0  0  0  0  0
   84.5496   42.5159   10.5803 H   0  0  0  0  0
   83.3810   41.3896   10.2027 H   0  0  0  0  0
   84.2221   42.1574    8.9862 H   0  0  0  0  0
   81.2294   45.3863    4.4128 H   0  0  0  0  0
  1  2  1  0  0  0
  2  3  1  0  0  0
  2  5  1  0  0  0
  3  4  2  0  0  0
  3  6  1  0  0  0
  6  7  1  0  0  0
  7  8  1  0  0  0
  7 10  1  0  0  0
  8  9  2  0  0  0
  8 17  1  0  0  0
 10 11  1  0  0  0
 11 12  1  0  0  0
 12 13  1  0  0  0
 13 14  1  0  0  0
 14 15  1  0  0  0
 14 16  2  0  0  0
 17 18  1  0  0  0
 18 19  1  0  0  0
 18 21  1  0  0  0
 19 20  2  0  0  0
 19 24  1  0  0  0
 21 22  1  0  0  0
 21 23  1  0  0  0
 24 25  1  0  0  0
 25 26  1  0  0  0
 25 31  1  0  0  0
 26 27  1  0  0  0
 27 28  1  0  0  0
 28 29  1  0  0  0
 29 30  1  0  0  0
 30 33  1  0  0  0
 30 34  1  0  0  0
 30 35  1  0  0  0
 31 32  2  0  0  0
 31 36  1  0  0  0
 36 37  1  0  0  0
 37 38  1  0  0  0
 37 40  1  0  0  0
 38 39  2  0  0  0
 38 45  1  0  0  0
 40 41  1  0  0  0
 41 42  1  0  0  0
 42 43  2  0  0  0
 42 44  1  0  0  0
 45 46  1  0  0  0
 46 47  1  0  0  0
 46 49  1  0  0  0
 47 48  2  0  0  0
 47 52  1  0  0  0
 49 50  1  0  0  0
 49 51  1  0  0  0
 52 53  1  0  0  0
 53 54  1  0  0  0
 53 56  1  0  0  0
 54 55  2  0  0  0
 54 57  1  0  0  0
 57 58  1  0  0  0
 58 59  1  0  0  0
 58 61  1  0  0  0
 59 60  2  0  0  0
 59 68  1  0  0  0
 61 62  1  0  0  0
 62 63  1  0  0  0
 63 64  1  0  0  0
 64 65  1  0  0  0
 65 66  1  0  0  0
 65 67  2  0  0  0
 68 69  1  0  0  0
 69 70  1  0  0  0
 69 72  1  0  0  0
 70 71  2  0  0  0
 70 77  1  0  0  0
 72 73  1  0  0  0
 73 74  1  0  0  0
 74 75  1  0  0  0
 75 76  1  0  0  0
  1 78  1  0  0  0
  1 79  1  0  0  0
  1 80  1  0  0  0
  2 81  1  0  0  0
  5 82  1  0  0  0
  5 83  1  0  0  0
  5 84  1  0  0  0
  6 85  1  0  0  0
  7 86  1  0  0  0
 10 87  1  0  0  0
 10 88  1  0  0  0
 11 89  1  0  0  0
 11 90  1  0  0  0
 12 91  1  0  0  0
 12 92  1  0  0  0
 13 93  1  0  0  0
 15 94  1  0  0  0
 15 95  1  0  0  0
 16 96  1  0  0  0
 17 97  1  0  0  0
 18 98  1  0  0  0
 21 99  1  0  0  0
 22100  1  0  0  0
 23101  1  0  0  0
 23102  1  0  0  0
 23103  1  0  0  0
 24104  1  0  0  0
 25105  1  0  0  0
 26106  1  0  0  0
 26107  1  0  0  0
 27108  1  0  0  0
 27109  1  0  0  0
 28110  1  0  0  0
 28111  1  0  0  0
 29112  1  0  0  0
 29113  1  0  0  0
 33114  1  0  0  0
 33115  1  0  0  0
 33116  1  0  0  0
 34117  1  0  0  0
 34118  1  0  0  0
 34119  1  0  0  0
 35120  1  0  0  0
 35121  1  0  0  0
 35122  1  0  0  0
 36123  1  0  0  0
 37124  1  0  0  0
 40125  1  0  0  0
 40126  1  0  0  0
 41127  1  0  0  0
 41128  1  0  0  0
 44129  1  0  0  0
 44130  1  0  0  0
 45131  1  0  0  0
 46132  1  0  0  0
 49133  1  0  0  0
 50134  1  0  0  0
 51135  1  0  0  0
 51136  1  0  0  0
 51137  1  0  0  0
 52138  1  0  0  0
 53139  1  0  0  0
 56140  1  0  0  0
 56141  1  0  0  0
 56142  1  0  0  0
 57143  1  0  0  0
 58144  1  0  0  0
 61145  1  0  0  0
 61146  1  0  0  0
 62147  1  0  0  0
 62148  1  0  0  0
 63149  1  0  0  0
 63150  1  0  0  0
 64151  1  0  0  0
 66152  1  0  0  0
 66153  1  0  0  0
 67154  1  0  0  0
 68155  1  0  0  0
 69156  1  0  0  0
 72157  1  0  0  0
 72158  1  0  0  0
 73159  1  0  0  0
 73160  1  0  0  0
 74161  1  0  0  0
 74162  1  0  0  0
 75163  1  0  0  0
 75164  1  0  0  0
 76165  1  0  0  0
 76166  1  0  0  0
 76167  1  0  0  0
 77168  1  0  0  0
M  END
$$$$
