### 
### Created by X-TOOL on Mon Sep 10 21:13:29 2018
### 

@<TRIPOS>MOLECULE
5ix1_ligand
  169   168     1     0     0
SMALL
GAST_HUCK


@<TRIPOS>ATOM
      1 N          69.2420   65.7210   -2.9540 N.4       1 ALA         0.2377
      2 CA         70.3800   65.6440   -3.8380 C.3       1 ALA         0.0621
      3 C          70.6330   64.2100   -4.1510 C.2       1 ALA         0.2264
      4 O          69.7890   63.3740   -3.9250 O.2       1 ALA        -0.3907
      5 CB         71.5960   66.2570   -3.1990 C.3       1 ALA        -0.0040
      6 N          71.7950   63.9250   -4.6970 N.am      1 ARG        -0.2610
      7 CA         72.0740   62.5850   -5.1320 C.3       1 ARG         0.1312
      8 C          72.5780   61.7050   -4.0100 C.2       1 ARG         0.2040
      9 O          73.4390   62.1070   -3.2530 O.2       1 ARG        -0.3944
     10 CB         73.0660   62.6160   -6.2790 C.3       1 ARG        -0.0092
     11 CG         72.4660   62.1750   -7.5950 C.3       1 ARG        -0.0156
     12 CD         73.5450   61.9100   -8.6100 C.3       1 ARG         0.0627
     13 NE         73.4150   60.5810   -9.1640 N.pl3     1 ARG        -0.2723
     14 CZ         74.4180   59.9240   -9.7100 C.cat     1 ARG         0.2882
     15 NH1        74.2300   58.7110  -10.1880 N.pl3     1 ARG        -0.2849
     16 NH2        75.6050   60.4880   -9.7710 N.pl3     1 ARG        -0.2849
     17 N          72.0540   60.4910   -3.9170 N.am      1 THR        -0.2613
     18 CA         72.4300   59.6080   -2.8350 C.3       1 THR         0.1565
     19 C          72.6360   58.1620   -3.2390 C.2       1 THR         0.2065
     20 O          71.7180   57.5160   -3.6790 O.2       1 THR        -0.3943
     21 CB         71.3520   59.6200   -1.7590 C.3       1 THR         0.0924
     22 OG1        70.2360   58.8580   -2.2090 O.3       1 THR        -0.3874
     23 CG2        70.8930   61.0100   -1.5040 C.3       1 THR        -0.0346
     24 N          73.8430   57.6600   -3.0460 N.am      1 M3L        -0.2637
     25 CA         74.1860   56.2740   -3.2500 C.3       1 M3L         0.1310
     26 CB         75.6730   56.1210   -3.0850 C.3       1 M3L        -0.0122
     27 CG         76.4970   56.4260   -4.3040 C.3       1 M3L        -0.0440
     28 CD         77.5990   55.3960   -4.4130 C.3       1 M3L        -0.0123
     29 CE         78.7590   55.7280   -3.5010 C.3       1 M3L        -0.0309
     30 NZ         80.0170   55.3820   -4.1460 N.4       1 M3L         0.2369
     31 C          73.6760   55.4740   -2.1080 C.2       1 M3L         0.2039
     32 O          73.1610   56.0580   -1.1580 O.2       1 M3L        -0.3944
     33 CM1        80.0660   53.9640   -4.4820 C.3       1 M3L        -0.0418
     34 CM2        81.1210   55.6910   -3.2530 C.3       1 M3L        -0.0418
     35 CM3        80.1810   56.1840   -5.3440 C.3       1 M3L        -0.0418
     36 N          73.7860   54.1570   -2.1760 N.am      1 GLN        -0.2636
     37 CA         73.5890   53.2930   -1.0280 C.3       1 GLN         0.1330
     38 C          74.6290   52.2020   -1.0640 C.2       1 GLN         0.2041
     39 O          75.1750   51.9310   -2.1000 O.2       1 GLN        -0.3944
     40 CB         72.1940   52.7120   -1.0120 C.3       1 GLN         0.0045
     41 CG         71.2010   53.6070   -0.3090 C.3       1 GLN         0.0412
     42 CD         70.0680   52.8390    0.3130 C.2       1 GLN         0.1737
     43 OE1        70.0140   51.6240    0.2320 O.2       1 GLN        -0.3973
     44 NE2        69.1530   53.5470    0.9380 N.am      1 GLN        -0.3009
     45 N          74.9440   51.6000    0.0710 N.am      1 THR        -0.2613
     46 CA         75.9730   50.5730    0.0940 C.3       1 THR         0.1565
     47 C          75.8360   49.5260    1.1770 C.2       1 THR         0.2065
     48 O          75.1360   49.7060    2.1590 O.2       1 THR        -0.3943
     49 CB         77.3550   51.2090    0.1290 C.3       1 THR         0.0924
     50 OG1        77.5170   51.9520   -1.0690 O.3       1 THR        -0.3874
     51 CG2        78.4300   50.1680    0.1840 C.3       1 THR        -0.0346
     52 N          76.4930   48.4040    0.9480 N.am      1 ALA        -0.2639
     53 CA         76.5760   47.3530    1.9350 C.3       1 ALA         0.1282
     54 C          77.5820   47.7280    2.9850 C.2       1 ALA         0.2036
     55 O          78.5670   48.3780    2.6910 O.2       1 ALA        -0.3944
     56 CB         76.9630   46.0440    1.2880 C.3       1 ALA        -0.0244
     57 N          77.3470   47.2740    4.2040 N.am      1 ARG        -0.2637
     58 CA         78.2320   47.5600    5.3130 C.3       1 ARG         0.1310
     59 C          78.9420   46.2860    5.6900 C.2       1 ARG         0.2033
     60 O          78.3620   45.2290    5.6290 O.2       1 ARG        -0.3944
     61 CB         77.4240   48.0730    6.5020 C.3       1 ARG        -0.0092
     62 CG         77.5600   49.5560    6.8130 C.3       1 ARG        -0.0156
     63 CD         76.3540   50.0920    7.5740 C.3       1 ARG         0.0627
     64 NE         76.4540   51.5230    7.8140 N.pl3     1 ARG        -0.2723
     65 CZ         75.4220   52.3300    7.9780 C.cat     1 ARG         0.2882
     66 NH1        74.1980   51.8720    7.9580 N.pl3     1 ARG        -0.2849
     67 NH2        75.6200   53.6060    8.1590 N.pl3     1 ARG        -0.2849
     68 N          80.2160   46.4060    6.0180 N.am      1 LYS        -0.2695
     69 CA         80.9920   45.3850    6.7140 C.3       1 LYS         0.0944
     70 C          81.9510   44.6120    5.8560 C.2       1 LYS         0.0601
     71 O          82.7510   43.8520    6.3870 O.co2     1 LYS        -0.5666
     72 CB         80.1170   44.4080    7.5050 C.3       1 LYS        -0.0177
     73 CG         80.6180   44.1110    8.9050 C.3       1 LYS        -0.0446
     74 CD         81.6720   43.0220    8.9100 C.3       1 LYS        -0.0125
     75 CE         82.7890   43.3430    9.8850 C.3       1 LYS        -0.0354
     76 NZ         83.8170   42.2660    9.9160 N.4       1 LYS         0.2185
     77 OXT        81.9160   44.7550    4.6400 O.co2     1 LYS        -0.5666
     78 H1         69.0549   66.6859   -2.7304 H         1 ALA         0.2015
     79 H2         69.4396   65.2120   -2.1067 H         1 ALA         0.2015
     80 H3         68.4365   65.3189   -3.4074 H         1 ALA         0.2015
     81 H4         70.1545   66.1866   -4.7679 H         1 ALA         0.1095
     82 H5         72.4485   66.1864   -3.8906 H         1 ALA         0.0310
     83 H6         71.8325   65.7186   -2.2694 H         1 ALA         0.0310
     84 H7         71.3963   67.3142   -2.9699 H         1 ALA         0.0310
     85 H8         72.4840   64.6410   -4.8092 H         1 ARG         0.1884
     86 H9         71.1347   62.1481   -5.5020 H         1 ARG         0.0800
     87 H10        73.9043   61.9469   -6.0349 H         1 ARG         0.0313
     88 H11        73.4388   63.6448   -6.3916 H         1 ARG         0.0313
     89 H12        71.8021   62.9667   -7.9724 H         1 ARG         0.0301
     90 H13        71.8855   61.2542   -7.4366 H         1 ARG         0.0301
     91 H14        74.5275   62.0034   -8.1243 H         1 ARG         0.0689
     92 H15        73.4655   62.6481   -9.4217 H         1 ARG         0.0689
     93 H16        72.4921   60.1250   -9.1301 H         1 ARG         0.2642
     94 H17        75.0148   58.1982  -10.6147 H         1 ARG         0.2615
     95 H18        73.2982   58.2753  -10.1351 H         1 ARG         0.2615
     96 H19        75.7443   61.4368   -9.3951 H         1 ARG         0.2615
     97 H20        76.3950   59.9808  -10.1946 H         1 ARG         0.2615
     98 H21        71.3928   60.1829   -4.6011 H         1 THR         0.1884
     99 H22        73.3717   59.9839   -2.4086 H         1 THR         0.0826
    100 H23        71.7534   59.1859   -0.8314 H         1 THR         0.0639
    101 H24        70.5111   57.9643   -2.3766 H         1 THR         0.2101
    102 H25        70.1157   61.0025   -0.7257 H         1 THR         0.0257
    103 H26        70.4801   61.4356   -2.4305 H         1 THR         0.0257
    104 H27        71.7434   61.6210   -1.1669 H         1 THR         0.0257
    105 H28        74.5645   58.2806   -2.7390 H         1 M3L         0.1883
    106 H29        73.8228   55.9092   -4.2221 H         1 M3L         0.0800
    107 H30        75.8755   55.0804   -2.7915 H         1 M3L         0.0312
    108 H31        75.9956   56.7983   -2.2805 H         1 M3L         0.0312
    109 H32        76.9365   57.4302   -4.2123 H         1 M3L         0.0269
    110 H33        75.8613   56.3845   -5.2007 H         1 M3L         0.0269
    111 H34        77.9585   55.3655   -5.4521 H         1 M3L         0.0317
    112 H35        77.1964   54.4108   -4.1352 H         1 M3L         0.0317
    113 H36        78.6610   55.1579   -2.5654 H         1 M3L         0.0815
    114 H37        78.7491   56.8049   -3.2770 H         1 M3L         0.0815
    115 H38        81.0265   53.7350   -4.9667 H         1 M3L         0.0778
    116 H39        79.2417   53.7212   -5.1687 H         1 M3L         0.0778
    117 H40        79.9668   53.3660   -3.5641 H         1 M3L         0.0778
    118 H41        81.0939   56.7594   -2.9926 H         1 M3L         0.0778
    119 H42        82.0730   55.4595   -3.7531 H         1 M3L         0.0778
    120 H43        81.0317   55.0881   -2.3373 H         1 M3L         0.0778
    121 H44        79.3580   55.9723   -6.0425 H         1 M3L         0.0778
    122 H45        81.1404   55.9370   -5.8221 H         1 M3L         0.0778
    123 H46        80.1689   57.2507   -5.0757 H         1 M3L         0.0778
    124 H47        74.0145   53.7401   -3.0558 H         1 GLN         0.1883
    125 H48        73.7270   53.8850   -0.1113 H         1 GLN         0.0801
    126 H49        72.2221   51.7419   -0.4943 H         1 GLN         0.0337
    127 H50        71.8618   52.5642   -2.0502 H         1 GLN         0.0337
    128 H51        70.7860   54.3156   -1.0408 H         1 GLN         0.0504
    129 H52        71.7260   54.1623    0.4822 H         1 GLN         0.0504
    130 H53        68.3762   53.0896    1.3708 H         1 GLN         0.1814
    131 H54        69.2340   54.5428    0.9805 H         1 GLN         0.1814
    132 H55        74.4727   51.8521    0.9162 H         1 THR         0.1884
    133 H56        75.8885   50.0346   -0.8615 H         1 THR         0.0826
    134 H57        77.4371   51.8711    1.0036 H         1 THR         0.0639
    135 H58        76.8452   52.6218   -1.1182 H         1 THR         0.2101
    136 H59        79.4143   50.6584    0.2083 H         1 THR         0.0257
    137 H60        78.3629   49.5243   -0.7054 H         1 THR         0.0257
    138 H61        78.3025   49.5567    1.0896 H         1 THR         0.0257
    139 H62        76.9463   48.2782    0.0656 H         1 ALA         0.1883
    140 H63        75.5913   47.2340    2.4106 H         1 ALA         0.0797
    141 H64        77.0205   45.2584    2.0558 H         1 ALA         0.0277
    142 H65        77.9428   46.1518    0.7997 H         1 ALA         0.0277
    143 H66        76.2076   45.7685    0.5374 H         1 ALA         0.0277
    144 H67        76.5329   46.7159    4.3649 H         1 ARG         0.1883
    145 H68        78.9677   48.3214    5.0147 H         1 ARG         0.0800
    146 H69        77.7434   47.5121    7.3927 H         1 ARG         0.0313
    147 H70        76.3623   47.8678    6.3006 H         1 ARG         0.0313
    148 H71        77.6582   50.1097    5.8676 H         1 ARG         0.0301
    149 H72        78.4621   49.7097    7.4234 H         1 ARG         0.0301
    150 H73        76.2854   49.5735    8.5417 H         1 ARG         0.0689
    151 H74        75.4458   49.8930    6.9861 H         1 ARG         0.0689
    152 H75        77.3965   51.9360    7.8592 H         1 ARG         0.2642
    153 H76        73.4049   52.5162    8.0877 H         1 ARG         0.2615
    154 H77        74.0266   50.8668    7.8126 H         1 ARG         0.2615
    155 H78        76.5792   53.9809    8.1770 H         1 ARG         0.2615
    156 H79        74.8172   54.2391    8.2839 H         1 ARG         0.2615
    157 H80        80.6813   47.2563    5.7720 H         1 LYS         0.1875
    158 H81        81.6045   45.9284    7.4485 H         1 LYS         0.0726
    159 H82        80.0696   43.4604    6.9484 H         1 LYS         0.0305
    160 H83        79.1074   44.8374    7.5848 H         1 LYS         0.0305
    161 H84        79.7692   43.7869    9.5250 H         1 LYS         0.0269
    162 H85        81.0527   45.0282    9.3290 H         1 LYS         0.0269
    163 H86        82.0947   42.9273    7.8989 H         1 LYS         0.0317
    164 H87        81.2034   42.0706    9.2021 H         1 LYS         0.0317
    165 H88        82.3617   43.4574   10.8921 H         1 LYS         0.0813
    166 H89        83.2684   44.2851    9.5808 H         1 LYS         0.0813
    167 H90        84.5415   42.5119   10.5722 H         1 LYS         0.1994
    168 H91        84.2181   42.1578    8.9976 H         1 LYS         0.1994
    169 H92        83.3872   41.3993   10.1992 H         1 LYS         0.1994
@<TRIPOS>BOND
     1    1    2 1  
     2    2    3 1  
     3    2    5 1  
     4    3    4 2  
     5    3    6 am 
     6    6    7 1  
     7    7    8 1  
     8    7   10 1  
     9    8    9 2  
    10    8   17 am 
    11   10   11 1  
    12   11   12 1  
    13   12   13 1  
    14   13   14 ar 
    15   14   15 ar 
    16   14   16 ar 
    17   17   18 1  
    18   18   19 1  
    19   18   21 1  
    20   19   20 2  
    21   19   24 am 
    22   21   22 1  
    23   21   23 1  
    24   24   25 1  
    25   25   26 1  
    26   25   31 1  
    27   26   27 1  
    28   27   28 1  
    29   28   29 1  
    30   29   30 1  
    31   30   33 1  
    32   30   34 1  
    33   30   35 1  
    34   31   32 2  
    35   31   36 am 
    36   36   37 1  
    37   37   38 1  
    38   37   40 1  
    39   38   39 2  
    40   38   45 am 
    41   40   41 1  
    42   41   42 1  
    43   42   43 2  
    44   42   44 am 
    45   45   46 1  
    46   46   47 1  
    47   46   49 1  
    48   47   48 2  
    49   47   52 am 
    50   49   50 1  
    51   49   51 1  
    52   52   53 1  
    53   53   54 1  
    54   53   56 1  
    55   54   55 2  
    56   54   57 am 
    57   57   58 1  
    58   58   59 1  
    59   58   61 1  
    60   59   60 2  
    61   59   68 am 
    62   61   62 1  
    63   62   63 1  
    64   63   64 1  
    65   64   65 ar 
    66   65   66 ar 
    67   65   67 ar 
    68   68   69 1  
    69   69   70 1  
    70   69   72 1  
    71   70   71 ar 
    72   70   77 ar 
    73   72   73 1  
    74   73   74 1  
    75   74   75 1  
    76   75   76 1  
    77    1   78 1  
    78    1   79 1  
    79    1   80 1  
    80    2   81 1  
    81    5   82 1  
    82    5   83 1  
    83    5   84 1  
    84    6   85 1  
    85    7   86 1  
    86   10   87 1  
    87   10   88 1  
    88   11   89 1  
    89   11   90 1  
    90   12   91 1  
    91   12   92 1  
    92   13   93 1  
    93   15   94 1  
    94   15   95 1  
    95   16   96 1  
    96   16   97 1  
    97   17   98 1  
    98   18   99 1  
    99   21  100 1  
   100   22  101 1  
   101   23  102 1  
   102   23  103 1  
   103   23  104 1  
   104   24  105 1  
   105   25  106 1  
   106   26  107 1  
   107   26  108 1  
   108   27  109 1  
   109   27  110 1  
   110   28  111 1  
   111   28  112 1  
   112   29  113 1  
   113   29  114 1  
   114   33  115 1  
   115   33  116 1  
   116   33  117 1  
   117   34  118 1  
   118   34  119 1  
   119   34  120 1  
   120   35  121 1  
   121   35  122 1  
   122   35  123 1  
   123   36  124 1  
   124   37  125 1  
   125   40  126 1  
   126   40  127 1  
   127   41  128 1  
   128   41  129 1  
   129   44  130 1  
   130   44  131 1  
   131   45  132 1  
   132   46  133 1  
   133   49  134 1  
   134   50  135 1  
   135   51  136 1  
   136   51  137 1  
   137   51  138 1  
   138   52  139 1  
   139   53  140 1  
   140   56  141 1  
   141   56  142 1  
   142   56  143 1  
   143   57  144 1  
   144   58  145 1  
   145   61  146 1  
   146   61  147 1  
   147   62  148 1  
   148   62  149 1  
   149   63  150 1  
   150   63  151 1  
   151   64  152 1  
   152   66  153 1  
   153   66  154 1  
   154   67  155 1  
   155   67  156 1  
   156   68  157 1  
   157   69  158 1  
   158   72  159 1  
   159   72  160 1  
   160   73  161 1  
   161   73  162 1  
   162   74  163 1  
   163   74  164 1  
   164   75  165 1  
   165   75  166 1  
   166   76  167 1  
   167   76  168 1  
   168   76  169 1  
@<TRIPOS>SUBSTRUCTURE
     1 ALA         1

