5qbv_ligand
  -I-interpret- 

 80 85  0  0  0  0  0  0  0  0999 V2000
   13.6670  -19.0670  -39.6380 C   0  0  0  0  0
   12.8640  -18.3200  -40.4830 C   0  0  0  0  0
   15.3240  -19.3320  -40.0790 Cl  0  0  0  0  0
   11.5450  -18.1320  -40.0930 C   0  0  0  0  0
   16.4160   -6.9770  -42.5540 Cl  0  0  0  0  0
   11.0620  -18.6630  -38.9250 C   0  0  0  0  0
   11.8740  -19.4130  -38.0850 C   0  0  0  0  0
   13.1920  -19.6150  -38.4520 C   0  0  0  0  0
    9.7340  -18.3010  -38.8250 N   0  0  0  0  0
    9.3640  -17.5460  -39.9140 C   0  0  0  0  0
   10.4830  -17.4420  -40.7000 N   0  0  0  0  0
    8.8270  -18.6630  -37.7180 C   0  0  0  0  0
    8.2690  -17.0690  -40.1430 O   0  0  0  0  0
   10.4220  -16.6850  -41.9470 C   0  0  0  0  0
   11.3950  -15.5270  -41.9930 C   0  0  0  0  0
   11.1760  -14.7140  -43.2510 C   0  0  0  0  0
   11.2580  -15.5510  -44.4680 N   0  3  0  0  0
   10.2740  -16.6560  -44.4080 C   0  0  0  0  0
   10.5020  -17.5260  -43.1830 C   0  0  0  0  0
   11.0250  -14.7300  -45.6580 C   0  0  0  0  0
   12.2080  -14.6940  -46.5700 C   0  0  0  0  0
   12.4080  -13.3650  -47.2470 C   0  0  0  0  0
   13.7730  -12.9620  -47.2070 N   0  0  0  0  0
   14.0200  -11.9110  -46.3480 N   0  0  0  0  0
   15.2400  -11.4930  -46.2600 C   0  0  0  0  0
   16.2980  -12.0930  -47.0120 C   0  0  0  0  0
   16.0390  -13.1190  -47.8410 C   0  0  0  0  0
   14.7260  -13.6250  -47.9860 C   0  0  0  0  0
   15.4950  -10.3780  -45.3510 C   0  0  0  0  0
   14.5920   -9.3260  -45.2110 C   0  0  0  0  0
   14.8790   -8.2770  -44.3450 C   0  0  0  0  0
   16.0670   -8.2930  -43.6270 C   0  0  0  0  0
   16.9870   -9.3270  -43.7540 C   0  0  0  0  0
   16.6740  -10.3600  -44.6250 C   0  0  0  0  0
   14.4030  -14.5580  -48.7200 O   0  0  0  0  0
   18.2730   -9.3420  -42.9740 C   0  0  0  0  0
   18.2600  -10.3500  -41.9130 N   0  0  0  0  0
   19.1890  -11.3050  -41.8180 C   0  0  0  0  0
   19.0610  -12.2630  -40.6780 C   0  0  0  0  0
   20.1980  -12.5780  -39.9350 C   0  0  0  0  0
   20.1220  -13.4570  -38.8700 C   0  0  0  0  0
   18.9140  -14.0360  -38.5320 C   0  0  0  0  0
   17.7790  -13.7310  -39.2600 C   0  0  0  0  0
   17.8480  -12.8480  -40.3290 C   0  0  0  0  0
   20.1140  -11.4020  -42.6220 O   0  0  0  0  0
   13.2496  -17.8990  -41.4115 H   0  0  0  0  0
   11.4821  -19.8326  -37.1585 H   0  0  0  0  0
   13.8547  -20.2006  -37.8148 H   0  0  0  0  0
    8.4564  -17.7552  -37.2420 H   0  0  0  0  0
    7.9880  -19.2375  -38.1105 H   0  0  0  0  0
    9.3693  -19.2627  -36.9870 H   0  0  0  0  0
    9.4194  -16.2573  -41.9444 H   0  0  0  0  0
   12.4136  -15.9150  -41.9904 H   0  0  0  0  0
   11.2350  -14.8902  -41.1229 H   0  0  0  0  0
   11.9538  -13.9524  -43.3062 H   0  0  0  0  0
   10.1801  -14.2735  -43.2049 H   0  0  0  0  0
   12.1929  -15.9554  -44.5218 H   0  0  0  0  0
   10.3873  -17.2726  -45.2996 H   0  0  0  0  0
    9.2729  -16.2287  -44.3508 H   0  0  0  0  0
    9.7376  -18.3020  -43.1429 H   0  0  0  0  0
   11.4881  -17.9863  -43.2444 H   0  0  0  0  0
   10.8235  -13.7107  -45.3287 H   0  0  0  0  0
   10.1901  -15.1645  -46.2077 H   0  0  0  0  0
   12.0410  -15.4361  -47.3507 H   0  0  0  0  0
   13.0931  -14.8882  -45.9643 H   0  0  0  0  0
   11.8108  -12.6173  -46.7251 H   0  0  0  0  0
   12.1051  -13.4586  -48.2899 H   0  0  0  0  0
   17.3165  -11.7176  -46.9128 H   0  0  0  0  0
   16.8531  -13.5679  -48.4101 H   0  0  0  0  0
   13.6621   -9.3256  -45.7796 H   0  0  0  0  0
   14.1781   -7.4501  -44.2309 H   0  0  0  0  0
   17.3783  -11.1837  -44.7417 H   0  0  0  0  0
   18.4026   -8.3632  -42.5122 H   0  0  0  0  0
   19.0850   -9.5809  -43.6608 H   0  0  0  0  0
   17.5127  -10.3222  -41.2193 H   0  0  0  0  0
   21.1556  -12.1273  -40.1959 H   0  0  0  0  0
   21.0177  -13.6936  -38.2957 H   0  0  0  0  0
   18.8560  -14.7309  -37.6942 H   0  0  0  0  0
   16.8251  -14.1861  -38.9933 H   0  0  0  0  0
   16.9482  -12.6121  -40.8972 H   0  0  0  0  0
  2  1  4  0  0  0
  1  3  1  0  0  0
  1  8  4  0  0  0
  4  2  4  0  0  0
  4  6  4  0  0  0
 11  4  1  0  0  0
 32  5  1  0  0  0
  6  7  4  0  0  0
  9  6  1  0  0  0
  7  8  4  0  0  0
 10  9  1  0  0  0
  9 12  1  0  0  0
 11 10  1  0  0  0
 10 13  2  0  0  0
 14 11  1  0  0  0
 15 14  1  0  0  0
 19 14  1  0  0  0
 16 15  1  0  0  0
 17 16  1  0  0  0
 17 18  1  0  0  0
 20 17  1  0  0  0
 18 19  1  0  0  0
 21 20  1  0  0  0
 22 21  1  0  0  0
 23 22  1  0  0  0
 24 23  1  0  0  0
 23 28  1  0  0  0
 25 24  2  0  0  0
 25 26  1  0  0  0
 29 25  1  0  0  0
 26 27  2  0  0  0
 27 28  1  0  0  0
 28 35  2  0  0  0
 30 29  4  0  0  0
 29 34  4  0  0  0
 31 30  4  0  0  0
 31 32  4  0  0  0
 32 33  4  0  0  0
 33 34  4  0  0  0
 33 36  1  0  0  0
 36 37  1  0  0  0
 37 38  1  0  0  0
 38 39  1  0  0  0
 38 45  2  0  0  0
 39 40  4  0  0  0
 39 44  4  0  0  0
 40 41  4  0  0  0
 41 42  4  0  0  0
 42 43  4  0  0  0
 43 44  4  0  0  0
  2 46  1  0  0  0
  7 47  1  0  0  0
  8 48  1  0  0  0
 12 49  1  0  0  0
 12 50  1  0  0  0
 12 51  1  0  0  0
 14 52  1  0  0  0
 15 53  1  0  0  0
 15 54  1  0  0  0
 16 55  1  0  0  0
 16 56  1  0  0  0
 17 57  1  0  0  0
 18 58  1  0  0  0
 18 59  1  0  0  0
 19 60  1  0  0  0
 19 61  1  0  0  0
 20 62  1  0  0  0
 20 63  1  0  0  0
 21 64  1  0  0  0
 21 65  1  0  0  0
 22 66  1  0  0  0
 22 67  1  0  0  0
 26 68  1  0  0  0
 27 69  1  0  0  0
 30 70  1  0  0  0
 31 71  1  0  0  0
 34 72  1  0  0  0
 36 73  1  0  0  0
 36 74  1  0  0  0
 37 75  1  0  0  0
 40 76  1  0  0  0
 41 77  1  0  0  0
 42 78  1  0  0  0
 43 79  1  0  0  0
 44 80  1  0  0  0
M  END
$$$$
