5dah_ligand
  -I-interpret- 

136135  0  0  0  0  0  0  0  0999 V2000
   -7.7500   31.1720   -7.8100 N   0  3  0  0  0
   -8.3290   29.9840   -8.4530 C   0  0  0  0  0
   -8.4830   28.8550   -7.4330 C   0  0  0  0  0
   -7.4980   28.4120   -6.8120 O   0  0  0  0  0
   -7.4750   29.5060   -9.6410 C   0  0  0  0  0
   -9.7230   28.4130   -7.2500 N   0  0  0  0  0
  -10.0140   27.3780   -6.2810 C   0  0  0  0  0
   -9.2690   26.0930   -6.6420 C   0  0  0  0  0
   -9.2700   25.6690   -7.8030 O   0  0  0  0  0
  -11.5050   27.1290   -6.2120 C   0  0  0  0  0
   -8.6390   25.4860   -5.6390 N   0  0  0  0  0
   -7.9100   24.2470   -5.8190 C   0  0  0  0  0
   -8.8650   23.0850   -5.9420 C   0  0  0  0  0
  -10.0430   23.2300   -5.6310 O   0  0  0  0  0
   -6.9560   23.9650   -4.6580 C   0  0  0  0  0
   -7.7100   23.6990   -3.4640 O   0  0  0  0  0
   -5.9940   25.1360   -4.4430 C   0  0  0  0  0
   -8.3460   21.9370   -6.3940 N   0  0  0  0  0
   -9.1010   20.6750   -6.4320 C   0  0  0  0  0
   -9.6500   20.3100   -5.0530 C   0  0  0  0  0
  -10.7670   19.7910   -4.9280 O   0  0  0  0  0
   -8.2280   19.5260   -6.9610 C   0  0  0  0  0
   -7.8130   19.6580   -8.4180 C   0  0  0  0  0
   -9.0210   19.5090   -9.3370 C   0  0  0  0  0
   -8.6220   19.6240  -10.7990 C   0  0  0  0  0
   -9.7900   19.5500  -11.7190 N   0  3  0  0  0
   -8.8590   20.5880   -4.0210 N   0  0  0  0  0
   -9.2460   20.2530   -2.6590 C   0  0  0  0  0
  -10.4400   21.1030   -2.2080 C   0  0  0  0  0
  -11.3630   20.6000   -1.5690 O   0  0  0  0  0
   -8.0840   20.4370   -1.7340 C   0  0  0  0  0
  -10.4350   22.3860   -2.5630 N   0  0  0  0  0
  -11.4980   23.2810   -2.1290 C   0  0  0  0  0
  -12.8280   22.9320   -2.7830 C   0  0  0  0  0
  -13.8920   23.3150   -2.2930 O   0  0  0  0  0
  -11.1320   24.7170   -2.4170 C   0  0  0  0  0
  -12.7690   22.1920   -3.8840 N   0  0  0  0  0
  -13.9700   21.8530   -4.6270 C   0  0  0  0  0
  -14.5380   20.5010   -4.1710 C   0  0  0  0  0
  -15.6960   20.1830   -4.4290 O   0  0  0  0  0
  -13.6680   21.8740   -6.1340 C   0  0  0  0  0
  -13.3480   23.2840   -6.6520 C   0  0  0  0  0
  -12.8870   23.3510   -8.1020 C   0  0  0  0  0
  -13.9820   23.1420   -9.0400 N   0  0  0  0  0
  -13.8270   22.6500  -10.2730 C   0  0  0  0  0
  -12.6130   22.3170  -10.7270 N   0  0  0  0  0
  -14.8880   22.5080  -11.0720 N   0  0  0  0  0
  -13.7450   19.7210   -3.4440 N   0  0  0  0  0
  -14.2040   18.3990   -3.0100 C   0  0  0  0  0
  -15.4330   18.4410   -2.1180 C   0  0  0  0  0
  -15.4840   19.1910   -1.1460 O   0  0  0  0  0
  -13.1060   17.6530   -2.2640 C   0  0  0  0  0
  -13.4840   16.2140   -1.9260 C   0  0  0  0  0
  -12.3780   15.4990   -1.1720 C   0  0  0  0  0
  -12.7610   14.0760   -0.8980 C   0  0  0  0  0
  -11.6560   13.3510   -0.2520 N   0  3  0  0  0
  -16.4020   17.5920   -2.4480 N   0  0  0  0  0
  -17.5810   17.3710   -1.6160 C   0  0  0  0  0
  -17.2540   16.5130   -0.3870 C   0  0  0  0  0
  -18.1320   16.1810    0.4160 O   0  0  0  0  0
  -18.6860   16.7020   -2.4400 C   0  0  0  0  0
  -19.0990   17.5380   -3.5110 O   0  0  0  0  0
  -16.1020   16.1270   -0.1620 O   0  0  0  0  0
   -8.3421   31.4576   -7.0301 H   0  0  0  0  0
   -6.8160   30.9496   -7.4656 H   0  0  0  0  0
   -7.6914   31.9304   -8.4896 H   0  0  0  0  0
   -9.3101   30.2622   -8.8378 H   0  0  0  0  0
   -6.4896   29.2087   -9.2821 H   0  0  0  0  0
   -7.9616   28.6549  -10.1174 H   0  0  0  0  0
   -7.3712   30.3170  -10.3618 H   0  0  0  0  0
  -10.4830   28.8102   -7.8022 H   0  0  0  0  0
   -9.6751   27.7091   -5.2993 H   0  0  0  0  0
  -11.8583   26.7760   -7.1808 H   0  0  0  0  0
  -11.7114   26.3755   -5.4520 H   0  0  0  0  0
  -12.0154   28.0568   -5.9537 H   0  0  0  0  0
   -8.6705   25.9080   -4.7109 H   0  0  0  0  0
   -7.3267   24.3601   -6.7328 H   0  0  0  0  0
   -6.3582   23.0867   -4.9016 H   0  0  0  0  0
   -7.1066   23.5227   -2.7385 H   0  0  0  0  0
   -5.4076   25.2937   -5.3482 H   0  0  0  0  0
   -6.5648   26.0366   -4.2168 H   0  0  0  0  0
   -5.3270   24.9086   -3.6114 H   0  0  0  0  0
   -7.3821   21.9372   -6.7276 H   0  0  0  0  0
   -9.9406   20.8244   -7.1109 H   0  0  0  0  0
   -8.8222   18.6156   -6.8828 H   0  0  0  0  0
   -7.3121   19.5269   -6.3701 H   0  0  0  0  0
   -7.0928   18.8740   -8.6521 H   0  0  0  0  0
   -7.3724   20.6431   -8.5714 H   0  0  0  0  0
   -9.7307   20.3040   -9.1080 H   0  0  0  0  0
   -9.4608   18.5250   -9.1743 H   0  0  0  0  0
   -7.9584   18.7913  -11.0320 H   0  0  0  0  0
   -8.1443   20.5934  -10.9409 H   0  0  0  0  0
   -9.4675   19.6320  -12.6832 H   0  0  0  0  0
  -10.2646   18.6560  -11.5928 H   0  0  0  0  0
  -10.4353   20.3115  -11.5092 H   0  0  0  0  0
   -7.9627   21.0454   -4.1875 H   0  0  0  0  0
   -9.5502   19.2067   -2.6314 H   0  0  0  0  0
   -7.2671   19.7857   -2.0448 H   0  0  0  0  0
   -7.7552   21.4757   -1.7678 H   0  0  0  0  0
   -8.3863   20.1832   -0.7180 H   0  0  0  0  0
   -9.6786   22.7457   -3.1451 H   0  0  0  0  0
  -11.6142   23.1553   -1.0525 H   0  0  0  0  0
  -10.2155   24.9709   -1.8843 H   0  0  0  0  0
  -10.9778   24.8434   -3.4886 H   0  0  0  0  0
  -11.9393   25.3699   -2.0853 H   0  0  0  0  0
  -11.8642   21.8557   -4.2137 H   0  0  0  0  0
  -14.7392   22.5983   -4.4247 H   0  0  0  0  0
  -14.5540   21.5166   -6.6589 H   0  0  0  0  0
  -12.7950   21.2456   -6.3102 H   0  0  0  0  0
  -12.5264   23.6625   -6.0439 H   0  0  0  0  0
  -14.2724   23.8582   -6.5900 H   0  0  0  0  0
  -12.1511   22.5626   -8.2599 H   0  0  0  0  0
  -12.4737   24.3438   -8.2801 H   0  0  0  0  0
  -14.9249   23.3862   -8.7371 H   0  0  0  0  0
  -12.5040   21.9583  -11.6756 H   0  0  0  0  0
  -11.7967   22.4219  -10.1244 H   0  0  0  0  0
  -15.8151   22.7749  -10.7409 H   0  0  0  0  0
  -12.8123   20.0441   -3.1869 H   0  0  0  0  0
  -14.4698   17.8801   -3.9309 H   0  0  0  0  0
  -12.9274   18.1779   -1.3255 H   0  0  0  0  0
  -12.2285   17.6221   -2.9099 H   0  0  0  0  0
  -13.6614   15.6796   -2.8593 H   0  0  0  0  0
  -14.3710   16.2339   -1.2928 H   0  0  0  0  0
  -12.2107   16.0087   -0.2232 H   0  0  0  0  0
  -11.4724   15.5105   -1.7785 H   0  0  0  0  0
  -12.9957   13.5875   -1.8437 H   0  0  0  0  0
  -13.6236   14.0669   -0.2317 H   0  0  0  0  0
  -11.9401   12.3873   -0.0761 H   0  0  0  0  0
  -10.8408   13.3599   -0.8650 H   0  0  0  0  0
  -11.4236   13.8049    0.6314 H   0  0  0  0  0
  -16.3176   17.0720   -3.3214 H   0  0  0  0  0
  -17.9258   18.3430   -1.2631 H   0  0  0  0  0
  -19.5420   16.5160   -1.7914 H   0  0  0  0  0
  -18.2991   15.7703   -2.8528 H   0  0  0  0  0
  -19.7902   17.0976   -4.0110 H   0  0  0  0  0
  -15.5175   16.4482   -0.8525 H   0  0  0  0  0
  1  2  1  0  0  0
  2  3  1  0  0  0
  2  5  1  0  0  0
  3  4  2  0  0  0
  3  6  1  0  0  0
  6  7  1  0  0  0
  7  8  1  0  0  0
  7 10  1  0  0  0
  8  9  2  0  0  0
  8 11  1  0  0  0
 11 12  1  0  0  0
 12 13  1  0  0  0
 12 15  1  0  0  0
 13 14  2  0  0  0
 13 18  1  0  0  0
 15 16  1  0  0  0
 15 17  1  0  0  0
 18 19  1  0  0  0
 19 20  1  0  0  0
 19 22  1  0  0  0
 20 21  2  0  0  0
 20 27  1  0  0  0
 22 23  1  0  0  0
 23 24  1  0  0  0
 24 25  1  0  0  0
 25 26  1  0  0  0
 27 28  1  0  0  0
 28 29  1  0  0  0
 28 31  1  0  0  0
 29 30  2  0  0  0
 29 32  1  0  0  0
 32 33  1  0  0  0
 33 34  1  0  0  0
 33 36  1  0  0  0
 34 35  2  0  0  0
 34 37  1  0  0  0
 37 38  1  0  0  0
 38 39  1  0  0  0
 38 41  1  0  0  0
 39 40  2  0  0  0
 39 48  1  0  0  0
 41 42  1  0  0  0
 42 43  1  0  0  0
 43 44  1  0  0  0
 44 45  1  0  0  0
 45 46  1  0  0  0
 45 47  2  0  0  0
 48 49  1  0  0  0
 49 50  1  0  0  0
 49 52  1  0  0  0
 50 51  2  0  0  0
 50 57  1  0  0  0
 52 53  1  0  0  0
 53 54  1  0  0  0
 54 55  1  0  0  0
 55 56  1  0  0  0
 57 58  1  0  0  0
 58 59  1  0  0  0
 58 61  1  0  0  0
 59 60  2  0  0  0
 59 63  1  0  0  0
 61 62  1  0  0  0
  1 64  1  0  0  0
  1 65  1  0  0  0
  1 66  1  0  0  0
  2 67  1  0  0  0
  5 68  1  0  0  0
  5 69  1  0  0  0
  5 70  1  0  0  0
  6 71  1  0  0  0
  7 72  1  0  0  0
 10 73  1  0  0  0
 10 74  1  0  0  0
 10 75  1  0  0  0
 11 76  1  0  0  0
 12 77  1  0  0  0
 15 78  1  0  0  0
 16 79  1  0  0  0
 17 80  1  0  0  0
 17 81  1  0  0  0
 17 82  1  0  0  0
 18 83  1  0  0  0
 19 84  1  0  0  0
 22 85  1  0  0  0
 22 86  1  0  0  0
 23 87  1  0  0  0
 23 88  1  0  0  0
 24 89  1  0  0  0
 24 90  1  0  0  0
 25 91  1  0  0  0
 25 92  1  0  0  0
 26 93  1  0  0  0
 26 94  1  0  0  0
 26 95  1  0  0  0
 27 96  1  0  0  0
 28 97  1  0  0  0
 31 98  1  0  0  0
 31 99  1  0  0  0
 31100  1  0  0  0
 32101  1  0  0  0
 33102  1  0  0  0
 36103  1  0  0  0
 36104  1  0  0  0
 36105  1  0  0  0
 37106  1  0  0  0
 38107  1  0  0  0
 41108  1  0  0  0
 41109  1  0  0  0
 42110  1  0  0  0
 42111  1  0  0  0
 43112  1  0  0  0
 43113  1  0  0  0
 44114  1  0  0  0
 46115  1  0  0  0
 46116  1  0  0  0
 47117  1  0  0  0
 48118  1  0  0  0
 49119  1  0  0  0
 52120  1  0  0  0
 52121  1  0  0  0
 53122  1  0  0  0
 53123  1  0  0  0
 54124  1  0  0  0
 54125  1  0  0  0
 55126  1  0  0  0
 55127  1  0  0  0
 56128  1  0  0  0
 56129  1  0  0  0
 56130  1  0  0  0
 57131  1  0  0  0
 58132  1  0  0  0
 61133  1  0  0  0
 61134  1  0  0  0
 62135  1  0  0  0
 63136  1  0  0  0
M  END
$$$$
