### 
### Created by X-TOOL on Mon Sep 10 21:13:23 2018
### 

@<TRIPOS>MOLECULE
5dah_ligand
  136   135     1     0     0
SMALL
GAST_HUCK


@<TRIPOS>ATOM
      1 N          -7.7500   31.1720   -7.8100 N.4       1 LEU         0.2377
      2 CA         -8.3290   29.9840   -8.4530 C.3       1 LEU         0.0621
      3 C          -8.4830   28.8550   -7.4330 C.2       1 LEU         0.2264
      4 O          -7.4980   28.4120   -6.8120 O.2       1 LEU        -0.3907
      5 CB         -7.4750   29.5060   -9.6410 C.3       1 LEU        -0.0040
      6 N          -9.7230   28.4130   -7.2500 N.am      1 ALA        -0.2613
      7 CA        -10.0140   27.3780   -6.2810 C.3       1 ALA         0.1283
      8 C          -9.2690   26.0930   -6.6420 C.2       1 ALA         0.2037
      9 O          -9.2700   25.6690   -7.8030 O.2       1 ALA        -0.3944
     10 CB        -11.5050   27.1290   -6.2120 C.3       1 ALA        -0.0244
     11 N          -8.6390   25.4860   -5.6390 N.am      1 THR        -0.2613
     12 CA         -7.9100   24.2470   -5.8190 C.3       1 THR         0.1565
     13 C          -8.8650   23.0850   -5.9420 C.2       1 THR         0.2065
     14 O         -10.0430   23.2300   -5.6310 O.2       1 THR        -0.3943
     15 CB         -6.9560   23.9650   -4.6580 C.3       1 THR         0.0924
     16 OG1        -7.7100   23.6990   -3.4640 O.3       1 THR        -0.3874
     17 CG2        -5.9940   25.1360   -4.4430 C.3       1 THR        -0.0346
     18 N          -8.3460   21.9370   -6.3940 N.am      1 LYS        -0.2637
     19 CA         -9.1010   20.6750   -6.4320 C.3       1 LYS         0.1310
     20 C          -9.6500   20.3100   -5.0530 C.2       1 LYS         0.2039
     21 O         -10.7670   19.7910   -4.9280 O.2       1 LYS        -0.3944
     22 CB         -8.2280   19.5260   -6.9610 C.3       1 LYS        -0.0122
     23 CG         -7.8130   19.6580   -8.4180 C.3       1 LYS        -0.0440
     24 CD         -9.0210   19.5090   -9.3370 C.3       1 LYS        -0.0124
     25 CE         -8.6220   19.6240  -10.7990 C.3       1 LYS        -0.0354
     26 NZ         -9.7900   19.5500  -11.7190 N.4       1 LYS         0.2185
     27 N          -8.8590   20.5880   -4.0210 N.am      1 ALA        -0.2640
     28 CA         -9.2460   20.2530   -2.6590 C.3       1 ALA         0.1282
     29 C         -10.4400   21.1030   -2.2080 C.2       1 ALA         0.2036
     30 O         -11.3630   20.6000   -1.5690 O.2       1 ALA        -0.3944
     31 CB         -8.0840   20.4370   -1.7340 C.3       1 ALA        -0.0244
     32 N         -10.4350   22.3860   -2.5630 N.am      1 ALA        -0.2640
     33 CA        -11.4980   23.2810   -2.1290 C.3       1 ALA         0.1282
     34 C         -12.8280   22.9320   -2.7830 C.2       1 ALA         0.2036
     35 O         -13.8920   23.3150   -2.2930 O.2       1 ALA        -0.3944
     36 CB        -11.1320   24.7170   -2.4170 C.3       1 ALA        -0.0244
     37 N         -12.7690   22.1920   -3.8840 N.am      1 ARG        -0.2637
     38 CA        -13.9700   21.8530   -4.6270 C.3       1 ARG         0.1311
     39 C         -14.5380   20.5010   -4.1710 C.2       1 ARG         0.2039
     40 O         -15.6960   20.1830   -4.4290 O.2       1 ARG        -0.3944
     41 CB        -13.6680   21.8740   -6.1340 C.3       1 ARG        -0.0092
     42 CG        -13.3480   23.2840   -6.6520 C.3       1 ARG        -0.0156
     43 CD        -12.8870   23.3510   -8.1020 C.3       1 ARG         0.0627
     44 NE        -13.9820   23.1420   -9.0400 N.pl3     1 ARG        -0.2723
     45 CZ        -13.8270   22.6500  -10.2730 C.cat     1 ARG         0.2882
     46 NH1       -12.6130   22.3170  -10.7270 N.pl3     1 ARG        -0.2849
     47 NH2       -14.8880   22.5080  -11.0720 N.pl3     1 ARG        -0.2849
     48 N         -13.7450   19.7210   -3.4440 N.am      1 LYS        -0.2637
     49 CA        -14.2040   18.3990   -3.0100 C.3       1 LYS         0.1309
     50 C         -15.4330   18.4410   -2.1180 C.2       1 LYS         0.2034
     51 O         -15.4840   19.1910   -1.1460 O.2       1 LYS        -0.3944
     52 CB        -13.1060   17.6530   -2.2640 C.3       1 LYS        -0.0122
     53 CG        -13.4840   16.2140   -1.9260 C.3       1 LYS        -0.0440
     54 CD        -12.3780   15.4990   -1.1720 C.3       1 LYS        -0.0124
     55 CE        -12.7610   14.0760   -0.8980 C.3       1 LYS        -0.0354
     56 NZ        -11.6560   13.3510   -0.2520 N.4       1 LYS         0.2185
     57 N         -16.4020   17.5920   -2.4480 N.am      1 SER        -0.2672
     58 CA        -17.5810   17.3710   -1.6160 C.3       1 SER         0.1173
     59 C         -17.2540   16.5130   -0.3870 C.2       1 SER         0.0623
     60 O         -18.1320   16.1810    0.4160 O.co2     1 SER        -0.5665
     61 CB        -18.6860   16.7020   -2.4400 C.3       1 SER         0.0789
     62 OG        -19.0990   17.5380   -3.5110 O.3       1 SER        -0.3910
     63 OXT       -16.1020   16.1270   -0.1620 O.co2     1 SER        -0.5665
     64 H1         -7.6531   31.9089   -8.4909 H         1 LEU         0.2015
     65 H2         -6.8440   30.9420   -7.4327 H         1 LEU         0.2015
     66 H3         -8.3557   31.4800   -7.0655 H         1 LEU         0.2015
     67 H4         -9.3265   30.2509   -8.8321 H         1 LEU         0.1095
     68 H5         -7.9406   28.6181  -10.0935 H         1 LEU         0.0310
     69 H6         -6.4652   29.2505   -9.2874 H         1 LEU         0.0310
     70 H7         -7.4089   30.3078  -10.3912 H         1 LEU         0.0310
     71 H8        -10.4681   28.8024   -7.7914 H         1 ALA         0.1884
     72 H9         -9.6700   27.7158   -5.2923 H         1 ALA         0.0797
     73 H10       -11.7113   26.3411   -5.4726 H         1 ALA         0.0277
     74 H11       -11.8695   26.8096   -7.1995 H         1 ALA         0.0277
     75 H12       -12.0180   28.0552   -5.9137 H         1 ALA         0.0277
     76 H13        -8.6699   25.8997   -4.7291 H         1 THR         0.1884
     77 H14        -7.3221   24.3259   -6.7453 H         1 THR         0.0826
     78 H15        -6.3628   23.0717   -4.9030 H         1 THR         0.0639
     79 H16        -7.1129   23.5245   -2.7460 H         1 THR         0.2101
     80 H17        -5.3203   24.9077   -3.6040 H         1 THR         0.0257
     81 H18        -6.5688   26.0456   -4.2146 H         1 THR         0.0257
     82 H19        -5.4015   25.2962   -5.3558 H         1 THR         0.0257
     83 H20        -7.4010   21.9372   -6.7211 H         1 LYS         0.1883
     84 H21        -9.9510   20.8080   -7.1174 H         1 LYS         0.0800
     85 H22        -8.7924   18.5884   -6.8498 H         1 LYS         0.0312
     86 H23        -7.3156   19.4797   -6.3484 H         1 LYS         0.0312
     87 H24        -7.0786   18.8747   -8.6569 H         1 LYS         0.0269
     88 H25        -7.3587   20.6472   -8.5761 H         1 LYS         0.0269
     89 H26        -9.7496   20.2987   -9.1016 H         1 LYS         0.0317
     90 H27        -9.4804   18.5240   -9.1677 H         1 LYS         0.0317
     91 H28        -7.9305   18.8035  -11.0410 H         1 LYS         0.0813
     92 H29        -8.1146   20.5881  -10.9509 H         1 LYS         0.0813
     93 H30        -9.4725   19.6309  -12.6723 H         1 LYS         0.1994
     94 H31       -10.4285   20.3022  -11.5126 H         1 LYS         0.1994
     95 H32       -10.2598   18.6668  -11.5952 H         1 LYS         0.1994
     96 H33        -7.9802   21.0365   -4.1843 H         1 ALA         0.1883
     97 H34        -9.5463   19.1951   -2.6334 H         1 ALA         0.0797
     98 H35        -8.3878   20.1811   -0.7082 H         1 ALA         0.0277
     99 H36        -7.7512   21.4849   -1.7672 H         1 ALA         0.0277
    100 H37        -7.2589   19.7802   -2.0466 H         1 ALA         0.0277
    101 H38        -9.6934   22.7386   -3.1337 H         1 ALA         0.1883
    102 H39       -11.6141   23.1674   -1.0411 H         1 ALA         0.0797
    103 H40       -11.9460   25.3770   -2.0826 H         1 ALA         0.0277
    104 H41       -10.9762   24.8459   -3.4982 H         1 ALA         0.0277
    105 H42       -10.2072   24.9745   -1.8799 H         1 ALA         0.0277
    106 H43       -11.8820   21.8623   -4.2073 H         1 ARG         0.1883
    107 H44       -14.7296   22.6217   -4.4218 H         1 ARG         0.0800
    108 H45       -14.5459   21.4908   -6.6747 H         1 ARG         0.0313
    109 H46       -12.8037   21.2223   -6.3294 H         1 ARG         0.0313
    110 H47       -12.5515   23.7059   -6.0215 H         1 ARG         0.0301
    111 H48       -14.2562   23.8970   -6.5547 H         1 ARG         0.0301
    112 H49       -12.1261   22.5741   -8.2677 H         1 ARG         0.0689
    113 H50       -12.4462   24.3415   -8.2878 H         1 ARG         0.0689
    114 H51       -14.9341   23.3886   -8.7341 H         1 ARG         0.2642
    115 H52       -12.5051   21.9387  -11.6789 H         1 ARG         0.2615
    116 H53       -11.7865   22.4390  -10.1245 H         1 ARG         0.2615
    117 H54       -15.8265   22.7616  -10.7318 H         1 ARG         0.2615
    118 H55       -14.7676   22.1450  -12.0284 H         1 ARG         0.2615
    119 H56       -12.8306   20.0378   -3.1919 H         1 LYS         0.1883
    120 H57       -14.4608   17.8279   -3.9144 H         1 LYS         0.0800
    121 H58       -12.8932   18.1884   -1.3270 H         1 LYS         0.0312
    122 H59       -12.2029   17.6395   -2.8919 H         1 LYS         0.0312
    123 H60       -13.6855   15.6705   -2.8609 H         1 LYS         0.0269
    124 H61       -14.3909   16.2216   -1.3035 H         1 LYS         0.0269
    125 H62       -12.1989   16.0154   -0.2174 H         1 LYS         0.0317
    126 H63       -11.4590   15.5161   -1.7762 H         1 LYS         0.0317
    127 H64       -13.0103   13.5806   -1.8480 H         1 LYS         0.0813
    128 H65       -13.6385   14.0603   -0.2349 H         1 LYS         0.0813
    129 H66       -11.9357   12.3984   -0.0776 H         1 LYS         0.1994
    130 H67       -11.4255   13.7986    0.6212 H         1 LYS         0.1994
    131 H68       -10.8497   13.3591   -0.8569 H         1 LYS         0.1994
    132 H69       -16.3193   17.0822   -3.3043 H         1 SER         0.1876
    133 H70       -17.9456   18.3486   -1.2676 H         1 SER         0.0749
    134 H71       -19.5487   16.5000   -1.7881 H         1 SER         0.0599
    135 H72       -18.3059   15.7544   -2.8493 H         1 SER         0.0599
    136 H73       -18.3578   17.7124   -4.0791 H         1 SER         0.2096
@<TRIPOS>BOND
     1    1    2 1  
     2    2    3 1  
     3    2    5 1  
     4    3    4 2  
     5    3    6 am 
     6    6    7 1  
     7    7    8 1  
     8    7   10 1  
     9    8    9 2  
    10    8   11 am 
    11   11   12 1  
    12   12   13 1  
    13   12   15 1  
    14   13   14 2  
    15   13   18 am 
    16   15   16 1  
    17   15   17 1  
    18   18   19 1  
    19   19   20 1  
    20   19   22 1  
    21   20   21 2  
    22   20   27 am 
    23   22   23 1  
    24   23   24 1  
    25   24   25 1  
    26   25   26 1  
    27   27   28 1  
    28   28   29 1  
    29   28   31 1  
    30   29   30 2  
    31   29   32 am 
    32   32   33 1  
    33   33   34 1  
    34   33   36 1  
    35   34   35 2  
    36   34   37 am 
    37   37   38 1  
    38   38   39 1  
    39   38   41 1  
    40   39   40 2  
    41   39   48 am 
    42   41   42 1  
    43   42   43 1  
    44   43   44 1  
    45   44   45 ar 
    46   45   46 ar 
    47   45   47 ar 
    48   48   49 1  
    49   49   50 1  
    50   49   52 1  
    51   50   51 2  
    52   50   57 am 
    53   52   53 1  
    54   53   54 1  
    55   54   55 1  
    56   55   56 1  
    57   57   58 1  
    58   58   59 1  
    59   58   61 1  
    60   59   60 ar 
    61   59   63 ar 
    62   61   62 1  
    63    1   64 1  
    64    1   65 1  
    65    1   66 1  
    66    2   67 1  
    67    5   68 1  
    68    5   69 1  
    69    5   70 1  
    70    6   71 1  
    71    7   72 1  
    72   10   73 1  
    73   10   74 1  
    74   10   75 1  
    75   11   76 1  
    76   12   77 1  
    77   15   78 1  
    78   16   79 1  
    79   17   80 1  
    80   17   81 1  
    81   17   82 1  
    82   18   83 1  
    83   19   84 1  
    84   22   85 1  
    85   22   86 1  
    86   23   87 1  
    87   23   88 1  
    88   24   89 1  
    89   24   90 1  
    90   25   91 1  
    91   25   92 1  
    92   26   93 1  
    93   26   94 1  
    94   26   95 1  
    95   27   96 1  
    96   28   97 1  
    97   31   98 1  
    98   31   99 1  
    99   31  100 1  
   100   32  101 1  
   101   33  102 1  
   102   36  103 1  
   103   36  104 1  
   104   36  105 1  
   105   37  106 1  
   106   38  107 1  
   107   41  108 1  
   108   41  109 1  
   109   42  110 1  
   110   42  111 1  
   111   43  112 1  
   112   43  113 1  
   113   44  114 1  
   114   46  115 1  
   115   46  116 1  
   116   47  117 1  
   117   47  118 1  
   118   48  119 1  
   119   49  120 1  
   120   52  121 1  
   121   52  122 1  
   122   53  123 1  
   123   53  124 1  
   124   54  125 1  
   125   54  126 1  
   126   55  127 1  
   127   55  128 1  
   128   56  129 1  
   129   56  130 1  
   130   56  131 1  
   131   57  132 1  
   132   58  133 1  
   133   61  134 1  
   134   61  135 1  
   135   62  136 1  
@<TRIPOS>SUBSTRUCTURE
     1 LEU         1

