1z2b_ligand
  -I-interpret- 

118126  0  0  0  0  0  0  0  0999 V2000
   94.5350   70.5200   -8.1990 C   0  0  0  0  0
   93.1840   70.0640   -7.6620 C   0  0  0  0  0
   92.1860   69.7000   -8.7540 C   0  0  0  0  0
   92.6970   68.5560   -9.4190 O   0  0  0  0  0
   90.8100   69.4440   -8.0870 C   0  0  0  0  0
   92.0490   70.8100   -9.7860 C   0  0  0  0  0
   90.9130   70.5330  -10.7560 C   0  0  0  0  0
   91.3910   69.5210  -11.8120 C   0  0  0  0  0
   89.6380   70.1930   -9.9770 C   0  0  0  0  0
   89.8180   69.0450   -9.0890 N   0  3  0  0  0
   90.3390   67.7600   -9.5970 C   0  0  0  0  0
   89.5650   66.9590  -10.6220 C   0  0  0  0  0
   88.9490   67.4680  -11.9110 C   0  0  0  0  0
   87.7400   66.9300  -12.2820 C   0  0  0  0  0
   86.9450   65.9690  -11.6740 C   0  0  0  0  0
   85.7470   65.6060  -12.2610 C   0  0  0  0  0
   85.3750   66.2020  -13.4560 C   0  0  0  0  0
   86.1730   67.1660  -14.0630 C   0  0  0  0  0
   87.3580   67.5250  -13.4650 C   0  0  0  0  0
   88.2900   68.3810  -13.8120 N   0  0  0  0  0
   89.2730   68.4100  -12.9000 C   0  0  0  0  0
   90.5010   69.3110  -13.0470 C   0  0  0  0  0
   91.1890   68.5510  -14.1680 C   0  0  0  0  0
   90.7070   68.5840  -15.3070 O   0  0  0  0  0
   92.3020   67.8130  -13.8930 O   0  0  0  0  0
   92.6980   67.0670  -15.0610 C   0  0  0  0  0
   90.1510   70.7410  -13.5700 C   0  0  0  0  0
   88.9500   71.3230  -13.1830 C   0  0  0  0  0
   88.5970   72.5930  -13.6000 C   0  0  0  0  0
   87.3710   73.4280  -13.3440 C   0  0  0  0  0
   86.2230   72.7720  -14.1220 C   0  0  0  0  0
   86.9340   73.3870  -11.8720 C   0  0  0  0  0
   85.5570   72.7280  -11.9390 C   0  0  0  0  0
   85.0830   73.0920  -13.2740 N   0  3  0  0  0
   83.9930   72.2450  -13.7050 C   0  0  0  0  0
   83.6550   72.7240  -14.9520 C   0  0  0  0  0
   84.6200   73.2310  -15.8250 C   0  0  0  0  0
   85.9840   73.3050  -15.5440 C   0  0  0  0  0
   86.7500   72.4580  -16.5530 C   0  0  0  0  0
   85.9230   71.2710  -17.0190 C   0  0  0  0  0
   86.4780   74.7560  -15.7740 C   0  0  0  0  0
   85.5910   75.4470  -16.5940 O   0  0  0  0  0
   86.1840   75.3800  -17.8010 C   0  0  0  0  0
   85.4010   75.3820  -18.9540 C   0  0  0  0  0
   87.4120   75.3000  -17.8460 O   0  0  0  0  0
   86.6910   75.5940  -14.5270 C   0  0  0  0  0
   87.0350   77.1300  -14.7670 C   0  0  0  0  0
   87.3290   77.8760  -13.8170 O   0  0  0  0  0
   87.0090   77.7070  -16.0210 O   0  0  0  0  0
   87.6480   79.0230  -16.0920 C   0  0  0  0  0
   85.4790   75.5310  -13.7800 O   0  0  0  0  0
   87.8090   74.8150  -13.7930 C   0  0  0  0  0
   88.9190   74.5030  -14.7200 N   0  0  0  0  0
   89.9960   75.4440  -14.4170 C   0  0  0  0  0
   89.4370   73.3120  -14.4300 C   0  0  0  0  0
   90.6400   72.7490  -14.8210 C   0  0  0  0  0
   91.0040   71.4830  -14.3980 C   0  0  0  0  0
   92.1900   70.9810  -14.8110 O   0  0  0  0  0
   92.7970   71.7550  -15.8420 C   0  0  0  0  0
   94.9776   69.7198   -8.7922 H   0  0  0  0  0
   94.3973   71.4031   -8.8229 H   0  0  0  0  0
   95.1932   70.7622   -7.3646 H   0  0  0  0  0
   92.7606   70.8931   -7.0950 H   0  0  0  0  0
   93.3550   69.1692   -7.0636 H   0  0  0  0  0
   92.7938   67.8378   -8.7893 H   0  0  0  0  0
   90.4751   70.3620   -7.6042 H   0  0  0  0  0
   90.9155   68.6428   -7.3556 H   0  0  0  0  0
   92.9785   70.8712  -10.3520 H   0  0  0  0  0
   91.8364   71.7425   -9.2632 H   0  0  0  0  0
   90.6281   71.4109  -11.3359 H   0  0  0  0  0
   91.4193   68.5574  -11.3034 H   0  0  0  0  0
   92.3326   69.9167  -12.1927 H   0  0  0  0  0
   88.8586   69.9439  -10.6971 H   0  0  0  0  0
   89.3763   71.0559   -9.3646 H   0  0  0  0  0
   88.8583   68.8470   -8.8060 H   0  0  0  0  0
   90.3602   67.1160   -8.7178 H   0  0  0  0  0
   91.2597   68.0323  -10.1130 H   0  0  0  0  0
   88.6768   66.6835  -10.0534 H   0  0  0  0  0
   90.3386   66.2919  -11.0022 H   0  0  0  0  0
   87.2625   65.5038  -10.7408 H   0  0  0  0  0
   85.1042   64.8618  -11.7908 H   0  0  0  0  0
   84.4380   65.9092  -13.9296 H   0  0  0  0  0
   85.8634   67.6302  -14.9993 H   0  0  0  0  0
   91.8880   66.4001  -15.3565 H   0  0  0  0  0
   92.9166   67.7581  -15.8751 H   0  0  0  0  0
   93.5878   66.4807  -14.8316 H   0  0  0  0  0
   88.2715   70.7662  -12.5367 H   0  0  0  0  0
   86.4249   71.7152  -14.2968 H   0  0  0  0  0
   86.9070   74.3749  -11.4122 H   0  0  0  0  0
   87.6331   72.8401  -11.2394 H   0  0  0  0  0
   84.8884   73.0649  -11.1468 H   0  0  0  0  0
   85.5966   71.6498  -11.7841 H   0  0  0  0  0
   84.7592   74.0588  -13.3037 H   0  0  0  0  0
   83.1516   72.2787  -13.0129 H   0  0  0  0  0
   84.2802   71.1940  -13.7355 H   0  0  0  0  0
   82.6108   72.7068  -15.2641 H   0  0  0  0  0
   84.2829   73.5950  -16.7956 H   0  0  0  0  0
   87.6554   72.0837  -16.0753 H   0  0  0  0  0
   86.9855   73.0777  -17.4182 H   0  0  0  0  0
   85.6708   70.6466  -16.1619 H   0  0  0  0  0
   85.0081   71.6299  -17.4904 H   0  0  0  0  0
   86.4991   70.6882  -17.7377 H   0  0  0  0  0
   87.4580   74.6207  -16.2316 H   0  0  0  0  0
   85.6781   76.2314  -19.5784 H   0  0  0  0  0
   85.5651   74.4558  -19.5047 H   0  0  0  0  0
   84.3496   75.4604  -18.6775 H   0  0  0  0  0
   87.1404   79.7090  -15.4139 H   0  0  0  0  0
   88.6952   78.9331  -15.8032 H   0  0  0  0  0
   87.5823   79.4028  -17.1116 H   0  0  0  0  0
   85.5712   76.0509  -12.9783 H   0  0  0  0  0
   88.0790   75.4581  -12.9554 H   0  0  0  0  0
   89.6393   76.4630  -14.5671 H   0  0  0  0  0
   90.3079   75.3158  -13.3805 H   0  0  0  0  0
   90.8410   75.2523  -15.0783 H   0  0  0  0  0
   91.3100   73.3113  -15.4715 H   0  0  0  0  0
   92.1340   71.7901  -16.7064 H   0  0  0  0  0
   92.9752   72.7668  -15.4779 H   0  0  0  0  0
   93.7445   71.2981  -16.1276 H   0  0  0  0  0
  2  1  1  0  0  0
  3  2  1  0  0  0
  3  4  1  0  0  0
  3  5  1  0  0  0
  6  3  1  0  0  0
 10  5  1  0  0  0
  7  6  1  0  0  0
  8  7  1  0  0  0
  7  9  1  0  0  0
 22  8  1  0  0  0
  9 10  1  0  0  0
 11 10  1  0  0  0
 12 11  1  0  0  0
 13 12  1  0  0  0
 13 14  4  0  0  0
 21 13  4  0  0  0
 14 15  4  0  0  0
 19 14  4  0  0  0
 15 16  4  0  0  0
 17 16  4  0  0  0
 18 17  4  0  0  0
 19 18  4  0  0  0
 20 19  4  0  0  0
 21 20  4  0  0  0
 22 21  1  0  0  0
 22 23  1  0  0  0
 27 22  1  0  0  0
 23 24  2  0  0  0
 23 25  1  0  0  0
 25 26  1  0  0  0
 27 28  4  0  0  0
 57 27  4  0  0  0
 28 29  4  0  0  0
 29 30  1  0  0  0
 55 29  4  0  0  0
 30 31  1  0  0  0
 30 32  1  0  0  0
 52 30  1  0  0  0
 31 34  1  0  0  0
 31 38  1  0  0  0
 32 33  1  0  0  0
 33 34  1  0  0  0
 34 35  1  0  0  0
 35 36  1  0  0  0
 37 36  2  0  0  0
 38 37  1  0  0  0
 38 39  1  0  0  0
 41 38  1  0  0  0
 39 40  1  0  0  0
 41 42  1  0  0  0
 46 41  1  0  0  0
 42 43  1  0  0  0
 43 44  1  0  0  0
 43 45  2  0  0  0
 46 47  1  0  0  0
 46 51  1  0  0  0
 52 46  1  0  0  0
 47 48  2  0  0  0
 47 49  1  0  0  0
 49 50  1  0  0  0
 53 52  1  0  0  0
 53 54  1  0  0  0
 55 53  1  0  0  0
 56 55  4  0  0  0
 57 56  4  0  0  0
 58 57  1  0  0  0
 58 59  1  0  0  0
  1 60  1  0  0  0
  1 61  1  0  0  0
  1 62  1  0  0  0
  2 63  1  0  0  0
  2 64  1  0  0  0
  4 65  1  0  0  0
  5 66  1  0  0  0
  5 67  1  0  0  0
  6 68  1  0  0  0
  6 69  1  0  0  0
  7 70  1  0  0  0
  8 71  1  0  0  0
  8 72  1  0  0  0
  9 73  1  0  0  0
  9 74  1  0  0  0
 10 75  1  0  0  0
 11 76  1  0  0  0
 11 77  1  0  0  0
 12 78  1  0  0  0
 12 79  1  0  0  0
 15 80  1  0  0  0
 16 81  1  0  0  0
 17 82  1  0  0  0
 18 83  1  0  0  0
 26 84  1  0  0  0
 26 85  1  0  0  0
 26 86  1  0  0  0
 28 87  1  0  0  0
 31 88  1  0  0  0
 32 89  1  0  0  0
 32 90  1  0  0  0
 33 91  1  0  0  0
 33 92  1  0  0  0
 34 93  1  0  0  0
 35 94  1  0  0  0
 35 95  1  0  0  0
 36 96  1  0  0  0
 37 97  1  0  0  0
 39 98  1  0  0  0
 39 99  1  0  0  0
 40100  1  0  0  0
 40101  1  0  0  0
 40102  1  0  0  0
 41103  1  0  0  0
 44104  1  0  0  0
 44105  1  0  0  0
 44106  1  0  0  0
 50107  1  0  0  0
 50108  1  0  0  0
 50109  1  0  0  0
 51110  1  0  0  0
 52111  1  0  0  0
 54112  1  0  0  0
 54113  1  0  0  0
 54114  1  0  0  0
 56115  1  0  0  0
 59116  1  0  0  0
 59117  1  0  0  0
 59118  1  0  0  0
M  END
$$$$
