6fff_ligand
  -I-interpret- 

 59 63  0  0  0  0  0  0  0  0999 V2000
   42.7010   16.7180    9.3310 C   0  0  0  0  0
   40.7970   17.7650   12.1370 C   0  0  0  0  0
   38.8290   16.5980   12.9170 C   0  0  0  0  0
   39.1040   16.9830   14.2100 C   0  0  0  0  0
   40.2210   17.7530   14.4790 C   0  0  0  0  0
   41.0800   18.1530   13.4570 C   0  0  0  0  0
   39.6790   15.0900    5.8700 C   0  0  0  0  0
   41.0320   15.0830    6.5120 C   0  0  0  0  0
   41.7810   14.1270    6.3980 O   0  0  0  0  0
   41.4140   16.1890    7.2340 N   0  0  0  0  0
   42.7370   16.2150    7.8960 C   0  0  0  0  0
   41.4630   17.3700    9.7730 N   0  0  0  0  0
   41.6970   18.1550   10.9860 C   0  0  0  0  0
   39.6680   16.9860   11.8880 C   0  0  0  0  0
   42.2920   18.9950   13.7840 C   0  0  0  0  0
   42.2030   20.2980   13.2330 O   0  0  0  0  0
   40.6900   17.9520    8.6970 C   0  0  0  0  0
   39.9590   19.1070    8.9440 C   0  0  0  0  0
   39.1830   19.6960    7.9470 C   0  0  0  0  0
   39.1730   19.1120    6.6830 C   0  0  0  0  0
   39.8880   17.9580    6.4180 C   0  0  0  0  0
   40.6300   17.3580    7.4310 C   0  0  0  0  0
   38.4530   20.9540    8.2250 C   0  0  0  0  0
   37.2100   21.2620    7.6880 C   0  0  0  0  0
   36.5590   22.4030    7.9360 N   0  0  0  0  0
   37.2040   23.2370    8.7500 C   0  0  0  0  0
   38.3940   23.0500    9.3140 N   0  0  0  0  0
   38.9840   21.9390    9.0430 C   0  0  0  0  0
   36.5190   24.5510    9.0560 C   0  0  0  0  0
   37.3590   25.5800    9.1230 N   0  0  0  0  0
   35.2970   24.6480    9.2460 O   0  0  0  0  0
   43.6840   17.1080    7.1120 C   0  0  0  0  0
   45.1490   16.8710    7.3000 C   0  0  0  0  0
   44.5090   16.5320    6.0000 C   0  0  0  0  0
   43.4804   17.4767    9.4017 H   0  0  0  0  0
   42.8154   15.8354    9.9603 H   0  0  0  0  0
   37.9510   15.9881   12.7044 H   0  0  0  0  0
   38.4417   16.6811   15.0213 H   0  0  0  0  0
   40.4327   18.0515   15.5057 H   0  0  0  0  0
   39.7898   14.9840    4.7908 H   0  0  0  0  0
   39.0893   14.2601    6.2593 H   0  0  0  0  0
   39.1767   16.0310    6.0943 H   0  0  0  0  0
   43.0757   15.1792    7.9189 H   0  0  0  0  0
   42.7259   17.9774   11.2988 H   0  0  0  0  0
   41.4910   19.1983   10.7469 H   0  0  0  0  0
   39.4430   16.6780   10.8669 H   0  0  0  0  0
   43.1690   18.5064   13.3595 H   0  0  0  0  0
   42.3574   19.0888   14.8680 H   0  0  0  0  0
   42.9903   20.7964   13.4641 H   0  0  0  0  0
   39.9927   19.5606    9.9345 H   0  0  0  0  0
   38.5899   19.5736    5.8862 H   0  0  0  0  0
   39.8704   17.5203    5.4199 H   0  0  0  0  0
   36.7392   20.5334    7.0280 H   0  0  0  0  0
   39.9643   21.7611    9.4851 H   0  0  0  0  0
   37.0071   26.5123    9.3408 H   0  0  0  0  0
   38.3551   25.4369    8.9566 H   0  0  0  0  0
   43.0037   17.9564    7.1870 H   0  0  0  0  0
   46.0375   16.9147    7.9299 H   0  0  0  0  0
   44.5846   16.1468    4.9832 H   0  0  0  0  0
  1 11  1  0  0  0
 12  1  1  0  0  0
  2  6  4  0  0  0
 13  2  1  0  0  0
  2 14  4  0  0  0
  3  4  4  0  0  0
 14  3  4  0  0  0
  5  4  4  0  0  0
  6  5  4  0  0  0
  6 15  1  0  0  0
  8  7  1  0  0  0
  8  9  2  0  0  0
 10  8  1  0  0  0
 11 10  1  0  0  0
 10 22  1  0  0  0
 11 32  1  0  0  0
 12 13  1  0  0  0
 12 17  1  0  0  0
 15 16  1  0  0  0
 17 18  4  0  0  0
 17 22  4  0  0  0
 18 19  4  0  0  0
 19 20  4  0  0  0
 19 23  1  0  0  0
 20 21  4  0  0  0
 21 22  4  0  0  0
 23 24  4  0  0  0
 23 28  4  0  0  0
 24 25  4  0  0  0
 25 26  4  0  0  0
 26 27  4  0  0  0
 26 29  1  0  0  0
 27 28  4  0  0  0
 29 30  1  0  0  0
 29 31  2  0  0  0
 32 33  1  0  0  0
 32 34  1  0  0  0
 33 34  2  0  0  0
  1 35  1  0  0  0
  1 36  1  0  0  0
  3 37  1  0  0  0
  4 38  1  0  0  0
  5 39  1  0  0  0
  7 40  1  0  0  0
  7 41  1  0  0  0
  7 42  1  0  0  0
 11 43  1  0  0  0
 13 44  1  0  0  0
 13 45  1  0  0  0
 14 46  1  0  0  0
 15 47  1  0  0  0
 15 48  1  0  0  0
 16 49  1  0  0  0
 18 50  1  0  0  0
 20 51  1  0  0  0
 21 52  1  0  0  0
 24 53  1  0  0  0
 28 54  1  0  0  0
 30 55  1  0  0  0
 30 56  1  0  0  0
 32 57  1  0  0  0
 33 58  1  0  0  0
 34 59  1  0  0  0
M  END
$$$$
