4j0z_ligand
  -I-interpret- 

 42 44  0  0  0  0  0  0  0  0999 V2000
   20.8010   40.2680   -7.9590 C   0  0  0  0  0
   20.4760   39.7600   -9.1790 C   0  0  0  0  0
   19.1580   39.4950   -9.4890 C   0  0  0  0  0
   18.1470   39.7770   -8.5990 C   0  0  0  0  0
   18.4540   40.2680   -7.3680 C   0  0  0  0  0
   16.7350   39.5410   -8.9930 C   0  0  0  0  0
   16.7650   38.1150   -9.4930 C   0  0  0  0  0
   16.2970   40.6260  -10.0440 C   0  0  0  0  0
   16.0810   42.0100   -9.4250 C   0  0  0  0  0
   15.1000   40.6910   -7.6750 C   0  0  0  0  0
   15.7640   39.5970   -7.9240 N   0  0  0  0  0
   19.7610   40.4930   -7.0490 C   0  0  0  0  0
   18.8410   39.0550  -10.7330 F   0  0  0  0  0
   15.2030   41.8740   -8.2930 O   0  0  0  0  0
   15.0370   40.3190  -10.5190 F   0  0  0  0  0
   14.1920   40.6860   -6.6620 N   0  0  0  0  0
   19.9500   41.0650   -5.8200 N   0  0  0  0  0
   21.0640   41.6530   -5.3590 C   0  0  0  0  0
   20.9400   42.2850   -4.0400 C   0  0  0  0  0
   22.0800   41.6850   -6.0030 O   0  0  0  0  0
   19.8070   42.0360   -3.3620 N   0  0  0  0  0
   19.5530   42.5760   -2.1760 C   0  0  0  0  0
   20.4860   43.5020   -1.6590 C   0  0  0  0  0
   21.6970   43.8250   -2.3880 C   0  0  0  0  0
   21.9210   43.2040   -3.6040 C   0  0  0  0  0
   20.2460   44.1130   -0.3750 C   0  0  0  0  0
   20.0850   44.6090    0.6470 N   0  0  0  0  0
   15.4420   37.7840   -9.7610 F   0  0  0  0  0
   21.8356   40.4921   -7.6992 H   0  0  0  0  0
   21.2580   39.5622   -9.9121 H   0  0  0  0  0
   17.6655   40.4790   -6.6456 H   0  0  0  0  0
   17.2016   37.4432   -8.7540 H   0  0  0  0  0
   17.3876   38.0180  -10.3824 H   0  0  0  0  0
   17.0911   40.6346  -10.7906 H   0  0  0  0  0
   15.6372   42.6807  -10.1607 H   0  0  0  0  0
   17.0361   42.4274   -9.1061 H   0  0  0  0  0
   15.5955   38.7673   -7.3552 H   0  0  0  0  0
   14.0423   39.8379   -6.1154 H   0  0  0  0  0
   19.1539   41.0415   -5.1828 H   0  0  0  0  0
   18.6535   42.3132   -1.6192 H   0  0  0  0  0
   22.4147   44.5408   -1.9872 H   0  0  0  0  0
   22.8112   43.4135   -4.1971 H   0  0  0  0  0
  1  2  4  0  0  0
  1 12  4  0  0  0
  2  3  4  0  0  0
  3  4  4  0  0  0
  3 13  1  0  0  0
  4  5  4  0  0  0
  4  6  1  0  0  0
  5 12  4  0  0  0
  6  7  1  0  0  0
  6  8  1  0  0  0
  6 11  1  0  0  0
  7 28  1  0  0  0
  8  9  1  0  0  0
  8 15  1  0  0  0
  9 14  1  0  0  0
 11 10  1  0  0  0
 10 14  1  0  0  0
 10 16  2  0  0  0
 12 17  1  0  0  0
 17 18  1  0  0  0
 18 19  1  0  0  0
 18 20  2  0  0  0
 19 21  4  0  0  0
 19 25  4  0  0  0
 21 22  4  0  0  0
 22 23  4  0  0  0
 23 24  4  0  0  0
 23 26  1  0  0  0
 24 25  4  0  0  0
 26 27  3  0  0  0
  1 29  1  0  0  0
  2 30  1  0  0  0
  5 31  1  0  0  0
  7 32  1  0  0  0
  7 33  1  0  0  0
  8 34  1  0  0  0
  9 35  1  0  0  0
  9 36  1  0  0  0
 11 37  1  0  0  0
 16 38  1  0  0  0
 17 39  1  0  0  0
 22 40  1  0  0  0
 24 41  1  0  0  0
 25 42  1  0  0  0
M  END
$$$$
