3avm_ligand
  -I-interpret- 

134134  0  0  0  0  0  0  0  0999 V2000
    9.7350  -53.5700   15.2880 N   0  0  0  0  0
   10.2950  -53.4410   16.6410 C   0  0  0  0  0
    9.4390  -52.5610   17.5970 C   0  0  0  0  0
    9.8500  -52.2270   18.7380 O   0  0  0  0  0
   11.7100  -52.8630   16.4970 C   0  0  0  0  0
   12.6510  -53.6710   17.1720 O   0  0  0  0  0
    8.2580  -52.1590   17.1200 N   0  0  0  0  0
    7.3660  -51.2550   17.8700 C   0  0  0  0  0
    7.9440  -49.8090   17.9670 C   0  0  0  0  0
    7.6830  -49.0780   18.9330 O   0  0  0  0  0
    7.0310  -51.8950   19.2550 C   0  0  0  0  0
    6.0140  -51.1840   20.1380 C   0  0  0  0  0
    4.6800  -50.9290   19.4670 C   0  0  0  0  0
    4.0760  -49.7090   20.0140 N   0  0  0  0  0
    4.2160  -48.4840   19.4970 C   0  0  0  0  0
    4.9210  -48.2890   18.3860 N   0  0  0  0  0
    3.6320  -47.4410   20.0890 N   0  0  0  0  0
    8.7110  -49.3950   16.9530 N   0  0  0  0  0
    9.3330  -48.0590   16.9300 C   0  0  0  0  0
    8.8070  -47.3260   15.6990 C   0  0  0  0  0
    8.5070  -47.9870   14.7240 O   0  0  0  0  0
   10.8560  -48.2180   16.8350 C   0  0  0  0  0
   11.4740  -49.0680   17.9370 C   0  0  0  0  0
   11.3600  -48.3720   19.2840 C   0  0  0  0  0
   11.6620  -49.4100   20.3550 C   0  0  0  0  0
   12.0080  -48.8400   21.6740 N   0  3  0  0  0
    8.7200  -45.9900   15.7130 N   0  0  0  0  0
    8.3090  -45.1850   14.5150 C   0  0  0  0  0
    9.1410  -45.5760   13.3070 C   0  0  0  0  0
    8.6170  -45.6570   12.1690 O   0  0  0  0  0
    8.4470  -43.6150   14.7940 C   0  0  0  0  0
    7.2870  -43.1600   15.6650 C   0  0  0  0  0
    8.5050  -42.7250   13.5120 C   0  0  0  0  0
    5.9800  -42.9580   14.8830 C   0  0  0  0  0
   10.4390  -45.8280   13.5610 N   0  0  0  0  0
   11.3840  -46.0490   12.4620 C   0  0  0  0  0
   11.6030  -47.5260   12.2140 C   0  0  0  0  0
   12.3700  -47.8760   11.3430 O   0  0  0  0  0
   12.7680  -45.3450   12.6630 C   0  0  0  0  0
   13.4120  -45.6510   14.0160 C   0  0  0  0  0
   14.6060  -45.2850   14.1740 O   0  0  0  0  0
   12.7720  -46.2970   14.8970 O   0  0  0  0  0
   10.9710  -48.3720   13.0210 N   0  0  0  0  0
   11.0310  -49.8190   12.8230 C   0  0  0  0  0
    9.7370  -50.3940   13.4180 C   0  0  0  0  0
    9.6730  -50.7700   14.6030 O   0  0  0  0  0
   12.3230  -50.4150   13.4190 C   0  0  0  0  0
   12.5490  -51.8770   13.0100 C   0  0  0  0  0
   11.7750  -52.4610   12.2510 O   0  0  0  0  0
   13.6000  -52.4730   13.5410 N   0  0  0  0  0
    8.6790  -50.3830   12.5960 N   0  0  0  0  0
    7.3430  -50.7470   13.1240 C   0  0  0  0  0
    7.3440  -52.1890   13.6580 C   0  0  0  0  0
    6.6630  -52.4950   14.6590 O   0  0  0  0  0
    6.2250  -50.5180   12.1010 C   0  0  0  0  0
    5.8270  -49.0240   11.9110 C   0  0  0  0  0
    4.6610  -48.9550   10.9290 C   0  0  0  0  0
    5.4570  -48.2980   13.2200 C   0  0  0  0  0
    8.1380  -53.0410   13.0000 N   0  0  0  0  0
    8.4190  -54.4250   13.4490 C   0  0  0  0  0
    8.8570  -54.4990   14.9160 C   0  0  0  0  0
    8.3950  -55.3590   15.6770 O   0  0  0  0  0
    9.4980  -55.0630   12.5560 C   0  0  0  0  0
    8.9040  -55.8070   11.3610 C   0  0  0  0  0
    7.6610  -55.9100   11.2850 O   0  0  0  0  0
    9.6760  -56.2910   10.5020 O   0  0  0  0  0
   10.0413  -52.8992   14.5832 H   0  0  0  0  0
   10.3059  -54.4282   17.1030 H   0  0  0  0  0
   11.7280  -51.8636   16.9316 H   0  0  0  0  0
   11.9702  -52.8284   15.4391 H   0  0  0  0  0
   13.5275  -53.2929   17.0698 H   0  0  0  0  0
    7.9616  -52.4899   16.2018 H   0  0  0  0  0
    6.4282  -51.1368   17.3272 H   0  0  0  0  0
    7.9652  -51.8794   19.8164 H   0  0  0  0  0
    6.5909  -52.8661   19.0281 H   0  0  0  0  0
    6.4354  -50.2123   20.3957 H   0  0  0  0  0
    5.8246  -51.8303   20.9951 H   0  0  0  0  0
    4.0163  -51.7740   19.6501 H   0  0  0  0  0
    4.8326  -50.8069   18.3947 H   0  0  0  0  0
    3.5049  -49.8026   20.8539 H   0  0  0  0  0
    5.3632  -49.0796   17.9172 H   0  0  0  0  0
    3.7289  -46.5076   19.6892 H   0  0  0  0  0
    3.0886  -47.5769   20.9414 H   0  0  0  0  0
    8.8713  -50.0260   16.1678 H   0  0  0  0  0
    9.0936  -47.4979   17.8333 H   0  0  0  0  0
   11.2863  -47.2204   16.9232 H   0  0  0  0  0
   11.0653  -48.7201   15.8904 H   0  0  0  0  0
   12.5286  -49.2245   17.7104 H   0  0  0  0  0
   10.9434  -50.0189   17.9867 H   0  0  0  0  0
   10.3597  -47.9608   19.4197 H   0  0  0  0  0
   12.0623  -47.5407   19.3468 H   0  0  0  0  0
   12.5269  -49.9795   20.0149 H   0  0  0  0  0
   10.7583  -50.0043   20.4895 H   0  0  0  0  0
   12.1951  -49.5969   22.3316 H   0  0  0  0  0
   12.8381  -48.2543   21.5828 H   0  0  0  0  0
   11.2288  -48.2768   22.0147 H   0  0  0  0  0
    8.9433  -45.4968   16.5775 H   0  0  0  0  0
    7.2603  -45.4009   14.3108 H   0  0  0  0  0
    9.4069  -43.4829   15.2932 H   0  0  0  0  0
    7.5607  -42.1995   16.1015 H   0  0  0  0  0
    7.1089  -43.9376   16.4077 H   0  0  0  0  0
    9.3655  -43.0146   12.9088 H   0  0  0  0  0
    7.5914  -42.8631   12.9338 H   0  0  0  0  0
    8.5985  -41.6784   13.8018 H   0  0  0  0  0
    6.1311  -42.1993   14.1151 H   0  0  0  0  0
    5.6894  -43.8983   14.4144 H   0  0  0  0  0
    5.1955  -42.6336   15.5667 H   0  0  0  0  0
   10.7676  -45.8655   14.5259 H   0  0  0  0  0
   10.9155  -45.5910   11.5909 H   0  0  0  0  0
   12.6004  -44.2691   12.6139 H   0  0  0  0  0
   13.4402  -45.7127   11.8877 H   0  0  0  0  0
   11.8840  -46.4758   14.5791 H   0  0  0  0  0
   10.4285  -48.0009   13.8010 H   0  0  0  0  0
   11.0844  -50.0851   11.7673 H   0  0  0  0  0
   12.2351  -50.3825   14.5050 H   0  0  0  0  0
   13.1634  -49.8304   13.0446 H   0  0  0  0  0
   13.7940  -53.4512   13.3267 H   0  0  0  0  0
   14.2183  -51.9554   14.1657 H   0  0  0  0  0
    8.7921  -50.1263   11.6153 H   0  0  0  0  0
    7.1301  -50.0780   13.9578 H   0  0  0  0  0
    5.3420  -51.0412   12.4680 H   0  0  0  0  0
    6.5914  -50.8773   11.1394 H   0  0  0  0  0
    6.7049  -48.5044   11.5270 H   0  0  0  0  0
    4.9658  -49.3838    9.9744 H   0  0  0  0  0
    3.8173  -49.5176   11.3287 H   0  0  0  0  0
    4.3700  -47.9145   10.7850 H   0  0  0  0  0
    4.6081  -48.7995   13.6847 H   0  0  0  0  0
    6.3094  -48.3191   13.8991 H   0  0  0  0  0
    5.1929  -47.2640   12.9983 H   0  0  0  0  0
    8.5764  -52.7187   12.1373 H   0  0  0  0  0
    7.4836  -54.9778   13.3623 H   0  0  0  0  0
   10.0511  -55.7830   13.1592 H   0  0  0  0  0
   10.1329  -54.2641   12.1729 H   0  0  0  0  0
   10.5846  -56.1012   10.7468 H   0  0  0  0  0
  1  2  1  0  0  0
  1 61  1  0  0  0
  2  3  1  0  0  0
  2  5  1  0  0  0
  3  4  2  0  0  0
  3  7  1  0  0  0
  5  6  1  0  0  0
  7  8  1  0  0  0
  8  9  1  0  0  0
  8 11  1  0  0  0
  9 10  2  0  0  0
  9 18  1  0  0  0
 11 12  1  0  0  0
 12 13  1  0  0  0
 13 14  1  0  0  0
 14 15  1  0  0  0
 15 16  2  0  0  0
 15 17  1  0  0  0
 18 19  1  0  0  0
 19 20  1  0  0  0
 19 22  1  0  0  0
 20 21  2  0  0  0
 20 27  1  0  0  0
 22 23  1  0  0  0
 23 24  1  0  0  0
 24 25  1  0  0  0
 25 26  1  0  0  0
 27 28  1  0  0  0
 28 29  1  0  0  0
 28 31  1  0  0  0
 29 30  2  0  0  0
 29 35  1  0  0  0
 31 32  1  0  0  0
 31 33  1  0  0  0
 32 34  1  0  0  0
 35 36  1  0  0  0
 36 37  1  0  0  0
 36 39  1  0  0  0
 37 38  2  0  0  0
 37 43  1  0  0  0
 39 40  1  0  0  0
 40 41  2  0  0  0
 40 42  1  0  0  0
 43 44  1  0  0  0
 44 45  1  0  0  0
 44 47  1  0  0  0
 45 46  2  0  0  0
 45 51  1  0  0  0
 47 48  1  0  0  0
 48 49  2  0  0  0
 48 50  1  0  0  0
 51 52  1  0  0  0
 52 53  1  0  0  0
 52 55  1  0  0  0
 53 54  2  0  0  0
 53 59  1  0  0  0
 55 56  1  0  0  0
 56 57  1  0  0  0
 56 58  1  0  0  0
 59 60  1  0  0  0
 60 61  1  0  0  0
 60 63  1  0  0  0
 61 62  2  0  0  0
 63 64  1  0  0  0
 64 65  2  0  0  0
 64 66  1  0  0  0
  1 67  1  0  0  0
  2 68  1  0  0  0
  5 69  1  0  0  0
  5 70  1  0  0  0
  6 71  1  0  0  0
  7 72  1  0  0  0
  8 73  1  0  0  0
 11 74  1  0  0  0
 11 75  1  0  0  0
 12 76  1  0  0  0
 12 77  1  0  0  0
 13 78  1  0  0  0
 13 79  1  0  0  0
 14 80  1  0  0  0
 16 81  1  0  0  0
 17 82  1  0  0  0
 17 83  1  0  0  0
 18 84  1  0  0  0
 19 85  1  0  0  0
 22 86  1  0  0  0
 22 87  1  0  0  0
 23 88  1  0  0  0
 23 89  1  0  0  0
 24 90  1  0  0  0
 24 91  1  0  0  0
 25 92  1  0  0  0
 25 93  1  0  0  0
 26 94  1  0  0  0
 26 95  1  0  0  0
 26 96  1  0  0  0
 27 97  1  0  0  0
 28 98  1  0  0  0
 31 99  1  0  0  0
 32100  1  0  0  0
 32101  1  0  0  0
 33102  1  0  0  0
 33103  1  0  0  0
 33104  1  0  0  0
 34105  1  0  0  0
 34106  1  0  0  0
 34107  1  0  0  0
 35108  1  0  0  0
 36109  1  0  0  0
 39110  1  0  0  0
 39111  1  0  0  0
 42112  1  0  0  0
 43113  1  0  0  0
 44114  1  0  0  0
 47115  1  0  0  0
 47116  1  0  0  0
 50117  1  0  0  0
 50118  1  0  0  0
 51119  1  0  0  0
 52120  1  0  0  0
 55121  1  0  0  0
 55122  1  0  0  0
 56123  1  0  0  0
 57124  1  0  0  0
 57125  1  0  0  0
 57126  1  0  0  0
 58127  1  0  0  0
 58128  1  0  0  0
 58129  1  0  0  0
 59130  1  0  0  0
 60131  1  0  0  0
 63132  1  0  0  0
 63133  1  0  0  0
 66134  1  0  0  0
M  END
$$$$
