2onz_ligand
  -I-interpret- 

 37 39  0  0  0  0  0  0  0  0999 V2000
   29.1460   45.7480   19.2140 C   0  0  0  0  0
   26.9180   44.6960   11.9630 C   0  0  0  0  0
   25.2000   46.2630   10.4130 C   0  0  0  0  0
   25.0010   46.1560   11.7850 C   0  0  0  0  0
   26.2550   45.5750    9.8170 C   0  0  0  0  0
   25.8560   45.3750   12.5590 C   0  0  0  0  0
   27.1100   44.7940   10.5880 C   0  0  0  0  0
   28.3710   45.8250   16.8110 C   0  0  0  0  0
   28.6330   43.6650   17.8420 C   0  0  0  0  0
   29.3070   44.7710   20.3830 C   0  0  0  0  0
   29.0260   42.7920   19.0370 C   0  0  0  0  0
   24.1760   47.2740    9.4500 Cl  0  0  0  0  0
   27.8750   43.9340   12.7760 N   0  0  0  0  0
   27.3940   43.0540   14.0630 S   0  0  0  0  0
   25.9700   42.9350   14.0530 O   0  0  0  0  0
   28.0080   41.6890   13.9830 O   0  0  0  0  0
   27.9030   43.8300   15.5460 C   0  0  0  0  0
   28.2310   43.0580   16.6520 C   0  0  0  0  0
   27.9740   45.2220   15.6270 C   0  0  0  0  0
   28.7020   45.0500   17.9260 C   0  0  0  0  0
   29.9480   43.5350   19.9100 N   0  3  0  0  0
   30.1138   46.2138   19.0284 H   0  0  0  0  0
   28.3798   46.4743   19.4850 H   0  0  0  0  0
   24.1729   46.6852   12.2565 H   0  0  0  0  0
   26.4112   45.6491    8.7408 H   0  0  0  0  0
   25.6944   45.2944   13.6339 H   0  0  0  0  0
   27.9321   44.2576   10.1142 H   0  0  0  0  0
   28.4253   46.9119   16.8725 H   0  0  0  0  0
   28.3258   44.5348   20.7947 H   0  0  0  0  0
   29.9276   45.2282   21.1536 H   0  0  0  0  0
   29.5172   41.8874   18.6783 H   0  0  0  0  0
   28.1315   42.5246   19.5995 H   0  0  0  0  0
   28.8646   43.9555   12.5299 H   0  0  0  0  0
   28.1741   41.9712   16.5903 H   0  0  0  0  0
   27.7180   45.8333   14.7617 H   0  0  0  0  0
   30.1908   42.9546   20.7128 H   0  0  0  0  0
   30.7890   43.7732   19.3844 H   0  0  0  0  0
  1 10  1  0  0  0
 20  1  1  0  0  0
  2  6  4  0  0  0
  2  7  4  0  0  0
 13  2  1  0  0  0
  4  3  4  0  0  0
  5  3  4  0  0  0
  3 12  1  0  0  0
  6  4  4  0  0  0
  7  5  4  0  0  0
  8 19  4  0  0  0
 20  8  4  0  0  0
  9 11  1  0  0  0
 18  9  4  0  0  0
  9 20  4  0  0  0
 21 10  1  0  0  0
 11 21  1  0  0  0
 14 13  1  0  0  0
 14 15  2  0  0  0
 14 16  2  0  0  0
 17 14  1  0  0  0
 17 18  4  0  0  0
 17 19  4  0  0  0
  1 22  1  0  0  0
  1 23  1  0  0  0
  4 24  1  0  0  0
  5 25  1  0  0  0
  6 26  1  0  0  0
  7 27  1  0  0  0
  8 28  1  0  0  0
 10 29  1  0  0  0
 10 30  1  0  0  0
 11 31  1  0  0  0
 11 32  1  0  0  0
 13 33  1  0  0  0
 18 34  1  0  0  0
 19 35  1  0  0  0
 21 36  1  0  0  0
 21 37  1  0  0  0
M  END
$$$$
