4ezz_ligand
  -I-interpret- 

129129  0  0  0  0  0  0  0  0999 V2000
   61.2050   84.2090   24.0870 N   0  3  0  0  0
   60.4790   83.8350   22.8250 C   0  0  0  0  0
   58.9910   84.2490   22.8740 C   0  0  0  0  0
   58.2310   84.0500   21.9120 O   0  0  0  0  0
   60.5590   82.3190   22.6130 C   0  0  0  0  0
   59.8370   81.5290   23.7040 C   0  0  0  0  0
   60.1360   80.0240   23.7350 C   0  0  0  0  0
   59.1640   79.2580   23.6240 O   0  0  0  0  0
   61.3110   79.5840   23.8840 O   0  0  0  0  0
   58.5540   84.7350   24.0310 N   0  0  0  0  0
   57.2520   85.3710   24.1960 C   0  0  0  0  0
   57.4470   86.4250   25.2620 C   0  0  0  0  0
   58.3480   86.2770   26.0940 O   0  0  0  0  0
   56.1530   84.3740   24.6470 C   0  0  0  0  0
   55.4500   83.5750   23.5370 C   0  0  0  0  0
   54.3970   82.6070   24.0810 C   0  0  0  0  0
   54.8340   84.4960   22.4700 C   0  0  0  0  0
   56.6420   87.5090   25.2030 N   0  0  0  0  0
   56.7350   88.4810   26.2770 C   0  0  0  0  0
   56.4370   87.7360   27.5760 C   0  0  0  0  0
   55.7980   86.6690   27.5680 O   0  0  0  0  0
   55.6110   89.5030   25.9590 C   0  0  0  0  0
   55.3670   89.3770   24.4780 C   0  0  0  0  0
   55.6910   87.9260   24.1320 C   0  0  0  0  0
   56.9360   88.2790   28.6680 N   0  0  0  0  0
   56.5300   87.7990   30.0090 C   0  0  0  0  0
   55.0600   87.8250   30.3400 C   0  0  0  0  0
   54.3210   88.6670   29.8250 O   0  0  0  0  0
   57.2320   88.6600   31.0390 C   0  0  0  0  0
   58.6830   88.2330   31.2230 C   0  0  0  0  0
   59.4320   89.3600   31.9540 C   0  0  0  0  0
   58.7160   86.9590   32.0390 C   0  0  0  0  0
   54.6420   86.9580   31.2590 N   0  0  0  0  0
   53.2480   86.9060   31.7110 C   0  0  0  0  0
   53.1050   87.5560   33.0600 C   0  0  0  0  0
   53.8040   87.2040   34.0190 O   0  0  0  0  0
   52.7340   85.4580   31.8070 C   0  0  0  0  0
   51.6110   85.3180   32.8270 C   0  0  0  0  0
   52.2590   85.0120   30.4480 C   0  0  0  0  0
   52.2180   88.5350   33.1170 N   0  0  0  0  0
   51.9360   89.2220   34.3410 C   0  0  0  0  0
   51.2610   88.1570   35.1780 C   0  0  0  0  0
   50.2350   87.6370   34.7910 O   0  0  0  0  0
   51.0140   90.4090   34.0140 C   0  0  0  0  0
   50.5410   91.2020   35.2170 C   0  0  0  0  0
   51.6670   91.9930   35.8680 C   0  0  0  0  0
   51.1260   93.1620   36.7000 C   0  0  0  0  0
   50.2700   92.6970   37.8350 N   0  3  0  0  0
   51.8350   87.7550   36.2920 N   0  0  0  0  0
   51.1710   86.6610   37.0240 C   0  0  0  0  0
   50.3620   87.1620   38.2300 C   0  0  0  0  0
   50.7730   87.1470   39.3800 O   0  0  0  0  0
   52.0790   85.4040   37.3220 C   0  0  0  0  0
   51.2740   84.2830   38.0410 C   0  0  0  0  0
   53.3220   85.7730   38.1240 C   0  0  0  0  0
   51.4750   82.8480   37.5460 C   0  0  0  0  0
   49.2380   87.6370   38.0640 O   0  0  0  0  0
   61.1490   85.2182   24.2237 H   0  0  0  0  0
   60.7741   83.7329   24.8795 H   0  0  0  0  0
   62.1828   83.9287   24.0111 H   0  0  0  0  0
   60.9591   84.3651   22.0024 H   0  0  0  0  0
   61.6109   82.0340   22.6354 H   0  0  0  0  0
   60.0790   82.0894   21.6617 H   0  0  0  0  0
   58.7698   81.6301   23.5067 H   0  0  0  0  0
   60.1769   81.9334   24.6574 H   0  0  0  0  0
   61.9217   80.3217   23.9510 H   0  0  0  0  0
   59.1614   84.6592   24.8469 H   0  0  0  0  0
   56.9146   85.7824   23.2447 H   0  0  0  0  0
   55.3778   84.9754   25.1218 H   0  0  0  0  0
   56.6541   83.6382   25.2760 H   0  0  0  0  0
   56.2284   82.9762   23.0640 H   0  0  0  0  0
   54.8735   81.8948   24.7547 H   0  0  0  0  0
   53.6352   83.1677   24.6227 H   0  0  0  0  0
   53.9348   82.0714   23.2518 H   0  0  0  0  0
   54.0991   85.1511   22.9378 H   0  0  0  0  0
   55.6201   85.0973   22.0133 H   0  0  0  0  0
   54.3479   83.8899   21.7055 H   0  0  0  0  0
   57.7035   88.9725   26.3696 H   0  0  0  0  0
   55.9015   90.5172   26.2330 H   0  0  0  0  0
   54.7077   89.2977   26.5334 H   0  0  0  0  0
   55.9879   90.0706   23.9110 H   0  0  0  0  0
   54.3381   89.6284   24.2204 H   0  0  0  0  0
   54.8006   87.2981   24.0999 H   0  0  0  0  0
   56.1179   87.8225   23.1344 H   0  0  0  0  0
   57.6107   89.0399   28.5887 H   0  0  0  0  0
   56.8058   86.7445   30.0158 H   0  0  0  0  0
   56.7150   88.5508   31.9924 H   0  0  0  0  0
   57.2160   89.6942   30.6951 H   0  0  0  0  0
   59.1605   88.0487   30.2607 H   0  0  0  0  0
   59.3837   90.2721   31.3591 H   0  0  0  0  0
   58.9677   89.5330   32.9249 H   0  0  0  0  0
   60.4736   89.0709   32.0943 H   0  0  0  0  0
   58.2572   87.1397   33.0111 H   0  0  0  0  0
   58.1642   86.1788   31.5147 H   0  0  0  0  0
   59.7504   86.6441   32.1769 H   0  0  0  0  0
   55.3150   86.3067   31.6632 H   0  0  0  0  0
   52.6550   87.4436   30.9711 H   0  0  0  0  0
   53.5556   84.8259   32.1439 H   0  0  0  0  0
   51.9754   85.6166   33.8099 H   0  0  0  0  0
   50.7772   85.9575   32.5375 H   0  0  0  0  0
   51.2798   84.2801   32.8607 H   0  0  0  0  0
   51.4538   85.6660   30.1133 H   0  0  0  0  0
   53.0870   85.0616   29.7408 H   0  0  0  0  0
   51.8939   83.9869   30.5105 H   0  0  0  0  0
   51.7225   88.8074   32.2681 H   0  0  0  0  0
   52.7968   89.6399   34.8630 H   0  0  0  0  0
   50.1241   89.9954   33.5395 H   0  0  0  0  0
   51.5905   91.0938   33.3921 H   0  0  0  0  0
   50.1525   90.4987   35.9536 H   0  0  0  0  0
   49.7833   91.9089   34.8789 H   0  0  0  0  0
   52.3051   92.3957   35.0814 H   0  0  0  0  0
   52.2197   91.3257   36.5293 H   0  0  0  0  0
   50.5163   93.7887   36.0492 H   0  0  0  0  0
   51.9750   93.7051   37.1151 H   0  0  0  0  0
   49.9336   93.5050   38.3588 H   0  0  0  0  0
   49.4754   92.1735   37.4677 H   0  0  0  0  0
   50.8194   92.0965   38.4498 H   0  0  0  0  0
   52.6976   88.1798   36.6325 H   0  0  0  0  0
   50.4383   86.2613   36.3229 H   0  0  0  0  0
   52.4132   85.0208   36.3579 H   0  0  0  0  0
   50.2235   84.5127   37.8626 H   0  0  0  0  0
   51.6175   84.2896   39.0754 H   0  0  0  0  0
   53.9142   86.4953   37.5621 H   0  0  0  0  0
   53.0219   86.2098   39.0765 H   0  0  0  0  0
   53.9155   84.8768   38.3047 H   0  0  0  0  0
   51.1895   82.7839   36.4960 H   0  0  0  0  0
   52.5233   82.5704   37.6564 H   0  0  0  0  0
   50.8548   82.1718   38.1344 H   0  0  0  0  0
   49.0114   87.6018   37.1318 H   0  0  0  0  0
  1  2  1  0  0  0
  2  3  1  0  0  0
  2  5  1  0  0  0
  3  4  2  0  0  0
  3 10  1  0  0  0
  5  6  1  0  0  0
  6  7  1  0  0  0
  7  8  2  0  0  0
  7  9  1  0  0  0
 10 11  1  0  0  0
 11 12  1  0  0  0
 11 14  1  0  0  0
 12 13  2  0  0  0
 12 18  1  0  0  0
 14 15  1  0  0  0
 15 16  1  0  0  0
 15 17  1  0  0  0
 18 19  1  0  0  0
 18 24  1  0  0  0
 19 20  1  0  0  0
 19 22  1  0  0  0
 20 21  2  0  0  0
 20 25  1  0  0  0
 22 23  1  0  0  0
 23 24  1  0  0  0
 25 26  1  0  0  0
 26 27  1  0  0  0
 26 29  1  0  0  0
 27 28  2  0  0  0
 27 33  1  0  0  0
 29 30  1  0  0  0
 30 31  1  0  0  0
 30 32  1  0  0  0
 33 34  1  0  0  0
 34 35  1  0  0  0
 34 37  1  0  0  0
 35 36  2  0  0  0
 35 40  1  0  0  0
 37 38  1  0  0  0
 37 39  1  0  0  0
 40 41  1  0  0  0
 41 42  1  0  0  0
 41 44  1  0  0  0
 42 43  2  0  0  0
 42 49  1  0  0  0
 44 45  1  0  0  0
 45 46  1  0  0  0
 46 47  1  0  0  0
 47 48  1  0  0  0
 49 50  1  0  0  0
 50 51  1  0  0  0
 50 53  1  0  0  0
 51 52  2  0  0  0
 51 57  1  0  0  0
 53 54  1  0  0  0
 53 55  1  0  0  0
 54 56  1  0  0  0
  1 58  1  0  0  0
  1 59  1  0  0  0
  1 60  1  0  0  0
  2 61  1  0  0  0
  5 62  1  0  0  0
  5 63  1  0  0  0
  6 64  1  0  0  0
  6 65  1  0  0  0
  9 66  1  0  0  0
 10 67  1  0  0  0
 11 68  1  0  0  0
 14 69  1  0  0  0
 14 70  1  0  0  0
 15 71  1  0  0  0
 16 72  1  0  0  0
 16 73  1  0  0  0
 16 74  1  0  0  0
 17 75  1  0  0  0
 17 76  1  0  0  0
 17 77  1  0  0  0
 19 78  1  0  0  0
 22 79  1  0  0  0
 22 80  1  0  0  0
 23 81  1  0  0  0
 23 82  1  0  0  0
 24 83  1  0  0  0
 24 84  1  0  0  0
 25 85  1  0  0  0
 26 86  1  0  0  0
 29 87  1  0  0  0
 29 88  1  0  0  0
 30 89  1  0  0  0
 31 90  1  0  0  0
 31 91  1  0  0  0
 31 92  1  0  0  0
 32 93  1  0  0  0
 32 94  1  0  0  0
 32 95  1  0  0  0
 33 96  1  0  0  0
 34 97  1  0  0  0
 37 98  1  0  0  0
 38 99  1  0  0  0
 38100  1  0  0  0
 38101  1  0  0  0
 39102  1  0  0  0
 39103  1  0  0  0
 39104  1  0  0  0
 40105  1  0  0  0
 41106  1  0  0  0
 44107  1  0  0  0
 44108  1  0  0  0
 45109  1  0  0  0
 45110  1  0  0  0
 46111  1  0  0  0
 46112  1  0  0  0
 47113  1  0  0  0
 47114  1  0  0  0
 48115  1  0  0  0
 48116  1  0  0  0
 48117  1  0  0  0
 49118  1  0  0  0
 50119  1  0  0  0
 53120  1  0  0  0
 54121  1  0  0  0
 54122  1  0  0  0
 55123  1  0  0  0
 55124  1  0  0  0
 55125  1  0  0  0
 56126  1  0  0  0
 56127  1  0  0  0
 56128  1  0  0  0
 57129  1  0  0  0
M  END
$$$$
