6bfx_ligand
  -I-interpret- 

 62 63  0  0  0  0  0  0  0  0999 V2000
   23.0040   59.2020   88.3620 O   0  0  0  0  0
   23.9300   58.5450   88.8260 C   0  0  0  0  0
   19.6730   58.2620   91.1790 O   0  0  0  0  0
   26.0160   56.4980   85.1520 C   0  0  0  0  0
   23.3660   56.9860   85.6100 C   0  0  0  0  0
   20.9280   55.8390   91.9690 N   0  3  0  0  0
   24.0610   57.6320   84.6120 C   0  0  0  0  0
   24.0410   56.0810   86.4230 C   0  0  0  0  0
   25.3840   57.4020   84.3370 C   0  0  0  0  0
   25.3900   55.8300   86.1840 C   0  0  0  0  0
   20.3820   57.5080   90.1900 C   0  0  0  0  0
   21.4290   56.6060   90.8200 C   0  0  0  0  0
   20.1060   56.6200   92.8980 C   0  0  0  0  0
   19.0590   57.4440   92.1500 C   0  0  0  0  0
   25.2830   59.1390   89.0550 C   0  0  0  0  0
   20.9950   57.5620   93.6920 C   0  0  0  0  0
   15.0030   56.7910   89.5630 C   0  0  0  0  0
   15.8840   54.9000   90.9000 C   0  0  0  0  0
   17.1370   55.7240   88.9100 C   0  0  0  0  0
   23.3220   55.4070   87.5680 C   0  0  0  0  0
   17.0100   57.1160   90.9670 C   0  0  0  0  0
   22.0460   55.6050   89.7840 C   0  0  0  0  0
   22.7420   56.3820   88.6060 C   0  0  0  0  0
   16.2710   56.1370   90.0940 C   0  0  0  0  0
   23.8000   57.2460   89.1300 N   0  0  0  0  0
   20.9980   54.7820   89.2900 O   0  0  0  0  0
   18.1560   56.5280   91.5790 O   0  0  0  0  0
   23.4210   58.6030   83.9060 F   0  0  0  0  0
   27.3380   56.2630   84.9380 F   0  0  0  0  0
   22.3041   57.1806   85.7606 H   0  0  0  0  0
   21.7411   55.5097   92.4894 H   0  0  0  0  0
   20.3392   55.0925   91.5997 H   0  0  0  0  0
   25.9017   57.9064   83.5211 H   0  0  0  0  0
   25.9405   55.1194   86.8005 H   0  0  0  0  0
   20.8857   58.2054   89.5206 H   0  0  0  0  0
   19.6668   56.8839   89.6542 H   0  0  0  0  0
   22.1986   57.2912   91.1754 H   0  0  0  0  0
   19.5950   55.9250   93.5643 H   0  0  0  0  0
   18.5282   58.1202   92.8202 H   0  0  0  0  0
   25.6865   59.4965   88.1076 H   0  0  0  0  0
   25.1993   59.9719   89.7531 H   0  0  0  0  0
   25.9460   58.3801   89.4706 H   0  0  0  0  0
   21.4878   58.2553   93.0104 H   0  0  0  0  0
   20.3866   58.1205   94.4033 H   0  0  0  0  0
   21.7462   56.9836   94.2299 H   0  0  0  0  0
   14.4711   56.0848   88.9255 H   0  0  0  0  0
   14.3661   57.0782   90.3996 H   0  0  0  0  0
   15.2671   57.6766   88.9850 H   0  0  0  0  0
   15.2434   55.1952   91.7310 H   0  0  0  0  0
   15.3484   54.2018   90.2568 H   0  0  0  0  0
   16.7849   54.4228   91.2857 H   0  0  0  0  0
   16.5869   55.0179   88.2879 H   0  0  0  0  0
   17.3916   56.6061   88.3225 H   0  0  0  0  0
   18.0497   55.2536   89.2757 H   0  0  0  0  0
   24.0514   54.7828   88.0841 H   0  0  0  0  0
   22.4849   54.8537   87.1422 H   0  0  0  0  0
   16.3343   57.4461   91.7560 H   0  0  0  0  0
   17.3448   57.9441   90.3422 H   0  0  0  0  0
   22.8083   54.9925   90.2656 H   0  0  0  0  0
   21.9894   56.9966   88.1121 H   0  0  0  0  0
   24.4818   56.8338   89.7669 H   0  0  0  0  0
   21.3550   54.1597   88.6521 H   0  0  0  0  0
  2  1  2  0  0  0
  2 15  1  0  0  0
 25  2  1  0  0  0
 11  3  1  0  0  0
  3 14  1  0  0  0
  4  9  4  0  0  0
 10  4  4  0  0  0
  4 29  1  0  0  0
  5  7  4  0  0  0
  8  5  4  0  0  0
 12  6  1  0  0  0
  6 13  1  0  0  0
  7  9  4  0  0  0
  7 28  1  0  0  0
  8 10  4  0  0  0
 20  8  1  0  0  0
 12 11  1  0  0  0
 22 12  1  0  0  0
 13 14  1  0  0  0
 13 16  1  0  0  0
 14 27  1  0  0  0
 24 17  1  0  0  0
 24 18  1  0  0  0
 24 19  1  0  0  0
 23 20  1  0  0  0
 21 24  1  0  0  0
 27 21  1  0  0  0
 23 22  1  0  0  0
 22 26  1  0  0  0
 23 25  1  0  0  0
  5 30  1  0  0  0
  6 31  1  0  0  0
  6 32  1  0  0  0
  9 33  1  0  0  0
 10 34  1  0  0  0
 11 35  1  0  0  0
 11 36  1  0  0  0
 12 37  1  0  0  0
 13 38  1  0  0  0
 14 39  1  0  0  0
 15 40  1  0  0  0
 15 41  1  0  0  0
 15 42  1  0  0  0
 16 43  1  0  0  0
 16 44  1  0  0  0
 16 45  1  0  0  0
 17 46  1  0  0  0
 17 47  1  0  0  0
 17 48  1  0  0  0
 18 49  1  0  0  0
 18 50  1  0  0  0
 18 51  1  0  0  0
 19 52  1  0  0  0
 19 53  1  0  0  0
 19 54  1  0  0  0
 20 55  1  0  0  0
 20 56  1  0  0  0
 21 57  1  0  0  0
 21 58  1  0  0  0
 22 59  1  0  0  0
 23 60  1  0  0  0
 25 61  1  0  0  0
 26 62  1  0  0  0
M  END
$$$$
