5dkn_ligand
  -I-interpret- 

 57 60  0  0  0  0  0  0  0  0999 V2000
   58.5910  -13.0450   46.7220 C   0  0  0  0  0
   59.0760  -13.6240   45.5590 C   0  0  0  0  0
   59.4040  -12.8360   44.4660 C   0  0  0  0  0
   59.2510  -11.4590   44.5380 C   0  0  0  0  0
   58.7680  -10.8770   45.7020 C   0  0  0  0  0
   58.4390  -11.6660   46.7950 C   0  0  0  0  0
   63.8680   -3.5700   47.0290 C   0  0  0  0  0
   64.4970   -4.5590   46.2880 C   0  0  0  0  0
   65.7210   -4.2920   45.6910 C   0  0  0  0  0
   66.3000   -3.0370   45.8310 C   0  0  0  0  0
   65.6620   -2.0520   46.5640 C   0  0  0  0  0
   64.4460   -2.3200   47.1640 C   0  0  0  0  0
   58.6070   -9.5180   45.7770 O   0  0  0  0  0
   58.3080   -8.9480   46.9950 C   0  0  0  0  0
   57.8220   -7.5360   47.0010 C   0  0  0  0  0
   58.8420   -6.4480   46.8870 C   0  0  0  0  0
   58.5700   -5.1960   47.6650 C   0  0  0  0  0
   59.7460   -4.3930   48.1390 C   0  0  0  0  0
   60.2580   -3.3150   47.2300 C   0  0  0  0  0
   61.6640   -2.8500   47.4360 C   0  0  0  0  0
   62.6510   -3.8010   47.6280 O   0  0  0  0  0
   59.2480  -15.1070   45.4690 C   0  0  0  0  0
   67.6050   -2.7240   45.1930 C   0  0  0  0  0
   59.4680  -15.7890   44.3350 N   0  0  0  0  0
   59.5690  -17.0950   44.6520 C   0  0  0  0  0
   59.3980  -17.2060   46.0300 C   0  0  0  0  0
   59.2050  -15.9590   46.5020 N   0  0  0  0  0
   67.9880   -1.5000   44.8030 N   0  0  0  0  0
   69.2210   -1.5940   44.2730 C   0  0  0  0  0
   69.6010   -2.9320   44.3410 C   0  0  0  0  0
   68.5810   -3.6000   44.9180 N   0  0  0  0  0
   58.3299  -13.6698   47.5761 H   0  0  0  0  0
   59.7809  -13.2971   43.5531 H   0  0  0  0  0
   59.5095  -10.8354   43.6822 H   0  0  0  0  0
   58.0624  -11.2052   47.7082 H   0  0  0  0  0
   64.0334   -5.5390   46.1753 H   0  0  0  0  0
   66.2271   -5.0655   45.1134 H   0  0  0  0  0
   66.1172   -1.0671   46.6680 H   0  0  0  0  0
   63.9422   -1.5465   47.7437 H   0  0  0  0  0
   59.2466   -8.9354   47.5491 H   0  0  0  0  0
   57.4876   -9.5402   47.4003 H   0  0  0  0  0
   57.3520   -7.3939   47.9741 H   0  0  0  0  0
   57.1939   -7.4404   46.1153 H   0  0  0  0  0
   58.8564   -6.1551   45.8372 H   0  0  0  0  0
   59.7687   -6.8584   47.2880 H   0  0  0  0  0
   58.0588   -5.5230   48.5704 H   0  0  0  0  0
   58.0294   -4.5418   46.9811 H   0  0  0  0  0
   60.5654   -5.1044   48.2421 H   0  0  0  0  0
   59.4087   -3.8817   49.0406 H   0  0  0  0  0
   59.6297   -2.4453   47.4226 H   0  0  0  0  0
   60.2333   -3.7404   46.2267 H   0  0  0  0  0
   61.6411   -2.2717   48.3597 H   0  0  0  0  0
   61.9346   -2.3403   46.5113 H   0  0  0  0  0
   59.7512  -17.9147   43.9570 H   0  0  0  0  0
   59.4168  -18.1258   46.6146 H   0  0  0  0  0
   69.8130   -0.7744   43.8657 H   0  0  0  0  0
   70.5425   -3.3580   43.9943 H   0  0  0  0  0
  1  2  4  0  0  0
  6  1  4  0  0  0
  3  2  4  0  0  0
  2 22  1  0  0  0
  4  3  4  0  0  0
  5  4  4  0  0  0
  5  6  4  0  0  0
 13  5  1  0  0  0
  7  8  4  0  0  0
  7 12  4  0  0  0
 21  7  1  0  0  0
  8  9  4  0  0  0
  9 10  4  0  0  0
 11 10  4  0  0  0
 10 23  1  0  0  0
 12 11  4  0  0  0
 14 13  1  0  0  0
 15 14  1  0  0  0
 16 15  1  0  0  0
 17 16  1  0  0  0
 18 17  1  0  0  0
 19 18  1  0  0  0
 20 19  1  0  0  0
 20 21  1  0  0  0
 22 24  4  0  0  0
 22 27  4  0  0  0
 23 28  4  0  0  0
 23 31  4  0  0  0
 24 25  4  0  0  0
 25 26  4  0  0  0
 26 27  4  0  0  0
 28 29  4  0  0  0
 29 30  4  0  0  0
 30 31  4  0  0  0
  1 32  1  0  0  0
  3 33  1  0  0  0
  4 34  1  0  0  0
  6 35  1  0  0  0
  8 36  1  0  0  0
  9 37  1  0  0  0
 11 38  1  0  0  0
 12 39  1  0  0  0
 14 40  1  0  0  0
 14 41  1  0  0  0
 15 42  1  0  0  0
 15 43  1  0  0  0
 16 44  1  0  0  0
 16 45  1  0  0  0
 17 46  1  0  0  0
 17 47  1  0  0  0
 18 48  1  0  0  0
 18 49  1  0  0  0
 19 50  1  0  0  0
 19 51  1  0  0  0
 20 52  1  0  0  0
 20 53  1  0  0  0
 25 54  1  0  0  0
 26 55  1  0  0  0
 29 56  1  0  0  0
 30 57  1  0  0  0
M  END
$$$$
