### 
### Created by X-TOOL on Mon Sep 10 21:12:54 2018
### 

@<TRIPOS>MOLECULE
2aq9_ligand
  199   203     1     0     0
SMALL
GAST_HUCK


@<TRIPOS>ATOM
      1 N          55.3680   65.9800   65.1030 N.4       1 TRP         0.2388
      2 CA         54.8240   67.3080   65.5100 C.3       1 TRP         0.0691
      3 C          54.8590   68.3110   64.3680 C.2       1 TRP         0.2280
      4 O          55.8170   68.3560   63.5950 O.2       1 TRP        -0.3906
      5 CB         55.6140   67.8710   66.6900 C.3       1 TRP         0.0245
      6 CG         55.3640   67.1610   67.9750 C.2       1 TRP        -0.0386
      7 CD1        56.2680   66.4500   68.7090 C.2       1 TRP         0.0168
      8 CD2        54.1240   67.0960   68.6900 C.ar      1 TRP        -0.0213
      9 NE1        55.6680   65.9440   69.8390 N.pl3     1 TRP        -0.2890
     10 CE2        54.3520   66.3270   69.8520 C.ar      1 TRP         0.0603
     11 CE3        52.8410   67.6150   68.4620 C.ar      1 TRP        -0.0747
     12 CZ2        53.3440   66.0620   70.7850 C.ar      1 TRP        -0.0443
     13 CZ3        51.8390   67.3510   69.3900 C.ar      1 TRP        -0.0792
     14 CH2        52.0980   66.5820   70.5370 C.ar      1 TRP        -0.0768
     15 N          53.8080   69.1150   64.2730 N.am      1 MET        -0.2612
     16 CA         53.7060   70.1280   63.2330 C.3       1 MET         0.1283
     17 C          52.9030   71.3090   63.7550 C.2       1 MET         0.2036
     18 O          51.7830   71.1430   64.2340 O.2       1 MET        -0.3944
     19 CB         53.0280   69.5450   61.9970 C.3       1 MET        -0.0244
     20 N          53.4820   72.5000   63.6710 N.am      1 LEU        -0.2637
     21 CA         52.7900   73.6990   64.1210 C.3       1 LEU         0.1312
     22 C          51.9940   74.2720   62.9550 C.2       1 LEU         0.2040
     23 O          52.5340   74.4750   61.8700 O.2       1 LEU        -0.3944
     24 CB         53.7940   74.7450   64.6150 C.3       1 LEU        -0.0101
     25 CG         53.2140   76.1210   64.9610 C.3       1 LEU        -0.0425
     26 CD1        52.1860   75.9900   66.0770 C.3       1 LEU        -0.0625
     27 CD2        54.3390   77.0540   65.3790 C.3       1 LEU        -0.0625
     28 N          50.7090   74.5210   63.1880 N.am      1 ASP        -0.2622
     29 CA         49.8200   75.0860   62.1750 C.3       1 ASP         0.1425
     30 C          49.3510   76.4360   62.7380 C.2       1 ASP         0.2081
     31 O          48.3420   76.5000   63.4430 O.2       1 ASP        -0.3941
     32 CB         48.6180   74.1520   61.9680 C.3       1 ASP         0.0406
     33 CG         47.7970   74.5130   60.7460 C.2       1 ASP         0.0393
     34 OD1        47.7790   75.7050   60.3760 O.co2     1 ASP        -0.5688
     35 OD2        47.1570   73.6070   60.1650 O.co2     1 ASP        -0.5688
     36 N          50.0800   77.5310   62.4400 N.am      1 PRO        -0.2497
     37 CA         49.7040   78.8590   62.9460 C.3       1 PRO         0.1338
     38 C          48.3150   79.3200   62.5270 C.2       1 PRO         0.2041
     39 O          47.5670   79.8580   63.3450 O.2       1 PRO        -0.3944
     40 CB         50.8080   79.7680   62.4030 C.3       1 PRO        -0.0104
     41 CG         51.9870   78.8440   62.3170 C.3       1 PRO        -0.0281
     42 CD         51.3560   77.6080   61.7070 C.3       1 PRO         0.0369
     43 N          47.9680   79.1100   61.2600 N.am      1 ILE        -0.2635
     44 CA         46.6550   79.5150   60.7730 C.3       1 ILE         0.1335
     45 C          45.5510   78.7800   61.5340 C.2       1 ILE         0.2041
     46 O          44.5210   79.3670   61.8810 O.2       1 ILE        -0.3944
     47 CB         46.5180   79.2530   59.2530 C.3       1 ILE        -0.0037
     48 CG1        47.3940   80.2550   58.4910 C.3       1 ILE        -0.0491
     49 CG2        45.0490   79.3580   58.8350 C.3       1 ILE        -0.0582
     50 CD1        47.4550   80.0340   56.9920 C.3       1 ILE        -0.0648
     51 N          45.7670   77.4970   61.8000 N.am      1 ALA        -0.2640
     52 CA         44.7880   76.7150   62.5400 C.3       1 ALA         0.1282
     53 C          44.9050   77.0730   64.0200 C.2       1 ALA         0.2034
     54 O          43.9250   76.9960   64.7680 O.2       1 ALA        -0.3944
     55 CB         45.0420   75.2220   62.3420 C.3       1 ALA        -0.0244
     56 N          46.1100   77.4680   64.4270 N.am      1 GLY        -0.2664
     57 CA         46.3640   77.8280   65.8120 C.3       1 GLY         0.1201
     58 C          46.4740   76.5950   66.6860 C.2       1 GLY         0.2007
     59 O          46.0370   76.6030   67.8400 O.2       1 GLY        -0.3947
     60 N          47.0750   75.5360   66.1470 N.am      1 LYS        -0.2640
     61 CA         47.2060   74.2780   66.8770 C.3       1 LYS         0.1310
     62 C          48.4870   73.5160   66.5550 C.2       1 LYS         0.2040
     63 O          49.1360   73.7600   65.5360 O.2       1 LYS        -0.3944
     64 CB         46.0270   73.3630   66.5330 C.3       1 LYS        -0.0122
     65 CG         46.0580   72.8990   65.0770 C.3       1 LYS        -0.0440
     66 CD         44.8980   71.9900   64.7010 C.3       1 LYS        -0.0124
     67 CE         44.9930   71.5840   63.2300 C.3       1 LYS        -0.0354
     68 NZ         43.8240   70.7800   62.7790 N.4       1 LYS         0.2185
     69 N          48.8420   72.5910   67.4430 N.am      1 TRP        -0.2627
     70 CA         49.9920   71.7230   67.2340 C.3       1 TRP         0.1352
     71 C          49.3510   70.4590   66.6840 C.2       1 TRP         0.2052
     72 O          48.4670   69.8880   67.3220 O.2       1 TRP        -0.3942
     73 CB         50.7020   71.3990   68.5510 C.3       1 TRP         0.0042
     74 CG         51.5810   72.4920   69.0510 C.2       1 TRP        -0.0418
     75 CD1        51.2860   73.4040   70.0200 C.2       1 TRP         0.0167
     76 CD2        52.9010   72.8030   68.5920 C.ar      1 TRP        -0.0214
     77 NE1        52.3410   74.2680   70.1940 N.pl3     1 TRP        -0.2890
     78 CE2        53.3450   73.9220   69.3290 C.ar      1 TRP         0.0603
     79 CE3        53.7510   72.2470   67.6260 C.ar      1 TRP        -0.0747
     80 CZ2        54.6040   74.4970   69.1320 C.ar      1 TRP        -0.0443
     81 CZ3        55.0060   72.8200   67.4310 C.ar      1 TRP        -0.0792
     82 CH2        55.4180   73.9340   68.1820 C.ar      1 TRP        -0.0768
     83 N          49.7700   70.0310   65.4990 N.am      1 SER        -0.2615
     84 CA         49.1920   68.8370   64.8990 C.3       1 SER         0.1539
     85 C          50.1340   67.6430   64.9510 C.2       1 SER         0.2056
     86 O          51.3500   67.7980   65.0850 O.2       1 SER        -0.3943
     87 CB         48.7960   69.1170   63.4470 C.3       1 SER         0.0843
     88 OG         48.0750   68.0270   62.9010 O.3       1 SER        -0.3903
     89 N          49.5540   66.4510   64.8470 N.am      1 ARG        -0.2694
     90 CA         50.3100   65.2050   64.8750 C.3       1 ARG         0.0945
     91 C          49.9570   64.3440   63.6680 C.2       1 ARG         0.0601
     92 O          50.4350   64.6650   62.5590 O.co2     1 ARG        -0.5666
     93 CB         50.0010   64.4400   66.1660 C.3       1 ARG        -0.0148
     94 CG         51.0810   64.5550   67.2230 C.3       1 ARG        -0.0162
     95 CD         52.2120   63.5990   66.9190 C.3       1 ARG         0.0627
     96 NE         53.4610   64.0060   67.5480 N.pl3     1 ARG        -0.2723
     97 CZ         54.5840   63.3010   67.4870 C.cat     1 ARG         0.2882
     98 NH1        54.6090   62.1490   66.8280 N.pl3     1 ARG        -0.2849
     99 NH2        55.6830   63.7500   68.0730 N.pl3     1 ARG        -0.2849
    100 OXT        49.1950   63.3700   63.8430 O.co2     1 ARG        -0.5666
    101 H1         55.3272   65.3460   65.8856 H         1 TRP         0.2016
    102 H2         56.3254   66.0858   64.8059 H         1 TRP         0.2016
    103 H3         54.8190   65.6107   64.3425 H         1 TRP         0.2016
    104 H4         53.7776   67.1693   65.8194 H         1 TRP         0.1114
    105 H5         55.3386   68.9281   66.8188 H         1 TRP         0.0430
    106 H6         56.6863   67.7972   66.4561 H         1 TRP         0.0430
    107 H7         57.3130   66.3041   68.4395 H         1 TRP         0.0795
    108 H8         56.1321   65.3708   70.5580 H         1 TRP         0.2216
    109 H9         52.6344   68.2102   67.5799 H         1 TRP         0.0540
    110 H10        53.5395   65.4683   71.6706 H         1 TRP         0.0541
    111 H11        50.8425   67.7448   69.2256 H         1 TRP         0.0510
    112 H12        51.2960   66.3951   71.2419 H         1 TRP         0.0530
    113 H13        53.0644   69.0223   64.9351 H         1 MET         0.1884
    114 H14        54.7158   70.4691   62.9613 H         1 MET         0.0797
    115 H15        52.9566   70.3189   61.2186 H         1 MET         0.0277
    116 H16        52.0186   69.1974   62.2621 H         1 MET         0.0277
    117 H17        53.6199   68.6984   61.6190 H         1 MET         0.0277
    118 H18        54.4051   72.5748   63.2939 H         1 LEU         0.1883
    119 H19        52.1055   73.4384   64.9417 H         1 LEU         0.0800
    120 H20        54.5484   74.8861   63.8270 H         1 LEU         0.0315
    121 H21        54.2780   74.3467   65.5189 H         1 LEU         0.0315
    122 H22        52.7192   76.5356   64.0703 H         1 LEU         0.0298
    123 H23        51.7768   76.9825   66.3169 H         1 LEU         0.0232
    124 H24        52.6670   75.5660   66.9707 H         1 LEU         0.0232
    125 H25        51.3716   75.3270   65.7495 H         1 LEU         0.0232
    126 H26        55.0703   77.1358   64.5614 H         1 LEU         0.0232
    127 H27        54.8344   76.6525   66.2753 H         1 LEU         0.0232
    128 H28        53.9263   78.0488   65.6027 H         1 LEU         0.0232
    129 H29        50.3360   74.3134   64.0923 H         1 ASP         0.1884
    130 H30        50.3528   75.2268   61.2230 H         1 ASP         0.0819
    131 H31        47.9710   74.2099   62.8557 H         1 ASP         0.0478
    132 H32        48.9886   73.1230   61.8509 H         1 ASP         0.0478
    133 H33        49.7348   78.8524   64.0455 H         1 PRO         0.0802
    134 H34        51.0081   80.6027   63.0909 H         1 PRO         0.0313
    135 H35        50.5427   80.1651   61.4121 H         1 PRO         0.0313
    136 H36        52.4055   78.6324   63.3120 H         1 PRO         0.0287
    137 H37        52.7740   79.2556   61.6681 H         1 PRO         0.0287
    138 H38        51.1909   77.7337   60.6268 H         1 PRO         0.0524
    139 H39        51.9735   76.7147   61.8821 H         1 PRO         0.0524
    140 H40        48.6138   78.6702   60.6359 H         1 ILE         0.1883
    141 H41        46.5402   80.5946   60.9496 H         1 ILE         0.0803
    142 H42        46.8722   78.2354   59.0314 H         1 ILE         0.0345
    143 H43        48.4172   80.1870   58.8889 H         1 ILE         0.0267
    144 H44        46.9964   81.2645   58.6722 H         1 ILE         0.0267
    145 H45        44.4536   78.6264   59.4009 H         1 ILE         0.0235
    146 H46        44.9583   79.1504   57.7586 H         1 ILE         0.0235
    147 H47        44.6795   80.3725   59.0452 H         1 ILE         0.0235
    148 H48        48.1029   80.7965   56.5350 H         1 ILE         0.0230
    149 H49        46.4428   80.1113   56.5684 H         1 ILE         0.0230
    150 H50        47.8637   79.0339   56.7851 H         1 ILE         0.0230
    151 H51        46.6123   77.0632   61.4881 H         1 ALA         0.1883
    152 H52        43.7772   76.9594   62.1815 H         1 ALA         0.0797
    153 H53        44.2950   74.6449   62.9067 H         1 ALA         0.0277
    154 H54        46.0498   74.9703   62.7039 H         1 ALA         0.0277
    155 H55        44.9641   74.9754   61.2728 H         1 ALA         0.0277
    156 H56        46.8573   77.5180   63.7644 H         1 GLY         0.1881
    157 H57        45.5371   78.4546   66.1776 H         1 GLY         0.0763
    158 H58        47.3057   78.3937   65.8691 H         1 GLY         0.0763
    159 H59        47.4453   75.6038   65.2206 H         1 LYS         0.1883
    160 H60        47.1928   74.5025   67.9538 H         1 LYS         0.0800
    161 H61        45.0902   73.9118   66.7094 H         1 LYS         0.0312
    162 H62        46.0628   72.4790   67.1867 H         1 LYS         0.0312
    163 H63        46.9972   72.3523   64.9065 H         1 LYS         0.0269
    164 H64        46.0277   73.7871   64.4286 H         1 LYS         0.0269
    165 H65        43.9507   72.5231   64.8692 H         1 LYS         0.0317
    166 H66        44.9271   71.0871   65.3286 H         1 LYS         0.0317
    167 H67        45.9062   70.9874   63.0879 H         1 LYS         0.0813
    168 H68        45.0511   72.4952   62.6165 H         1 LYS         0.0813
    169 H69        43.9365   70.5398   61.8065 H         1 LYS         0.1994
    170 H70        42.9802   71.3187   62.8965 H         1 LYS         0.1994
    171 H71        43.7638   69.9371   63.3285 H         1 LYS         0.1994
    172 H72        48.3028   72.4889   68.2790 H         1 TRP         0.1884
    173 H73        50.7038   72.1650   66.5213 H         1 TRP         0.0815
    174 H74        51.3191   70.5012   68.3993 H         1 TRP         0.0397
    175 H75        49.9373   71.1937   69.3146 H         1 TRP         0.0397
    176 H76        50.3503   73.4426   70.5758 H         1 TRP         0.0795
    177 H77        52.3715   75.0484   70.8655 H         1 TRP         0.2216
    178 H78        53.4383   71.3886   67.0425 H         1 TRP         0.0540
    179 H79        54.9254   75.3566   69.7090 H         1 TRP         0.0541
    180 H80        55.6749   72.4000   66.6885 H         1 TRP         0.0510
    181 H81        56.4003   74.3577   68.0069 H         1 TRP         0.0530
    182 H82        50.4875   70.5322   65.0153 H         1 SER         0.1884
    183 H83        48.2846   68.5792   65.4648 H         1 SER         0.0823
    184 H84        49.7056   69.2819   62.8509 H         1 SER         0.0606
    185 H85        48.1666   70.0185   63.4127 H         1 SER         0.0606
    186 H86        47.2865   67.8831   63.4110 H         1 SER         0.2097
    187 H87        48.5601   66.4076   64.7456 H         1 ARG         0.1875
    188 H88        51.3845   65.4387   64.8447 H         1 ARG         0.0726
    189 H89        49.8734   63.3764   65.9160 H         1 ARG         0.0307
    190 H90        49.0632   64.8332   66.5853 H         1 ARG         0.0307
    191 H91        50.6539   64.3115   68.2070 H         1 ARG         0.0301
    192 H92        51.4688   65.5843   67.2360 H         1 ARG         0.0301
    193 H93        52.3602   63.5606   65.8297 H         1 ARG         0.0689
    194 H94        51.9393   62.5991   67.2875 H         1 ARG         0.0689
    195 H95        53.4736   64.8932   68.0710 H         1 ARG         0.2642
    196 H96        55.4803   61.6017   66.7805 H         1 ARG         0.2615
    197 H97        53.7571   61.8024   66.3642 H         1 ARG         0.2615
    198 H98        55.6654   64.6437   68.5848 H         1 ARG         0.2615
    199 H99        56.5556   63.2056   68.0171 H         1 ARG         0.2615
@<TRIPOS>BOND
     1    1    2 1  
     2    2    3 1  
     3    2    5 1  
     4    3    4 2  
     5    3   15 am 
     6    5    6 1  
     7    6    7 2  
     8    6    8 1  
     9    7    9 1  
    10    8   10 ar 
    11    8   11 ar 
    12    9   10 1  
    13   10   12 ar 
    14   11   13 ar 
    15   12   14 ar 
    16   13   14 ar 
    17   15   16 1  
    18   16   17 1  
    19   16   19 1  
    20   17   18 2  
    21   17   20 am 
    22   20   21 1  
    23   21   22 1  
    24   21   24 1  
    25   22   23 2  
    26   22   28 am 
    27   24   25 1  
    28   25   26 1  
    29   25   27 1  
    30   28   29 1  
    31   29   30 1  
    32   29   32 1  
    33   30   31 2  
    34   30   36 am 
    35   32   33 1  
    36   33   34 ar 
    37   33   35 ar 
    38   36   37 1  
    39   36   42 1  
    40   37   38 1  
    41   37   40 1  
    42   38   39 2  
    43   38   43 am 
    44   40   41 1  
    45   41   42 1  
    46   43   44 1  
    47   44   45 1  
    48   44   47 1  
    49   45   46 2  
    50   45   51 am 
    51   47   48 1  
    52   47   49 1  
    53   48   50 1  
    54   51   52 1  
    55   52   53 1  
    56   52   55 1  
    57   53   54 2  
    58   53   56 am 
    59   56   57 1  
    60   57   58 1  
    61   58   59 2  
    62   58   60 am 
    63   60   61 1  
    64   61   62 1  
    65   61   64 1  
    66   62   63 2  
    67   62   69 am 
    68   64   65 1  
    69   65   66 1  
    70   66   67 1  
    71   67   68 1  
    72   69   70 1  
    73   70   71 1  
    74   70   73 1  
    75   71   72 2  
    76   71   83 am 
    77   73   74 1  
    78   74   75 2  
    79   74   76 1  
    80   75   77 1  
    81   76   78 ar 
    82   76   79 ar 
    83   77   78 1  
    84   78   80 ar 
    85   79   81 ar 
    86   80   82 ar 
    87   81   82 ar 
    88   83   84 1  
    89   84   85 1  
    90   84   87 1  
    91   85   86 2  
    92   85   89 am 
    93   87   88 1  
    94   89   90 1  
    95   90   91 1  
    96   90   93 1  
    97   91   92 ar 
    98   91  100 ar 
    99   93   94 1  
   100   94   95 1  
   101   95   96 1  
   102   96   97 ar 
   103   97   98 ar 
   104   97   99 ar 
   105    1  101 1  
   106    1  102 1  
   107    1  103 1  
   108    2  104 1  
   109    5  105 1  
   110    5  106 1  
   111    7  107 1  
   112    9  108 1  
   113   11  109 1  
   114   12  110 1  
   115   13  111 1  
   116   14  112 1  
   117   15  113 1  
   118   16  114 1  
   119   19  115 1  
   120   19  116 1  
   121   19  117 1  
   122   20  118 1  
   123   21  119 1  
   124   24  120 1  
   125   24  121 1  
   126   25  122 1  
   127   26  123 1  
   128   26  124 1  
   129   26  125 1  
   130   27  126 1  
   131   27  127 1  
   132   27  128 1  
   133   28  129 1  
   134   29  130 1  
   135   32  131 1  
   136   32  132 1  
   137   37  133 1  
   138   40  134 1  
   139   40  135 1  
   140   41  136 1  
   141   41  137 1  
   142   42  138 1  
   143   42  139 1  
   144   43  140 1  
   145   44  141 1  
   146   47  142 1  
   147   48  143 1  
   148   48  144 1  
   149   49  145 1  
   150   49  146 1  
   151   49  147 1  
   152   50  148 1  
   153   50  149 1  
   154   50  150 1  
   155   51  151 1  
   156   52  152 1  
   157   55  153 1  
   158   55  154 1  
   159   55  155 1  
   160   56  156 1  
   161   57  157 1  
   162   57  158 1  
   163   60  159 1  
   164   61  160 1  
   165   64  161 1  
   166   64  162 1  
   167   65  163 1  
   168   65  164 1  
   169   66  165 1  
   170   66  166 1  
   171   67  167 1  
   172   67  168 1  
   173   68  169 1  
   174   68  170 1  
   175   68  171 1  
   176   69  172 1  
   177   70  173 1  
   178   73  174 1  
   179   73  175 1  
   180   75  176 1  
   181   77  177 1  
   182   79  178 1  
   183   80  179 1  
   184   81  180 1  
   185   82  181 1  
   186   83  182 1  
   187   84  183 1  
   188   87  184 1  
   189   87  185 1  
   190   88  186 1  
   191   89  187 1  
   192   90  188 1  
   193   93  189 1  
   194   93  190 1  
   195   94  191 1  
   196   94  192 1  
   197   95  193 1  
   198   95  194 1  
   199   96  195 1  
   200   98  196 1  
   201   98  197 1  
   202   99  198 1  
   203   99  199 1  
@<TRIPOS>SUBSTRUCTURE
     1 TRP         1

