2aq9_ligand
  -I-interpret- 

198202  0  0  0  0  0  0  0  0999 V2000
   55.3680   65.9800   65.1030 N   0  3  0  0  0
   54.8240   67.3080   65.5100 C   0  0  0  0  0
   54.8590   68.3110   64.3680 C   0  0  0  0  0
   55.8170   68.3560   63.5950 O   0  0  0  0  0
   55.6140   67.8710   66.6900 C   0  0  0  0  0
   55.3640   67.1610   67.9750 C   0  0  0  0  0
   56.2680   66.4500   68.7090 C   0  0  0  0  0
   54.1240   67.0960   68.6900 C   0  0  0  0  0
   55.6680   65.9440   69.8390 N   0  0  0  0  0
   54.3520   66.3270   69.8520 C   0  0  0  0  0
   52.8410   67.6150   68.4620 C   0  0  0  0  0
   53.3440   66.0620   70.7850 C   0  0  0  0  0
   51.8390   67.3510   69.3900 C   0  0  0  0  0
   52.0980   66.5820   70.5370 C   0  0  0  0  0
   53.8080   69.1150   64.2730 N   0  0  0  0  0
   53.7060   70.1280   63.2330 C   0  0  0  0  0
   52.9030   71.3090   63.7550 C   0  0  0  0  0
   51.7830   71.1430   64.2340 O   0  0  0  0  0
   53.0280   69.5450   61.9970 C   0  0  0  0  0
   53.4820   72.5000   63.6710 N   0  0  0  0  0
   52.7900   73.6990   64.1210 C   0  0  0  0  0
   51.9940   74.2720   62.9550 C   0  0  0  0  0
   52.5340   74.4750   61.8700 O   0  0  0  0  0
   53.7940   74.7450   64.6150 C   0  0  0  0  0
   53.2140   76.1210   64.9610 C   0  0  0  0  0
   52.1860   75.9900   66.0770 C   0  0  0  0  0
   54.3390   77.0540   65.3790 C   0  0  0  0  0
   50.7090   74.5210   63.1880 N   0  0  0  0  0
   49.8200   75.0860   62.1750 C   0  0  0  0  0
   49.3510   76.4360   62.7380 C   0  0  0  0  0
   48.3420   76.5000   63.4430 O   0  0  0  0  0
   48.6180   74.1520   61.9680 C   0  0  0  0  0
   47.7970   74.5130   60.7460 C   0  0  0  0  0
   47.7790   75.7050   60.3760 O   0  0  0  0  0
   47.1570   73.6070   60.1650 O   0  0  0  0  0
   50.0800   77.5310   62.4400 N   0  0  0  0  0
   49.7040   78.8590   62.9460 C   0  0  0  0  0
   48.3150   79.3200   62.5270 C   0  0  0  0  0
   47.5670   79.8580   63.3450 O   0  0  0  0  0
   50.8080   79.7680   62.4030 C   0  0  0  0  0
   51.9870   78.8440   62.3170 C   0  0  0  0  0
   51.3560   77.6080   61.7070 C   0  0  0  0  0
   47.9680   79.1100   61.2600 N   0  0  0  0  0
   46.6550   79.5150   60.7730 C   0  0  0  0  0
   45.5510   78.7800   61.5340 C   0  0  0  0  0
   44.5210   79.3670   61.8810 O   0  0  0  0  0
   46.5180   79.2530   59.2530 C   0  0  0  0  0
   47.3940   80.2550   58.4910 C   0  0  0  0  0
   45.0490   79.3580   58.8350 C   0  0  0  0  0
   47.4550   80.0340   56.9920 C   0  0  0  0  0
   45.7670   77.4970   61.8000 N   0  0  0  0  0
   44.7880   76.7150   62.5400 C   0  0  0  0  0
   44.9050   77.0730   64.0200 C   0  0  0  0  0
   43.9250   76.9960   64.7680 O   0  0  0  0  0
   45.0420   75.2220   62.3420 C   0  0  0  0  0
   46.1100   77.4680   64.4270 N   0  0  0  0  0
   46.3640   77.8280   65.8120 C   0  0  0  0  0
   46.4740   76.5950   66.6860 C   0  0  0  0  0
   46.0370   76.6030   67.8400 O   0  0  0  0  0
   47.0750   75.5360   66.1470 N   0  0  0  0  0
   47.2060   74.2780   66.8770 C   0  0  0  0  0
   48.4870   73.5160   66.5550 C   0  0  0  0  0
   49.1360   73.7600   65.5360 O   0  0  0  0  0
   46.0270   73.3630   66.5330 C   0  0  0  0  0
   46.0580   72.8990   65.0770 C   0  0  0  0  0
   44.8980   71.9900   64.7010 C   0  0  0  0  0
   44.9930   71.5840   63.2300 C   0  0  0  0  0
   43.8240   70.7800   62.7790 N   0  3  0  0  0
   48.8420   72.5910   67.4430 N   0  0  0  0  0
   49.9920   71.7230   67.2340 C   0  0  0  0  0
   49.3510   70.4590   66.6840 C   0  0  0  0  0
   48.4670   69.8880   67.3220 O   0  0  0  0  0
   50.7020   71.3990   68.5510 C   0  0  0  0  0
   51.5810   72.4920   69.0510 C   0  0  0  0  0
   51.2860   73.4040   70.0200 C   0  0  0  0  0
   52.9010   72.8030   68.5920 C   0  0  0  0  0
   52.3410   74.2680   70.1940 N   0  0  0  0  0
   53.3450   73.9220   69.3290 C   0  0  0  0  0
   53.7510   72.2470   67.6260 C   0  0  0  0  0
   54.6040   74.4970   69.1320 C   0  0  0  0  0
   55.0060   72.8200   67.4310 C   0  0  0  0  0
   55.4180   73.9340   68.1820 C   0  0  0  0  0
   49.7700   70.0310   65.4990 N   0  0  0  0  0
   49.1920   68.8370   64.8990 C   0  0  0  0  0
   50.1340   67.6430   64.9510 C   0  0  0  0  0
   51.3500   67.7980   65.0850 O   0  0  0  0  0
   48.7960   69.1170   63.4470 C   0  0  0  0  0
   48.0750   68.0270   62.9010 O   0  0  0  0  0
   49.5540   66.4510   64.8470 N   0  0  0  0  0
   50.3100   65.2050   64.8750 C   0  0  0  0  0
   49.9570   64.3440   63.6680 C   0  0  0  0  0
   50.4350   64.6650   62.5590 O   0  0  0  0  0
   50.0010   64.4400   66.1660 C   0  0  0  0  0
   51.0810   64.5550   67.2230 C   0  0  0  0  0
   52.2120   63.5990   66.9190 C   0  0  0  0  0
   53.4610   64.0060   67.5480 N   0  0  0  0  0
   54.5840   63.3010   67.4870 C   0  0  0  0  0
   54.6090   62.1490   66.8280 N   0  0  0  0  0
   55.6830   63.7500   68.0730 N   0  0  0  0  0
   49.1950   63.3700   63.8430 O   0  0  0  0  0
   54.8291   65.6201   64.3153 H   0  0  0  0  0
   56.3451   66.0836   64.8291 H   0  0  0  0  0
   55.3005   65.3314   65.8873 H   0  0  0  0  0
   53.7850   67.1495   65.7988 H   0  0  0  0  0
   55.3022   68.9067   66.8251 H   0  0  0  0  0
   56.6725   67.7567   66.4564 H   0  0  0  0  0
   57.3140   66.3040   68.4393 H   0  0  0  0  0
   52.6332   68.2135   67.5750 H   0  0  0  0  0
   53.5405   65.4650   71.6755 H   0  0  0  0  0
   50.8370   67.7470   69.2247 H   0  0  0  0  0
   51.2915   66.3941   71.2458 H   0  0  0  0  0
   53.0495   69.0205   64.9484 H   0  0  0  0  0
   54.7065   70.4622   62.9584 H   0  0  0  0  0
   53.6155   68.7063   61.6235 H   0  0  0  0  0
   52.0280   69.2009   62.2610 H   0  0  0  0  0
   52.9578   70.3128   61.2265 H   0  0  0  0  0
   54.4236   72.5763   63.2864 H   0  0  0  0  0
   52.1238   73.4414   64.9443 H   0  0  0  0  0
   54.4966   74.9055   63.7973 H   0  0  0  0  0
   54.2183   74.3504   65.5382 H   0  0  0  0  0
   52.7168   76.5358   64.0842 H   0  0  0  0  0
   51.3797   75.3329   65.7512 H   0  0  0  0  0
   52.6639   75.5697   66.9619 H   0  0  0  0  0
   51.7813   76.9740   66.3138 H   0  0  0  0  0
   54.8453   76.6422   66.2520 H   0  0  0  0  0
   55.0499   77.1542   64.5588 H   0  0  0  0  0
   53.9257   78.0322   65.6248 H   0  0  0  0  0
   50.3285   74.3093   64.1104 H   0  0  0  0  0
   50.3186   75.2063   61.2132 H   0  0  0  0  0
   47.9724   74.2402   62.8418 H   0  0  0  0  0
   49.0011   73.1415   61.8261 H   0  0  0  0  0
   47.3112   72.7711   60.6113 H   0  0  0  0  0
   49.6314   78.8660   64.0336 H   0  0  0  0  0
   50.9938   80.6350   63.0369 H   0  0  0  0  0
   50.5524   80.2200   61.4446 H   0  0  0  0  0
   52.4690   78.6600   63.2772 H   0  0  0  0  0
   52.8152   79.2454   61.7330 H   0  0  0  0  0
   51.2328   77.6717   60.6259 H   0  0  0  0  0
   51.9694   76.7126   61.8073 H   0  0  0  0  0
   48.6267   78.6615   60.6234 H   0  0  0  0  0
   46.5508   80.5861   60.9460 H   0  0  0  0  0
   46.8572   78.2452   59.0136 H   0  0  0  0  0
   48.4096   80.1398   58.8697 H   0  0  0  0  0
   46.9572   81.2412   58.6482 H   0  0  0  0  0
   44.4633   78.6188   59.3816 H   0  0  0  0  0
   44.6784   80.3575   59.0625 H   0  0  0  0  0
   44.9630   79.1722   57.7644 H   0  0  0  0  0
   47.8600   79.0427   56.7884 H   0  0  0  0  0
   46.4515   80.1108   56.5736 H   0  0  0  0  0
   48.0972   80.7901   56.5404 H   0  0  0  0  0
   46.6292   77.0545   61.4819 H   0  0  0  0  0
   43.7850   76.9403   62.1775 H   0  0  0  0  0
   44.9646   74.9790   61.2823 H   0  0  0  0  0
   46.0409   74.9740   62.7009 H   0  0  0  0  0
   44.3012   74.6513   62.9020 H   0  0  0  0  0
   46.8722   77.5190   63.7511 H   0  0  0  0  0
   45.5345   78.4369   66.1714 H   0  0  0  0  0
   47.3049   78.3760   65.8626 H   0  0  0  0  0
   47.4527   75.6051   65.2020 H   0  0  0  0  0
   47.2280   74.5442   67.9338 H   0  0  0  0  0
   45.1062   73.9249   66.6892 H   0  0  0  0  0
   46.0866   72.4807   67.1703 H   0  0  0  0  0
   46.9771   72.3305   64.9353 H   0  0  0  0  0
   45.9923   73.7881   64.4498 H   0  0  0  0  0
   43.9618   72.5247   64.8616 H   0  0  0  0  0
   44.9351   71.0933   65.3196 H   0  0  0  0  0
   45.8868   70.9720   63.1089 H   0  0  0  0  0
   45.0228   72.4953   62.6326 H   0  0  0  0  0
   43.9389   70.5375   61.7949 H   0  0  0  0  0
   43.7641   69.9274   63.3357 H   0  0  0  0  0
   42.9708   71.3261   62.8984 H   0  0  0  0  0
   48.2920   72.4869   68.2957 H   0  0  0  0  0
   50.7452   72.1731   66.5873 H   0  0  0  0  0
   51.3364   70.5311   68.3710 H   0  0  0  0  0
   49.9297   71.2361   69.3028 H   0  0  0  0  0
   50.3494   73.4427   70.5763 H   0  0  0  0  0
   53.4366   71.3839   67.0393 H   0  0  0  0  0
   54.9271   75.3613   69.7122 H   0  0  0  0  0
   55.6786   72.3977   66.6844 H   0  0  0  0  0
   56.4057   74.3600   68.0059 H   0  0  0  0  0
   50.5019   70.5422   65.0056 H   0  0  0  0  0
   48.3087   68.5823   65.4847 H   0  0  0  0  0
   49.7016   69.2680   62.8594 H   0  0  0  0  0
   48.1633   70.0042   63.4209 H   0  0  0  0  0
   47.8379   68.2248   61.9920 H   0  0  0  0  0
   48.5402   66.4068   64.7436 H   0  0  0  0  0
   51.3740   65.4391   64.8398 H   0  0  0  0  0
   50.9898   65.4415   62.6636 H   0  0  0  0  0
   49.9149   63.3853   65.9046 H   0  0  0  0  0
   49.0905   64.8677   66.5857 H   0  0  0  0  0
   50.6562   64.3077   68.1959 H   0  0  0  0  0
   51.4671   65.5743   67.2295 H   0  0  0  0  0
   52.3643   63.5863   65.8398 H   0  0  0  0  0
   51.9404   62.6178   67.3083 H   0  0  0  0  0
   53.4735   64.8846   68.0659 H   0  0  0  0  0
   55.4740   61.6112   66.7737 H   0  0  0  0  0
   53.7632   61.8016   66.3759 H   0  0  0  0  0
   55.6678   64.6392   68.5725 H   0  0  0  0  0
  1  2  1  0  0  0
  2  3  1  0  0  0
  2  5  1  0  0  0
  3  4  2  0  0  0
  3 15  1  0  0  0
  5  6  1  0  0  0
  6  7  4  0  0  0
  6  8  4  0  0  0
  7  9  4  0  0  0
  8 10  4  0  0  0
  8 11  4  0  0  0
  9 10  4  0  0  0
 10 12  4  0  0  0
 11 13  4  0  0  0
 12 14  4  0  0  0
 13 14  4  0  0  0
 15 16  1  0  0  0
 16 17  1  0  0  0
 16 19  1  0  0  0
 17 18  2  0  0  0
 17 20  1  0  0  0
 20 21  1  0  0  0
 21 22  1  0  0  0
 21 24  1  0  0  0
 22 23  2  0  0  0
 22 28  1  0  0  0
 24 25  1  0  0  0
 25 26  1  0  0  0
 25 27  1  0  0  0
 28 29  1  0  0  0
 29 30  1  0  0  0
 29 32  1  0  0  0
 30 31  2  0  0  0
 30 36  1  0  0  0
 32 33  1  0  0  0
 33 34  2  0  0  0
 33 35  1  0  0  0
 36 37  1  0  0  0
 36 42  1  0  0  0
 37 38  1  0  0  0
 37 40  1  0  0  0
 38 39  2  0  0  0
 38 43  1  0  0  0
 40 41  1  0  0  0
 41 42  1  0  0  0
 43 44  1  0  0  0
 44 45  1  0  0  0
 44 47  1  0  0  0
 45 46  2  0  0  0
 45 51  1  0  0  0
 47 48  1  0  0  0
 47 49  1  0  0  0
 48 50  1  0  0  0
 51 52  1  0  0  0
 52 53  1  0  0  0
 52 55  1  0  0  0
 53 54  2  0  0  0
 53 56  1  0  0  0
 56 57  1  0  0  0
 57 58  1  0  0  0
 58 59  2  0  0  0
 58 60  1  0  0  0
 60 61  1  0  0  0
 61 62  1  0  0  0
 61 64  1  0  0  0
 62 63  2  0  0  0
 62 69  1  0  0  0
 64 65  1  0  0  0
 65 66  1  0  0  0
 66 67  1  0  0  0
 67 68  1  0  0  0
 69 70  1  0  0  0
 70 71  1  0  0  0
 70 73  1  0  0  0
 71 72  2  0  0  0
 71 83  1  0  0  0
 73 74  1  0  0  0
 74 75  4  0  0  0
 74 76  4  0  0  0
 75 77  4  0  0  0
 76 78  4  0  0  0
 76 79  4  0  0  0
 77 78  4  0  0  0
 78 80  4  0  0  0
 79 81  4  0  0  0
 80 82  4  0  0  0
 81 82  4  0  0  0
 83 84  1  0  0  0
 84 85  1  0  0  0
 84 87  1  0  0  0
 85 86  2  0  0  0
 85 89  1  0  0  0
 87 88  1  0  0  0
 89 90  1  0  0  0
 90 91  1  0  0  0
 90 93  1  0  0  0
 91 92  1  0  0  0
 91100  2  0  0  0
 93 94  1  0  0  0
 94 95  1  0  0  0
 95 96  1  0  0  0
 96 97  1  0  0  0
 97 98  1  0  0  0
 97 99  2  0  0  0
  1101  1  0  0  0
  1102  1  0  0  0
  1103  1  0  0  0
  2104  1  0  0  0
  5105  1  0  0  0
  5106  1  0  0  0
  7107  1  0  0  0
 11108  1  0  0  0
 12109  1  0  0  0
 13110  1  0  0  0
 14111  1  0  0  0
 15112  1  0  0  0
 16113  1  0  0  0
 19114  1  0  0  0
 19115  1  0  0  0
 19116  1  0  0  0
 20117  1  0  0  0
 21118  1  0  0  0
 24119  1  0  0  0
 24120  1  0  0  0
 25121  1  0  0  0
 26122  1  0  0  0
 26123  1  0  0  0
 26124  1  0  0  0
 27125  1  0  0  0
 27126  1  0  0  0
 27127  1  0  0  0
 28128  1  0  0  0
 29129  1  0  0  0
 32130  1  0  0  0
 32131  1  0  0  0
 35132  1  0  0  0
 37133  1  0  0  0
 40134  1  0  0  0
 40135  1  0  0  0
 41136  1  0  0  0
 41137  1  0  0  0
 42138  1  0  0  0
 42139  1  0  0  0
 43140  1  0  0  0
 44141  1  0  0  0
 47142  1  0  0  0
 48143  1  0  0  0
 48144  1  0  0  0
 49145  1  0  0  0
 49146  1  0  0  0
 49147  1  0  0  0
 50148  1  0  0  0
 50149  1  0  0  0
 50150  1  0  0  0
 51151  1  0  0  0
 52152  1  0  0  0
 55153  1  0  0  0
 55154  1  0  0  0
 55155  1  0  0  0
 56156  1  0  0  0
 57157  1  0  0  0
 57158  1  0  0  0
 60159  1  0  0  0
 61160  1  0  0  0
 64161  1  0  0  0
 64162  1  0  0  0
 65163  1  0  0  0
 65164  1  0  0  0
 66165  1  0  0  0
 66166  1  0  0  0
 67167  1  0  0  0
 67168  1  0  0  0
 68169  1  0  0  0
 68170  1  0  0  0
 68171  1  0  0  0
 69172  1  0  0  0
 70173  1  0  0  0
 73174  1  0  0  0
 73175  1  0  0  0
 75176  1  0  0  0
 79177  1  0  0  0
 80178  1  0  0  0
 81179  1  0  0  0
 82180  1  0  0  0
 83181  1  0  0  0
 84182  1  0  0  0
 87183  1  0  0  0
 87184  1  0  0  0
 88185  1  0  0  0
 89186  1  0  0  0
 90187  1  0  0  0
 92188  1  0  0  0
 93189  1  0  0  0
 93190  1  0  0  0
 94191  1  0  0  0
 94192  1  0  0  0
 95193  1  0  0  0
 95194  1  0  0  0
 96195  1  0  0  0
 98196  1  0  0  0
 98197  1  0  0  0
 99198  1  0  0  0
M  END
$$$$
