3piy_ligand
  -I-interpret- 

 57 60  0  0  0  0  0  0  0  0999 V2000
  -14.2190    7.6380  -13.4350 N   0  0  0  0  0
  -18.2980    5.8380  -18.1290 N   0  0  0  0  0
  -14.7430    7.0630  -14.6100 C   0  0  0  0  0
  -18.7070    5.6880  -16.8800 C   0  0  0  0  0
  -12.9830    8.2340  -13.4950 C   0  0  0  0  0
  -16.0250    6.7300  -14.6950 N   0  0  0  0  0
  -19.1340    5.6630  -19.1480 C   0  0  0  0  0
  -12.5700    7.1580  -15.6670 O   0  0  0  0  0
  -12.2420    8.2720  -14.8230 C   0  0  0  0  0
  -17.8790    5.8620  -15.7850 N   0  0  0  0  0
  -20.0350    5.3130  -16.6400 C   0  0  0  0  0
  -15.0390    7.4070  -21.7750 C   0  0  0  0  0
  -13.8910    6.8410  -15.7060 C   0  0  0  0  0
  -16.5370    6.1930  -15.8070 C   0  0  0  0  0
  -15.7620    6.5020  -22.5810 C   0  0  0  0  0
  -15.5400    7.7940  -20.5350 C   0  0  0  0  0
  -20.3940    5.3170  -18.9640 N   0  0  0  0  0
  -17.4700    6.3860  -20.8580 C   0  0  0  0  0
  -16.9750    5.9990  -22.0970 C   0  0  0  0  0
  -16.7570    7.2910  -20.0820 C   0  0  0  0  0
  -18.7030    5.8510  -20.4550 N   0  0  0  0  0
  -20.8690    5.1280  -17.7340 C   0  0  0  0  0
  -12.5060    8.7620  -12.4990 O   0  0  0  0  0
  -14.4070    6.2610  -16.8650 C   0  0  0  0  0
  -20.4590    5.1440  -15.3530 F   0  0  0  0  0
  -15.7490    5.9320  -16.9200 C   0  0  0  0  0
  -13.8490    7.9400  -22.1790 O   0  0  0  0  0
  -14.7930    8.6670  -19.8020 O   0  0  0  0  0
  -15.2720    6.1180  -23.8120 O   0  0  0  0  0
  -12.6120    9.5910  -15.5020 C   0  0  0  0  0
  -10.7150    8.2480  -14.6750 C   0  0  0  0  0
  -12.7680    7.1930  -21.6020 C   0  0  0  0  0
  -15.5710    9.2630  -18.7520 C   0  0  0  0  0
  -16.2620    5.4450  -24.6150 C   0  0  0  0  0
  -14.7448    7.6122  -12.5613 H   0  0  0  0  0
  -18.3029    5.7326  -14.8663 H   0  0  0  0  0
  -17.5411    5.2914  -22.7027 H   0  0  0  0  0
  -17.1509    7.6081  -19.1164 H   0  0  0  0  0
  -19.3468    5.5724  -21.1955 H   0  0  0  0  0
  -21.9071    4.8297  -17.5874 H   0  0  0  0  0
  -13.7582    6.0689  -17.7196 H   0  0  0  0  0
  -16.1773    5.4793  -17.8143 H   0  0  0  0  0
  -12.0615    9.6832  -16.4382 H   0  0  0  0  0
  -13.6827    9.6055  -15.7057 H   0  0  0  0  0
  -12.3547   10.4214  -14.8445 H   0  0  0  0  0
  -10.4099    7.3046  -14.2223 H   0  0  0  0  0
  -10.2544    8.3465  -15.6580 H   0  0  0  0  0
  -10.3997    9.0759  -14.0400 H   0  0  0  0  0
  -12.8362    7.2384  -20.5151 H   0  0  0  0  0
  -12.8306    6.1549  -21.9282 H   0  0  0  0  0
  -11.8191    7.6204  -21.9260 H   0  0  0  0  0
  -16.4117    9.8038  -19.1866 H   0  0  0  0  0
  -15.9434    8.4818  -18.0893 H   0  0  0  0  0
  -14.9463    9.9540  -18.1861 H   0  0  0  0  0
  -16.6026    4.5498  -24.0947 H   0  0  0  0  0
  -17.1069    6.1128  -24.7830 H   0  0  0  0  0
  -15.8224    5.1652  -25.5724 H   0  0  0  0  0
  3  1  1  0  0  0
  1  5  1  0  0  0
  2  4  4  0  0  0
  7  2  4  0  0  0
  6  3  4  0  0  0
  3 13  4  0  0  0
  4 10  1  0  0  0
  4 11  4  0  0  0
  5  9  1  0  0  0
  5 23  2  0  0  0
 14  6  4  0  0  0
  7 17  4  0  0  0
 21  7  1  0  0  0
  8  9  1  0  0  0
 13  8  1  0  0  0
  9 30  1  0  0  0
  9 31  1  0  0  0
 10 14  1  0  0  0
 22 11  4  0  0  0
 11 25  1  0  0  0
 15 12  4  0  0  0
 16 12  4  0  0  0
 12 27  1  0  0  0
 13 24  4  0  0  0
 14 26  4  0  0  0
 19 15  4  0  0  0
 15 29  1  0  0  0
 20 16  4  0  0  0
 16 28  1  0  0  0
 17 22  4  0  0  0
 18 19  4  0  0  0
 18 20  4  0  0  0
 18 21  1  0  0  0
 24 26  4  0  0  0
 27 32  1  0  0  0
 28 33  1  0  0  0
 29 34  1  0  0  0
  1 35  1  0  0  0
 10 36  1  0  0  0
 19 37  1  0  0  0
 20 38  1  0  0  0
 21 39  1  0  0  0
 22 40  1  0  0  0
 24 41  1  0  0  0
 26 42  1  0  0  0
 30 43  1  0  0  0
 30 44  1  0  0  0
 30 45  1  0  0  0
 31 46  1  0  0  0
 31 47  1  0  0  0
 31 48  1  0  0  0
 32 49  1  0  0  0
 32 50  1  0  0  0
 32 51  1  0  0  0
 33 52  1  0  0  0
 33 53  1  0  0  0
 33 54  1  0  0  0
 34 55  1  0  0  0
 34 56  1  0  0  0
 34 57  1  0  0  0
M  END
$$$$
