5a4q_ligand
  -I-interpret- 

 21 22  0  0  0  0  0  0  0  0999 V2000
   -6.9890  -30.2850    9.4110 N   0  0  0  0  0
   -7.1550  -29.3330   10.3660 C   0  0  0  0  0
   -8.2500  -28.5960   10.6070 C   0  0  0  0  0
   -8.2940  -27.6400   11.6240 C   0  0  0  0  0
   -7.1420  -27.4580   12.3890 C   0  0  0  0  0
   -7.0650  -26.2980   13.6830 Cl  0  0  0  0  0
   -6.0230  -28.2340   12.0990 C   0  0  0  0  0
   -6.0560  -29.1410   11.1260 C   0  0  0  0  0
   -4.8510  -30.1620   10.6170 S   0  0  0  0  0
   -5.7730  -30.8580    9.4100 C   0  0  0  0  0
   -5.4230  -31.7970    8.5470 N   0  0  0  0  0
   -4.2220  -32.4590    8.5800 C   0  0  0  0  0
   -3.9500  -33.3050    7.7290 O   0  0  0  0  0
   -3.1700  -32.1840    9.6160 C   0  0  0  0  0
   -9.1345  -28.7485    9.9885 H   0  0  0  0  0
   -9.1956  -27.0574   11.8131 H   0  0  0  0  0
   -5.1086  -28.0968   12.6762 H   0  0  0  0  0
   -6.0862  -32.0439    7.8124 H   0  0  0  0  0
   -2.9550  -33.1003   10.1658 H   0  0  0  0  0
   -2.2625  -31.8315    9.1258 H   0  0  0  0  0
   -3.5317  -31.4213   10.3057 H   0  0  0  0  0
  1  2  4  0  0  0
  1 10  4  0  0  0
  2  3  4  0  0  0
  2  8  4  0  0  0
  3  4  4  0  0  0
  4  5  4  0  0  0
  5  6  1  0  0  0
  5  7  4  0  0  0
  7  8  4  0  0  0
  8  9  4  0  0  0
  9 10  4  0  0  0
 10 11  1  0  0  0
 11 12  1  0  0  0
 12 13  2  0  0  0
 12 14  1  0  0  0
  3 15  1  0  0  0
  4 16  1  0  0  0
  7 17  1  0  0  0
 11 18  1  0  0  0
 14 19  1  0  0  0
 14 20  1  0  0  0
 14 21  1  0  0  0
M  END
$$$$
