3ot8_ligand
  -I-interpret- 

 51 55  0  0  0  0  0  0  0  0999 V2000
   14.4620   -0.5520   10.0620 C   0  0  0  0  0
   15.6050   -1.2240   10.3080 C   0  0  0  0  0
   16.5910   -0.6580    9.5290 N   0  0  0  0  0
   16.1020    0.4220    8.7980 N   0  0  0  0  0
   14.8370    0.4600    9.1330 C   0  0  0  0  0
   15.8630   -2.2990   11.1330 N   0  0  0  0  0
   17.0770   -2.7250   11.1370 C   0  0  0  0  0
   18.1960   -2.1600   10.3700 C   0  0  0  0  0
   17.9150   -1.1530    9.5380 C   0  0  0  0  0
   18.8000   -0.5130    8.7420 N   0  0  0  0  0
   17.4190   -3.8620   12.1030 C   0  0  0  0  0
   13.1820   -0.7320   10.7320 C   0  0  0  0  0
   16.9290   -3.4360   13.5220 C   0  0  0  0  0
   17.2820   -4.4480   14.5500 N   0  3  0  0  0
   16.5790   -5.6820   14.2390 C   0  0  0  0  0
   17.0870   -6.2140   12.8900 C   0  0  0  0  0
   16.8020   -5.1860   11.7570 C   0  0  0  0  0
   12.1450    0.1900   10.8280 C   0  0  0  0  0
   11.1210   -0.2460   11.5410 N   0  0  0  0  0
   11.5210   -1.4660   11.9640 N   0  0  0  0  0
   12.7690   -1.7940   11.5180 C   0  0  0  0  0
   10.6180   -2.2810   12.8230 C   0  0  0  0  0
   20.0260   -0.8910    8.3230 C   0  0  0  0  0
   20.7970   -2.3580    8.6970 S   0  0  0  0  0
   22.1890   -2.0680    7.8390 N   0  0  0  0  0
   22.0850   -0.8580    7.2670 C   0  0  0  0  0
   20.8800   -0.1530    7.5180 C   0  0  0  0  0
   23.2110   -0.3600    6.4390 C   0  0  0  0  0
   14.1371    1.1965    8.7382 H   0  0  0  0  0
   19.2102   -2.5453   10.4752 H   0  0  0  0  0
   18.4930    0.3994    8.4048 H   0  0  0  0  0
   18.4970   -4.0141   12.0488 H   0  0  0  0  0
   15.8439   -3.3364   13.4957 H   0  0  0  0  0
   17.4128   -2.4953   13.7850 H   0  0  0  0  0
   17.0106   -4.1152   15.4752 H   0  0  0  0  0
   18.2890   -4.6101   14.5490 H   0  0  0  0  0
   15.5072   -5.4924   14.1816 H   0  0  0  0  0
   16.7634   -6.4194   15.0202 H   0  0  0  0  0
   16.5716   -7.1465   12.6601 H   0  0  0  0  0
   18.1624   -6.3789   12.9565 H   0  0  0  0  0
   17.2316   -5.5504   10.8239 H   0  0  0  0  0
   15.7248   -5.0629   11.6453 H   0  0  0  0  0
   12.1739    1.1747   10.3614 H   0  0  0  0  0
   13.3259   -2.7052   11.7361 H   0  0  0  0  0
   10.4038   -1.7361   13.7424 H   0  0  0  0  0
    9.6878   -2.4748   12.2889 H   0  0  0  0  0
   11.1038   -3.2265   13.0642 H   0  0  0  0  0
   20.6548    0.8398    7.1286 H   0  0  0  0  0
   24.1112   -0.2999    7.0506 H   0  0  0  0  0
   23.3798   -1.0448    5.6079 H   0  0  0  0  0
   22.9662    0.6293    6.0523 H   0  0  0  0  0
  1  2  4  0  0  0
  1  5  4  0  0  0
  1 12  1  0  0  0
  2  3  4  0  0  0
  2  6  4  0  0  0
  3  4  4  0  0  0
  3  9  4  0  0  0
  4  5  4  0  0  0
  6  7  4  0  0  0
  7  8  4  0  0  0
  7 11  1  0  0  0
  8  9  4  0  0  0
  9 10  1  0  0  0
 10 23  1  0  0  0
 11 13  1  0  0  0
 11 17  1  0  0  0
 12 18  4  0  0  0
 12 21  4  0  0  0
 13 14  1  0  0  0
 14 15  1  0  0  0
 15 16  1  0  0  0
 16 17  1  0  0  0
 18 19  4  0  0  0
 19 20  4  0  0  0
 20 21  4  0  0  0
 20 22  1  0  0  0
 23 24  4  0  0  0
 23 27  4  0  0  0
 24 25  4  0  0  0
 25 26  4  0  0  0
 26 27  4  0  0  0
 26 28  1  0  0  0
  5 29  1  0  0  0
  8 30  1  0  0  0
 10 31  1  0  0  0
 11 32  1  0  0  0
 13 33  1  0  0  0
 13 34  1  0  0  0
 14 35  1  0  0  0
 14 36  1  0  0  0
 15 37  1  0  0  0
 15 38  1  0  0  0
 16 39  1  0  0  0
 16 40  1  0  0  0
 17 41  1  0  0  0
 17 42  1  0  0  0
 18 43  1  0  0  0
 21 44  1  0  0  0
 22 45  1  0  0  0
 22 46  1  0  0  0
 22 47  1  0  0  0
 27 48  1  0  0  0
 28 49  1  0  0  0
 28 50  1  0  0  0
 28 51  1  0  0  0
M  END
$$$$
