3jzg_ligand
  -I-interpret- 

 79 78  0  0  0  0  0  0  0  0999 V2000
  -21.2400   36.2310  -26.1160 N   0  3  0  0  0
  -19.8770   35.6570  -26.2660 C   0  0  0  0  0
  -19.9800   34.2120  -26.7680 C   0  0  0  0  0
  -20.5700   33.3660  -26.0840 O   0  0  0  0  0
  -19.1170   35.6950  -24.9340 C   0  0  0  0  0
  -19.3950   33.9080  -27.9320 N   0  0  0  0  0
  -19.4240   32.5270  -28.4270 C   0  0  0  0  0
  -18.1530   31.7680  -28.0420 C   0  0  0  0  0
  -17.0690   32.3710  -27.9240 O   0  0  0  0  0
  -19.7650   32.3920  -29.9380 C   0  0  0  0  0
  -18.8480   33.1910  -30.9920 C   0  0  0  0  0
  -18.9620   32.6910  -32.5060 C   0  0  0  0  0
  -20.1200   31.8190  -32.7020 N   0  0  0  0  0
  -21.3780   32.2600  -32.8060 C   0  0  0  0  0
  -21.6460   33.5710  -32.7680 N   0  0  0  0  0
  -22.3800   31.3980  -32.9420 N   0  0  0  0  0
  -18.3440   30.4560  -27.8270 N   0  0  0  0  0
  -17.2870   29.4840  -27.5180 C   0  0  0  0  0
  -17.8310   28.1860  -26.8670 C   0  0  0  0  0
  -16.7790   27.4960  -25.9920 C   0  0  0  0  0
  -17.1180   26.0490  -25.6340 C   0  0  0  0  0
  -16.1070   25.3950  -24.6450 C   0  0  0  0  0
  -16.5280   24.1140  -23.9770 N   0  3  0  0  0
  -16.3470   29.1670  -28.6700 C   0  0  0  0  0
  -15.1720   28.8160  -28.3980 O   0  0  0  0  0
  -17.3190   24.2860  -22.7490 C   0  0  0  0  0
  -15.3020   23.4170  -23.5350 C   0  0  0  0  0
  -17.3120   23.2570  -24.9200 C   0  0  0  0  0
  -16.8250   29.2750  -29.9410 N   0  0  0  0  0
  -15.9250   29.1730  -31.1770 C   0  0  0  0  0
  -16.0410   30.2100  -32.3350 C   0  0  0  0  0
  -17.1170   30.7140  -32.6440 O   0  0  0  0  0
  -15.9620   27.7630  -31.7710 C   0  0  0  0  0
  -17.3000   27.3250  -31.8430 O   0  0  0  0  0
  -15.0039   30.5394  -32.9702 O   0  0  0  0  0
  -21.7237   36.1943  -27.0133 H   0  0  0  0  0
  -21.7610   35.6908  -25.4252 H   0  0  0  0  0
  -21.1673   37.2003  -25.8070 H   0  0  0  0  0
  -19.3256   36.2568  -26.9901 H   0  0  0  0  0
  -19.6494   35.0948  -24.1961 H   0  0  0  0  0
  -18.1146   35.2916  -25.0775 H   0  0  0  0  0
  -19.0489   36.7255  -24.5853 H   0  0  0  0  0
  -18.9294   34.6353  -28.4748 H   0  0  0  0  0
  -20.2626   32.0513  -27.9186 H   0  0  0  0  0
  -20.7651   32.8112  -30.0479 H   0  0  0  0  0
  -19.6250   31.3370  -30.1735 H   0  0  0  0  0
  -17.8128   33.0364  -30.6876 H   0  0  0  0  0
  -19.1844   34.2277  -30.9778 H   0  0  0  0  0
  -18.0619   32.1267  -32.7500 H   0  0  0  0  0
  -19.0769   33.5641  -33.1483 H   0  0  0  0  0
  -19.9580   30.8138  -32.7630 H   0  0  0  0  0
  -22.6096   33.8970  -32.8431 H   0  0  0  0  0
  -20.8866   34.2440  -32.6640 H   0  0  0  0  0
  -22.1909   30.3960  -32.9674 H   0  0  0  0  0
  -19.3006   30.1063  -27.8828 H   0  0  0  0  0
  -16.6769   30.0020  -26.7781 H   0  0  0  0  0
  -18.1145   27.4986  -27.6640 H   0  0  0  0  0
  -18.6782   28.4517  -26.2347 H   0  0  0  0  0
  -16.7197   28.0543  -25.0577 H   0  0  0  0  0
  -15.8484   27.4787  -26.5592 H   0  0  0  0  0
  -17.0916   25.4701  -26.5572 H   0  0  0  0  0
  -18.0933   26.0536  -25.1474 H   0  0  0  0  0
  -15.9714   26.1174  -23.8401 H   0  0  0  0  0
  -15.2305   25.1430  -25.2419 H   0  0  0  0  0
  -16.7348   24.8439  -22.0172 H   0  0  0  0  0
  -18.2325   24.8338  -22.9805 H   0  0  0  0  0
  -17.5739   23.3073  -22.3425 H   0  0  0  0  0
  -14.6734   23.2064  -24.4002 H   0  0  0  0  0
  -14.7579   24.0506  -22.8346 H   0  0  0  0  0
  -15.5737   22.4818  -23.0454 H   0  0  0  0  0
  -18.2031   23.7954  -25.2429 H   0  0  0  0  0
  -16.6970   23.0166  -25.7872 H   0  0  0  0  0
  -17.6051   22.3369  -24.4145 H   0  0  0  0  0
  -17.8241   29.4303  -30.0756 H   0  0  0  0  0
  -14.9690   29.4371  -30.7249 H   0  0  0  0  0
  -15.3887   27.0848  -31.1390 H   0  0  0  0  0
  -15.5271   27.7757  -32.7704 H   0  0  0  0  0
  -17.3264   26.4405  -32.2153 H   0  0  0  0  0
  -14.2485   30.0650  -32.6153 H   0  0  0  0  0
  1  2  1  0  0  0
  2  3  1  0  0  0
  2  5  1  0  0  0
  3  4  2  0  0  0
  3  6  1  0  0  0
  6  7  1  0  0  0
  7  8  1  0  0  0
  7 10  1  0  0  0
  8  9  2  0  0  0
  8 17  1  0  0  0
 10 11  1  0  0  0
 11 12  1  0  0  0
 12 13  1  0  0  0
 13 14  1  0  0  0
 14 15  1  0  0  0
 14 16  2  0  0  0
 17 18  1  0  0  0
 18 19  1  0  0  0
 18 24  1  0  0  0
 19 20  1  0  0  0
 20 21  1  0  0  0
 21 22  1  0  0  0
 22 23  1  0  0  0
 23 26  1  0  0  0
 23 27  1  0  0  0
 23 28  1  0  0  0
 24 25  2  0  0  0
 24 29  1  0  0  0
 29 30  1  0  0  0
 30 31  1  0  0  0
 30 33  1  0  0  0
 31 32  2  0  0  0
 33 34  1  0  0  0
 31 35  1  0  0  0
  1 36  1  0  0  0
  1 37  1  0  0  0
  1 38  1  0  0  0
  2 39  1  0  0  0
  5 40  1  0  0  0
  5 41  1  0  0  0
  5 42  1  0  0  0
  6 43  1  0  0  0
  7 44  1  0  0  0
 10 45  1  0  0  0
 10 46  1  0  0  0
 11 47  1  0  0  0
 11 48  1  0  0  0
 12 49  1  0  0  0
 12 50  1  0  0  0
 13 51  1  0  0  0
 15 52  1  0  0  0
 15 53  1  0  0  0
 16 54  1  0  0  0
 17 55  1  0  0  0
 18 56  1  0  0  0
 19 57  1  0  0  0
 19 58  1  0  0  0
 20 59  1  0  0  0
 20 60  1  0  0  0
 21 61  1  0  0  0
 21 62  1  0  0  0
 22 63  1  0  0  0
 22 64  1  0  0  0
 26 65  1  0  0  0
 26 66  1  0  0  0
 26 67  1  0  0  0
 27 68  1  0  0  0
 27 69  1  0  0  0
 27 70  1  0  0  0
 28 71  1  0  0  0
 28 72  1  0  0  0
 28 73  1  0  0  0
 29 74  1  0  0  0
 30 75  1  0  0  0
 33 76  1  0  0  0
 33 77  1  0  0  0
 34 78  1  0  0  0
 35 79  1  0  0  0
M  END
$$$$
