1gni_ligand
  -I-interpret- 

 54 53  0  0  0  0  0  0  0  0999 V2000
   29.8480   12.4910   35.5290 C   0  0  0  0  0
   29.0440   13.4120   35.8070 O   0  0  0  0  0
   29.4660   11.3690   35.1310 O   0  0  0  0  0
   31.3590   12.7330   35.6690 C   0  0  0  0  0
   31.6740   13.6900   36.8330 C   0  0  0  0  0
   33.1970   13.8230   36.8300 C   0  0  0  0  0
   33.6470   15.2850   36.8820 C   0  0  0  0  0
   35.1420   15.4200   36.5820 C   0  0  0  0  0
   35.4050   15.8770   35.1430 C   0  0  0  0  0
   36.6180   15.1890   34.5120 C   0  0  0  0  0
   37.1540   15.9590   33.2960 C   0  0  0  0  0
   37.1270   15.5550   31.9990 C   0  0  0  0  0
   36.5580   14.2480   31.4630 C   0  0  0  0  0
   35.6750   14.4660   30.2420 C   0  0  0  0  0
   34.4940   13.4960   30.2550 C   0  0  0  0  0
   33.6810   13.5500   28.9680 C   0  0  0  0  0
   32.5900   12.4970   28.9760 C   0  0  0  0  0
   32.5080   11.8090   27.6250 C   0  0  0  0  0
   33.1240   10.4130   27.6620 C   0  0  0  0  0
   32.0470    9.3460   27.6640 C   0  0  0  0  0
   29.5333   14.1873   36.0918 H   0  0  0  0  0
   31.7229   13.1828   34.7452 H   0  0  0  0  0
   31.8439   11.7773   35.8680 H   0  0  0  0  0
   31.3025   13.3078   37.7838 H   0  0  0  0  0
   31.1827   14.6550   36.7085 H   0  0  0  0  0
   33.5750   13.3834   35.9070 H   0  0  0  0  0
   33.5844   13.3162   37.7139 H   0  0  0  0  0
   33.4589   15.6697   37.8844 H   0  0  0  0  0
   33.0910   15.8453   36.1303 H   0  0  0  0  0
   35.6046   14.4423   36.7171 H   0  0  0  0  0
   35.5569   16.1688   37.2567 H   0  0  0  0  0
   35.6040   16.9485   35.1650 H   0  0  0  0  0
   34.5292   15.6205   34.5469 H   0  0  0  0  0
   36.3101   14.1984   34.1774 H   0  0  0  0  0
   37.4093   15.1432   35.2602 H   0  0  0  0  0
   37.6034   16.9320   33.4944 H   0  0  0  0  0
   37.5573   16.2373   31.2659 H   0  0  0  0  0
   35.9497   13.7954   32.2461 H   0  0  0  0  0
   37.3912   13.6090   31.1704 H   0  0  0  0  0
   36.2657   14.2926   29.3425 H   0  0  0  0  0
   35.2945   15.4873   30.2581 H   0  0  0  0  0
   33.8380   13.7757   31.0793 H   0  0  0  0  0
   34.8895   12.4858   30.3609 H   0  0  0  0  0
   34.3452   13.3617   28.1245 H   0  0  0  0  0
   33.2194   14.5339   28.8848 H   0  0  0  0  0
   31.6348   12.9773   29.1882 H   0  0  0  0  0
   32.8198   11.7537   29.7394 H   0  0  0  0  0
   33.0602   12.4083   26.9011 H   0  0  0  0  0
   31.4570   11.7128   27.3526 H   0  0  0  0  0
   33.7159   10.3152   28.5721 H   0  0  0  0  0
   33.7464   10.2810   26.7769 H   0  0  0  0  0
   31.4130    9.4732   28.5415 H   0  0  0  0  0
   31.4432    9.4393   26.7613 H   0  0  0  0  0
   32.5132    8.3611   27.6906 H   0  0  0  0  0
  1  2  1  0  0  0
  1  3  2  0  0  0
  1  4  1  0  0  0
  4  5  1  0  0  0
  5  6  1  0  0  0
  6  7  1  0  0  0
  7  8  1  0  0  0
  8  9  1  0  0  0
  9 10  1  0  0  0
 10 11  1  0  0  0
 11 12  2  0  0  0
 12 13  1  0  0  0
 13 14  1  0  0  0
 14 15  1  0  0  0
 15 16  1  0  0  0
 16 17  1  0  0  0
 17 18  1  0  0  0
 18 19  1  0  0  0
 19 20  1  0  0  0
  2 21  1  0  0  0
  4 22  1  0  0  0
  4 23  1  0  0  0
  5 24  1  0  0  0
  5 25  1  0  0  0
  6 26  1  0  0  0
  6 27  1  0  0  0
  7 28  1  0  0  0
  7 29  1  0  0  0
  8 30  1  0  0  0
  8 31  1  0  0  0
  9 32  1  0  0  0
  9 33  1  0  0  0
 10 34  1  0  0  0
 10 35  1  0  0  0
 11 36  1  0  0  0
 12 37  1  0  0  0
 13 38  1  0  0  0
 13 39  1  0  0  0
 14 40  1  0  0  0
 14 41  1  0  0  0
 15 42  1  0  0  0
 15 43  1  0  0  0
 16 44  1  0  0  0
 16 45  1  0  0  0
 17 46  1  0  0  0
 17 47  1  0  0  0
 18 48  1  0  0  0
 18 49  1  0  0  0
 19 50  1  0  0  0
 19 51  1  0  0  0
 20 52  1  0  0  0
 20 53  1  0  0  0
 20 54  1  0  0  0
M  END
$$$$
