2o4r_ligand
  -I-interpret- 

 72 74  0  0  0  0  0  0  0  0999 V2000
   58.6410    8.1120    1.1290 O   0  0  0  0  0
   60.0720    8.1510    1.1710 C   0  0  0  0  0
   60.4990    6.9420    1.9700 C   0  0  0  0  0
   61.1180    7.0430    3.1420 C   0  0  0  0  0
   60.1550    5.6100    1.4290 C   0  0  0  0  0
   60.6250    4.6310    2.3660 O   0  0  0  0  0
   60.8200    5.4780    0.0380 C   0  0  0  0  0
   60.5780    8.0860   -0.2670 C   0  0  0  0  0
   60.5540    6.6880   -0.8610 C   0  0  0  0  0
   60.3190    6.5590   -2.2040 C   0  0  0  0  0
   60.3190    5.2430   -2.8880 C   0  0  0  0  0
   60.4950    5.1380   -4.2460 C   0  0  0  0  0
   60.6700    6.3700   -5.1360 C   0  0  0  0  0
   61.9240    6.2130   -6.0160 C   0  0  0  0  0
   62.1560    4.7980   -6.6190 C   0  0  0  0  0
   60.6070    3.8140   -5.0110 C   0  0  0  0  0
   62.0390    3.6800   -5.5630 C   0  0  0  0  0
   63.1380    3.7650   -4.4740 C   0  0  0  0  0
   60.2830    2.4580   -4.3800 C   0  0  0  0  0
   61.0310    1.4330   -5.2850 C   0  0  0  0  0
   62.0800    2.2350   -6.0340 C   0  0  0  0  0
   62.9260    1.7150   -6.9700 C   0  0  0  0  0
   63.9680    2.5330   -7.7070 C   0  0  0  0  0
   62.8890    0.2630   -7.3870 C   0  0  0  0  0
   63.7670   -0.5750   -6.4670 C   0  0  0  0  0
   65.2380   -0.4300   -6.8750 C   0  0  0  0  0
   66.0370   -1.6950   -6.6220 C   0  0  0  0  0
   66.0010   -2.1750   -5.1590 C   0  0  0  0  0
   67.4820   -1.3990   -6.9750 C   0  0  0  0  0
   65.5130   -2.7450   -7.4440 O   0  0  0  0  0
   58.2945    8.1516    2.0234 H   0  0  0  0  0
   60.4718    9.0547    1.6310 H   0  0  0  0  0
   61.3717    6.1439    3.7036 H   0  0  0  0  0
   61.3719    8.0249    3.5414 H   0  0  0  0  0
   59.0825    5.4657    1.2987 H   0  0  0  0  0
   60.1823    4.7575    3.2084 H   0  0  0  0  0
   60.4008    4.5988   -0.4513 H   0  0  0  0  0
   61.8970    5.4026    0.1877 H   0  0  0  0  0
   61.6155    8.4202   -0.2626 H   0  0  0  0  0
   59.9192    8.7085   -0.8725 H   0  0  0  0  0
   60.1249    7.4562   -2.7917 H   0  0  0  0  0
   60.1759    4.3373   -2.2987 H   0  0  0  0  0
   60.7827    7.2529   -4.5068 H   0  0  0  0  0
   59.7944    6.4760   -5.7765 H   0  0  0  0  0
   62.7793    6.4168   -5.3718 H   0  0  0  0  0
   61.7937    6.8896   -6.8606 H   0  0  0  0  0
   63.1652    4.7686   -7.0297 H   0  0  0  0  0
   61.3920    4.6260   -7.3772 H   0  0  0  0  0
   59.7864    3.9534   -5.7148 H   0  0  0  0  0
   64.1188    3.6804   -4.9420 H   0  0  0  0  0
   63.0621    4.7215   -3.9569 H   0  0  0  0  0
   63.0035    2.9527   -3.7598 H   0  0  0  0  0
   59.2106    2.2672   -4.3385 H   0  0  0  0  0
   60.6015    2.3998   -3.3392 H   0  0  0  0  0
   60.3463    0.9351   -5.9715 H   0  0  0  0  0
   61.4857    0.6382   -4.6936 H   0  0  0  0  0
   63.4752    3.3301   -8.2637 H   0  0  0  0  0
   64.6631    2.9663   -6.9879 H   0  0  0  0  0
   64.5122    1.8886   -8.3975 H   0  0  0  0  0
   63.2604    0.1769   -8.4082 H   0  0  0  0  0
   61.8626   -0.0985   -7.3251 H   0  0  0  0  0
   63.4736   -1.6219   -6.5454 H   0  0  0  0  0
   63.6431   -0.2310   -5.4402 H   0  0  0  0  0
   65.6759    0.3700   -6.2780 H   0  0  0  0  0
   65.2719   -0.2183   -7.9437 H   0  0  0  0  0
   66.4119   -1.3990   -4.5131 H   0  0  0  0  0
   64.9702   -2.3812   -4.8709 H   0  0  0  0  0
   66.5955   -3.0833   -5.0612 H   0  0  0  0  0
   67.5466   -1.1102   -8.0241 H   0  0  0  0  0
   67.8480   -0.5849   -6.3495 H   0  0  0  0  0
   68.0862   -2.2900   -6.8043 H   0  0  0  0  0
   66.0130   -3.5500   -7.2903 H   0  0  0  0  0
  1  2  1  0  0  0
  2  3  1  0  0  0
  2  8  1  0  0  0
  3  4  2  0  0  0
  3  5  1  0  0  0
  5  6  1  0  0  0
  5  7  1  0  0  0
  7  9  1  0  0  0
  8  9  1  0  0  0
  9 10  2  0  0  0
 10 11  1  0  0  0
 11 12  2  0  0  0
 12 13  1  0  0  0
 12 16  1  0  0  0
 13 14  1  0  0  0
 14 15  1  0  0  0
 15 17  1  0  0  0
 16 17  1  0  0  0
 16 19  1  0  0  0
 17 18  1  0  0  0
 17 21  1  0  0  0
 19 20  1  0  0  0
 20 21  1  0  0  0
 21 22  2  0  0  0
 22 23  1  0  0  0
 22 24  1  0  0  0
 24 25  1  0  0  0
 25 26  1  0  0  0
 26 27  1  0  0  0
 27 28  1  0  0  0
 27 29  1  0  0  0
 27 30  1  0  0  0
  1 31  1  0  0  0
  2 32  1  0  0  0
  4 33  1  0  0  0
  4 34  1  0  0  0
  5 35  1  0  0  0
  6 36  1  0  0  0
  7 37  1  0  0  0
  7 38  1  0  0  0
  8 39  1  0  0  0
  8 40  1  0  0  0
 10 41  1  0  0  0
 11 42  1  0  0  0
 13 43  1  0  0  0
 13 44  1  0  0  0
 14 45  1  0  0  0
 14 46  1  0  0  0
 15 47  1  0  0  0
 15 48  1  0  0  0
 16 49  1  0  0  0
 18 50  1  0  0  0
 18 51  1  0  0  0
 18 52  1  0  0  0
 19 53  1  0  0  0
 19 54  1  0  0  0
 20 55  1  0  0  0
 20 56  1  0  0  0
 23 57  1  0  0  0
 23 58  1  0  0  0
 23 59  1  0  0  0
 24 60  1  0  0  0
 24 61  1  0  0  0
 25 62  1  0  0  0
 25 63  1  0  0  0
 26 64  1  0  0  0
 26 65  1  0  0  0
 28 66  1  0  0  0
 28 67  1  0  0  0
 28 68  1  0  0  0
 29 69  1  0  0  0
 29 70  1  0  0  0
 29 71  1  0  0  0
 30 72  1  0  0  0
M  END
$$$$
