### 
### Created by X-TOOL on Mon Sep 10 21:13:31 2018
### 

@<TRIPOS>MOLECULE
5u66_ligand
  282   286     1     0     0
SMALL
GAST_HUCK


@<TRIPOS>ATOM
      1 C1         13.3870   69.0770   45.1710 C.3       1 SIN         0.0841
      2 O1         13.2220   67.8530   45.3310 O.3       1 SIN        -0.3529
      3 C2         12.1810   69.9120   44.7630 C.3       1 SIN         0.0281
      4 C3         10.8100   69.4120   45.2730 C.3       1 SIN         0.0077
      5 C4         10.3940   68.0680   44.7310 C.2       1 SIN         0.0351
      6 O3         10.7740   67.7150   43.5710 O.co2     1 SIN        -0.5690
      7 O4          9.7040   67.3480   45.5230 O.co2     1 SIN        -0.5690
      8 N          14.4640   69.1320   44.3830 N.4       1 PHE         0.2693
      9 CA         15.7930   68.4030   44.4910 C.3       1 PHE         0.0787
     10 C          16.9910   69.3320   44.6390 C.2       1 PHE         0.2290
     11 O          16.9280   70.5320   44.3420 O.2       1 PHE        -0.3905
     12 CB         16.0240   67.4530   43.2930 C.3       1 PHE         0.0417
     13 CG         16.2290   68.1690   41.9530 C.ar      1 PHE        -0.0353
     14 CD1        15.1450   68.5610   41.2240 C.ar      1 PHE        -0.0600
     15 CD2        17.5070   68.4830   41.5130 C.ar      1 PHE        -0.0600
     16 CE1        15.3390   69.2830   40.0590 C.ar      1 PHE        -0.0686
     17 CE2        17.6940   69.1550   40.3470 C.ar      1 PHE        -0.0686
     18 CZ         16.5950   69.5660   39.6380 C.ar      1 PHE        -0.0687
     19 N          18.1140   68.7300   45.0410 N.am      1 ASN        -0.2587
     20 CA         19.3450   69.4650   45.2750 C.3       1 ASN         0.1477
     21 C          20.0830   69.7140   43.9250 C.2       1 ASN         0.2063
     22 O          20.6650   68.7600   43.3610 O.2       1 ASN        -0.3942
     23 CB         20.2180   68.6160   46.1770 C.3       1 ASN         0.0773
     24 CG         21.5470   69.2410   46.5750 C.2       1 ASN         0.1780
     25 OD1        22.1160   70.0990   45.9260 O.2       1 ASN        -0.3970
     26 ND2        22.1290   68.6570   47.6400 N.am      1 ASN        -0.3007
     27 N          20.0350   70.9520   43.4520 N.am      1 MET        -0.2636
     28 CA         20.5870   71.2880   42.1130 C.3       1 MET         0.1317
     29 C          22.1070   71.1630   42.0680 C.2       1 MET         0.2039
     30 O          22.7180   70.6080   41.1010 O.2       1 MET        -0.3944
     31 CB         20.1510   72.6690   41.6050 C.3       1 MET        -0.0034
     32 CG         20.6450   72.9910   40.1800 C.3       1 MET        -0.0024
     33 SD         19.9010   71.8560   38.9760 S.3       1 MET        -0.1639
     34 CE         18.2150   72.4010   39.1130 C.3       1 MET        -0.0181
     35 N          22.8720   71.5860   43.1650 N.am      1 85J        -0.2636
     36 CA         24.3250   71.5120   43.1200 C.3       1 85J         0.1330
     37 C          24.8050   70.0750   43.0670 C.2       1 85J         0.2040
     38 O          25.6160   69.6670   42.2810 O.2       1 85J        -0.3944
     39 CB         24.8960   72.1160   44.4200 C.3       1 85J         0.0045
     40 CG         25.0340   73.6250   44.3640 C.3       1 85J         0.0414
     41 CD         25.9500   74.0210   43.2310 C.2       1 85J         0.1762
     42 OE1        25.4890   74.3870   42.1210 O.2       1 85J        -0.3971
     43 NE2        27.2580   73.8970   43.4920 N.am      1 85J        -0.2870
     44 CZ         28.3060   74.1730   42.4860 C.3       1 85J         0.0309
     45 CT         28.4820   72.8940   41.6730 C.3       1 85J        -0.0327
     46 CI         29.2790   73.1770   40.4100 C.3       1 85J        -0.0494
     47 N          24.0170   69.0050   43.7570 N.am      1 GLN        -0.2636
     48 CA         24.3720   67.6250   43.7130 C.3       1 GLN         0.1330
     49 C          24.1150   67.0850   42.3160 C.2       1 GLN         0.2040
     50 O          24.8610   66.2830   41.8470 O.2       1 GLN        -0.3944
     51 CB         23.5890   66.8200   44.7540 C.3       1 GLN         0.0045
     52 CG         24.4160   65.6860   45.2650 C.3       1 GLN         0.0412
     53 CD         25.6360   66.0820   46.1270 C.2       1 GLN         0.1737
     54 OE1        26.4920   65.2560   46.4140 O.2       1 GLN        -0.3973
     55 NE2        25.7580   67.3620   46.4370 N.am      1 GLN        -0.3009
     56 N          23.0180   67.5050   41.7220 N.am      1 GLN        -0.2636
     57 CA         22.7400   67.0910   40.3020 C.3       1 GLN         0.1330
     58 C          23.8030   67.5450   39.3660 C.2       1 GLN         0.2040
     59 O          24.2260   66.7340   38.4370 O.2       1 GLN        -0.3944
     60 CB         21.3800   67.6310   39.8900 C.3       1 GLN         0.0045
     61 CG         20.9000   67.1990   38.4750 C.3       1 GLN         0.0412
     62 CD         20.7190   65.7210   38.3200 C.2       1 GLN         0.1737
     63 OE1        20.4830   64.9750   39.2820 O.2       1 GLN        -0.3973
     64 NE2        20.7730   65.2600   37.0800 N.am      1 GLN        -0.3009
     65 N          24.2150   68.7880   39.4840 N.am      1 ARG        -0.2637
     66 CA         25.3370   69.2970   38.6210 C.3       1 ARG         0.1311
     67 C          26.6460   68.5090   38.8070 C.2       1 ARG         0.2039
     68 O          27.3140   68.1490   37.8140 O.2       1 ARG        -0.3944
     69 CB         25.5640   70.7740   38.8680 C.3       1 ARG        -0.0092
     70 CG         24.4270   71.7000   38.4240 C.3       1 ARG        -0.0156
     71 CD         24.8550   73.1600   38.6230 C.3       1 ARG         0.0627
     72 NE         23.8510   74.1370   38.1840 N.pl3     1 ARG        -0.2723
     73 CZ         23.6990   74.6680   36.9260 C.cat     1 ARG         0.2882
     74 NH1        24.4370   74.3020   35.8150 N.pl3     1 ARG        -0.2849
     75 NH2        22.7360   75.5870   36.7460 N.pl3     1 ARG        -0.2849
     76 N          27.0040   68.1880   40.0730 N.am      1 ARG        -0.2637
     77 CA         28.2210   67.4330   40.3420 C.3       1 ARG         0.1311
     78 C          28.1190   66.0300   39.7320 C.2       1 ARG         0.2040
     79 O          29.0880   65.5480   39.1660 O.2       1 ARG        -0.3944
     80 CB         28.5160   67.3000   41.8520 C.3       1 ARG        -0.0092
     81 CG         28.8670   68.6480   42.4780 C.3       1 ARG        -0.0156
     82 CD         29.5360   68.5570   43.8400 C.3       1 ARG         0.0627
     83 NE         29.6250   69.9180   44.4410 N.pl3     1 ARG        -0.2723
     84 CZ         30.5250   70.8620   44.1100 C.cat     1 ARG         0.2882
     85 NH1        31.4900   70.6520   43.1910 N.pl3     1 ARG        -0.2849
     86 NH2        30.4520   72.0490   44.6970 N.pl3     1 ARG        -0.2849
     87 N          26.9190   65.4480   39.7670 N.am      1 PHE        -0.2619
     88 CA         26.6790   64.1050   39.2460 C.3       1 PHE         0.1404
     89 C          26.9330   64.1250   37.7160 C.2       1 PHE         0.2061
     90 O          27.6570   63.2850   37.1980 O.2       1 PHE        -0.3942
     91 CB         25.2220   63.6720   39.5350 C.3       1 PHE         0.0214
     92 CG         24.7620   62.5030   38.7170 C.ar      1 PHE        -0.0386
     93 CD1        25.4320   61.2890   38.8060 C.ar      1 PHE        -0.0601
     94 CD2        23.5990   62.5970   37.8870 C.ar      1 PHE        -0.0601
     95 CE1        25.0680   60.2160   37.9920 C.ar      1 PHE        -0.0686
     96 CE2        23.1960   61.5030   37.1190 C.ar      1 PHE        -0.0686
     97 CZ         23.9330   60.3240   37.1570 C.ar      1 PHE        -0.0687
     98 N          26.2850   65.0660   37.0840 N.am      1 TYR        -0.2620
     99 CA         26.3230   65.1190   35.5730 C.3       1 TYR         0.1390
    100 C          27.7960   65.2850   35.1560 C.2       1 TYR         0.2057
    101 O          28.3230   64.7400   34.1610 O.2       1 TYR        -0.3942
    102 CB         25.5180   66.3280   35.1250 C.3       1 TYR         0.0163
    103 CG         25.5340   66.5010   33.5850 C.ar      1 TYR        -0.0493
    104 CD1        24.6770   65.7250   32.8230 C.ar      1 TYR        -0.0685
    105 CD2        26.3660   67.4250   32.9940 C.ar      1 TYR        -0.0685
    106 CE1        24.6790   65.7980   31.4130 C.ar      1 TYR        -0.0398
    107 CE2        26.4040   67.5380   31.5880 C.ar      1 TYR        -0.0398
    108 CZ         25.5270   66.7580   30.8460 C.ar      1 TYR         0.0805
    109 OH         25.5790   66.9080   29.4400 O.3       1 TYR        -0.3376
    110 N          28.5890   66.3820   35.9200 N.am      1 85G        -0.2634
    111 CA         30.0250   66.6460   35.5720 C.3       1 85G         0.1330
    112 C          30.9230   65.4570   35.7160 C.2       1 85G         0.2040
    113 O          31.8600   65.2900   34.9350 O.2       1 85G        -0.3944
    114 CB         30.5590   67.7610   36.4000 C.3       1 85G         0.0045
    115 CG         30.0150   69.1090   35.9380 C.3       1 85G         0.0414
    116 CD         30.2730   70.1410   37.0230 C.2       1 85G         0.1762
    117 OE1        31.3230   70.0410   37.6720 O.2       1 85G        -0.3971
    118 CK         29.4310   71.9690   39.5260 C.3       1 85G        -0.0327
    119 CY         29.8350   72.4550   38.1360 C.3       1 85G         0.0309
    120 NM         29.3530   71.4780   37.1240 N.am      1 85G        -0.2870
    121 N          30.5250   64.4320   36.7080 N.am      1 ALA        -0.2640
    122 CA         31.3610   63.3350   37.0800 C.3       1 ALA         0.1282
    123 C          30.9410   62.0180   36.4050 C.2       1 ALA         0.2036
    124 O          31.5150   60.9700   36.7260 O.2       1 ALA        -0.3944
    125 CB         31.3540   63.2120   38.5990 C.3       1 ALA        -0.0244
    126 N          29.9360   62.0520   35.5090 N.am      1 LEU        -0.2637
    127 CA         29.2880   60.8230   35.0210 C.3       1 LEU         0.1312
    128 C          30.2050   59.6900   34.4430 C.2       1 LEU         0.2034
    129 O          29.9670   58.4330   34.6220 O.2       1 LEU        -0.3944
    130 CB         28.1710   61.2020   34.0200 C.3       1 LEU        -0.0101
    131 CG         27.2570   60.0140   33.7160 C.3       1 LEU        -0.0425
    132 CD1        25.9220   60.2390   34.3320 C.3       1 LEU        -0.0625
    133 CD2        27.0830   59.7760   32.2260 C.3       1 LEU        -0.0625
    134 N          31.2710   60.1340   33.8110 N.am      1 HIS        -0.2682
    135 CA         32.3110   59.2460   33.3920 C.3       1 HIS         0.1004
    136 C          33.5070   58.9830   34.3400 C.2       1 HIS         0.0615
    137 O          34.4880   58.2700   33.8720 O.co2     1 HIS        -0.5665
    138 CB         32.8110   59.6690   31.9650 C.3       1 HIS         0.0090
    139 CG         31.8030   59.5070   30.8680 C.2       1 HIS        -0.0033
    140 ND1        31.3400   58.2730   30.4840 N.2       1 HIS        -0.3253
    141 CD2        31.1790   60.4140   30.0680 C.2       1 HIS         0.0291
    142 CE1        30.4390   58.4130   29.5330 C.2       1 HIS         0.0907
    143 NE2        30.3880   59.6920   29.2000 N.pl3     1 HIS        -0.2752
    144 OXT        33.4410   59.4950   35.5330 O.co2     1 HIS        -0.5665
    145 H1         13.6816   69.4895   46.1473 H         1 SIN         0.1185
    146 H2         13.9946   67.4813   45.7401 H         1 SIN         0.2154
    147 H3         12.1436   69.9355   43.6639 H         1 SIN         0.0364
    148 H4         12.3318   70.9318   45.1467 H         1 SIN         0.0364
    149 H5         10.0465   70.1498   44.9854 H         1 SIN         0.0433
    150 H6         10.8564   69.3408   46.3697 H         1 SIN         0.0433
    151 H7         14.7182   70.1074   44.3820 H         1 PHE         0.2065
    152 H8         14.1159   68.8746   43.4727 H         1 PHE         0.2065
    153 H9         15.7442   67.7864   45.4006 H         1 PHE         0.1124
    154 H10        15.1480   66.7941   43.2014 H         1 PHE         0.0507
    155 H11        16.9184   66.8472   43.5006 H         1 PHE         0.0507
    156 H12        14.1431   68.3101   41.5531 H         1 PHE         0.0557
    157 H13        18.3655   68.1890   42.1060 H         1 PHE         0.0557
    158 H14        14.4854   69.6221   39.4833 H         1 PHE         0.0599
    159 H15        18.6941   69.3624   39.9839 H         1 PHE         0.0599
    160 H16        16.7339   70.1288   38.7220 H         1 PHE         0.0559
    161 H17        18.1069   67.7405   45.1856 H         1 ASN         0.1886
    162 H18        19.1232   70.4277   45.7587 H         1 ASN         0.0826
    163 H19        20.4301   67.6721   45.6535 H         1 ASN         0.0551
    164 H20        19.6526   68.4061   47.0969 H         1 ASN         0.0551
    165 H21        23.0065   68.9964   47.9789 H         1 ASN         0.1814
    166 H22        21.6836   67.8840   48.0918 H         1 ASN         0.1814
    167 H23        19.6197   71.6732   44.0064 H         1 MET         0.1883
    168 H24        20.1797   70.5455   41.4109 H         1 MET         0.0800
    169 H25        20.5479   73.4322   42.2906 H         1 MET         0.0320
    170 H26        19.0517   72.7089   41.6085 H         1 MET         0.0320
    171 H27        21.7397   72.8888   40.1449 H         1 MET         0.0378
    172 H28        20.3648   74.0236   39.9247 H         1 MET         0.0378
    173 H29        17.5825   71.8106   38.4337 H         1 MET         0.0340
    174 H30        18.1504   73.4651   38.8420 H         1 MET         0.0340
    175 H31        17.8685   72.2645   40.1480 H         1 MET         0.0340
    176 H32        22.4169   71.9401   43.9820 H         1 85J         0.1883
    177 H33        24.6943   72.0646   42.2435 H         1 85J         0.0801
    178 H34        25.8894   71.6801   44.6018 H         1 85J         0.0337
    179 H35        24.2240   71.8565   45.2513 H         1 85J         0.0337
    180 H36        25.4532   73.9875   45.3142 H         1 85J         0.0505
    181 H37        24.0431   74.0752   44.2049 H         1 85J         0.0505
    182 H38        27.5378   73.6052   44.4066 H         1 85J         0.1850
    183 H39        29.2499   74.4378   42.9849 H         1 85J         0.0520
    184 H40        27.9936   74.9990   41.8301 H         1 85J         0.0520
    185 H41        27.4926   72.5004   41.3971 H         1 85J         0.0285
    186 H42        29.0168   72.1488   42.2801 H         1 85J         0.0285
    187 H43        30.2807   73.5277   40.6991 H         1 85J         0.0267
    188 H44        28.7648   73.9652   39.8405 H         1 85J         0.0267
    189 H45        23.2029   69.2711   44.2733 H         1 GLN         0.1883
    190 H46        25.4448   67.5306   43.9368 H         1 GLN         0.0801
    191 H47        22.6742   66.4216   44.2910 H         1 GLN         0.0337
    192 H48        23.3187   67.4782   45.5929 H         1 GLN         0.0337
    193 H49        24.7848   65.1188   44.3977 H         1 GLN         0.0504
    194 H50        23.7660   65.0416   45.8751 H         1 GLN         0.0504
    195 H51        26.5299   67.6705   46.9929 H         1 GLN         0.1814
    196 H52        25.0783   68.0213   46.1155 H         1 GLN         0.1814
    197 H53        22.3745   68.0944   42.2103 H         1 GLN         0.1883
    198 H54        22.7048   65.9922   40.2639 H         1 GLN         0.0801
    199 H55        21.4284   68.7297   39.9128 H         1 GLN         0.0337
    200 H56        20.6381   67.2813   40.6230 H         1 GLN         0.0337
    201 H57        21.6450   67.5356   37.7390 H         1 GLN         0.0504
    202 H58        19.9364   67.6889   38.2717 H         1 GLN         0.0504
    203 H59        20.6600   64.2820   36.9048 H         1 GLN         0.1814
    204 H60        20.9268   65.8898   36.3187 H         1 GLN         0.1814
    205 H61        23.7815   69.3963   40.1489 H         1 ARG         0.1883
    206 H62        25.0268   69.1741   37.5728 H         1 ARG         0.0800
    207 H63        26.4743   71.0720   38.3271 H         1 ARG         0.0313
    208 H64        25.7156   70.9175   39.9480 H         1 ARG         0.0313
    209 H65        23.5296   71.4949   39.0262 H         1 ARG         0.0301
    210 H66        24.2036   71.5242   37.3614 H         1 ARG         0.0301
    211 H67        25.7789   73.3316   38.0513 H         1 ARG         0.0689
    212 H68        25.0508   73.3212   39.6933 H         1 ARG         0.0689
    213 H69        23.1853   74.4610   38.9001 H         1 ARG         0.2642
    214 H70        24.2574   74.7524   34.9062 H         1 ARG         0.2615
    215 H71        25.1662   73.5791   35.8964 H         1 ARG         0.2615
    216 H72        22.1596   75.8919   37.5433 H         1 ARG         0.2615
    217 H73        22.5740   75.9868   35.8107 H         1 ARG         0.2615
    218 H74        26.4237   68.4737   40.8357 H         1 ARG         0.1883
    219 H75        29.0619   67.9635   39.8714 H         1 ARG         0.0800
    220 H76        29.3621   66.6110   41.9909 H         1 ARG         0.0313
    221 H77        27.6260   66.8940   42.3550 H         1 ARG         0.0313
    222 H78        27.9384   69.2269   42.5897 H         1 ARG         0.0301
    223 H79        29.5487   69.1765   41.7954 H         1 ARG         0.0301
    224 H80        30.5474   68.1401   43.7248 H         1 ARG         0.0689
    225 H81        28.9429   67.9040   44.4971 H         1 ARG         0.0689
    226 H82        28.9393   70.1562   45.1718 H         1 ARG         0.2642
    227 H83        32.1595   71.4019   42.9667 H         1 ARG         0.2615
    228 H84        31.5572   69.7418   42.7136 H         1 ARG         0.2615
    229 H85        29.7231   72.2312   45.4016 H         1 ARG         0.2615
    230 H86        31.1242   72.7887   44.4483 H         1 ARG         0.2615
    231 H87        26.1529   65.9518   40.1661 H         1 PHE         0.1885
    232 H88        27.3692   63.3953   39.7254 H         1 PHE         0.0823
    233 H89        24.5592   64.5242   39.3244 H         1 PHE         0.0474
    234 H90        25.1454   63.4019   40.5986 H         1 PHE         0.0474
    235 H91        26.2447   61.1746   39.5142 H         1 PHE         0.0557
    236 H92        23.0304   63.5193   37.8549 H         1 PHE         0.0557
    237 H93        25.6532   59.3035   38.0000 H         1 PHE         0.0599
    238 H94        22.3120   61.5721   36.4954 H         1 PHE         0.0599
    239 H95        23.6348   59.4825   36.5421 H         1 PHE         0.0559
    240 H96        25.7655   65.7492   37.5972 H         1 TYR         0.1885
    241 H97        25.9030   64.1995   35.1393 H         1 TYR         0.0821
    242 H98        25.9453   67.2299   35.5876 H         1 TYR         0.0453
    243 H99        24.4767   66.2037   35.4571 H         1 TYR         0.0453
    244 H100       23.9909   65.0480   33.3189 H         1 TYR         0.0530
    245 H101       26.9905   68.0643   33.6074 H         1 TYR         0.0530
    246 H102       24.0601   65.1487   30.8044 H         1 TYR         0.0525
    247 H103       27.0976   68.2140   31.1013 H         1 TYR         0.0525
    248 H104       24.9410   66.3307   29.0373 H         1 TYR         0.2458
    249 H105       28.1432   66.9110   36.6421 H         1 85G         0.1883
    250 H106       30.0532   66.9554   34.5168 H         1 85G         0.0801
    251 H107       31.6561   67.7719   36.3206 H         1 85G         0.0337
    252 H108       30.2688   67.5986   37.4485 H         1 85G         0.0337
    253 H109       28.9334   69.0278   35.7552 H         1 85G         0.0505
    254 H110       30.5218   69.4136   35.0105 H         1 85G         0.0505
    255 H111       28.4769   71.4245   39.4692 H         1 85G         0.0285
    256 H112       30.2088   71.3047   39.9307 H         1 85G         0.0285
    257 H113       30.9304   72.5367   38.0775 H         1 85G         0.0520
    258 H114       29.3830   73.4392   37.9433 H         1 85G         0.0520
    259 H115       28.5412   71.6287   36.5598 H         1 85G         0.1850
    260 H116       29.6262   64.5118   37.1390 H         1 ALA         0.1883
    261 H117       32.3875   63.5614   36.7559 H         1 ALA         0.0797
    262 H118       31.9943   62.3703   38.9016 H         1 ALA         0.0277
    263 H119       30.3260   63.0345   38.9478 H         1 ALA         0.0277
    264 H120       31.7368   64.1423   39.0440 H         1 ALA         0.0277
    265 H121       29.6210   62.9367   35.1655 H         1 LEU         0.1883
    266 H122       28.7961   60.3782   35.8986 H         1 LEU         0.0800
    267 H123       28.6335   61.5449   33.0827 H         1 LEU         0.0315
    268 H124       27.5677   62.0150   34.4501 H         1 LEU         0.0315
    269 H125       27.7064   59.1131   34.1592 H         1 LEU         0.0298
    270 H126       25.2674   59.3829   34.1114 H         1 LEU         0.0232
    271 H127       25.4774   61.1564   33.9189 H         1 LEU         0.0232
    272 H128       26.0337   60.3440   35.4213 H         1 LEU         0.0232
    273 H129       28.0672   59.6088   31.7640 H         1 LEU         0.0232
    274 H130       26.6073   60.6554   31.7673 H         1 LEU         0.0232
    275 H131       26.4486   58.8915   32.0676 H         1 LEU         0.0232
    276 H132       31.3554   61.1120   33.6200 H         1 HIS         0.1877
    277 H133       31.8225   58.2670   33.2788 H         1 HIS         0.0743
    278 H134       33.6891   59.0554   31.7151 H         1 HIS         0.0413
    279 H135       33.1037   60.7285   32.0059 H         1 HIS         0.0413
    280 H136       31.2839   61.4973   30.1060 H         1 HIS         0.0729
    281 H137       29.8404   57.6146   29.0970 H         1 HIS         0.1199
    282 H138       29.8448   60.0852   28.4182 H         1 HIS         0.2361
@<TRIPOS>BOND
     1    1    2 1  
     2    1    3 1  
     3    1    8 1  
     4    3    4 1  
     5    4    5 1  
     6    5    6 ar 
     7    5    7 ar 
     8    8    9 1  
     9    9   10 1  
    10    9   12 1  
    11   10   11 2  
    12   10   19 am 
    13   12   13 1  
    14   13   14 ar 
    15   13   15 ar 
    16   14   16 ar 
    17   15   17 ar 
    18   16   18 ar 
    19   17   18 ar 
    20   19   20 1  
    21   20   21 1  
    22   20   23 1  
    23   21   22 2  
    24   21   27 am 
    25   23   24 1  
    26   24   25 2  
    27   24   26 am 
    28   27   28 1  
    29   28   29 1  
    30   28   31 1  
    31   29   30 2  
    32   29   35 am 
    33   31   32 1  
    34   32   33 1  
    35   33   34 1  
    36   35   36 1  
    37   36   37 1  
    38   36   39 1  
    39   37   38 2  
    40   37   47 am 
    41   39   40 1  
    42   40   41 1  
    43   41   42 2  
    44   41   43 am 
    45   43   44 1  
    46   44   45 1  
    47   45   46 1  
    48   46  118 1  
    49   47   48 1  
    50   48   49 1  
    51   48   51 1  
    52   49   50 2  
    53   49   56 am 
    54   51   52 1  
    55   52   53 1  
    56   53   54 2  
    57   53   55 am 
    58   56   57 1  
    59   57   58 1  
    60   57   60 1  
    61   58   59 2  
    62   58   65 am 
    63   60   61 1  
    64   61   62 1  
    65   62   63 2  
    66   62   64 am 
    67   65   66 1  
    68   66   67 1  
    69   66   69 1  
    70   67   68 2  
    71   67   76 am 
    72   69   70 1  
    73   70   71 1  
    74   71   72 1  
    75   72   73 ar 
    76   73   74 ar 
    77   73   75 ar 
    78   76   77 1  
    79   77   78 1  
    80   77   80 1  
    81   78   79 2  
    82   78   87 am 
    83   80   81 1  
    84   81   82 1  
    85   82   83 1  
    86   83   84 ar 
    87   84   85 ar 
    88   84   86 ar 
    89   87   88 1  
    90   88   89 1  
    91   88   91 1  
    92   89   90 2  
    93   89   98 am 
    94   91   92 1  
    95   92   93 ar 
    96   92   94 ar 
    97   93   95 ar 
    98   94   96 ar 
    99   95   97 ar 
   100   96   97 ar 
   101   98   99 1  
   102   99  100 1  
   103   99  102 1  
   104  100  101 2  
   105  100  110 am 
   106  102  103 1  
   107  103  104 ar 
   108  103  105 ar 
   109  104  106 ar 
   110  105  107 ar 
   111  106  108 ar 
   112  107  108 ar 
   113  108  109 1  
   114  110  111 1  
   115  111  112 1  
   116  111  114 1  
   117  112  113 2  
   118  112  121 am 
   119  114  115 1  
   120  115  116 1  
   121  116  117 2  
   122  116  120 am 
   123  118  119 1  
   124  119  120 1  
   125  121  122 1  
   126  122  123 1  
   127  122  125 1  
   128  123  124 2  
   129  123  126 am 
   130  126  127 1  
   131  127  128 1  
   132  127  130 1  
   133  128  129 2  
   134  128  134 am 
   135  130  131 1  
   136  131  132 1  
   137  131  133 1  
   138  134  135 1  
   139  135  136 1  
   140  135  138 1  
   141  136  137 ar 
   142  136  144 ar 
   143  138  139 1  
   144  139  140 1  
   145  139  141 2  
   146  140  142 2  
   147  141  143 1  
   148  142  143 1  
   149    1  145 1  
   150    2  146 1  
   151    3  147 1  
   152    3  148 1  
   153    4  149 1  
   154    4  150 1  
   155    8  151 1  
   156    8  152 1  
   157    9  153 1  
   158   12  154 1  
   159   12  155 1  
   160   14  156 1  
   161   15  157 1  
   162   16  158 1  
   163   17  159 1  
   164   18  160 1  
   165   19  161 1  
   166   20  162 1  
   167   23  163 1  
   168   23  164 1  
   169   26  165 1  
   170   26  166 1  
   171   27  167 1  
   172   28  168 1  
   173   31  169 1  
   174   31  170 1  
   175   32  171 1  
   176   32  172 1  
   177   34  173 1  
   178   34  174 1  
   179   34  175 1  
   180   35  176 1  
   181   36  177 1  
   182   39  178 1  
   183   39  179 1  
   184   40  180 1  
   185   40  181 1  
   186   43  182 1  
   187   44  183 1  
   188   44  184 1  
   189   45  185 1  
   190   45  186 1  
   191   46  187 1  
   192   46  188 1  
   193   47  189 1  
   194   48  190 1  
   195   51  191 1  
   196   51  192 1  
   197   52  193 1  
   198   52  194 1  
   199   55  195 1  
   200   55  196 1  
   201   56  197 1  
   202   57  198 1  
   203   60  199 1  
   204   60  200 1  
   205   61  201 1  
   206   61  202 1  
   207   64  203 1  
   208   64  204 1  
   209   65  205 1  
   210   66  206 1  
   211   69  207 1  
   212   69  208 1  
   213   70  209 1  
   214   70  210 1  
   215   71  211 1  
   216   71  212 1  
   217   72  213 1  
   218   74  214 1  
   219   74  215 1  
   220   75  216 1  
   221   75  217 1  
   222   76  218 1  
   223   77  219 1  
   224   80  220 1  
   225   80  221 1  
   226   81  222 1  
   227   81  223 1  
   228   82  224 1  
   229   82  225 1  
   230   83  226 1  
   231   85  227 1  
   232   85  228 1  
   233   86  229 1  
   234   86  230 1  
   235   87  231 1  
   236   88  232 1  
   237   91  233 1  
   238   91  234 1  
   239   93  235 1  
   240   94  236 1  
   241   95  237 1  
   242   96  238 1  
   243   97  239 1  
   244   98  240 1  
   245   99  241 1  
   246  102  242 1  
   247  102  243 1  
   248  104  244 1  
   249  105  245 1  
   250  106  246 1  
   251  107  247 1  
   252  109  248 1  
   253  110  249 1  
   254  111  250 1  
   255  114  251 1  
   256  114  252 1  
   257  115  253 1  
   258  115  254 1  
   259  118  255 1  
   260  118  256 1  
   261  119  257 1  
   262  119  258 1  
   263  120  259 1  
   264  121  260 1  
   265  122  261 1  
   266  125  262 1  
   267  125  263 1  
   268  125  264 1  
   269  126  265 1  
   270  127  266 1  
   271  130  267 1  
   272  130  268 1  
   273  131  269 1  
   274  132  270 1  
   275  132  271 1  
   276  132  272 1  
   277  133  273 1  
   278  133  274 1  
   279  133  275 1  
   280  134  276 1  
   281  135  277 1  
   282  138  278 1  
   283  138  279 1  
   284  141  280 1  
   285  142  281 1  
   286  143  282 1  
@<TRIPOS>SUBSTRUCTURE
     1 SIN         1

