5u66_ligand
  -I-interpret- 

281285  0  0  0  0  0  0  0  0999 V2000
   13.3870   69.0770   45.1710 C   0  0  0  0  0
   13.2220   67.8530   45.3310 O   0  0  0  0  0
   12.1810   69.9120   44.7630 C   0  0  0  0  0
   10.8100   69.4120   45.2730 C   0  0  0  0  0
   10.3940   68.0680   44.7310 C   0  0  0  0  0
   10.7740   67.7150   43.5710 O   0  0  0  0  0
    9.7040   67.3480   45.5230 O   0  0  0  0  0
   14.4640   69.1320   44.3830 N   0  3  0  0  0
   15.7930   68.4030   44.4910 C   0  0  0  0  0
   16.9910   69.3320   44.6390 C   0  0  0  0  0
   16.9280   70.5320   44.3420 O   0  0  0  0  0
   16.0240   67.4530   43.2930 C   0  0  0  0  0
   16.2290   68.1690   41.9530 C   0  0  0  0  0
   15.1450   68.5610   41.2240 C   0  0  0  0  0
   17.5070   68.4830   41.5130 C   0  0  0  0  0
   15.3390   69.2830   40.0590 C   0  0  0  0  0
   17.6940   69.1550   40.3470 C   0  0  0  0  0
   16.5950   69.5660   39.6380 C   0  0  0  0  0
   18.1140   68.7300   45.0410 N   0  0  0  0  0
   19.3450   69.4650   45.2750 C   0  0  0  0  0
   20.0830   69.7140   43.9250 C   0  0  0  0  0
   20.6650   68.7600   43.3610 O   0  0  0  0  0
   20.2180   68.6160   46.1770 C   0  0  0  0  0
   21.5470   69.2410   46.5750 C   0  0  0  0  0
   22.1160   70.0990   45.9260 O   0  0  0  0  0
   22.1290   68.6570   47.6400 N   0  0  0  0  0
   20.0350   70.9520   43.4520 N   0  0  0  0  0
   20.5870   71.2880   42.1130 C   0  0  0  0  0
   22.1070   71.1630   42.0680 C   0  0  0  0  0
   22.7180   70.6080   41.1010 O   0  0  0  0  0
   20.1510   72.6690   41.6050 C   0  0  0  0  0
   20.6450   72.9910   40.1800 C   0  0  0  0  0
   19.9010   71.8560   38.9760 S   0  0  0  0  0
   18.2150   72.4010   39.1130 C   0  0  0  0  0
   22.8720   71.5860   43.1650 N   0  0  0  0  0
   24.3250   71.5120   43.1200 C   0  0  0  0  0
   24.8050   70.0750   43.0670 C   0  0  0  0  0
   25.6160   69.6670   42.2810 O   0  0  0  0  0
   24.8960   72.1160   44.4200 C   0  0  0  0  0
   25.0340   73.6250   44.3640 C   0  0  0  0  0
   25.9500   74.0210   43.2310 C   0  0  0  0  0
   25.4890   74.3870   42.1210 O   0  0  0  0  0
   27.2580   73.8970   43.4920 N   0  0  0  0  0
   28.3060   74.1730   42.4860 C   0  0  0  0  0
   28.4820   72.8940   41.6730 C   0  0  0  0  0
   29.2790   73.1770   40.4100 C   0  0  0  0  0
   24.0170   69.0050   43.7570 N   0  0  0  0  0
   24.3720   67.6250   43.7130 C   0  0  0  0  0
   24.1150   67.0850   42.3160 C   0  0  0  0  0
   24.8610   66.2830   41.8470 O   0  0  0  0  0
   23.5890   66.8200   44.7540 C   0  0  0  0  0
   24.4160   65.6860   45.2650 C   0  0  0  0  0
   25.6360   66.0820   46.1270 C   0  0  0  0  0
   26.4920   65.2560   46.4140 O   0  0  0  0  0
   25.7580   67.3620   46.4370 N   0  0  0  0  0
   23.0180   67.5050   41.7220 N   0  0  0  0  0
   22.7400   67.0910   40.3020 C   0  0  0  0  0
   23.8030   67.5450   39.3660 C   0  0  0  0  0
   24.2260   66.7340   38.4370 O   0  0  0  0  0
   21.3800   67.6310   39.8900 C   0  0  0  0  0
   20.9000   67.1990   38.4750 C   0  0  0  0  0
   20.7190   65.7210   38.3200 C   0  0  0  0  0
   20.4830   64.9750   39.2820 O   0  0  0  0  0
   20.7730   65.2600   37.0800 N   0  0  0  0  0
   24.2150   68.7880   39.4840 N   0  0  0  0  0
   25.3370   69.2970   38.6210 C   0  0  0  0  0
   26.6460   68.5090   38.8070 C   0  0  0  0  0
   27.3140   68.1490   37.8140 O   0  0  0  0  0
   25.5640   70.7740   38.8680 C   0  0  0  0  0
   24.4270   71.7000   38.4240 C   0  0  0  0  0
   24.8550   73.1600   38.6230 C   0  0  0  0  0
   23.8510   74.1370   38.1840 N   0  0  0  0  0
   23.6990   74.6680   36.9260 C   0  0  0  0  0
   24.4370   74.3020   35.8150 N   0  0  0  0  0
   22.7360   75.5870   36.7460 N   0  0  0  0  0
   27.0040   68.1880   40.0730 N   0  0  0  0  0
   28.2210   67.4330   40.3420 C   0  0  0  0  0
   28.1190   66.0300   39.7320 C   0  0  0  0  0
   29.0880   65.5480   39.1660 O   0  0  0  0  0
   28.5160   67.3000   41.8520 C   0  0  0  0  0
   28.8670   68.6480   42.4780 C   0  0  0  0  0
   29.5360   68.5570   43.8400 C   0  0  0  0  0
   29.6250   69.9180   44.4410 N   0  0  0  0  0
   30.5250   70.8620   44.1100 C   0  0  0  0  0
   31.4900   70.6520   43.1910 N   0  0  0  0  0
   30.4520   72.0490   44.6970 N   0  0  0  0  0
   26.9190   65.4480   39.7670 N   0  0  0  0  0
   26.6790   64.1050   39.2460 C   0  0  0  0  0
   26.9330   64.1250   37.7160 C   0  0  0  0  0
   27.6570   63.2850   37.1980 O   0  0  0  0  0
   25.2220   63.6720   39.5350 C   0  0  0  0  0
   24.7620   62.5030   38.7170 C   0  0  0  0  0
   25.4320   61.2890   38.8060 C   0  0  0  0  0
   23.5990   62.5970   37.8870 C   0  0  0  0  0
   25.0680   60.2160   37.9920 C   0  0  0  0  0
   23.1960   61.5030   37.1190 C   0  0  0  0  0
   23.9330   60.3240   37.1570 C   0  0  0  0  0
   26.2850   65.0660   37.0840 N   0  0  0  0  0
   26.3230   65.1190   35.5730 C   0  0  0  0  0
   27.7960   65.2850   35.1560 C   0  0  0  0  0
   28.3230   64.7400   34.1610 O   0  0  0  0  0
   25.5180   66.3280   35.1250 C   0  0  0  0  0
   25.5340   66.5010   33.5850 C   0  0  0  0  0
   24.6770   65.7250   32.8230 C   0  0  0  0  0
   26.3660   67.4250   32.9940 C   0  0  0  0  0
   24.6790   65.7980   31.4130 C   0  0  0  0  0
   26.4040   67.5380   31.5880 C   0  0  0  0  0
   25.5270   66.7580   30.8460 C   0  0  0  0  0
   25.5790   66.9080   29.4400 O   0  0  0  0  0
   28.5890   66.3820   35.9200 N   0  0  0  0  0
   30.0250   66.6460   35.5720 C   0  0  0  0  0
   30.9230   65.4570   35.7160 C   0  0  0  0  0
   31.8600   65.2900   34.9350 O   0  0  0  0  0
   30.5590   67.7610   36.4000 C   0  0  0  0  0
   30.0150   69.1090   35.9380 C   0  0  0  0  0
   30.2730   70.1410   37.0230 C   0  0  0  0  0
   31.3230   70.0410   37.6720 O   0  0  0  0  0
   29.4310   71.9690   39.5260 C   0  0  0  0  0
   29.8350   72.4550   38.1360 C   0  0  0  0  0
   29.3530   71.4780   37.1240 N   0  0  0  0  0
   30.5250   64.4320   36.7080 N   0  0  0  0  0
   31.3610   63.3350   37.0800 C   0  0  0  0  0
   30.9410   62.0180   36.4050 C   0  0  0  0  0
   31.5150   60.9700   36.7260 O   0  0  0  0  0
   31.3540   63.2120   38.5990 C   0  0  0  0  0
   29.9360   62.0520   35.5090 N   0  0  0  0  0
   29.2880   60.8230   35.0210 C   0  0  0  0  0
   30.2050   59.6900   34.4430 C   0  0  0  0  0
   29.9670   58.4330   34.6220 O   0  0  0  0  0
   28.1710   61.2020   34.0200 C   0  0  0  0  0
   27.2570   60.0140   33.7160 C   0  0  0  0  0
   25.9220   60.2390   34.3320 C   0  0  0  0  0
   27.0830   59.7760   32.2260 C   0  0  0  0  0
   31.2710   60.1340   33.8110 N   0  0  0  0  0
   32.3110   59.2460   33.3920 C   0  0  0  0  0
   33.5070   58.9830   34.3400 C   0  0  0  0  0
   34.4880   58.2700   33.8720 O   0  0  0  0  0
   32.8110   59.6690   31.9650 C   0  0  0  0  0
   31.8030   59.5070   30.8680 C   0  0  0  0  0
   31.3400   58.2730   30.4840 N   0  0  0  0  0
   31.1790   60.4140   30.0680 C   0  0  0  0  0
   30.4390   58.4130   29.5330 C   0  0  0  0  0
   30.3880   59.6920   29.2000 N   0  0  0  0  0
   33.4410   59.4950   35.5330 O   0  0  0  0  0
   13.5409   69.5890   46.1209 H   0  0  0  0  0
   12.4582   67.7050   45.8934 H   0  0  0  0  0
   12.1359   69.8747   43.6746 H   0  0  0  0  0
   12.3294   70.8996   45.1997 H   0  0  0  0  0
   10.0637   70.1344   44.9423 H   0  0  0  0  0
   10.8904   69.3087   46.3551 H   0  0  0  0  0
    9.5437   67.8322   46.3363 H   0  0  0  0  0
   14.7676   70.0902   44.5566 H   0  0  0  0  0
   14.0909   68.7051   43.5351 H   0  0  0  0  0
   15.7178   67.8202   45.4090 H   0  0  0  0  0
   15.1305   66.8366   43.1947 H   0  0  0  0  0
   16.9346   66.8907   43.4996 H   0  0  0  0  0
   14.1376   68.3087   41.5549 H   0  0  0  0  0
   18.3702   68.1873   42.1092 H   0  0  0  0  0
   14.4807   69.6240   39.4801 H   0  0  0  0  0
   18.6996   69.3635   39.9819 H   0  0  0  0  0
   16.7347   70.1319   38.7170 H   0  0  0  0  0
   18.1067   67.7207   45.1885 H   0  0  0  0  0
   19.1298   70.4296   45.7348 H   0  0  0  0  0
   20.4547   67.7103   45.6186 H   0  0  0  0  0
   19.6572   68.4633   47.0991 H   0  0  0  0  0
   23.0704   68.9313   47.9209 H   0  0  0  0  0
   21.6283   67.9404   48.1656 H   0  0  0  0  0
   19.6114   71.6876   44.0175 H   0  0  0  0  0
   20.1604   70.5471   41.4369 H   0  0  0  0  0
   20.5819   73.4132   42.2748 H   0  0  0  0  0
   19.0613   72.6781   41.5816 H   0  0  0  0  0
   21.7288   72.8797   40.1479 H   0  0  0  0  0
   20.3573   74.0118   39.9283 H   0  0  0  0  0
   17.8729   72.2653   40.1390 H   0  0  0  0  0
   18.1524   73.4555   38.8442 H   0  0  0  0  0
   17.5893   71.8153   38.4395 H   0  0  0  0  0
   22.4078   71.9472   43.9983 H   0  0  0  0  0
   24.6555   72.0484   42.2305 H   0  0  0  0  0
   25.8912   71.6977   44.5705 H   0  0  0  0  0
   24.2049   71.8763   45.2281 H   0  0  0  0  0
   25.4544   73.9808   45.3047 H   0  0  0  0  0
   24.0515   74.0681   44.2010 H   0  0  0  0  0
   27.5434   73.5994   44.4249 H   0  0  0  0  0
   29.2411   74.4584   42.9679 H   0  0  0  0  0
   28.0177   75.0048   41.8433 H   0  0  0  0  0
   27.5000   72.5108   41.3956 H   0  0  0  0  0
   29.0182   72.1606   42.2752 H   0  0  0  0  0
   30.2770   73.4946   40.7120 H   0  0  0  0  0
   28.7424   73.9375   39.8428 H   0  0  0  0  0
   23.1867   69.2764   44.2836 H   0  0  0  0  0
   25.4311   67.5259   43.9507 H   0  0  0  0  0
   22.6874   66.4208   44.2894 H   0  0  0  0  0
   23.3297   67.4738   45.5867 H   0  0  0  0  0
   24.8109   65.1723   44.3885 H   0  0  0  0  0
   23.7641   65.0929   45.9064 H   0  0  0  0  0
   26.5872   67.6900   46.9322 H   0  0  0  0  0
   25.0229   68.0211   46.1809 H   0  0  0  0  0
   22.3616   68.1062   42.2201 H   0  0  0  0  0
   22.7344   66.0022   40.2517 H   0  0  0  0  0
   21.4652   68.7176   39.8744 H   0  0  0  0  0
   20.6560   67.2344   40.6018 H   0  0  0  0  0
   21.6669   67.5077   37.7646 H   0  0  0  0  0
   19.9285   67.6637   38.3067 H   0  0  0  0  0
   20.6185   64.2685   36.8973 H   0  0  0  0  0
   20.9691   65.8964   36.3074 H   0  0  0  0  0
   23.7729   69.4085   40.1622 H   0  0  0  0  0
   25.0299   69.1464   37.5860 H   0  0  0  0  0
   26.4396   71.0553   38.2829 H   0  0  0  0  0
   25.6607   70.8968   39.9467 H   0  0  0  0  0
   23.5370   71.4963   39.0193 H   0  0  0  0  0
   24.2041   71.5253   37.3714 H   0  0  0  0  0
   25.7499   73.3212   38.0219 H   0  0  0  0  0
   25.0096   73.3106   39.6914 H   0  0  0  0  0
   23.1917   74.4579   38.8931 H   0  0  0  0  0
   24.2390   74.7263   34.9088 H   0  0  0  0  0
   25.1792   73.6078   35.9018 H   0  0  0  0  0
   22.1469   75.8686   37.5296 H   0  0  0  0  0
   26.4121   68.4794   40.8509 H   0  0  0  0  0
   29.0399   67.9897   39.8864 H   0  0  0  0  0
   29.3663   66.6299   41.9787 H   0  0  0  0  0
   27.6234   66.9140   42.3443 H   0  0  0  0  0
   27.9303   69.1874   42.6186 H   0  0  0  0  0
   29.5745   69.1360   41.8076 H   0  0  0  0  0
   30.5381   68.1437   43.7259 H   0  0  0  0  0
   28.9485   67.9097   44.4911 H   0  0  0  0  0
   28.9460   70.1539   45.1647 H   0  0  0  0  0
   32.1453   71.3987   42.9599 H   0  0  0  0  0
   31.5643   69.7465   42.7273 H   0  0  0  0  0
   29.7228   72.2333   45.3860 H   0  0  0  0  0
   26.1376   65.9618   40.1741 H   0  0  0  0  0
   27.3483   63.3931   39.7291 H   0  0  0  0  0
   24.5778   64.5153   39.2861 H   0  0  0  0  0
   25.1742   63.3736   40.5823 H   0  0  0  0  0
   26.2492   61.1739   39.5181 H   0  0  0  0  0
   23.0273   63.5244   37.8547 H   0  0  0  0  0
   25.6564   59.2985   38.0000 H   0  0  0  0  0
   22.3071   61.5725   36.4920 H   0  0  0  0  0
   23.6332   59.4779   36.5387 H   0  0  0  0  0
   25.7551   65.7628   37.6074 H   0  0  0  0  0
   25.9060   64.2180   35.1231 H   0  0  0  0  0
   25.9629   67.2172   35.5716 H   0  0  0  0  0
   24.4845   66.1841   35.4402 H   0  0  0  0  0
   23.9871   65.0442   33.3216 H   0  0  0  0  0
   26.9940   68.0679   33.6108 H   0  0  0  0  0
   24.0567   65.1451   30.8010 H   0  0  0  0  0
   27.1015   68.2178   31.0986 H   0  0  0  0  0
   26.2034   67.6020   29.2162 H   0  0  0  0  0
   28.1343   66.9216   36.6566 H   0  0  0  0  0
   30.0225   66.9100   34.5145 H   0  0  0  0  0
   31.6446   67.7746   36.3028 H   0  0  0  0  0
   30.2534   67.6009   37.4339 H   0  0  0  0  0
   28.9440   69.0301   35.7513 H   0  0  0  0  0
   30.5122   69.4109   35.0162 H   0  0  0  0  0
   28.4926   71.4167   39.4756 H   0  0  0  0  0
   30.1911   71.2992   39.9282 H   0  0  0  0  0
   30.9200   72.5409   38.0771 H   0  0  0  0  0
   29.3917   73.4322   37.9445 H   0  0  0  0  0
   28.5250   71.6317   36.5485 H   0  0  0  0  0
   29.6082   64.5134   37.1476 H   0  0  0  0  0
   32.3742   63.5333   36.7306 H   0  0  0  0  0
   31.7334   64.1344   39.0387 H   0  0  0  0  0
   30.3349   63.0362   38.9433 H   0  0  0  0  0
   31.9887   62.3777   38.8976 H   0  0  0  0  0
   29.6147   62.9544   35.1586 H   0  0  0  0  0
   28.8899   60.3536   35.9206 H   0  0  0  0  0
   28.6384   61.5228   33.0890 H   0  0  0  0  0
   27.5679   61.9949   34.4624 H   0  0  0  0  0
   27.7327   59.1289   34.1384 H   0  0  0  0  0
   26.0341   60.3429   35.4112 H   0  0  0  0  0
   25.4826   61.1483   33.9219 H   0  0  0  0  0
   25.2744   59.3901   34.1127 H   0  0  0  0  0
   26.6447   60.6620   31.7666 H   0  0  0  0  0
   28.0550   59.5747   31.7756 H   0  0  0  0  0
   26.4249   58.9211   32.0703 H   0  0  0  0  0
   31.3570   61.1315   33.6162 H   0  0  0  0  0
   31.8199   58.2729   33.3971 H   0  0  0  0  0
   34.2927   58.0135   32.9678 H   0  0  0  0  0
   33.6507   59.0187   31.7198 H   0  0  0  0  0
   33.0516   60.7308   32.0174 H   0  0  0  0  0
   31.2840   61.4983   30.1061 H   0  0  0  0  0
   29.8399   57.6138   29.0966 H   0  0  0  0  0
  1  2  1  0  0  0
  1  3  1  0  0  0
  1  8  1  0  0  0
  3  4  1  0  0  0
  4  5  1  0  0  0
  5  6  2  0  0  0
  5  7  1  0  0  0
  8  9  1  0  0  0
  9 10  1  0  0  0
  9 12  1  0  0  0
 10 11  2  0  0  0
 10 19  1  0  0  0
 12 13  1  0  0  0
 13 14  4  0  0  0
 13 15  4  0  0  0
 14 16  4  0  0  0
 15 17  4  0  0  0
 16 18  4  0  0  0
 17 18  4  0  0  0
 19 20  1  0  0  0
 20 21  1  0  0  0
 20 23  1  0  0  0
 21 22  2  0  0  0
 21 27  1  0  0  0
 23 24  1  0  0  0
 24 25  2  0  0  0
 24 26  1  0  0  0
 27 28  1  0  0  0
 28 29  1  0  0  0
 28 31  1  0  0  0
 29 30  2  0  0  0
 29 35  1  0  0  0
 31 32  1  0  0  0
 32 33  1  0  0  0
 33 34  1  0  0  0
 35 36  1  0  0  0
 36 37  1  0  0  0
 36 39  1  0  0  0
 37 38  2  0  0  0
 37 47  1  0  0  0
 39 40  1  0  0  0
 40 41  1  0  0  0
 41 42  2  0  0  0
 41 43  1  0  0  0
 43 44  1  0  0  0
 44 45  1  0  0  0
 45 46  1  0  0  0
 46118  1  0  0  0
 47 48  1  0  0  0
 48 49  1  0  0  0
 48 51  1  0  0  0
 49 50  2  0  0  0
 49 56  1  0  0  0
 51 52  1  0  0  0
 52 53  1  0  0  0
 53 54  2  0  0  0
 53 55  1  0  0  0
 56 57  1  0  0  0
 57 58  1  0  0  0
 57 60  1  0  0  0
 58 59  2  0  0  0
 58 65  1  0  0  0
 60 61  1  0  0  0
 61 62  1  0  0  0
 62 63  2  0  0  0
 62 64  1  0  0  0
 65 66  1  0  0  0
 66 67  1  0  0  0
 66 69  1  0  0  0
 67 68  2  0  0  0
 67 76  1  0  0  0
 69 70  1  0  0  0
 70 71  1  0  0  0
 71 72  1  0  0  0
 72 73  1  0  0  0
 73 74  1  0  0  0
 73 75  2  0  0  0
 76 77  1  0  0  0
 77 78  1  0  0  0
 77 80  1  0  0  0
 78 79  2  0  0  0
 78 87  1  0  0  0
 80 81  1  0  0  0
 81 82  1  0  0  0
 82 83  1  0  0  0
 83 84  1  0  0  0
 84 85  1  0  0  0
 84 86  2  0  0  0
 87 88  1  0  0  0
 88 89  1  0  0  0
 88 91  1  0  0  0
 89 90  2  0  0  0
 89 98  1  0  0  0
 91 92  1  0  0  0
 92 93  4  0  0  0
 92 94  4  0  0  0
 93 95  4  0  0  0
 94 96  4  0  0  0
 95 97  4  0  0  0
 96 97  4  0  0  0
 98 99  1  0  0  0
 99100  1  0  0  0
 99102  1  0  0  0
100101  2  0  0  0
100110  1  0  0  0
102103  1  0  0  0
103104  4  0  0  0
103105  4  0  0  0
104106  4  0  0  0
105107  4  0  0  0
106108  4  0  0  0
107108  4  0  0  0
108109  1  0  0  0
110111  1  0  0  0
111112  1  0  0  0
111114  1  0  0  0
112113  2  0  0  0
112121  1  0  0  0
114115  1  0  0  0
115116  1  0  0  0
116117  2  0  0  0
116120  1  0  0  0
118119  1  0  0  0
119120  1  0  0  0
121122  1  0  0  0
122123  1  0  0  0
122125  1  0  0  0
123124  2  0  0  0
123126  1  0  0  0
126127  1  0  0  0
127128  1  0  0  0
127130  1  0  0  0
128129  2  0  0  0
128134  1  0  0  0
130131  1  0  0  0
131132  1  0  0  0
131133  1  0  0  0
134135  1  0  0  0
135136  1  0  0  0
135138  1  0  0  0
136137  1  0  0  0
136144  2  0  0  0
138139  1  0  0  0
139140  4  0  0  0
139141  4  0  0  0
140142  4  0  0  0
141143  4  0  0  0
142143  4  0  0  0
  1145  1  0  0  0
  2146  1  0  0  0
  3147  1  0  0  0
  3148  1  0  0  0
  4149  1  0  0  0
  4150  1  0  0  0
  7151  1  0  0  0
  8152  1  0  0  0
  8153  1  0  0  0
  9154  1  0  0  0
 12155  1  0  0  0
 12156  1  0  0  0
 14157  1  0  0  0
 15158  1  0  0  0
 16159  1  0  0  0
 17160  1  0  0  0
 18161  1  0  0  0
 19162  1  0  0  0
 20163  1  0  0  0
 23164  1  0  0  0
 23165  1  0  0  0
 26166  1  0  0  0
 26167  1  0  0  0
 27168  1  0  0  0
 28169  1  0  0  0
 31170  1  0  0  0
 31171  1  0  0  0
 32172  1  0  0  0
 32173  1  0  0  0
 34174  1  0  0  0
 34175  1  0  0  0
 34176  1  0  0  0
 35177  1  0  0  0
 36178  1  0  0  0
 39179  1  0  0  0
 39180  1  0  0  0
 40181  1  0  0  0
 40182  1  0  0  0
 43183  1  0  0  0
 44184  1  0  0  0
 44185  1  0  0  0
 45186  1  0  0  0
 45187  1  0  0  0
 46188  1  0  0  0
 46189  1  0  0  0
 47190  1  0  0  0
 48191  1  0  0  0
 51192  1  0  0  0
 51193  1  0  0  0
 52194  1  0  0  0
 52195  1  0  0  0
 55196  1  0  0  0
 55197  1  0  0  0
 56198  1  0  0  0
 57199  1  0  0  0
 60200  1  0  0  0
 60201  1  0  0  0
 61202  1  0  0  0
 61203  1  0  0  0
 64204  1  0  0  0
 64205  1  0  0  0
 65206  1  0  0  0
 66207  1  0  0  0
 69208  1  0  0  0
 69209  1  0  0  0
 70210  1  0  0  0
 70211  1  0  0  0
 71212  1  0  0  0
 71213  1  0  0  0
 72214  1  0  0  0
 74215  1  0  0  0
 74216  1  0  0  0
 75217  1  0  0  0
 76218  1  0  0  0
 77219  1  0  0  0
 80220  1  0  0  0
 80221  1  0  0  0
 81222  1  0  0  0
 81223  1  0  0  0
 82224  1  0  0  0
 82225  1  0  0  0
 83226  1  0  0  0
 85227  1  0  0  0
 85228  1  0  0  0
 86229  1  0  0  0
 87230  1  0  0  0
 88231  1  0  0  0
 91232  1  0  0  0
 91233  1  0  0  0
 93234  1  0  0  0
 94235  1  0  0  0
 95236  1  0  0  0
 96237  1  0  0  0
 97238  1  0  0  0
 98239  1  0  0  0
 99240  1  0  0  0
102241  1  0  0  0
102242  1  0  0  0
104243  1  0  0  0
105244  1  0  0  0
106245  1  0  0  0
107246  1  0  0  0
109247  1  0  0  0
110248  1  0  0  0
111249  1  0  0  0
114250  1  0  0  0
114251  1  0  0  0
115252  1  0  0  0
115253  1  0  0  0
118254  1  0  0  0
118255  1  0  0  0
119256  1  0  0  0
119257  1  0  0  0
120258  1  0  0  0
121259  1  0  0  0
122260  1  0  0  0
125261  1  0  0  0
125262  1  0  0  0
125263  1  0  0  0
126264  1  0  0  0
127265  1  0  0  0
130266  1  0  0  0
130267  1  0  0  0
131268  1  0  0  0
132269  1  0  0  0
132270  1  0  0  0
132271  1  0  0  0
133272  1  0  0  0
133273  1  0  0  0
133274  1  0  0  0
134275  1  0  0  0
135276  1  0  0  0
137277  1  0  0  0
138278  1  0  0  0
138279  1  0  0  0
141280  1  0  0  0
142281  1  0  0  0
M  END
$$$$
