1u32_ligand
  -I-interpret- 

125131  0  0  0  0  0  0  0  0999 V2000
   83.7700   52.8440   21.9810 C   0  0  0  0  0
   83.5610   52.2030   23.3430 C   0  0  0  0  0
   84.8590   52.0830   24.1100 C   0  0  0  0  0
   85.5710   53.4210   24.5020 C   0  0  0  0  0
   86.8190   53.2420   25.2220 C   0  0  0  0  0
   87.4280   54.5860   25.5940 C   0  0  0  0  0
   86.3590   55.3590   26.4220 C   0  0  0  0  0
   85.0690   55.5580   25.7020 C   0  0  0  0  0
   83.9830   56.2050   26.4220 C   0  0  0  0  0
   83.3020   57.2820   25.9970 C   0  0  0  0  0
   83.6210   57.9060   24.6470 C   0  0  0  0  0
   84.3900   56.8980   23.7480 C   0  0  0  0  0
   85.0250   57.5520   22.5260 C   0  0  0  0  0
   85.7740   56.5370   21.7570 C   0  0  0  0  0
   87.0100   56.5410   21.5600 C   0  0  0  0  0
   87.9070   55.5570   20.8340 C   0  0  0  0  0
   88.8770   56.0330   19.7600 C   0  0  0  0  0
   90.1290   55.1080   19.8840 C   0  0  0  0  0
   89.7170   54.1470   21.0920 C   0  0  0  0  0
   90.8770   53.8220   21.9480 C   0  0  0  0  0
   90.4110   52.8570   23.1220 C   0  0  0  0  0
   89.7610   51.6250   22.4510 C   0  0  0  0  0
   88.6450   52.0850   21.5600 C   0  0  0  0  0
   88.0150   50.8070   20.9140 C   0  0  0  0  0
   87.5180   49.8150   22.0560 C   0  0  0  0  0
   88.6160   49.5340   23.0000 C   0  0  0  0  0
   89.7660   48.5540   22.6090 C   0  0  0  0  0
   89.2200   47.1590   22.2040 C   0  0  0  0  0
   90.3360   46.1540   21.7830 C   0  0  0  0  0
   89.7040   44.7610   21.4890 C   0  0  0  0  0
   88.9410   44.1320   22.6620 C   0  0  0  0  0
   88.4810   42.7450   22.1910 C   0  0  0  0  0
   89.6660   41.8690   21.6840 C   0  0  0  0  0
   90.5130   42.5810   20.6870 C   0  0  0  0  0
   91.8600   41.9510   20.3840 C   0  0  0  0  0
   92.5130   42.5570   19.1080 C   0  0  0  0  0
   91.6220   42.6110   17.8940 C   0  0  0  0  0
   90.2690   43.2150   18.2690 C   0  0  0  0  0
   89.7530   43.9900   23.9800 C   0  0  0  0  0
   91.0470   46.6510   20.5410 C   0  0  0  0  0
   86.3320   49.4140   22.0740 C   0  0  0  0  0
   84.0330   58.2480   21.6430 C   0  0  0  0  0
   82.1910   57.9360   26.7840 C   0  0  0  0  0
   82.9580   50.8030   23.0110 C   0  0  0  0  0
   82.9560   53.9020   21.7250 O   0  0  0  0  0
   84.5860   52.5170   21.1270 O   0  0  0  0  0
   82.5480   52.8490   24.0370 O   0  0  0  0  0
   84.5620   54.2110   25.2680 O   0  0  0  0  0
   86.9050   56.6550   26.8210 O   0  0  0  0  0
   85.4000   56.2550   24.4860 O   0  0  0  0  0
   88.7040   54.9060   21.7930 O   0  0  0  0  0
   89.0900   52.9550   20.5240 O   0  0  0  0  0
   89.3070   50.7690   23.4870 O   0  0  0  0  0
   86.9720   51.1450   20.0210 O   0  0  0  0  0
   90.6840   48.3990   23.6060 O   0  0  0  0  0
   90.8130   43.9080   21.0810 O   0  0  0  0  0
   89.7000   42.5900   19.4800 O   0  0  0  0  0
   85.5497   51.5576   23.4505 H   0  0  0  0  0
   84.6080   51.5903   25.0493 H   0  0  0  0  0
   85.8914   53.9515   23.6053 H   0  0  0  0  0
   87.5191   52.7047   24.5823 H   0  0  0  0  0
   86.6196   52.6822   26.1358 H   0  0  0  0  0
   87.7009   55.1458   24.6994 H   0  0  0  0  0
   88.3395   54.4479   26.1756 H   0  0  0  0  0
   86.1307   54.7442   27.2926 H   0  0  0  0  0
   83.6987   55.7811   27.3851 H   0  0  0  0  0
   84.2434   58.7871   24.8029 H   0  0  0  0  0
   82.6879   58.1789   24.1542 H   0  0  0  0  0
   83.6487   56.1793   23.3986 H   0  0  0  0  0
   85.7019   58.3245   22.8909 H   0  0  0  0  0
   85.2022   55.7157   21.3249 H   0  0  0  0  0
   87.5315   57.3996   21.9831 H   0  0  0  0  0
   87.1751   54.9607   20.2891 H   0  0  0  0  0
   89.1412   57.0814   19.8985 H   0  0  0  0  0
   88.4329   55.9708   18.7665 H   0  0  0  0  0
   91.0534   55.6563   20.0657 H   0  0  0  0  0
   90.3596   54.5697   18.9647 H   0  0  0  0  0
   91.2862   54.7394   22.3710 H   0  0  0  0  0
   91.6429   53.3266   21.3513 H   0  0  0  0  0
   89.7030   53.3598   23.7808 H   0  0  0  0  0
   91.2577   52.5610   23.7413 H   0  0  0  0  0
   90.4661   51.0771   21.8259 H   0  0  0  0  0
   87.9285   52.6470   22.1591 H   0  0  0  0  0
   88.7779   50.2966   20.3261 H   0  0  0  0  0
   88.0139   49.0199   23.7492 H   0  0  0  0  0
   90.2605   49.0115   21.7521 H   0  0  0  0  0
   88.5643   47.3001   21.3448 H   0  0  0  0  0
   88.7123   46.7404   23.0730 H   0  0  0  0  0
   91.0550   46.0678   22.5977 H   0  0  0  0  0
   88.9399   44.8763   20.7203 H   0  0  0  0  0
   88.1184   44.8000   22.9173 H   0  0  0  0  0
   87.7844   42.8827   21.3640 H   0  0  0  0  0
   88.0222   42.2353   23.0382 H   0  0  0  0  0
   89.2493   40.9846   21.2020 H   0  0  0  0  0
   90.2916   41.6196   22.5410 H   0  0  0  0  0
   91.7076   40.8849   20.2155 H   0  0  0  0  0
   92.5225   42.1401   21.2286 H   0  0  0  0  0
   93.3533   41.9122   18.8506 H   0  0  0  0  0
   92.7746   43.5871   19.3498 H   0  0  0  0  0
   91.4718   41.6009   17.5128 H   0  0  0  0  0
   92.0926   43.2294   17.1296 H   0  0  0  0  0
   89.5794   43.0455   17.4421 H   0  0  0  0  0
   90.4137   44.2766   18.4695 H   0  0  0  0  0
   90.6244   43.3598   23.8023 H   0  0  0  0  0
   90.0777   44.9757   24.3132 H   0  0  0  0  0
   89.1242   43.5353   24.7454 H   0  0  0  0  0
   90.3286   46.7485   19.7271 H   0  0  0  0  0
   91.4991   47.6213   20.7465 H   0  0  0  0  0
   91.8231   45.9395   20.2590 H   0  0  0  0  0
   85.6334   49.7439   21.3051 H   0  0  0  0  0
   85.9981   48.7350   22.8586 H   0  0  0  0  0
   83.2980   57.5268   21.2854 H   0  0  0  0  0
   83.5296   59.0306   22.2106 H   0  0  0  0  0
   84.5527   58.6907   20.7933 H   0  0  0  0  0
   81.3917   57.2139   26.9507 H   0  0  0  0  0
   82.5795   58.2777   27.7434 H   0  0  0  0  0
   81.8028   58.7867   26.2239 H   0  0  0  0  0
   82.7027   50.2897   23.9380 H   0  0  0  0  0
   82.0607   50.9297   22.4053 H   0  0  0  0  0
   83.6908   50.2149   22.4585 H   0  0  0  0  0
   82.3727   54.0442   22.4741 H   0  0  0  0  0
   82.8408   53.7298   24.2821 H   0  0  0  0  0
   87.7354   56.5223   27.2841 H   0  0  0  0  0
   86.6053   50.3433   19.6409 H   0  0  0  0  0
   91.3677   47.7897   23.3180 H   0  0  0  0  0
  1  2  1  0  0  0
  1 45  1  0  0  0
  1 46  2  0  0  0
  2  3  1  0  0  0
  2 44  1  0  0  0
  2 47  1  0  0  0
  3  4  1  0  0  0
  4  5  1  0  0  0
  4 48  1  0  0  0
  5  6  1  0  0  0
  6  7  1  0  0  0
  7  8  1  0  0  0
  7 49  1  0  0  0
  8  9  1  0  0  0
  8 48  1  0  0  0
  8 50  1  0  0  0
  9 10  2  0  0  0
 10 11  1  0  0  0
 10 43  1  0  0  0
 11 12  1  0  0  0
 12 13  1  0  0  0
 12 50  1  0  0  0
 13 14  1  0  0  0
 13 42  1  0  0  0
 14 15  2  0  0  0
 15 16  1  0  0  0
 16 17  1  0  0  0
 16 51  1  0  0  0
 17 18  1  0  0  0
 18 19  1  0  0  0
 19 20  1  0  0  0
 19 51  1  0  0  0
 19 52  1  0  0  0
 20 21  1  0  0  0
 21 22  1  0  0  0
 22 23  1  0  0  0
 22 53  1  0  0  0
 23 24  1  0  0  0
 23 52  1  0  0  0
 24 25  1  0  0  0
 24 54  1  0  0  0
 25 26  1  0  0  0
 25 41  2  0  0  0
 26 27  1  0  0  0
 26 53  1  0  0  0
 27 28  1  0  0  0
 27 55  1  0  0  0
 28 29  1  0  0  0
 29 30  1  0  0  0
 29 40  1  0  0  0
 30 31  1  0  0  0
 30 56  1  0  0  0
 31 32  1  0  0  0
 31 39  1  0  0  0
 32 33  1  0  0  0
 33 34  1  0  0  0
 34 35  1  0  0  0
 34 56  1  0  0  0
 34 57  1  0  0  0
 35 36  1  0  0  0
 36 37  1  0  0  0
 37 38  1  0  0  0
 38 57  1  0  0  0
  3 58  1  0  0  0
  3 59  1  0  0  0
  4 60  1  0  0  0
  5 61  1  0  0  0
  5 62  1  0  0  0
  6 63  1  0  0  0
  6 64  1  0  0  0
  7 65  1  0  0  0
  9 66  1  0  0  0
 11 67  1  0  0  0
 11 68  1  0  0  0
 12 69  1  0  0  0
 13 70  1  0  0  0
 14 71  1  0  0  0
 15 72  1  0  0  0
 16 73  1  0  0  0
 17 74  1  0  0  0
 17 75  1  0  0  0
 18 76  1  0  0  0
 18 77  1  0  0  0
 20 78  1  0  0  0
 20 79  1  0  0  0
 21 80  1  0  0  0
 21 81  1  0  0  0
 22 82  1  0  0  0
 23 83  1  0  0  0
 24 84  1  0  0  0
 26 85  1  0  0  0
 27 86  1  0  0  0
 28 87  1  0  0  0
 28 88  1  0  0  0
 29 89  1  0  0  0
 30 90  1  0  0  0
 31 91  1  0  0  0
 32 92  1  0  0  0
 32 93  1  0  0  0
 33 94  1  0  0  0
 33 95  1  0  0  0
 35 96  1  0  0  0
 35 97  1  0  0  0
 36 98  1  0  0  0
 36 99  1  0  0  0
 37100  1  0  0  0
 37101  1  0  0  0
 38102  1  0  0  0
 38103  1  0  0  0
 39104  1  0  0  0
 39105  1  0  0  0
 39106  1  0  0  0
 40107  1  0  0  0
 40108  1  0  0  0
 40109  1  0  0  0
 41110  1  0  0  0
 41111  1  0  0  0
 42112  1  0  0  0
 42113  1  0  0  0
 42114  1  0  0  0
 43115  1  0  0  0
 43116  1  0  0  0
 43117  1  0  0  0
 44118  1  0  0  0
 44119  1  0  0  0
 44120  1  0  0  0
 45121  1  0  0  0
 47122  1  0  0  0
 49123  1  0  0  0
 54124  1  0  0  0
 55125  1  0  0  0
M  END
$$$$
