### 
### Created by X-TOOL on Mon Aug  2 16:12:36 2021
### 

@<TRIPOS>MOLECULE
6agp_ligand
   40    42     1     0     0
SMALL
GAST_HUCK


@<TRIPOS>ATOM
      1 PB         34.0350    5.8990   19.3880 P.3       1 GDP         0.2069
      2 O1B        33.1350    5.7290   18.2180 O.co2     1 GDP        -0.5891
      3 O2B        33.4900    5.6590   20.6460 O.co2     1 GDP        -0.5891
      4 O3B        35.4230    5.0670   19.1490 O.co2     1 GDP        -0.5891
      5 O3A        34.4930    7.4050   19.4370 O.3       1 GDP        -0.1548
      6 PA         34.4680    8.5080   20.6870 P.3       1 GDP         0.3276
      7 O1A        33.0720    8.7340   21.1730 O.co2     1 GDP        -0.5556
      8 O2A        35.4230    7.9490   21.6980 O.co2     1 GDP        -0.5556
      9 O5'        35.0060    9.7870   19.9740 O.3       1 GDP        -0.2436
     10 C5'        36.0340    9.7750   18.9260 C.3       1 GDP         0.1132
     11 C4'        36.6300   11.0940   18.6700 C.3       1 GDP         0.1189
     12 O4'        35.5900   11.9740   18.0160 O.3       1 GDP        -0.3363
     13 C3'        36.9550   11.9230   19.9700 C.3       1 GDP         0.1150
     14 O3'        38.1640   12.6980   19.6480 O.3       1 GDP        -0.3864
     15 C2'        35.7620   12.8970   20.2260 C.3       1 GDP         0.1387
     16 O2'        35.9770   14.1200   20.9530 O.3       1 GDP        -0.3836
     17 C1'        35.2580   13.2130   18.8010 C.3       1 GDP         0.1992
     18 N9         33.7980   13.4220   18.7050 N.pl3     1 GDP        -0.2101
     19 C8         32.8950   12.3520   19.2290 C.2       1 GDP         0.0957
     20 N7         31.7280   13.0650   18.8800 N.2       1 GDP        -0.3235
     21 C5         31.7980   14.2620   18.2990 C.2       1 GDP         0.0926
     22 C6         31.0660   15.3340   17.7710 C.2       1 GDP         0.2135
     23 O6         29.7320   15.2180   17.8200 O.2       1 GDP        -0.4091
     24 N1         31.6070   16.4350   17.2360 N.am      1 GDP        -0.1839
     25 C2         33.0850   16.5310   17.1970 C.2       1 GDP         0.2340
     26 N2         33.4090   17.6820   16.6360 N.pl3     1 GDP        -0.2807
     27 N3         33.7900   15.5980   17.6520 N.2       1 GDP        -0.2765
     28 C4         33.2080   14.5210   18.1760 C.2       1 GDP         0.1159
     29 H1         35.5756    9.4139   17.9936 H         1 GDP         0.0648
     30 H2         36.8345    9.0854   19.2322 H         1 GDP         0.0648
     31 H3         37.5270   10.9764   18.0443 H         1 GDP         0.0651
     32 H4         37.1192   11.2686   20.8388 H         1 GDP         0.0648
     33 H5         38.4118   13.2230   20.3999 H         1 GDP         0.2100
     34 H6         34.9900   12.3405   20.7776 H         1 GDP         0.0676
     35 H7         35.1570   14.5948   21.0213 H         1 GDP         0.2101
     36 H8         35.7805   14.0951   18.4023 H         1 GDP         0.0998
     37 H9         33.0711   11.3868   19.7016 H         1 GDP         0.1179
     38 H10        31.0323   17.1691   16.8743 H         1 GDP         0.2515
     39 H11        34.4001   17.9360   16.5171 H         1 GDP         0.1897
     40 H12        32.6706   18.3255   16.3174 H         1 GDP         0.1897
@<TRIPOS>BOND
     1    1    2 ar 
     2    1    3 ar 
     3    1    4 ar 
     4    1    5 1  
     5    5    6 1  
     6    6    7 ar 
     7    6    8 ar 
     8    6    9 1  
     9    9   10 1  
    10   10   11 1  
    11   11   12 1  
    12   11   13 1  
    13   12   17 1  
    14   13   14 1  
    15   13   15 1  
    16   15   16 1  
    17   15   17 1  
    18   17   18 1  
    19   18   19 1  
    20   18   28 1  
    21   19   20 2  
    22   20   21 1  
    23   21   22 1  
    24   21   28 2  
    25   22   23 2  
    26   22   24 am 
    27   24   25 am 
    28   25   26 1  
    29   25   27 2  
    30   27   28 1  
    31   10   29 1  
    32   10   30 1  
    33   11   31 1  
    34   13   32 1  
    35   14   33 1  
    36   15   34 1  
    37   16   35 1  
    38   17   36 1  
    39   19   37 1  
    40   24   38 1  
    41   26   39 1  
    42   26   40 1  
@<TRIPOS>SUBSTRUCTURE
     1 GDP         1

