6agp_ligand
  -I-interpret- 

 43 45  0  0  0  0  0  0  0  0999 V2000
   34.0350    5.8990   19.3880 P   0  0  0  0  0
   33.1350    5.7290   18.2180 O   0  0  0  0  0
   33.4900    5.6590   20.6460 O   0  0  0  0  0
   35.4230    5.0670   19.1490 O   0  0  0  0  0
   34.4930    7.4050   19.4370 O   0  0  0  0  0
   34.4680    8.5080   20.6870 P   0  0  0  0  0
   33.0720    8.7340   21.1730 O   0  0  0  0  0
   35.4230    7.9490   21.6980 O   0  0  0  0  0
   35.0060    9.7870   19.9740 O   0  0  0  0  0
   36.0340    9.7750   18.9260 C   0  0  0  0  0
   36.6300   11.0940   18.6700 C   0  0  0  0  0
   35.5900   11.9740   18.0160 O   0  0  0  0  0
   36.9550   11.9230   19.9700 C   0  0  0  0  0
   38.1640   12.6980   19.6480 O   0  0  0  0  0
   35.7620   12.8970   20.2260 C   0  0  0  0  0
   35.9770   14.1200   20.9530 O   0  0  0  0  0
   35.2580   13.2130   18.8010 C   0  0  0  0  0
   33.7980   13.4220   18.7050 N   0  0  0  0  0
   32.8950   12.3520   19.2290 C   0  0  0  0  0
   31.7280   13.0650   18.8800 N   0  0  0  0  0
   31.7980   14.2620   18.2990 C   0  0  0  0  0
   31.0660   15.3340   17.7710 C   0  0  0  0  0
   29.7320   15.2180   17.8200 O   0  0  0  0  0
   31.6070   16.4350   17.2360 N   0  0  0  0  0
   33.0850   16.5310   17.1970 C   0  0  0  0  0
   33.4090   17.6820   16.6360 N   0  0  0  0  0
   33.7900   15.5980   17.6520 N   0  0  0  0  0
   33.2080   14.5210   18.1760 C   0  0  0  0  0
   33.6201    5.9207   17.4121 H   0  0  0  0  0
   35.7640    5.2606   18.2727 H   0  0  0  0  0
   36.2871    7.8401   21.2943 H   0  0  0  0  0
   35.5553    9.4483   18.0028 H   0  0  0  0  0
   36.8340    9.1147   19.2609 H   0  0  0  0  0
   37.5309   10.8797   18.0950 H   0  0  0  0  0
   37.1040   11.2981   20.8506 H   0  0  0  0  0
   38.4145   13.2285   20.4079 H   0  0  0  0  0
   35.0752   12.3932   20.9062 H   0  0  0  0  0
   35.1484   14.5998   21.0221 H   0  0  0  0  0
   35.7172   14.1375   18.4510 H   0  0  0  0  0
   33.0713   11.3859   19.7020 H   0  0  0  0  0
   31.0208   17.1838   16.8671 H   0  0  0  0  0
   34.3905   17.9317   16.5145 H   0  0  0  0  0
   32.6778   18.3211   16.3242 H   0  0  0  0  0
  1  2  1  0  0  0
  1  3  2  0  0  0
  1  4  1  0  0  0
  1  5  1  0  0  0
  5  6  1  0  0  0
  6  7  2  0  0  0
  6  8  1  0  0  0
  6  9  1  0  0  0
  9 10  1  0  0  0
 10 11  1  0  0  0
 11 12  1  0  0  0
 11 13  1  0  0  0
 12 17  1  0  0  0
 13 14  1  0  0  0
 13 15  1  0  0  0
 15 16  1  0  0  0
 15 17  1  0  0  0
 17 18  1  0  0  0
 18 19  4  0  0  0
 18 28  4  0  0  0
 19 20  4  0  0  0
 20 21  4  0  0  0
 21 22  1  0  0  0
 21 28  4  0  0  0
 22 23  2  0  0  0
 22 24  1  0  0  0
 24 25  1  0  0  0
 25 26  1  0  0  0
 25 27  2  0  0  0
 27 28  1  0  0  0
  2 29  1  0  0  0
  4 30  1  0  0  0
  8 31  1  0  0  0
 10 32  1  0  0  0
 10 33  1  0  0  0
 11 34  1  0  0  0
 13 35  1  0  0  0
 14 36  1  0  0  0
 15 37  1  0  0  0
 16 38  1  0  0  0
 17 39  1  0  0  0
 19 40  1  0  0  0
 24 41  1  0  0  0
 26 42  1  0  0  0
 26 43  1  0  0  0
M  END
$$$$
