5csd_ligand
  -I-interpret- 

 54 53  0  0  0  0  0  0  0  0999 V2000
  -29.1900  -12.1120   17.7490 C   0  0  0  0  0
  -28.0300  -11.9110   16.8090 C   0  0  0  0  0
  -27.3140  -13.2400   16.5700 C   0  0  0  0  0
  -26.2580  -13.1380   15.5030 C   0  0  0  0  0
  -26.9490  -13.1560   14.1680 C   0  0  0  0  0
  -26.5990  -13.9390   13.1620 C   0  0  0  0  0
  -25.4570  -14.9210   13.2350 C   0  0  0  0  0
  -25.6650  -15.9150   12.1330 C   0  0  0  0  0
  -25.0780  -17.1010   12.0830 C   0  0  0  0  0
  -24.1000  -17.6660   13.0860 C   0  0  0  0  0
  -24.6980  -18.9770   13.5160 C   0  0  0  0  0
  -24.3560  -20.1930   13.0850 C   0  0  0  0  0
  -23.2850  -20.5440   12.0790 C   0  0  0  0  0
  -23.8190  -21.6690   11.2100 C   0  0  0  0  0
  -23.1590  -22.2030   10.1770 C   0  0  0  0  0
  -21.7980  -21.7600    9.7000 C   0  0  0  0  0
  -20.7620  -22.7730   10.1650 C   0  0  0  0  0
  -19.5580  -22.8300    9.2540 C   0  0  0  0  0
  -18.4900  -23.7100    9.8850 C   0  0  0  0  0
  -17.4990  -24.1090    8.8250 C   0  0  0  0  0
  -29.4510  -13.2700   18.1410 O   0  0  0  0  0
  -29.8520  -11.1190   18.1120 O   0  0  0  0  0
  -27.3302  -11.2010   17.2499 H   0  0  0  0  0
  -28.4011  -11.5278   15.8585 H   0  0  0  0  0
  -28.0555  -13.9687   16.2425 H   0  0  0  0  0
  -26.8269  -13.5330   17.5000 H   0  0  0  0  0
  -25.5614  -13.9729   15.5794 H   0  0  0  0  0
  -25.6886  -12.2162   15.6216 H   0  0  0  0  0
  -27.7918  -12.4808   14.0202 H   0  0  0  0  0
  -27.1646  -13.8713   12.2327 H   0  0  0  0  0
  -25.4364  -15.4181   14.2048 H   0  0  0  0  0
  -24.5008  -14.4107   13.1195 H   0  0  0  0  0
  -26.3415  -15.6450   11.3221 H   0  0  0  0  0
  -25.3259  -17.7342   11.2311 H   0  0  0  0  0
  -23.9528  -16.9926   13.9304 H   0  0  0  0  0
  -23.1080  -17.7968   12.6537 H   0  0  0  0  0
  -25.4950  -18.9292   14.2581 H   0  0  0  0  0
  -24.9135  -21.0289   13.5074 H   0  0  0  0  0
  -22.3741  -20.8580   12.5886 H   0  0  0  0  0
  -23.0399  -19.6758   11.4673 H   0  0  0  0  0
  -24.8061  -22.0678   11.4439 H   0  0  0  0  0
  -23.6404  -23.0197    9.6391 H   0  0  0  0  0
  -21.5644  -20.7776   10.1104 H   0  0  0  0  0
  -21.7904  -21.6967    8.6119 H   0  0  0  0  0
  -21.2305  -23.7572   10.1647 H   0  0  0  0  0
  -20.4200  -22.4733   11.1556 H   0  0  0  0  0
  -19.1628  -21.8246    9.1089 H   0  0  0  0  0
  -19.8500  -23.2459    8.2897 H   0  0  0  0  0
  -18.9512  -24.6004   10.3124 H   0  0  0  0  0
  -17.9812  -23.1613   10.6776 H   0  0  0  0  0
  -18.0133  -24.6597    8.0374 H   0  0  0  0  0
  -17.0393  -23.2148    8.4041 H   0  0  0  0  0
  -16.7291  -24.7405    9.2684 H   0  0  0  0  0
  -28.8288  -13.8871   17.7491 H   0  0  0  0  0
  1  2  1  0  0  0
  1 21  1  0  0  0
  1 22  2  0  0  0
  2  3  1  0  0  0
  3  4  1  0  0  0
  4  5  1  0  0  0
  5  6  2  0  0  0
  6  7  1  0  0  0
  7  8  1  0  0  0
  8  9  2  0  0  0
  9 10  1  0  0  0
 10 11  1  0  0  0
 11 12  2  0  0  0
 12 13  1  0  0  0
 13 14  1  0  0  0
 14 15  2  0  0  0
 15 16  1  0  0  0
 16 17  1  0  0  0
 17 18  1  0  0  0
 18 19  1  0  0  0
 19 20  1  0  0  0
  2 23  1  0  0  0
  2 24  1  0  0  0
  3 25  1  0  0  0
  3 26  1  0  0  0
  4 27  1  0  0  0
  4 28  1  0  0  0
  5 29  1  0  0  0
  6 30  1  0  0  0
  7 31  1  0  0  0
  7 32  1  0  0  0
  8 33  1  0  0  0
  9 34  1  0  0  0
 10 35  1  0  0  0
 10 36  1  0  0  0
 11 37  1  0  0  0
 12 38  1  0  0  0
 13 39  1  0  0  0
 13 40  1  0  0  0
 14 41  1  0  0  0
 15 42  1  0  0  0
 16 43  1  0  0  0
 16 44  1  0  0  0
 17 45  1  0  0  0
 17 46  1  0  0  0
 18 47  1  0  0  0
 18 48  1  0  0  0
 19 49  1  0  0  0
 19 50  1  0  0  0
 20 51  1  0  0  0
 20 52  1  0  0  0
 20 53  1  0  0  0
 21 54  1  0  0  0
M  END
$$$$
