6n8x_ligand
  -I-interpret- 

 52 54  0  0  0  0  0  0  0  0999 V2000
    0.7640   10.2800  221.1870 C   0  0  0  0  0
   -0.0520   10.9900  220.3700 C   0  0  0  0  0
   -1.3670   11.1150  220.7120 C   0  0  0  0  0
    1.9420   10.9640  219.5410 C   0  0  0  0  0
   -1.8090   10.5840  221.8510 N   0  0  0  0  0
    0.3520    9.7170  222.3340 N   0  0  0  0  0
    4.9290    6.6450  219.2630 C   0  0  0  0  0
    4.7150    7.9840  219.9760 C   0  0  0  0  0
    3.3330    8.2260  220.5570 C   0  0  0  0  0
    3.1530    9.5750  221.2820 C   0  0  0  0  0
    1.9880   10.2620  220.6640 N   0  0  0  0  0
   -0.9730    9.8770  222.6940 C   0  0  0  0  0
   -2.2240   11.7870  219.9290 N   0  0  0  0  0
    0.7030   11.4150  219.3310 N   0  0  0  0  0
    3.1400   11.1890  218.6070 C   0  0  0  0  0
    4.2820   11.8080  219.2310 C   0  0  0  0  0
    5.5510   11.2850  218.9710 C   0  0  0  0  0
    4.1560   12.9280  220.0730 C   0  0  0  0  0
    5.3000   13.5070  220.6400 C   0  0  0  0  0
    5.2600   14.5850  221.4790 O   0  0  0  0  0
    4.0470   15.3260  221.4410 C   0  0  0  0  0
    6.5520   12.9720  220.3620 C   0  0  0  0  0
    7.7140   13.4810  220.9150 O   0  0  0  0  0
    7.9780   14.8440  220.5790 C   0  0  0  0  0
    6.6800   11.8680  219.5430 C   0  0  0  0  0
    7.9620   11.4270  219.3420 O   0  0  0  0  0
    8.0760   10.3550  218.3860 C   0  0  0  0  0
    4.7516    5.8292  219.9638 H   0  0  0  0  0
    4.2343    6.5649  218.4269 H   0  0  0  0  0
    5.9528    6.5915  218.8928 H   0  0  0  0  0
    4.8658    8.7562  219.2216 H   0  0  0  0  0
    5.4040    7.9908  220.8206 H   0  0  0  0  0
    3.1648    7.4464  221.3000 H   0  0  0  0  0
    2.6365    8.2258  219.7186 H   0  0  0  0  0
    4.0515   10.1841  221.1829 H   0  0  0  0  0
    2.9812    9.4159  222.3466 H   0  0  0  0  0
   -1.3510    9.4537  223.6246 H   0  0  0  0  0
   -1.8959   12.2142  219.0628 H   0  0  0  0  0
   -3.2038   11.8708  220.1997 H   0  0  0  0  0
    2.8053   11.8628  217.8183 H   0  0  0  0  0
    3.4613   10.2067  218.2607 H   0  0  0  0  0
    5.6583   10.4183  218.3188 H   0  0  0  0  0
    3.1711   13.3447  220.2841 H   0  0  0  0  0
    3.8865   15.7063  220.4322 H   0  0  0  0  0
    3.2175   14.6773  221.7224 H   0  0  0  0  0
    4.1105   16.1604  222.1394 H   0  0  0  0  0
    8.0713   14.9387  219.4971 H   0  0  0  0  0
    7.1570   15.4690  220.9302 H   0  0  0  0  0
    8.9064   15.1607  221.0541 H   0  0  0  0  0
    7.4937    9.5000  218.7296 H   0  0  0  0  0
    7.6975   10.6895  217.4201 H   0  0  0  0  0
    9.1228   10.0674  218.2877 H   0  0  0  0  0
  1  2  4  0  0  0
  1  6  4  0  0  0
 11  1  4  0  0  0
  2  3  4  0  0  0
 14  2  4  0  0  0
  3  5  4  0  0  0
  3 13  1  0  0  0
 11  4  4  0  0  0
  4 14  4  0  0  0
  4 15  1  0  0  0
 12  5  4  0  0  0
  6 12  4  0  0  0
  8  7  1  0  0  0
  9  8  1  0  0  0
 10  9  1  0  0  0
 10 11  1  0  0  0
 15 16  1  0  0  0
 16 17  4  0  0  0
 16 18  4  0  0  0
 17 25  4  0  0  0
 18 19  4  0  0  0
 19 20  1  0  0  0
 19 22  4  0  0  0
 20 21  1  0  0  0
 22 23  1  0  0  0
 22 25  4  0  0  0
 23 24  1  0  0  0
 25 26  1  0  0  0
 26 27  1  0  0  0
  7 28  1  0  0  0
  7 29  1  0  0  0
  7 30  1  0  0  0
  8 31  1  0  0  0
  8 32  1  0  0  0
  9 33  1  0  0  0
  9 34  1  0  0  0
 10 35  1  0  0  0
 10 36  1  0  0  0
 12 37  1  0  0  0
 13 38  1  0  0  0
 13 39  1  0  0  0
 15 40  1  0  0  0
 15 41  1  0  0  0
 17 42  1  0  0  0
 18 43  1  0  0  0
 21 44  1  0  0  0
 21 45  1  0  0  0
 21 46  1  0  0  0
 24 47  1  0  0  0
 24 48  1  0  0  0
 24 49  1  0  0  0
 27 50  1  0  0  0
 27 51  1  0  0  0
 27 52  1  0  0  0
M  END
$$$$
