4kn2_ligand
  -I-interpret- 

 50 52  0  0  0  0  0  0  0  0999 V2000
   39.6400    5.0370   39.2230 C   0  0  0  0  0
   39.0470    4.5260   40.3700 C   0  0  0  0  0
   39.8080    3.8550   41.3120 C   0  0  0  0  0
   41.1670    3.7000   41.0880 C   0  0  0  0  0
   41.7760    4.2110   39.9460 C   0  0  0  0  0
   41.0050    4.8850   39.0030 C   0  0  0  0  0
   38.7360    5.7610   38.2360 C   0  0  0  0  0
   39.2340    6.5250   37.0470 C   0  0  0  0  0
   38.1140    7.2870   36.3320 C   0  0  0  0  0
   37.2830    6.7890   35.3380 C   0  0  0  0  0
   36.4310    7.7730   34.9990 N   0  0  0  0  0
   36.6800    8.8700   35.7350 C   0  0  0  0  0
   37.7300    8.6000   36.5900 C   0  0  0  0  0
   38.2190    9.6460   37.5250 C   0  0  0  0  0
   39.1460    9.3920   38.2780 O   0  0  0  0  0
   37.6080   10.9330   37.5480 N   0  0  0  0  0
   36.5130   11.1930   36.6620 C   0  0  0  0  0
   36.0550   10.1700   35.7570 N   0  0  0  0  0
   35.8690   12.4780   36.6470 N   0  0  0  0  0
   41.9770    2.9500   42.1260 C   0  0  0  0  0
   42.6830    2.0150   41.7770 O   0  0  0  0  0
   41.8530    3.3630   43.5090 N   0  0  0  0  0
   42.6180    2.7350   44.5680 C   0  0  0  0  0
   43.6270    3.6860   45.1560 C   0  0  0  0  0
   44.2970    4.6320   44.1910 C   0  0  0  0  0
   45.5340    5.3550   44.6360 C   0  0  0  0  0
   46.5990    4.7080   44.8540 O   0  0  0  0  0
   45.5100    6.6090   44.7850 O   0  0  0  0  0
   41.6350    2.2920   45.6070 C   0  0  0  0  0
   40.6670    1.5540   45.2460 O   0  0  0  0  0
   41.7780    2.6550   46.8220 O   0  0  0  0  0
   37.9764    4.6539   40.5296 H   0  0  0  0  0
   39.3461    3.4553   42.2148 H   0  0  0  0  0
   42.8475    4.0846   39.7911 H   0  0  0  0  0
   41.4661    5.2893   38.1019 H   0  0  0  0  0
   38.2855    6.5404   38.8505 H   0  0  0  0  0
   38.1767    4.9444   37.7794 H   0  0  0  0  0
   39.6601    5.8114   36.3418 H   0  0  0  0  0
   39.9672    7.2521   37.3961 H   0  0  0  0  0
   37.3150    5.7865   34.9113 H   0  0  0  0  0
   35.2796   10.3672   35.1243 H   0  0  0  0  0
   36.1908   13.2171   37.2720 H   0  0  0  0  0
   41.2085    4.1178   43.7444 H   0  0  0  0  0
   43.1841    1.8888   44.1787 H   0  0  0  0  0
   44.4206    3.0661   45.5731 H   0  0  0  0  0
   43.0794    4.3106   45.8618 H   0  0  0  0  0
   43.5620    5.4149   44.0042 H   0  0  0  0  0
   44.6175    4.0074   43.3572 H   0  0  0  0  0
   46.4432    3.7743   44.6944 H   0  0  0  0  0
   42.5608    3.2051   46.9004 H   0  0  0  0  0
  1  2  4  0  0  0
  1  6  4  0  0  0
  1  7  1  0  0  0
  2  3  4  0  0  0
  3  4  4  0  0  0
  4  5  4  0  0  0
  4 20  1  0  0  0
  5  6  4  0  0  0
  7  8  1  0  0  0
  8  9  1  0  0  0
  9 10  4  0  0  0
  9 13  4  0  0  0
 10 11  4  0  0  0
 11 12  4  0  0  0
 12 13  4  0  0  0
 12 18  1  0  0  0
 13 14  1  0  0  0
 14 15  2  0  0  0
 14 16  1  0  0  0
 16 17  4  0  0  0
 17 18  1  0  0  0
 17 19  2  0  0  0
 20 21  2  0  0  0
 20 22  1  0  0  0
 22 23  1  0  0  0
 23 24  1  0  0  0
 23 29  1  0  0  0
 24 25  1  0  0  0
 25 26  1  0  0  0
 26 27  1  0  0  0
 26 28  2  0  0  0
 29 30  2  0  0  0
 29 31  1  0  0  0
  2 32  1  0  0  0
  3 33  1  0  0  0
  5 34  1  0  0  0
  6 35  1  0  0  0
  7 36  1  0  0  0
  7 37  1  0  0  0
  8 38  1  0  0  0
  8 39  1  0  0  0
 10 40  1  0  0  0
 18 41  1  0  0  0
 19 42  1  0  0  0
 22 43  1  0  0  0
 23 44  1  0  0  0
 24 45  1  0  0  0
 24 46  1  0  0  0
 25 47  1  0  0  0
 25 48  1  0  0  0
 27 49  1  0  0  0
 31 50  1  0  0  0
M  END
$$$$
