4hct_ligand
  -I-interpret- 

 72 76  0  0  0  0  0  0  0  0999 V2000
    1.5640   10.0490   18.3050 C   0  0  0  0  0
    1.2040   10.4710   17.0690 N   0  0  0  0  0
    1.8890   10.8260   19.1990 O   0  0  0  0  0
    8.1800    5.1210   21.8490 N   0  0  0  0  0
    8.8560    4.0280   22.2600 C   0  0  0  0  0
    8.2570    3.0420   22.7080 O   0  0  0  0  0
    6.0760    5.9730   22.5970 C   0  0  0  0  0
    6.6020    7.4120   22.5920 C   0  0  0  0  0
    8.1340    7.4470   22.6120 C   0  0  0  0  0
    8.7090    6.4660   21.5870 C   0  0  0  0  0
    6.7480    5.1060   21.5570 C   0  0  0  0  0
    1.6560    3.6670   23.7580 N   0  0  0  0  0
    2.8920    3.5690   24.2650 C   0  0  0  0  0
    3.9830    4.2620   23.9220 N   0  0  0  0  0
    1.4410    4.5330   22.7430 C   0  0  0  0  0
    4.6340    5.9180   22.2700 N   0  0  0  0  0
    4.1020    6.6440   21.2400 N   0  0  0  0  0
    2.7890    6.2630   21.1950 C   0  0  0  0  0
    2.5300    5.3270   22.2300 C   0  0  0  0  0
    3.7460    5.1100   22.9070 C   0  0  0  0  0
    0.1970    4.6510   22.2500 N   0  0  0  0  0
    1.8870    6.7900   20.1340 C   0  0  0  0  0
    1.9960    8.1250   19.7630 C   0  0  0  0  0
    1.3790    8.5990   18.6080 C   0  0  0  0  0
    0.5260    7.7530   17.9010 C   0  0  0  0  0
    0.3260    6.4460   18.3280 C   0  0  0  0  0
    1.0360    5.9480   19.4140 C   0  0  0  0  0
   10.3410    4.0570   22.2370 C   0  0  0  0  0
   11.0070    3.6020   21.1970 C   0  0  0  0  0
    1.8390   13.5460   15.0090 C   0  0  0  0  0
    1.9080   12.2240   15.4630 C   0  0  0  0  0
    1.0480   14.4500   15.7160 C   0  0  0  0  0
    2.5870   14.0110   13.7470 C   0  0  0  0  0
    1.2020   11.8160   16.5960 C   0  0  0  0  0
    0.3410   14.0480   16.8420 C   0  0  0  0  0
    3.7260   14.9750   14.1100 C   0  0  0  0  0
    3.1960   12.8440   12.9650 C   0  0  0  0  0
    1.6380   14.7640   12.7890 C   0  0  0  0  0
    0.4180   12.7350   17.2850 C   0  0  0  0  0
    0.9037    9.7532   16.4095 H   0  0  0  0  0
    6.2821    5.6104   23.6041 H   0  0  0  0  0
    6.2324    7.9189   23.4834 H   0  0  0  0  0
    6.2562    7.9039   21.6829 H   0  0  0  0  0
    8.4807    7.1631   23.6056 H   0  0  0  0  0
    8.4675    8.4543   22.3624 H   0  0  0  0  0
    8.4240    6.7800   20.5829 H   0  0  0  0  0
    9.7960    6.4516   21.6669 H   0  0  0  0  0
    6.3578    4.0888   21.5922 H   0  0  0  0  0
    6.5548    5.4868   20.5541 H   0  0  0  0  0
    3.0252    2.8317   25.0567 H   0  0  0  0  0
   -0.5619    4.0932   22.6417 H   0  0  0  0  0
    0.0113    5.2984   21.4840 H   0  0  0  0  0
    2.5723    8.8103   20.3846 H   0  0  0  0  0
    0.0143    8.1179   17.0104 H   0  0  0  0  0
   -0.3904    5.8089   17.8093 H   0  0  0  0  0
    0.9291    4.9026   19.7034 H   0  0  0  0  0
   10.8853    4.4597   23.0912 H   0  0  0  0  0
   10.4689    3.1980   20.3395 H   0  0  0  0  0
   12.0967    3.6292   21.1932 H   0  0  0  0  0
    2.5220   11.5024   14.9240 H   0  0  0  0  0
    0.9834   15.4853   15.3811 H   0  0  0  0  0
   -0.2770   14.7669   17.3800 H   0  0  0  0  0
    3.3139   15.8481   14.6159 H   0  0  0  0  0
    4.4311   14.4700   14.7703 H   0  0  0  0  0
    4.2385   15.2886   13.2006 H   0  0  0  0  0
    3.9050   12.3132   13.6004 H   0  0  0  0  0
    2.4033   12.1630   12.6550 H   0  0  0  0  0
    3.7117   13.2279   12.0848 H   0  0  0  0  0
    0.8247   14.1023   12.4909 H   0  0  0  0  0
    1.2296   15.6379   13.2967 H   0  0  0  0  0
    2.1922   15.0814   11.9057 H   0  0  0  0  0
   -0.1351   12.4246   18.1715 H   0  0  0  0  0
  2  1  1  0  0  0
  1  3  2  0  0  0
  1 24  1  0  0  0
 34  2  1  0  0  0
  4  5  1  0  0  0
  4 10  1  0  0  0
 11  4  1  0  0  0
  5  6  2  0  0  0
  5 28  1  0  0  0
  7  8  1  0  0  0
  7 11  1  0  0  0
 16  7  1  0  0  0
  8  9  1  0  0  0
  9 10  1  0  0  0
 12 13  4  0  0  0
 15 12  4  0  0  0
 14 13  4  0  0  0
 20 14  4  0  0  0
 19 15  4  0  0  0
 15 21  1  0  0  0
 17 16  4  0  0  0
 20 16  4  0  0  0
 18 17  4  0  0  0
 18 19  4  0  0  0
 22 18  1  0  0  0
 19 20  4  0  0  0
 23 22  4  0  0  0
 22 27  4  0  0  0
 24 23  4  0  0  0
 24 25  4  0  0  0
 25 26  4  0  0  0
 26 27  4  0  0  0
 28 29  2  0  0  0
 31 30  4  0  0  0
 30 32  4  0  0  0
 30 33  1  0  0  0
 31 34  4  0  0  0
 32 35  4  0  0  0
 33 36  1  0  0  0
 33 37  1  0  0  0
 33 38  1  0  0  0
 34 39  4  0  0  0
 35 39  4  0  0  0
  2 40  1  0  0  0
  7 41  1  0  0  0
  8 42  1  0  0  0
  8 43  1  0  0  0
  9 44  1  0  0  0
  9 45  1  0  0  0
 10 46  1  0  0  0
 10 47  1  0  0  0
 11 48  1  0  0  0
 11 49  1  0  0  0
 13 50  1  0  0  0
 21 51  1  0  0  0
 21 52  1  0  0  0
 23 53  1  0  0  0
 25 54  1  0  0  0
 26 55  1  0  0  0
 27 56  1  0  0  0
 28 57  1  0  0  0
 29 58  1  0  0  0
 29 59  1  0  0  0
 31 60  1  0  0  0
 32 61  1  0  0  0
 35 62  1  0  0  0
 36 63  1  0  0  0
 36 64  1  0  0  0
 36 65  1  0  0  0
 37 66  1  0  0  0
 37 67  1  0  0  0
 37 68  1  0  0  0
 38 69  1  0  0  0
 38 70  1  0  0  0
 38 71  1  0  0  0
 39 72  1  0  0  0
M  END
$$$$
