3chp_ligand
  -I-interpret- 

 42 43  0  0  0  0  0  0  0  0999 V2000
    8.5610   41.8670   67.9200 C   0  0  0  0  0
    7.7440   41.0110   68.6820 C   0  0  0  0  0
    8.8950   38.0960   71.6280 C   0  0  0  0  0
    9.5650   41.3400   67.0890 C   0  0  0  0  0
    7.9130   39.6150   68.6160 C   0  0  0  0  0
    8.9110   39.0850   67.7760 C   0  0  0  0  0
   13.8240   41.2220   63.6590 O   0  0  0  0  0
   14.5240   41.7760   64.5420 C   0  0  0  0  0
   13.8510   42.8740   65.4020 C   0  0  0  0  0
   11.5360   41.8270   65.7910 C   0  0  0  0  0
   12.3260   42.9900   65.1620 C   0  0  0  0  0
    8.4650   35.7530   71.1370 C   0  0  0  0  0
    9.1820   35.3790   72.2830 C   0  0  0  0  0
    9.7550   36.3580   73.1020 C   0  0  0  0  0
    9.6110   37.7180   72.7740 C   0  0  0  0  0
    8.3210   37.1100   70.8020 C   0  0  0  0  0
    7.6350   37.4540   69.6320 C   0  0  0  0  0
    7.1020   38.7970   69.3860 O   0  0  0  0  0
    9.7270   39.9390   67.0250 C   0  0  0  0  0
   10.4280   42.1990   66.4790 N   0  0  0  0  0
   11.9510   40.6720   65.6950 O   0  0  0  0  0
   11.8390   44.2520   65.6990 N   0  3  0  0  0
   15.7320   41.5240   64.7880 O   0  0  0  0  0
    8.4143   42.9457   67.9745 H   0  0  0  0  0
    6.9742   41.4324   69.3285 H   0  0  0  0  0
    8.7832   39.1509   71.3774 H   0  0  0  0  0
    9.0486   38.0057   67.7103 H   0  0  0  0  0
   14.3012   43.8285   65.1293 H   0  0  0  0  0
   14.0008   42.6107   66.4490 H   0  0  0  0  0
   12.1671   42.9471   64.0845 H   0  0  0  0  0
    8.0174   34.9874   70.5033 H   0  0  0  0  0
    9.2929   34.3245   72.5358 H   0  0  0  0  0
   10.3120   36.0672   73.9927 H   0  0  0  0  0
   10.0570   38.4809   73.4121 H   0  0  0  0  0
    6.7387   36.8355   69.6784 H   0  0  0  0  0
    8.3933   37.3417   68.8571 H   0  0  0  0  0
   10.4986   39.5163   66.3815 H   0  0  0  0  0
   10.2260   43.1966   66.5445 H   0  0  0  0  0
   10.8343   44.3234   65.5383 H   0  0  0  0  0
   12.0279   44.2894   66.7007 H   0  0  0  0  0
   12.3148   45.0246   65.2330 H   0  0  0  0  0
   16.0342   42.0830   65.5075 H   0  0  0  0  0
  2  1  4  0  0  0
  1  4  4  0  0  0
  5  2  4  0  0  0
  3 15  4  0  0  0
 16  3  4  0  0  0
 19  4  4  0  0  0
  4 20  1  0  0  0
  5  6  4  0  0  0
 18  5  1  0  0  0
  6 19  4  0  0  0
  8  7  2  0  0  0
  9  8  1  0  0  0
  8 23  1  0  0  0
 11  9  1  0  0  0
 10 11  1  0  0  0
 20 10  1  0  0  0
 10 21  2  0  0  0
 11 22  1  0  0  0
 12 13  4  0  0  0
 16 12  4  0  0  0
 13 14  4  0  0  0
 15 14  4  0  0  0
 17 16  1  0  0  0
 17 18  1  0  0  0
  1 24  1  0  0  0
  2 25  1  0  0  0
  3 26  1  0  0  0
  6 27  1  0  0  0
  9 28  1  0  0  0
  9 29  1  0  0  0
 11 30  1  0  0  0
 12 31  1  0  0  0
 13 32  1  0  0  0
 14 33  1  0  0  0
 15 34  1  0  0  0
 17 35  1  0  0  0
 17 36  1  0  0  0
 19 37  1  0  0  0
 20 38  1  0  0  0
 22 39  1  0  0  0
 22 40  1  0  0  0
 22 41  1  0  0  0
 23 42  1  0  0  0
M  END
$$$$
