3u7m_ligand
  -I-interpret- 

 55 55  0  0  0  0  0  0  0  0999 V2000
  -16.7880  143.7470   44.5390 C   0  0  0  0  0
  -16.3930  145.5190   46.1810 N   0  0  0  0  0
  -15.6150  143.7770   44.2550 O   0  0  0  0  0
  -17.3710  144.5530   45.7390 C   0  0  0  0  0
  -18.4550  145.5840   45.4590 C   0  0  0  0  0
  -16.6550  139.3050   47.0340 C   0  0  0  0  0
  -18.9480  140.3870   40.4700 O   0  0  0  0  0
  -15.1180  144.1990   47.3020 O   0  0  0  0  0
  -19.6220  142.6070   41.4440 O   0  0  0  0  0
  -12.8300  147.5500   46.4800 F   0  0  0  0  0
  -18.1520  141.1280   40.9920 C   0  0  0  0  0
  -10.8960  146.2160   48.6530 C   0  0  0  0  0
  -11.8530  145.4370   49.2770 C   0  0  0  0  0
  -11.2400  147.0270   47.6020 C   0  0  0  0  0
  -13.1690  145.4390   48.8520 C   0  0  0  0  0
  -17.0280  139.5260   45.6110 C   0  0  0  0  0
  -17.2440  140.9980   45.4330 C   0  0  0  0  0
  -17.1290  141.3830   43.9690 C   0  0  0  0  0
  -17.6150  143.1370   42.2870 C   0  0  0  0  0
  -14.6610  146.3900   47.2390 N   0  0  0  0  0
  -15.3660  145.3120   46.9310 C   0  0  0  0  0
  -12.5520  147.0300   47.2000 C   0  0  0  0  0
  -13.5020  146.2730   47.8190 C   0  0  0  0  0
  -17.6680  142.8000   43.7670 C   0  0  0  0  0
  -18.5300  142.2840   41.5500 N   0  0  0  0  0
  -19.6320  145.3310   46.3820 C   0  0  0  0  0
  -18.8090  145.7260   43.9940 C   0  0  0  0  0
  -16.5314  146.4779   45.8620 H   0  0  0  0  0
  -17.7053  143.7354   46.3776 H   0  0  0  0  0
  -18.0624  146.5742   45.6904 H   0  0  0  0  0
  -15.7424  139.8570   47.2590 H   0  0  0  0  0
  -17.4613  139.6555   47.6783 H   0  0  0  0  0
  -16.4889  138.2412   47.2037 H   0  0  0  0  0
  -19.7504  143.4480   41.8889 H   0  0  0  0  0
  -17.0985  140.8489   41.0096 H   0  0  0  0  0
   -9.8626  146.1853   48.9983 H   0  0  0  0  0
  -11.5646  144.8093   50.1201 H   0  0  0  0  0
  -10.4964  147.6482   47.1028 H   0  0  0  0  0
  -13.9149  144.7989   49.3231 H   0  0  0  0  0
  -17.9330  138.9723   45.3610 H   0  0  0  0  0
  -16.2392  139.1709   44.9478 H   0  0  0  0  0
  -16.4851  141.5370   46.0001 H   0  0  0  0  0
  -18.2426  141.2534   45.7875 H   0  0  0  0  0
  -17.7088  140.6855   43.3645 H   0  0  0  0  0
  -16.0825  141.3471   43.6663 H   0  0  0  0  0
  -16.6014  142.9777   41.9192 H   0  0  0  0  0
  -17.9036  144.1786   42.1460 H   0  0  0  0  0
  -15.0282  147.3162   47.0206 H   0  0  0  0  0
  -18.6974  142.8801   44.1162 H   0  0  0  0  0
  -20.3343  146.1614   46.3091 H   0  0  0  0  0
  -20.1293  144.4062   46.0895 H   0  0  0  0  0
  -19.2752  145.2442   47.4083 H   0  0  0  0  0
  -19.2874  144.8103   43.6467 H   0  0  0  0  0
  -19.4925  146.5655   43.8664 H   0  0  0  0  0
  -17.9011  145.9042   43.4178 H   0  0  0  0  0
  1  3  2  0  0  0
  4  1  1  0  0  0
  1 24  1  0  0  0
  2  4  1  0  0  0
 21  2  1  0  0  0
  4  5  1  0  0  0
  5 26  1  0  0  0
  5 27  1  0  0  0
 16  6  1  0  0  0
 11  7  2  0  0  0
 21  8  2  0  0  0
 25  9  1  0  0  0
 22 10  1  0  0  0
 25 11  1  0  0  0
 13 12  4  0  0  0
 12 14  4  0  0  0
 15 13  4  0  0  0
 14 22  4  0  0  0
 23 15  4  0  0  0
 17 16  1  0  0  0
 18 17  1  0  0  0
 24 18  1  0  0  0
 24 19  1  0  0  0
 19 25  1  0  0  0
 20 21  1  0  0  0
 20 23  1  0  0  0
 22 23  4  0  0  0
  2 28  1  0  0  0
  4 29  1  0  0  0
  5 30  1  0  0  0
  6 31  1  0  0  0
  6 32  1  0  0  0
  6 33  1  0  0  0
  9 34  1  0  0  0
 11 35  1  0  0  0
 12 36  1  0  0  0
 13 37  1  0  0  0
 14 38  1  0  0  0
 15 39  1  0  0  0
 16 40  1  0  0  0
 16 41  1  0  0  0
 17 42  1  0  0  0
 17 43  1  0  0  0
 18 44  1  0  0  0
 18 45  1  0  0  0
 19 46  1  0  0  0
 19 47  1  0  0  0
 20 48  1  0  0  0
 24 49  1  0  0  0
 26 50  1  0  0  0
 26 51  1  0  0  0
 26 52  1  0  0  0
 27 53  1  0  0  0
 27 54  1  0  0  0
 27 55  1  0  0  0
M  END
$$$$
