5ow8_ligand
  -I-interpret- 

 33 35  0  0  0  0  0  0  0  0999 V2000
    2.4550   -3.5310   -0.3520 C   0  0  0  0  0
    2.4930   -2.6860    0.7280 C   0  0  0  0  0
    1.2960   -2.1590    1.2460 C   0  0  0  0  0
   -0.3450   -1.1050    2.3610 C   0  0  0  0  0
    1.0020   -1.2810    2.3160 C   0  0  0  0  0
   -1.0140   -0.2520    3.3630 C   0  0  0  0  0
   -2.3000   -1.9660    1.0210 C   0  0  0  0  0
   -2.9630   -0.8060    0.6210 C   0  0  0  0  0
   -4.3020   -0.8480    0.2580 C   0  0  0  0  0
   -4.9960   -2.0580    0.2810 C   0  0  0  0  0
   -4.9920    0.4280   -0.1470 C   0  0  0  0  0
    0.0600   -2.5170    0.6560 C   0  0  0  0  0
    0.0500   -3.3900   -0.4460 C   0  0  0  0  0
    1.2410   -3.8940   -0.9410 C   0  0  0  0  0
   -0.9370   -1.8700    1.3570 N   0  0  0  0  0
   -2.0570   -0.6170    3.8740 O   0  0  0  0  0
   -0.4650    0.9170    3.7510 N   0  0  0  0  0
   -4.3390   -3.2250    0.6590 C   0  0  0  0  0
   -2.9960   -3.1830    1.0220 C   0  0  0  0  0
   -5.9140    0.1920   -1.1710 F   0  0  0  0  0
   -5.6570    0.9090    0.9770 F   0  0  0  0  0
   -4.0680    1.3860   -0.5860 F   0  0  0  0  0
    3.3868   -3.9256   -0.7572 H   0  0  0  0  0
    3.4479   -2.4237    1.1834 H   0  0  0  0  0
    1.7294   -0.8250    2.9876 H   0  0  0  0  0
   -2.4251    0.1416    0.5932 H   0  0  0  0  0
   -6.0497   -2.0892    0.0037 H   0  0  0  0  0
   -0.8953   -3.6701   -0.9108 H   0  0  0  0  0
    1.2315   -4.5753   -1.7918 H   0  0  0  0  0
   -0.9233    1.4837    4.4646 H   0  0  0  0  0
    0.4086    1.2345    3.3309 H   0  0  0  0  0
   -4.8767   -4.1731    0.6708 H   0  0  0  0  0
   -2.4828   -4.1009    1.3085 H   0  0  0  0  0
  2  1  4  0  0  0
  1 14  4  0  0  0
  3  2  4  0  0  0
  5  3  4  0  0  0
  3 12  4  0  0  0
  4  5  4  0  0  0
  4  6  1  0  0  0
 15  4  4  0  0  0
  6 16  2  0  0  0
  6 17  1  0  0  0
  7  8  4  0  0  0
  7 15  1  0  0  0
  7 19  4  0  0  0
  8  9  4  0  0  0
  9 10  4  0  0  0
  9 11  1  0  0  0
 10 18  4  0  0  0
 11 20  1  0  0  0
 11 21  1  0  0  0
 11 22  1  0  0  0
 12 13  4  0  0  0
 12 15  4  0  0  0
 13 14  4  0  0  0
 18 19  4  0  0  0
  1 23  1  0  0  0
  2 24  1  0  0  0
  5 25  1  0  0  0
  8 26  1  0  0  0
 10 27  1  0  0  0
 13 28  1  0  0  0
 14 29  1  0  0  0
 17 30  1  0  0  0
 17 31  1  0  0  0
 18 32  1  0  0  0
 19 33  1  0  0  0
M  END
$$$$
