5v3h_ligand
  -I-interpret- 

 52 56  0  0  0  0  0  0  0  0999 V2000
  -47.3460  -16.6560   24.0580 C   0  0  0  0  0
  -47.1650  -16.5780   22.6790 C   0  0  0  0  0
  -45.8840  -16.5970   22.1420 C   0  0  0  0  0
  -44.7690  -16.6840   22.9700 C   0  0  0  0  0
  -43.3880  -16.7140   22.3500 C   0  0  0  0  0
  -41.4360  -15.9530   23.7170 C   0  0  0  0  0
  -48.9610  -16.6370   24.7200 Cl  0  0  0  0  0
  -42.4220  -15.7180   22.8310 N   0  0  0  0  0
  -40.7250  -14.8160   23.8780 C   0  0  0  0  0
  -39.5410  -14.6810   24.8120 C   0  0  0  0  0
  -38.2530  -14.7670   24.1020 N   0  3  0  0  0
  -37.1010  -14.6070   25.0110 C   0  0  0  0  0
  -36.3710  -13.8990   23.8730 C   0  0  0  0  0
  -37.8040  -13.5460   23.4160 C   0  0  0  0  0
  -35.5940  -12.7070   24.2490 N   0  0  0  0  0
  -34.2710  -12.5650   23.9770 C   0  0  0  0  0
  -33.6300  -13.4260   23.4000 O   0  0  0  0  0
  -33.5730  -11.3230   24.3540 C   0  0  0  0  0
  -32.4320  -10.9100   23.7550 C   0  0  0  0  0
  -32.0790   -9.7510   24.3150 N   0  0  0  0  0
  -33.0470   -9.4490   25.2820 N   0  0  0  0  0
  -33.9180  -10.4030   25.2760 N   0  0  0  0  0
  -30.9030   -8.9860   23.9240 C   0  0  0  0  0
  -30.9610   -7.4780   24.1830 C   0  0  0  0  0
  -30.0400   -8.3730   25.0160 C   0  0  0  0  0
  -41.3010  -13.8490   23.0450 C   0  0  0  0  0
  -42.3080  -14.3880   22.4150 N   0  0  0  0  0
  -44.9480  -16.7680   24.3420 C   0  0  0  0  0
  -46.2290  -16.7500   24.8840 C   0  0  0  0  0
  -48.0300  -16.5019   22.0202 H   0  0  0  0  0
  -45.7509  -16.5432   21.0615 H   0  0  0  0  0
  -43.5319  -16.5027   21.2904 H   0  0  0  0  0
  -42.9669  -17.6862   22.6062 H   0  0  0  0  0
  -41.2439  -16.9009   24.2196 H   0  0  0  0  0
  -39.5845  -15.4982   25.5320 H   0  0  0  0  0
  -39.5981  -13.7029   25.2897 H   0  0  0  0  0
  -38.4329  -15.6153   23.5649 H   0  0  0  0  0
  -36.6588  -15.4646   25.5181 H   0  0  0  0  0
  -37.2139  -14.1369   25.9879 H   0  0  0  0  0
  -35.6141  -14.3943   23.2649 H   0  0  0  0  0
  -38.2479  -12.5746   23.6339 H   0  0  0  0  0
  -38.0383  -13.3634   22.3673 H   0  0  0  0  0
  -36.0726  -11.9504   24.7378 H   0  0  0  0  0
  -31.8980  -11.4296   22.9594 H   0  0  0  0  0
  -30.6967   -9.6262   23.0663 H   0  0  0  0  0
  -31.7082   -6.6994   24.3368 H   0  0  0  0  0
  -30.9109   -6.5457   23.6204 H   0  0  0  0  0
  -29.0001   -8.3944   25.3421 H   0  0  0  0  0
  -29.8055   -8.5496   26.0657 H   0  0  0  0  0
  -40.9640  -12.8177   22.9404 H   0  0  0  0  0
  -44.0817  -16.8485   24.9986 H   0  0  0  0  0
  -46.3595  -16.8100   25.9645 H   0  0  0  0  0
  1  2  4  0  0  0
  1  7  1  0  0  0
  1 29  4  0  0  0
  2  3  4  0  0  0
  3  4  4  0  0  0
  4  5  1  0  0  0
  4 28  4  0  0  0
  5  8  1  0  0  0
  8  6  4  0  0  0
  6  9  4  0  0  0
  8 27  4  0  0  0
  9 10  1  0  0  0
  9 26  4  0  0  0
 10 11  1  0  0  0
 11 12  1  0  0  0
 11 14  1  0  0  0
 12 13  1  0  0  0
 13 14  1  0  0  0
 13 15  1  0  0  0
 15 16  1  0  0  0
 16 17  2  0  0  0
 16 18  1  0  0  0
 18 19  4  0  0  0
 18 22  4  0  0  0
 19 20  4  0  0  0
 20 21  4  0  0  0
 20 23  1  0  0  0
 21 22  4  0  0  0
 23 24  1  0  0  0
 23 25  1  0  0  0
 24 25  1  0  0  0
 26 27  4  0  0  0
 28 29  4  0  0  0
  2 30  1  0  0  0
  3 31  1  0  0  0
  5 32  1  0  0  0
  5 33  1  0  0  0
  6 34  1  0  0  0
 10 35  1  0  0  0
 10 36  1  0  0  0
 11 37  1  0  0  0
 12 38  1  0  0  0
 12 39  1  0  0  0
 13 40  1  0  0  0
 14 41  1  0  0  0
 14 42  1  0  0  0
 15 43  1  0  0  0
 19 44  1  0  0  0
 23 45  1  0  0  0
 24 46  1  0  0  0
 24 47  1  0  0  0
 25 48  1  0  0  0
 25 49  1  0  0  0
 26 50  1  0  0  0
 28 51  1  0  0  0
 29 52  1  0  0  0
M  END
$$$$
