5j6l_ligand
  -I-interpret- 

 50 52  0  0  0  0  0  0  0  0999 V2000
  -33.5650   -7.4340   24.6350 C   0  0  0  0  0
  -33.0660  -12.2080   23.1380 C   0  0  0  0  0
  -31.7760  -11.8780   23.5970 C   0  0  0  0  0
  -34.2090  -11.7660   23.8480 C   0  0  0  0  0
  -32.6580   -9.8240   26.6690 C   0  0  0  0  0
  -33.0320   -8.1090   28.0150 C   0  0  0  0  0
  -34.1320   -7.9770   25.8030 C   0  0  0  0  0
  -35.7430   -6.7690   23.8550 C   0  0  0  0  0
  -35.6160  -12.1450   23.5730 C   0  0  0  0  0
  -38.2210  -13.4310   25.2280 C   0  0  0  0  0
  -39.7220  -15.0460   26.3570 C   0  0  0  0  0
  -31.6190  -11.1360   24.7690 C   0  0  0  0  0
  -32.7590  -10.6910   25.4740 C   0  0  0  0  0
  -34.0320  -11.0380   25.0260 C   0  0  0  0  0
  -31.9660  -10.0570   27.7600 N   0  0  0  0  0
  -33.3180   -8.6030   26.7860 N   0  0  0  0  0
  -30.3880  -10.8200   25.2410 O   0  0  0  0  0
  -33.2280  -12.9360   22.0190 O   0  0  0  0  0
  -32.1960   -8.9860   28.6270 N   0  0  0  0  0
  -33.4470   -7.0460   28.4770 O   0  0  0  0  0
  -35.5250   -7.9130   25.9730 C   0  0  0  0  0
  -36.3320   -7.3090   25.0040 C   0  0  0  0  0
  -36.0820  -13.3660   23.9900 N   0  0  0  0  0
  -36.3960  -11.3110   23.1270 O   0  0  0  0  0
  -37.5080  -13.7120   23.8880 C   0  0  0  0  0
  -34.3640   -6.8350   23.6640 C   0  0  0  0  0
  -35.1850  -14.4070   24.5200 C   0  0  0  0  0
  -39.6140  -14.0730   25.1920 C   0  0  0  0  0
  -36.0790   -8.4300   27.0850 F   0  0  0  0  0
  -32.4860   -7.4829   24.4883 H   0  0  0  0  0
  -30.8992  -12.2023   23.0365 H   0  0  0  0  0
  -36.3695   -6.2917   23.1014 H   0  0  0  0  0
  -38.3141  -12.3554   25.3781 H   0  0  0  0  0
  -37.6417  -13.8521   26.0497 H   0  0  0  0  0
  -38.9537  -15.8131   26.2605 H   0  0  0  0  0
  -39.5827  -14.5062   27.2937 H   0  0  0  0  0
  -40.7068  -15.5132   26.3484 H   0  0  0  0  0
  -34.9045  -10.7359   25.6052 H   0  0  0  0  0
  -30.4777  -10.3108   26.0499 H   0  0  0  0  0
  -34.1651  -13.0656   21.8558 H   0  0  0  0  0
  -31.8022   -8.8808   29.5620 H   0  0  0  0  0
  -37.4120   -7.2591   25.1425 H   0  0  0  0  0
  -37.9670  -13.1076   23.1056 H   0  0  0  0  0
  -37.6022  -14.7712   23.6486 H   0  0  0  0  0
  -33.9142   -6.4210   22.7616 H   0  0  0  0  0
  -34.4510  -14.6739   23.7597 H   0  0  0  0  0
  -34.6727  -14.0276   25.4041 H   0  0  0  0  0
  -35.7698  -15.2872   24.7871 H   0  0  0  0  0
  -39.7581  -14.6010   24.2494 H   0  0  0  0  0
  -40.3822  -13.3042   25.2746 H   0  0  0  0  0
  7  1  4  0  0  0
  1 26  4  0  0  0
  2  3  4  0  0  0
  4  2  4  0  0  0
  2 18  1  0  0  0
  3 12  4  0  0  0
  9  4  1  0  0  0
  4 14  4  0  0  0
 13  5  1  0  0  0
  5 15  2  0  0  0
  5 16  1  0  0  0
 16  6  1  0  0  0
  6 19  1  0  0  0
  6 20  2  0  0  0
 16  7  1  0  0  0
  7 21  4  0  0  0
 22  8  4  0  0  0
 26  8  4  0  0  0
 23  9  1  0  0  0
  9 24  2  0  0  0
 25 10  1  0  0  0
 10 28  1  0  0  0
 28 11  1  0  0  0
 13 12  4  0  0  0
 12 17  1  0  0  0
 14 13  4  0  0  0
 15 19  1  0  0  0
 21 22  4  0  0  0
 21 29  1  0  0  0
 23 25  1  0  0  0
 23 27  1  0  0  0
  1 30  1  0  0  0
  3 31  1  0  0  0
  8 32  1  0  0  0
 10 33  1  0  0  0
 10 34  1  0  0  0
 11 35  1  0  0  0
 11 36  1  0  0  0
 11 37  1  0  0  0
 14 38  1  0  0  0
 17 39  1  0  0  0
 18 40  1  0  0  0
 19 41  1  0  0  0
 22 42  1  0  0  0
 25 43  1  0  0  0
 25 44  1  0  0  0
 26 45  1  0  0  0
 27 46  1  0  0  0
 27 47  1  0  0  0
 27 48  1  0  0  0
 28 49  1  0  0  0
 28 50  1  0  0  0
M  END
$$$$
