3pce_ligand
  -I-interpret- 

 19 19  0  0  0  0  0  0  0  0999 V2000
   13.9860   13.9130   42.1120 C   0  0  0  0  0
   13.3360   14.2050   43.1800 O   0  0  0  0  0
   15.0540   14.4680   41.7220 O   0  0  0  0  0
   13.2410   12.8990   41.2410 C   0  0  0  0  0
   13.8750   11.5390   41.1770 C   0  0  0  0  0
   13.7870   10.5500   42.1660 C   0  0  0  0  0
   14.3950    9.2930   41.9310 C   0  0  0  0  0
   15.0840    9.0190   40.7540 C   0  0  0  0  0
   15.2080    9.9960   39.8000 C   0  0  0  0  0
   14.5780   11.2600   39.9960 C   0  0  0  0  0
   14.3280    8.3260   42.8930 O   0  0  0  0  0
   12.5628   13.6400   43.2472 H   0  0  0  0  0
   13.2381   13.2953   40.2256 H   0  0  0  0  0
   12.2531   12.7675   41.6825 H   0  0  0  0  0
   13.2597   10.7450   43.0998 H   0  0  0  0  0
   15.5223    8.0344   40.5913 H   0  0  0  0  0
   15.7859    9.8071   38.8953 H   0  0  0  0  0
   14.6437   12.0198   39.2173 H   0  0  0  0  0
   14.7836    7.5387   42.5860 H   0  0  0  0  0
  4  1  1  0  0  0
  1  3  2  0  0  0
  1  2  1  0  0  0
  4  5  1  0  0  0
  5 10  4  0  0  0
  5  6  4  0  0  0
  6  7  4  0  0  0
  7 11  1  0  0  0
  7  8  4  0  0  0
  8  9  4  0  0  0
  9 10  4  0  0  0
  2 12  1  0  0  0
  4 13  1  0  0  0
  4 14  1  0  0  0
  6 15  1  0  0  0
  8 16  1  0  0  0
  9 17  1  0  0  0
 10 18  1  0  0  0
 11 19  1  0  0  0
M  END
$$$$
