### 
### Created by X-TOOL on Mon Sep 10 21:12:59 2018
### 

@<TRIPOS>MOLECULE
3ij1_ligand
  158   158     1     0     0
SMALL
GAST_HUCK


@<TRIPOS>ATOM
      1 N          24.2930    5.9760   17.8210 N.4       1 ARG         0.2379
      2 CA         23.1310    5.0390   17.8440 C.3       1 ARG         0.0651
      3 C          21.7760    5.7640   17.7850 C.2       1 ARG         0.2268
      4 O          21.0030    5.5650   16.8460 O.2       1 ARG        -0.3907
      5 CB         23.1930    4.1290   19.0810 C.3       1 ARG         0.0110
      6 CG         22.0190    3.1490   19.1830 C.3       1 ARG        -0.0125
      7 CD         21.7330    2.7190   20.6160 C.3       1 ARG         0.0629
      8 NE         22.7450    1.7980   21.1280 N.pl3     1 ARG        -0.2723
      9 CZ         22.6620    1.1510   22.2890 C.cat     1 ARG         0.2882
     10 NH1        21.6040    1.3100   23.0820 N.pl3     1 ARG        -0.2849
     11 NH2        23.6430    0.3380   22.6590 N.pl3     1 ARG        -0.2849
     12 N          21.5060    6.5980   18.7870 N.am      1 HIS        -0.2598
     13 CA         20.1770    7.1880   19.0100 C.3       1 HIS         0.1370
     14 C          20.0720    8.6580   18.5940 C.2       1 HIS         0.2054
     15 O          20.5660    9.5410   19.2920 O.2       1 HIS        -0.3942
     16 CB         19.7570    7.0240   20.4830 C.3       1 HIS         0.0145
     17 CG         20.8730    6.6080   21.3950 C.2       1 HIS        -0.0027
     18 ND1        20.7430    5.5800   22.3040 N.2       1 HIS        -0.3252
     19 CD2        22.1450    7.0620   21.5230 C.2       1 HIS         0.0291
     20 CE1        21.8810    5.4230   22.9580 C.2       1 HIS         0.0907
     21 NE2        22.7490    6.3090   22.5010 N.pl3     1 HIS        -0.2752
     22 N          19.4080    8.9100   17.4690 N.am      1 ARG        -0.2636
     23 CA         19.2820   10.2590   16.9140 C.3       1 ARG         0.1311
     24 C          18.1120   11.0340   17.5240 C.2       1 ARG         0.2039
     25 O          17.0570   10.4630   17.7950 O.2       1 ARG        -0.3944
     26 CB         19.0820   10.1990   15.4000 C.3       1 ARG        -0.0092
     27 CG         20.0960    9.3600   14.6270 C.3       1 ARG        -0.0156
     28 CD         19.8430    9.4790   13.1240 C.3       1 ARG         0.0627
     29 NE         19.9030   10.8790   12.6920 N.pl3     1 ARG        -0.2723
     30 CZ         21.0180   11.5160   12.3330 C.cat     1 ARG         0.2882
     31 NH1        22.1870   10.8790   12.3280 N.pl3     1 ARG        -0.2849
     32 NH2        20.9620   12.7940   11.9690 N.pl3     1 ARG        -0.2849
     33 N          18.3100   12.3350   17.7280 N.am      1 M3L        -0.2637
     34 CA         17.2420   13.2390   18.1670 C.3       1 M3L         0.1310
     35 CB         17.8030   14.4930   18.8450 C.3       1 M3L        -0.0122
     36 CG         16.7350   15.2010   19.6770 C.3       1 M3L        -0.0440
     37 CD         17.2430   16.5280   20.2310 C.3       1 M3L        -0.0123
     38 CE         16.1100   17.3510   20.8610 C.3       1 M3L        -0.0309
     39 NZ         16.5580   18.5250   21.6540 N.4       1 M3L         0.2369
     40 C          16.3590   13.6240   17.0110 C.2       1 M3L         0.2039
     41 O          15.1410   13.7160   17.1540 O.2       1 M3L        -0.3944
     42 CM1        15.3710   19.2590   22.1180 C.3       1 M3L        -0.0418
     43 CM2        17.3890   19.4370   20.8470 C.3       1 M3L        -0.0418
     44 CM3        17.3250   18.1030   22.8410 C.3       1 M3L        -0.0418
     45 N          16.9790   13.8450   15.8530 N.am      1 VAL        -0.2635
     46 CA         16.2650   14.2020   14.6270 C.3       1 VAL         0.1332
     47 C          16.5090   13.1760   13.5160 C.2       1 VAL         0.2041
     48 O          17.5530   12.5140   13.4820 O.2       1 VAL        -0.3944
     49 CB         16.6340   15.6350   14.1330 C.3       1 VAL        -0.0063
     50 CG1        16.3840   16.6720   15.2310 C.3       1 VAL        -0.0584
     51 CG2        18.0840   15.7000   13.6460 C.3       1 VAL        -0.0584
     52 N          15.5430   13.0540   12.6090 N.am      1 LEU        -0.2637
     53 CA         15.6490   12.1320   11.4830 C.3       1 LEU         0.1312
     54 C          16.7370   12.5510   10.4960 C.2       1 LEU         0.2040
     55 O          16.8590   13.7270   10.1470 O.2       1 LEU        -0.3944
     56 CB         14.3060   12.0060   10.7620 C.3       1 LEU        -0.0101
     57 CG         13.2420   11.0890   11.3680 C.3       1 LEU        -0.0425
     58 CD1        11.8950   11.3920   10.7390 C.3       1 LEU        -0.0625
     59 CD2        13.6080    9.6170   11.1910 C.3       1 LEU        -0.0625
     60 N          17.5150   11.5690   10.0480 N.am      1 ARG        -0.2650
     61 CA         18.6630   11.8040    9.1720 C.3       1 ARG         0.1129
     62 C          18.2470   12.1930    7.7490 C.2       1 ARG         0.1245
     63 O          17.0600   12.1770    7.4010 O.2       1 ARG        -0.3725
     64 CB         19.5640   10.5630    9.1520 C.3       1 ARG        -0.0105
     65 CG         21.0050   10.8280    8.7300 C.3       1 ARG        -0.0155
     66 CD         21.8150    9.5360    8.7560 C.3       1 ARG         0.0627
     67 NE         23.0610    9.6400    7.9930 N.pl3     1 ARG        -0.2723
     68 CZ         24.2240   10.0660    8.4860 C.cat     1 ARG         0.2882
     69 NH1        24.3280   10.4400    9.7580 N.pl3     1 ARG        -0.2849
     70 NH2        25.2940   10.1170    7.6990 N.pl3     1 ARG        -0.2849
     71 H1         25.1509    5.4484   17.8616 H         1 ARG         0.2015
     72 H2         24.2414    6.5949   18.6149 H         1 ARG         0.2015
     73 H3         24.2714    6.5173   16.9710 H         1 ARG         0.2015
     74 H4         23.2043    4.4017   16.9504 H         1 ARG         0.1098
     75 H5         23.1949    4.7636   19.9795 H         1 ARG         0.0347
     76 H6         24.1269    3.5493   19.0395 H         1 ARG         0.0347
     77 H7         22.2550    2.2544   18.5880 H         1 ARG         0.0302
     78 H8         21.1197    3.6339   18.7753 H         1 ARG         0.0302
     79 H9         20.7526    2.2212   20.6476 H         1 ARG         0.0689
     80 H10        21.7112    3.6130   21.2565 H         1 ARG         0.0689
     81 H11        23.5822    1.6377   20.5498 H         1 ARG         0.2642
     82 H12        21.5511    0.8042   23.9777 H         1 ARG         0.2615
     83 H13        20.8386    1.9388   22.7996 H         1 ARG         0.2615
     84 H14        24.4639    0.2109   22.0500 H         1 ARG         0.2615
     85 H15        23.5837   -0.1661   23.5553 H         1 ARG         0.2615
     86 H16        22.2433    6.8352   19.4195 H         1 HIS         0.1886
     87 H17        19.4643    6.6235   18.3908 H         1 HIS         0.0817
     88 H18        18.9665    6.2608   20.5340 H         1 HIS         0.0420
     89 H19        19.3609    7.9866   20.8386 H         1 HIS         0.0420
     90 H20        22.6021    7.8720   20.9565 H         1 HIS         0.0729
     91 H21        22.0710    4.6891   23.7398 H         1 HIS         0.1199
     92 H22        23.7206    6.4174   22.8254 H         1 HIS         0.2361
     93 H23        18.9783    8.1485   16.9837 H         1 ARG         0.1883
     94 H24        20.2124   10.8049   17.1289 H         1 ARG         0.0800
     95 H25        19.1301   11.2274   15.0125 H         1 ARG         0.0313
     96 H26        18.0827    9.7812   15.2082 H         1 ARG         0.0313
     97 H27        20.0016    8.3065   14.9291 H         1 ARG         0.0301
     98 H28        21.1114    9.7170   14.8539 H         1 ARG         0.0301
     99 H29        18.8469    9.0734   12.8933 H         1 ARG         0.0689
    100 H30        20.6079    8.9023   12.5833 H         1 ARG         0.0689
    101 H31        19.0200   11.4086   12.6638 H         1 ARG         0.2642
    102 H32        23.0441   11.3777   12.0495 H         1 ARG         0.2615
    103 H33        22.2344    9.8874   12.6027 H         1 ARG         0.2615
    104 H34        20.0599   13.2911   11.9713 H         1 ARG         0.2615
    105 H35        21.8208   13.2867   11.6849 H         1 ARG         0.2615
    106 H36        19.2241   12.7108   17.5756 H         1 M3L         0.1883
    107 H37        16.6269   12.7015   18.9037 H         1 M3L         0.0800
    108 H38        18.1709   15.1838   18.0720 H         1 M3L         0.0312
    109 H39        18.6351   14.2024   19.5031 H         1 M3L         0.0312
    110 H40        16.4470   14.5507   20.5162 H         1 M3L         0.0269
    111 H41        15.8568   15.3918   19.0428 H         1 M3L         0.0269
    112 H42        17.6918   17.1082   19.4113 H         1 M3L         0.0317
    113 H43        18.0056   16.3259   20.9976 H         1 M3L         0.0317
    114 H44        15.5349   16.6891   21.5251 H         1 M3L         0.0815
    115 H45        15.4594   17.7133   20.0514 H         1 M3L         0.0815
    116 H46        15.6871   20.1322   22.7075 H         1 M3L         0.0778
    117 H47        14.7529   18.5985   22.7438 H         1 M3L         0.0778
    118 H48        14.7852   19.5953   21.2498 H         1 M3L         0.0778
    119 H49        18.2821   18.9018   20.4921 H         1 M3L         0.0778
    120 H50        17.6963   20.2949   21.4631 H         1 M3L         0.0778
    121 H51        16.8087   19.7946   19.9837 H         1 M3L         0.0778
    122 H52        16.7127   17.4216   23.4500 H         1 M3L         0.0778
    123 H53        17.5931   18.9873   23.4378 H         1 M3L         0.0778
    124 H54        18.2411   17.5853   22.5206 H         1 M3L         0.0778
    125 H55        17.9751   13.7634   15.8202 H         1 VAL         0.1883
    126 H56        15.1897   14.1958   14.8585 H         1 VAL         0.0802
    127 H57        15.9805   15.8773   13.2820 H         1 VAL         0.0343
    128 H58        16.6513   17.6719   14.8586 H         1 VAL         0.0234
    129 H59        17.0001   16.4313   16.1099 H         1 VAL         0.0234
    130 H60        15.3210   16.6580   15.5134 H         1 VAL         0.0234
    131 H61        18.2405   14.9477   12.8589 H         1 VAL         0.0234
    132 H62        18.7629   15.4970   14.4874 H         1 VAL         0.0234
    133 H63        18.2905   16.7020   13.2418 H         1 VAL         0.0234
    134 H64        14.7183   13.6119   12.7020 H         1 LEU         0.1883
    135 H65        15.9182   11.1432   11.8827 H         1 LEU         0.0800
    136 H66        14.5144   11.6370    9.7469 H         1 LEU         0.0315
    137 H67        13.8716   13.0149   10.7034 H         1 LEU         0.0315
    138 H68        13.1779   11.2976   12.4461 H         1 LEU         0.0298
    139 H69        11.1301   10.7325   11.1749 H         1 LEU         0.0232
    140 H70        11.9505   11.2218    9.6537 H         1 LEU         0.0232
    141 H71        11.6277   12.4413   10.9324 H         1 LEU         0.0232
    142 H72        14.5866    9.4242   11.6548 H         1 LEU         0.0232
    143 H73        13.6571    9.3777   10.1185 H         1 LEU         0.0232
    144 H74        12.8440    8.9887   11.6723 H         1 LEU         0.0232
    145 H75        17.3061   10.6302   10.3218 H         1 ARG         0.1884
    146 H76        19.2405   12.6410    9.5913 H         1 ARG         0.0790
    147 H77        19.0105   12.4889    7.0310 H         1 ARG         0.1373
    148 H78        19.1298    9.8357    8.4502 H         1 ARG         0.0314
    149 H79        19.5772   10.1329   10.1643 H         1 ARG         0.0314
    150 H80        21.4576   11.5530    9.4225 H         1 ARG         0.0301
    151 H81        21.0137   11.2402    7.7102 H         1 ARG         0.0301
    152 H82        21.2046    8.7281    8.3262 H         1 ARG         0.0689
    153 H83        22.0602    9.2943    9.8007 H         1 ARG         0.0689
    154 H84        23.0368    9.3632    7.0012 H         1 ARG         0.2642
    155 H85        25.2326   10.7672   10.1263 H         1 ARG         0.2615
    156 H86        23.5040   10.4025   10.3749 H         1 ARG         0.2615
    157 H87        25.2220    9.8292    6.7127 H         1 ARG         0.2615
    158 H88        26.1951   10.4444    8.0755 H         1 ARG         0.2615
@<TRIPOS>BOND
     1    1    2 1  
     2    2    3 1  
     3    2    5 1  
     4    3    4 2  
     5    3   12 am 
     6    5    6 1  
     7    6    7 1  
     8    7    8 1  
     9    8    9 ar 
    10    9   10 ar 
    11    9   11 ar 
    12   12   13 1  
    13   13   14 1  
    14   13   16 1  
    15   14   15 2  
    16   14   22 am 
    17   16   17 1  
    18   17   18 1  
    19   17   19 2  
    20   18   20 2  
    21   19   21 1  
    22   20   21 1  
    23   22   23 1  
    24   23   24 1  
    25   23   26 1  
    26   24   25 2  
    27   24   33 am 
    28   26   27 1  
    29   27   28 1  
    30   28   29 1  
    31   29   30 ar 
    32   30   31 ar 
    33   30   32 ar 
    34   33   34 1  
    35   34   35 1  
    36   34   40 1  
    37   35   36 1  
    38   36   37 1  
    39   37   38 1  
    40   38   39 1  
    41   39   42 1  
    42   39   43 1  
    43   39   44 1  
    44   40   41 2  
    45   40   45 am 
    46   45   46 1  
    47   46   47 1  
    48   46   49 1  
    49   47   48 2  
    50   47   52 am 
    51   49   50 1  
    52   49   51 1  
    53   52   53 1  
    54   53   54 1  
    55   53   56 1  
    56   54   55 2  
    57   54   60 am 
    58   56   57 1  
    59   57   58 1  
    60   57   59 1  
    61   60   61 1  
    62   61   62 1  
    63   61   64 1  
    64   62   63 2  
    65   64   65 1  
    66   65   66 1  
    67   66   67 1  
    68   67   68 ar 
    69   68   69 ar 
    70   68   70 ar 
    71    1   71 1  
    72    1   72 1  
    73    1   73 1  
    74    2   74 1  
    75    5   75 1  
    76    5   76 1  
    77    6   77 1  
    78    6   78 1  
    79    7   79 1  
    80    7   80 1  
    81    8   81 1  
    82   10   82 1  
    83   10   83 1  
    84   11   84 1  
    85   11   85 1  
    86   12   86 1  
    87   13   87 1  
    88   16   88 1  
    89   16   89 1  
    90   19   90 1  
    91   20   91 1  
    92   21   92 1  
    93   22   93 1  
    94   23   94 1  
    95   26   95 1  
    96   26   96 1  
    97   27   97 1  
    98   27   98 1  
    99   28   99 1  
   100   28  100 1  
   101   29  101 1  
   102   31  102 1  
   103   31  103 1  
   104   32  104 1  
   105   32  105 1  
   106   33  106 1  
   107   34  107 1  
   108   35  108 1  
   109   35  109 1  
   110   36  110 1  
   111   36  111 1  
   112   37  112 1  
   113   37  113 1  
   114   38  114 1  
   115   38  115 1  
   116   42  116 1  
   117   42  117 1  
   118   42  118 1  
   119   43  119 1  
   120   43  120 1  
   121   43  121 1  
   122   44  122 1  
   123   44  123 1  
   124   44  124 1  
   125   45  125 1  
   126   46  126 1  
   127   49  127 1  
   128   50  128 1  
   129   50  129 1  
   130   50  130 1  
   131   51  131 1  
   132   51  132 1  
   133   51  133 1  
   134   52  134 1  
   135   53  135 1  
   136   56  136 1  
   137   56  137 1  
   138   57  138 1  
   139   58  139 1  
   140   58  140 1  
   141   58  141 1  
   142   59  142 1  
   143   59  143 1  
   144   59  144 1  
   145   60  145 1  
   146   61  146 1  
   147   62  147 1  
   148   64  148 1  
   149   64  149 1  
   150   65  150 1  
   151   65  151 1  
   152   66  152 1  
   153   66  153 1  
   154   67  154 1  
   155   69  155 1  
   156   69  156 1  
   157   70  157 1  
   158   70  158 1  
@<TRIPOS>SUBSTRUCTURE
     1 ARG         1

