3ij1_ligand
  -I-interpret- 

154154  0  0  0  0  0  0  0  0999 V2000
   24.2930    5.9760   17.8210 N   0  3  0  0  0
   23.1310    5.0390   17.8440 C   0  0  0  0  0
   21.7760    5.7640   17.7850 C   0  0  0  0  0
   21.0030    5.5650   16.8460 O   0  0  0  0  0
   23.1930    4.1290   19.0810 C   0  0  0  0  0
   22.0190    3.1490   19.1830 C   0  0  0  0  0
   21.7330    2.7190   20.6160 C   0  0  0  0  0
   22.7450    1.7980   21.1280 N   0  0  0  0  0
   22.6620    1.1510   22.2890 C   0  0  0  0  0
   21.6040    1.3100   23.0820 N   0  0  0  0  0
   23.6430    0.3380   22.6590 N   0  0  0  0  0
   21.5060    6.5980   18.7870 N   0  0  0  0  0
   20.1770    7.1880   19.0100 C   0  0  0  0  0
   20.0720    8.6580   18.5940 C   0  0  0  0  0
   20.5660    9.5410   19.2920 O   0  0  0  0  0
   19.7570    7.0240   20.4830 C   0  0  0  0  0
   20.8730    6.6080   21.3950 C   0  0  0  0  0
   20.7430    5.5800   22.3040 N   0  0  0  0  0
   22.1450    7.0620   21.5230 C   0  0  0  0  0
   21.8810    5.4230   22.9580 C   0  0  0  0  0
   22.7490    6.3090   22.5010 N   0  0  0  0  0
   19.4080    8.9100   17.4690 N   0  0  0  0  0
   19.2820   10.2590   16.9140 C   0  0  0  0  0
   18.1120   11.0340   17.5240 C   0  0  0  0  0
   17.0570   10.4630   17.7950 O   0  0  0  0  0
   19.0820   10.1990   15.4000 C   0  0  0  0  0
   20.0960    9.3600   14.6270 C   0  0  0  0  0
   19.8430    9.4790   13.1240 C   0  0  0  0  0
   19.9030   10.8790   12.6920 N   0  0  0  0  0
   21.0180   11.5160   12.3330 C   0  0  0  0  0
   22.1870   10.8790   12.3280 N   0  0  0  0  0
   20.9620   12.7940   11.9690 N   0  0  0  0  0
   18.3100   12.3350   17.7280 N   0  0  0  0  0
   17.2420   13.2390   18.1670 C   0  0  0  0  0
   17.8030   14.4930   18.8450 C   0  0  0  0  0
   16.7350   15.2010   19.6770 C   0  0  0  0  0
   17.2430   16.5280   20.2310 C   0  0  0  0  0
   16.1100   17.3510   20.8610 C   0  0  0  0  0
   16.5580   18.5250   21.6540 N   0  3  0  0  0
   16.3590   13.6240   17.0110 C   0  0  0  0  0
   15.1410   13.7160   17.1540 O   0  0  0  0  0
   15.3710   19.2590   22.1180 C   0  0  0  0  0
   17.3890   19.4370   20.8470 C   0  0  0  0  0
   17.3250   18.1030   22.8410 C   0  0  0  0  0
   16.9790   13.8450   15.8530 N   0  0  0  0  0
   16.2650   14.2020   14.6270 C   0  0  0  0  0
   16.5090   13.1760   13.5160 C   0  0  0  0  0
   17.5530   12.5140   13.4820 O   0  0  0  0  0
   16.6340   15.6350   14.1330 C   0  0  0  0  0
   16.3840   16.6720   15.2310 C   0  0  0  0  0
   18.0840   15.7000   13.6460 C   0  0  0  0  0
   15.5430   13.0540   12.6090 N   0  0  0  0  0
   15.6490   12.1320   11.4830 C   0  0  0  0  0
   16.7370   12.5510   10.4960 C   0  0  0  0  0
   16.8590   13.7270   10.1470 O   0  0  0  0  0
   14.3060   12.0060   10.7620 C   0  0  0  0  0
   13.2420   11.0890   11.3680 C   0  0  0  0  0
   11.8950   11.3920   10.7390 C   0  0  0  0  0
   13.6080    9.6170   11.1910 C   0  0  0  0  0
   17.5150   11.5690   10.0480 N   0  0  0  0  0
   18.6630   11.8040    9.1720 C   0  0  0  0  0
   18.2470   12.1930    7.7490 C   0  0  0  0  0
   17.0600   12.1770    7.4010 O   0  0  0  0  0
   19.5640   10.5630    9.1520 C   0  0  0  0  0
   21.0050   10.8280    8.7300 C   0  0  0  0  0
   21.8150    9.5360    8.7560 C   0  0  0  0  0
   23.0610    9.6400    7.9930 N   0  0  0  0  0
   24.2240   10.0660    8.4860 C   0  0  0  0  0
   24.3280   10.4400    9.7580 N   0  0  0  0  0
   25.2940   10.1170    7.6990 N   0  0  0  0  0
   24.2330    6.5699   16.9939 H   0  0  0  0  0
   24.2769    6.5564   18.6596 H   0  0  0  0  0
   25.1602    5.4397   17.7939 H   0  0  0  0  0
   23.2059    4.4306   16.9427 H   0  0  0  0  0
   23.1591    4.7715   19.9608 H   0  0  0  0  0
   24.1058    3.5380   19.0059 H   0  0  0  0  0
   22.2775    2.2573   18.6119 H   0  0  0  0  0
   21.1302    3.6514   18.8012 H   0  0  0  0  0
   20.7704    2.2078   20.6311 H   0  0  0  0  0
   21.7359    3.6096   21.2444 H   0  0  0  0  0
   23.5741    1.6393   20.5555 H   0  0  0  0  0
   21.5510    0.8081   23.9684 H   0  0  0  0  0
   20.8466    1.9337   22.8030 H   0  0  0  0  0
   24.4553    0.2112   22.0553 H   0  0  0  0  0
   22.2581    6.8399   19.4322 H   0  0  0  0  0
   19.4939    6.6383   18.3624 H   0  0  0  0  0
   19.0022    6.2384   20.5177 H   0  0  0  0  0
   19.4038    7.9958   20.8279 H   0  0  0  0  0
   22.6025    7.8727   20.9559 H   0  0  0  0  0
   22.0711    4.6884   23.7405 H   0  0  0  0  0
   18.9697    8.1333   16.9740 H   0  0  0  0  0
   20.2085   10.7789   17.1577 H   0  0  0  0  0
   19.1872   11.2208   15.0355 H   0  0  0  0  0
   18.1100    9.7335   15.2367 H   0  0  0  0  0
   19.9960    8.3161   14.9242 H   0  0  0  0  0
   21.1005    9.7199   14.8494 H   0  0  0  0  0
   18.8502    9.0866   12.9037 H   0  0  0  0  0
   20.6108    8.9155   12.5938 H   0  0  0  0  0
   19.0286   11.4034   12.6641 H   0  0  0  0  0
   23.0347   11.3711   12.0458 H   0  0  0  0  0
   22.2349    9.8989   12.6063 H   0  0  0  0  0
   20.0676   13.2844   11.9649 H   0  0  0  0  0
   19.2424   12.7183   17.5726 H   0  0  0  0  0
   16.6447   12.7001   18.9024 H   0  0  0  0  0
   18.1509   15.1784   18.0722 H   0  0  0  0  0
   18.6162   14.1947   19.5066 H   0  0  0  0  0
   16.4687   14.5572   20.5153 H   0  0  0  0  0
   15.8762   15.4015   19.0363 H   0  0  0  0  0
   17.6691   17.1030   19.4088 H   0  0  0  0  0
   17.9842   16.3173   21.0019 H   0  0  0  0  0
   15.5821   16.6888   21.5473 H   0  0  0  0  0
   15.5050   17.7362   20.0402 H   0  0  0  0  0
   14.7915   19.5916   21.2568 H   0  0  0  0  0
   14.7594   18.6035   22.7379 H   0  0  0  0  0
   15.6855   20.1240   22.7019 H   0  0  0  0  0
   18.2705   18.9039   20.4908 H   0  0  0  0  0
   16.8108   19.7955   19.9954 H   0  0  0  0  0
   17.6979   20.2835   21.4603 H   0  0  0  0  0
   16.6977   17.4739   23.4726 H   0  0  0  0  0
   18.2030   17.5405   22.5235 H   0  0  0  0  0
   17.6391   18.9838   23.4010 H   0  0  0  0  0
   17.9950   13.7618   15.8196 H   0  0  0  0  0
   15.2029   14.1963   14.8720 H   0  0  0  0  0
   15.9875   15.8697   13.2874 H   0  0  0  0  0
   15.3304   16.6571   15.5099 H   0  0  0  0  0
   16.9950   16.4323   16.1013 H   0  0  0  0  0
   16.6492   17.6623   14.8609 H   0  0  0  0  0
   18.7529   15.4317   14.4637 H   0  0  0  0  0
   18.2200   15.0022   12.8197 H   0  0  0  0  0
   18.3077   16.7122   13.3090 H   0  0  0  0  0
   14.7018   13.6230   12.7039 H   0  0  0  0  0
   15.9301   11.1610   11.8907 H   0  0  0  0  0
   14.5413   11.5701    9.7910 H   0  0  0  0  0
   13.8717   13.0054   10.7874 H   0  0  0  0  0
   13.1872   11.2796   12.4398 H   0  0  0  0  0
   11.6313   12.4320   10.9313 H   0  0  0  0  0
   11.9513   11.2230    9.6637 H   0  0  0  0  0
   11.1380   10.7379   11.1717 H   0  0  0  0  0
   13.6955    9.3909   10.1283 H   0  0  0  0  0
   14.5588    9.4183   11.6855 H   0  0  0  0  0
   12.8300    8.9948   11.6333 H   0  0  0  0  0
   17.3020   10.6114   10.3272 H   0  0  0  0  0
   19.2171   12.6507    9.5772 H   0  0  0  0  0
   19.0112   12.4892    7.0304 H   0  0  0  0  0
   19.1405    9.8755    8.4199 H   0  0  0  0  0
   19.5977   10.1791   10.1716 H   0  0  0  0  0
   21.4519   11.5403    9.4235 H   0  0  0  0  0
   21.0093   11.2285    7.7162 H   0  0  0  0  0
   21.2091    8.7500    8.3052 H   0  0  0  0  0
   22.0726    9.3212    9.7931 H   0  0  0  0  0
   23.0370    9.3659    7.0108 H   0  0  0  0  0
   25.2240   10.7630   10.1230 H   0  0  0  0  0
   23.5117   10.4039   10.3686 H   0  0  0  0  0
   25.2230    9.8309    6.7225 H   0  0  0  0  0
  1  2  1  0  0  0
  2  3  1  0  0  0
  2  5  1  0  0  0
  3  4  2  0  0  0
  3 12  1  0  0  0
  5  6  1  0  0  0
  6  7  1  0  0  0
  7  8  1  0  0  0
  8  9  1  0  0  0
  9 10  1  0  0  0
  9 11  2  0  0  0
 12 13  1  0  0  0
 13 14  1  0  0  0
 13 16  1  0  0  0
 14 15  2  0  0  0
 14 22  1  0  0  0
 16 17  1  0  0  0
 17 18  4  0  0  0
 17 19  4  0  0  0
 18 20  4  0  0  0
 19 21  4  0  0  0
 20 21  4  0  0  0
 22 23  1  0  0  0
 23 24  1  0  0  0
 23 26  1  0  0  0
 24 25  2  0  0  0
 24 33  1  0  0  0
 26 27  1  0  0  0
 27 28  1  0  0  0
 28 29  1  0  0  0
 29 30  1  0  0  0
 30 31  1  0  0  0
 30 32  2  0  0  0
 33 34  1  0  0  0
 34 35  1  0  0  0
 34 40  1  0  0  0
 35 36  1  0  0  0
 36 37  1  0  0  0
 37 38  1  0  0  0
 38 39  1  0  0  0
 39 42  1  0  0  0
 39 43  1  0  0  0
 39 44  1  0  0  0
 40 41  2  0  0  0
 40 45  1  0  0  0
 45 46  1  0  0  0
 46 47  1  0  0  0
 46 49  1  0  0  0
 47 48  2  0  0  0
 47 52  1  0  0  0
 49 50  1  0  0  0
 49 51  1  0  0  0
 52 53  1  0  0  0
 53 54  1  0  0  0
 53 56  1  0  0  0
 54 55  2  0  0  0
 54 60  1  0  0  0
 56 57  1  0  0  0
 57 58  1  0  0  0
 57 59  1  0  0  0
 60 61  1  0  0  0
 61 62  1  0  0  0
 61 64  1  0  0  0
 62 63  2  0  0  0
 64 65  1  0  0  0
 65 66  1  0  0  0
 66 67  1  0  0  0
 67 68  1  0  0  0
 68 69  1  0  0  0
 68 70  2  0  0  0
  1 71  1  0  0  0
  1 72  1  0  0  0
  1 73  1  0  0  0
  2 74  1  0  0  0
  5 75  1  0  0  0
  5 76  1  0  0  0
  6 77  1  0  0  0
  6 78  1  0  0  0
  7 79  1  0  0  0
  7 80  1  0  0  0
  8 81  1  0  0  0
 10 82  1  0  0  0
 10 83  1  0  0  0
 11 84  1  0  0  0
 12 85  1  0  0  0
 13 86  1  0  0  0
 16 87  1  0  0  0
 16 88  1  0  0  0
 19 89  1  0  0  0
 20 90  1  0  0  0
 22 91  1  0  0  0
 23 92  1  0  0  0
 26 93  1  0  0  0
 26 94  1  0  0  0
 27 95  1  0  0  0
 27 96  1  0  0  0
 28 97  1  0  0  0
 28 98  1  0  0  0
 29 99  1  0  0  0
 31100  1  0  0  0
 31101  1  0  0  0
 32102  1  0  0  0
 33103  1  0  0  0
 34104  1  0  0  0
 35105  1  0  0  0
 35106  1  0  0  0
 36107  1  0  0  0
 36108  1  0  0  0
 37109  1  0  0  0
 37110  1  0  0  0
 38111  1  0  0  0
 38112  1  0  0  0
 42113  1  0  0  0
 42114  1  0  0  0
 42115  1  0  0  0
 43116  1  0  0  0
 43117  1  0  0  0
 43118  1  0  0  0
 44119  1  0  0  0
 44120  1  0  0  0
 44121  1  0  0  0
 45122  1  0  0  0
 46123  1  0  0  0
 49124  1  0  0  0
 50125  1  0  0  0
 50126  1  0  0  0
 50127  1  0  0  0
 51128  1  0  0  0
 51129  1  0  0  0
 51130  1  0  0  0
 52131  1  0  0  0
 53132  1  0  0  0
 56133  1  0  0  0
 56134  1  0  0  0
 57135  1  0  0  0
 58136  1  0  0  0
 58137  1  0  0  0
 58138  1  0  0  0
 59139  1  0  0  0
 59140  1  0  0  0
 59141  1  0  0  0
 60142  1  0  0  0
 61143  1  0  0  0
 62144  1  0  0  0
 64145  1  0  0  0
 64146  1  0  0  0
 65147  1  0  0  0
 65148  1  0  0  0
 66149  1  0  0  0
 66150  1  0  0  0
 67151  1  0  0  0
 69152  1  0  0  0
 69153  1  0  0  0
 70154  1  0  0  0
M  END
$$$$
