4znx_ligand
  -I-interpret- 

163167  0  0  0  0  0  0  0  0999 V2000
  -34.3700  -25.7290  -44.2050 N   0  3  0  0  0
  -33.3430  -26.2360  -45.1760 C   0  0  0  0  0
  -32.9590  -25.1180  -46.1290 C   0  0  0  0  0
  -33.7970  -24.6180  -46.8400 O   0  0  0  0  0
  -33.8530  -27.4370  -45.9570 C   0  0  0  0  0
  -31.6910  -24.7140  -46.1400 N   0  0  0  0  0
  -31.3180  -23.5830  -46.9930 C   0  0  0  0  0
  -31.2820  -23.9580  -48.4790 C   0  0  0  0  0
  -31.2260  -25.1580  -48.7720 O   0  0  0  0  0
  -29.9040  -23.2340  -46.5180 C   0  0  0  0  0
  -29.6500  -24.0350  -45.2930 C   0  0  0  0  0
  -30.5500  -25.2100  -45.3580 C   0  0  0  0  0
  -31.2750  -22.9580  -49.3800 N   0  0  0  0  0
  -31.1610  -23.2130  -50.8240 C   0  0  0  0  0
  -29.8450  -23.8890  -51.1020 C   0  0  0  0  0
  -28.8640  -23.6360  -50.3930 O   0  0  0  0  0
  -31.1820  -21.8140  -51.4670 C   0  0  0  0  0
  -31.6480  -20.8770  -50.3560 C   0  0  0  0  0
  -31.1930  -21.5140  -49.0750 C   0  0  0  0  0
  -29.8080  -24.7320  -52.1150 N   0  0  0  0  0
  -28.5790  -25.4250  -52.4320 C   0  0  0  0  0
  -27.6350  -24.4890  -53.1590 C   0  0  0  0  0
  -28.0460  -23.5760  -53.8780 O   0  0  0  0  0
  -28.8710  -26.6570  -53.2770 C   0  0  0  0  0
  -29.8140  -27.6290  -52.5900 C   0  0  0  0  0
  -30.2130  -28.7650  -53.5770 C   0  0  0  0  0
  -29.1360  -28.1750  -51.3440 C   0  0  0  0  0
  -26.3450  -24.6940  -52.9620 N   0  0  0  0  0
  -25.3830  -23.8240  -53.6370 C   0  0  0  0  0
  -25.1660  -24.2580  -55.0860 C   0  0  0  0  0
  -25.4760  -25.4060  -55.4580 O   0  0  0  0  0
  -24.1020  -23.9950  -52.8060 C   0  0  0  0  0
  -24.2490  -25.3130  -52.1110 C   0  0  0  0  0
  -25.7030  -25.6920  -52.0990 C   0  0  0  0  0
  -24.6230  -23.3500  -55.9020 N   0  0  0  0  0
  -24.2930  -23.7030  -57.2820 C   0  0  0  0  0
  -23.4240  -24.9770  -57.3750 C   0  0  0  0  0
  -22.4950  -25.1810  -56.5930 O   0  0  0  0  0
  -23.5090  -22.4810  -57.7760 C   0  0  0  0  0
  -23.9820  -21.3260  -56.8990 C   0  0  0  0  0
  -24.2870  -21.9510  -55.5670 C   0  0  0  0  0
  -23.7110  -25.8170  -58.3590 N   0  0  0  0  0
  -22.9430  -27.0310  -58.5540 C   0  0  0  0  0
  -21.4990  -26.6990  -58.9460 C   0  0  0  0  0
  -21.2050  -25.6000  -59.4380 O   0  0  0  0  0
  -23.6360  -27.9130  -59.5980 C   0  0  0  0  0
  -24.8860  -28.6060  -59.0520 C   0  0  0  0  0
  -24.5110  -29.8330  -58.2180 C   0  0  0  0  0
  -25.6540  -30.3970  -57.4920 N   0  0  0  0  0
  -25.6360  -31.5570  -56.8350 C   0  0  0  0  0
  -24.5490  -32.3210  -56.8320 N   0  0  0  0  0
  -26.7210  -31.9740  -56.2100 N   0  0  0  0  0
  -20.5900  -27.6280  -58.6660 N   0  0  0  0  0
  -19.1980  -27.5340  -59.0770 C   0  0  0  0  0
  -19.1270  -27.6260  -60.5970 C   0  0  0  0  0
  -19.9770  -28.2800  -61.2230 O   0  0  0  0  0
  -18.3340  -28.6630  -58.4930 C   0  0  0  0  0
  -18.3220  -28.7060  -56.9640 C   0  0  0  0  0
  -18.7840  -27.7900  -56.2720 O   0  0  0  0  0
  -17.7780  -29.7820  -56.4390 N   0  0  0  0  0
  -18.0910  -27.0330  -61.1800 N   0  0  0  0  0
  -17.8790  -27.1230  -62.6200 C   0  0  0  0  0
  -17.6490  -28.5690  -63.0140 C   0  0  0  0  0
  -16.9320  -29.2790  -62.3020 O   0  0  0  0  0
  -16.6600  -26.3350  -63.0420 C   0  0  0  0  0
  -16.7950  -24.8290  -62.9940 C   0  0  0  0  0
  -15.5380  -24.2390  -63.6150 C   0  0  0  0  0
  -15.3090  -24.7710  -64.9560 N   0  0  0  0  0
  -14.1330  -24.7840  -65.5700 C   0  0  0  0  0
  -13.0470  -24.3130  -64.9680 N   0  0  0  0  0
  -14.0470  -25.2880  -66.7840 N   0  0  0  0  0
  -18.2300  -29.0070  -64.1500 N   0  0  0  0  0
  -17.9800  -30.3630  -64.6590 C   0  0  0  0  0
  -16.4950  -30.6110  -64.9540 C   0  0  0  0  0
  -15.8770  -29.7560  -65.5990 O   0  0  0  0  0
  -18.7980  -30.4080  -65.9620 C   0  0  0  0  0
  -19.8630  -29.3870  -65.7680 C   0  0  0  0  0
  -19.2100  -28.2910  -64.9890 C   0  0  0  0  0
  -15.9820  -31.6550  -64.5340 O   0  0  0  0  0
  -33.9929  -24.9261  -43.7015 H   0  0  0  0  0
  -35.2086  -25.4495  -44.7140 H   0  0  0  0  0
  -34.6037  -26.4683  -43.5422 H   0  0  0  0  0
  -32.4686  -26.5602  -44.6118 H   0  0  0  0  0
  -34.7277  -27.1458  -46.5385 H   0  0  0  0  0
  -33.0705  -27.7913  -46.6280 H   0  0  0  0  0
  -34.1250  -28.2317  -45.2623 H   0  0  0  0  0
  -32.0348  -22.7657  -46.9133 H   0  0  0  0  0
  -29.8191  -22.1679  -46.3073 H   0  0  0  0  0
  -29.1692  -23.4640  -47.2896 H   0  0  0  0  0
  -29.8446  -23.4460  -44.3967 H   0  0  0  0  0
  -28.6069  -24.3472  -45.2426 H   0  0  0  0  0
  -30.0749  -26.0798  -45.8116 H   0  0  0  0  0
  -30.8410  -25.5726  -44.3721 H   0  0  0  0  0
  -31.9543  -23.8541  -51.2085 H   0  0  0  0  0
  -31.8442  -21.7764  -52.3320 H   0  0  0  0  0
  -30.2019  -21.5305  -51.8506 H   0  0  0  0  0
  -32.7298  -20.7446  -50.3734 H   0  0  0  0  0
  -31.2294  -19.8777  -50.4752 H   0  0  0  0  0
  -30.1929  -21.1996  -48.7767 H   0  0  0  0  0
  -31.8023  -21.2261  -48.2183 H   0  0  0  0  0
  -30.6452  -24.8952  -52.6744 H   0  0  0  0  0
  -28.1041  -25.7513  -51.5067 H   0  0  0  0  0
  -27.9274  -27.1737  -53.4525 H   0  0  0  0  0
  -29.3468  -26.3248  -54.1997 H   0  0  0  0  0
  -30.7305  -27.1217  -52.2886 H   0  0  0  0  0
  -30.7105  -28.3323  -54.4450 H   0  0  0  0  0
  -29.3174  -29.2971  -53.8977 H   0  0  0  0  0
  -30.8895  -29.4581  -53.0769 H   0  0  0  0  0
  -28.2178  -28.6894  -51.6274 H   0  0  0  0  0
  -28.8995  -27.3515  -50.6702 H   0  0  0  0  0
  -29.8062  -28.8742  -50.8440 H   0  0  0  0  0
  -25.7156  -22.7875  -53.6938 H   0  0  0  0  0
  -23.9763  -23.1797  -52.0936 H   0  0  0  0  0
  -23.2120  -23.9721  -53.4348 H   0  0  0  0  0
  -23.8781  -25.2360  -51.0890 H   0  0  0  0  0
  -23.6722  -26.0746  -52.6358 H   0  0  0  0  0
  -25.8650  -26.7088  -52.4568 H   0  0  0  0  0
  -26.1189  -25.6915  -51.0914 H   0  0  0  0  0
  -25.1824  -23.9270  -57.8709 H   0  0  0  0  0
  -23.6902  -22.2856  -58.8329 H   0  0  0  0  0
  -22.4326  -22.6332  -57.6969 H   0  0  0  0  0
  -24.8547  -20.8281  -57.3216 H   0  0  0  0  0
  -23.2260  -20.5452  -56.8159 H   0  0  0  0  0
  -23.4486  -21.8804  -54.8740 H   0  0  0  0  0
  -25.0987  -21.4428  -55.0465 H   0  0  0  0  0
  -24.4847  -25.6060  -58.9893 H   0  0  0  0  0
  -22.8966  -27.5886  -57.6186 H   0  0  0  0  0
  -22.9312  -28.6867  -59.9025 H   0  0  0  0  0
  -23.9432  -27.2730  -60.4251 H   0  0  0  0  0
  -25.5026  -28.9281  -59.8911 H   0  0  0  0  0
  -25.4270  -27.9036  -58.4179 H   0  0  0  0  0
  -23.7684  -29.5229  -57.4828 H   0  0  0  0  0
  -24.1372  -30.5979  -58.8986 H   0  0  0  0  0
  -26.5238  -29.8642  -57.4896 H   0  0  0  0  0
  -24.5587  -33.2198  -56.3499 H   0  0  0  0  0
  -23.7048  -32.0087  -57.3118 H   0  0  0  0  0
  -27.5702  -31.4093  -56.2305 H   0  0  0  0  0
  -20.8838  -28.4484  -58.1359 H   0  0  0  0  0
  -18.8129  -26.5837  -58.7072 H   0  0  0  0  0
  -17.3090  -28.4896  -58.8207 H   0  0  0  0  0
  -18.7548  -29.6065  -58.8407 H   0  0  0  0  0
  -17.7254  -29.8842  -55.4255 H   0  0  0  0  0
  -17.4087  -30.5144  -57.0453 H   0  0  0  0  0
  -17.4311  -26.5045  -60.6094 H   0  0  0  0  0
  -18.7653  -26.7188  -63.1090 H   0  0  0  0  0
  -16.4746  -26.5928  -64.0847 H   0  0  0  0  0
  -15.8691  -26.5941  -62.3381 H   0  0  0  0  0
  -16.9084  -24.4884  -61.9648 H   0  0  0  0  0
  -17.6796  -24.5072  -63.5436 H   0  0  0  0  0
  -14.6856  -24.5000  -62.9878 H   0  0  0  0  0
  -15.6606  -23.1583  -63.6866 H   0  0  0  0  0
  -16.1091  -25.1596  -65.4552 H   0  0  0  0  0
  -12.1462  -24.3415  -65.4457 H   0  0  0  0  0
  -13.1137  -23.9228  -64.0280 H   0  0  0  0  0
  -14.8786  -25.6622  -67.2409 H   0  0  0  0  0
  -18.2586  -31.1283  -63.9346 H   0  0  0  0  0
  -19.2111  -31.3988  -66.1513 H   0  0  0  0  0
  -18.1840  -30.1970  -66.8376 H   0  0  0  0  0
  -20.7256  -29.7974  -65.2431 H   0  0  0  0  0
  -20.2567  -29.0279  -66.7189 H   0  0  0  0  0
  -18.7453  -27.5410  -65.6291 H   0  0  0  0  0
  -19.9225  -27.7128  -64.4007 H   0  0  0  0  0
  -16.6428  -32.1679  -64.0630 H   0  0  0  0  0
  1  2  1  0  0  0
  2  3  1  0  0  0
  2  5  1  0  0  0
  3  4  2  0  0  0
  3  6  1  0  0  0
  6  7  1  0  0  0
  6 12  1  0  0  0
  7  8  1  0  0  0
  7 10  1  0  0  0
  8  9  2  0  0  0
  8 13  1  0  0  0
 10 11  1  0  0  0
 11 12  1  0  0  0
 13 14  1  0  0  0
 13 19  1  0  0  0
 14 15  1  0  0  0
 14 17  1  0  0  0
 15 16  2  0  0  0
 15 20  1  0  0  0
 17 18  1  0  0  0
 18 19  1  0  0  0
 20 21  1  0  0  0
 21 22  1  0  0  0
 21 24  1  0  0  0
 22 23  2  0  0  0
 22 28  1  0  0  0
 24 25  1  0  0  0
 25 26  1  0  0  0
 25 27  1  0  0  0
 28 29  1  0  0  0
 28 34  1  0  0  0
 29 30  1  0  0  0
 29 32  1  0  0  0
 30 31  2  0  0  0
 30 35  1  0  0  0
 32 33  1  0  0  0
 33 34  1  0  0  0
 35 36  1  0  0  0
 35 41  1  0  0  0
 36 37  1  0  0  0
 36 39  1  0  0  0
 37 38  2  0  0  0
 37 42  1  0  0  0
 39 40  1  0  0  0
 40 41  1  0  0  0
 42 43  1  0  0  0
 43 44  1  0  0  0
 43 46  1  0  0  0
 44 45  2  0  0  0
 44 53  1  0  0  0
 46 47  1  0  0  0
 47 48  1  0  0  0
 48 49  1  0  0  0
 49 50  1  0  0  0
 50 51  1  0  0  0
 50 52  2  0  0  0
 53 54  1  0  0  0
 54 55  1  0  0  0
 54 57  1  0  0  0
 55 56  2  0  0  0
 55 61  1  0  0  0
 57 58  1  0  0  0
 58 59  2  0  0  0
 58 60  1  0  0  0
 61 62  1  0  0  0
 62 63  1  0  0  0
 62 65  1  0  0  0
 63 64  2  0  0  0
 63 72  1  0  0  0
 65 66  1  0  0  0
 66 67  1  0  0  0
 67 68  1  0  0  0
 68 69  1  0  0  0
 69 70  1  0  0  0
 69 71  2  0  0  0
 72 73  1  0  0  0
 72 78  1  0  0  0
 73 74  1  0  0  0
 73 76  1  0  0  0
 74 75  2  0  0  0
 74 79  1  0  0  0
 76 77  1  0  0  0
 77 78  1  0  0  0
  1 80  1  0  0  0
  1 81  1  0  0  0
  1 82  1  0  0  0
  2 83  1  0  0  0
  5 84  1  0  0  0
  5 85  1  0  0  0
  5 86  1  0  0  0
  7 87  1  0  0  0
 10 88  1  0  0  0
 10 89  1  0  0  0
 11 90  1  0  0  0
 11 91  1  0  0  0
 12 92  1  0  0  0
 12 93  1  0  0  0
 14 94  1  0  0  0
 17 95  1  0  0  0
 17 96  1  0  0  0
 18 97  1  0  0  0
 18 98  1  0  0  0
 19 99  1  0  0  0
 19100  1  0  0  0
 20101  1  0  0  0
 21102  1  0  0  0
 24103  1  0  0  0
 24104  1  0  0  0
 25105  1  0  0  0
 26106  1  0  0  0
 26107  1  0  0  0
 26108  1  0  0  0
 27109  1  0  0  0
 27110  1  0  0  0
 27111  1  0  0  0
 29112  1  0  0  0
 32113  1  0  0  0
 32114  1  0  0  0
 33115  1  0  0  0
 33116  1  0  0  0
 34117  1  0  0  0
 34118  1  0  0  0
 36119  1  0  0  0
 39120  1  0  0  0
 39121  1  0  0  0
 40122  1  0  0  0
 40123  1  0  0  0
 41124  1  0  0  0
 41125  1  0  0  0
 42126  1  0  0  0
 43127  1  0  0  0
 46128  1  0  0  0
 46129  1  0  0  0
 47130  1  0  0  0
 47131  1  0  0  0
 48132  1  0  0  0
 48133  1  0  0  0
 49134  1  0  0  0
 51135  1  0  0  0
 51136  1  0  0  0
 52137  1  0  0  0
 53138  1  0  0  0
 54139  1  0  0  0
 57140  1  0  0  0
 57141  1  0  0  0
 60142  1  0  0  0
 60143  1  0  0  0
 61144  1  0  0  0
 62145  1  0  0  0
 65146  1  0  0  0
 65147  1  0  0  0
 66148  1  0  0  0
 66149  1  0  0  0
 67150  1  0  0  0
 67151  1  0  0  0
 68152  1  0  0  0
 70153  1  0  0  0
 70154  1  0  0  0
 71155  1  0  0  0
 73156  1  0  0  0
 76157  1  0  0  0
 76158  1  0  0  0
 77159  1  0  0  0
 77160  1  0  0  0
 78161  1  0  0  0
 78162  1  0  0  0
 79163  1  0  0  0
M  END
$$$$
