### 
### Created by X-TOOL on Mon Sep 10 21:13:27 2018
### 

@<TRIPOS>MOLECULE
4znx_ligand
  164   168     1     0     0
SMALL
GAST_HUCK


@<TRIPOS>ATOM
      1 N         -34.3700  -25.7290  -44.2050 N.4       1 ALA         0.2377
      2 CA        -33.3430  -26.2360  -45.1760 C.3       1 ALA         0.0623
      3 C         -32.9590  -25.1180  -46.1290 C.2       1 ALA         0.2289
      4 O         -33.7970  -24.6180  -46.8400 O.2       1 ALA        -0.3905
      5 CB        -33.8530  -27.4370  -45.9570 C.3       1 ALA        -0.0040
      6 N         -31.6910  -24.7140  -46.1400 N.am      1 PRO        -0.2471
      7 CA        -31.3180  -23.5830  -46.9930 C.3       1 PRO         0.1341
      8 C         -31.2820  -23.9580  -48.4790 C.2       1 PRO         0.2066
      9 O         -31.2260  -25.1580  -48.7720 O.2       1 PRO        -0.3942
     10 CB        -29.9040  -23.2340  -46.5180 C.3       1 PRO        -0.0104
     11 CG        -29.6500  -24.0350  -45.2930 C.3       1 PRO        -0.0281
     12 CD        -30.5500  -25.2100  -45.3580 C.3       1 PRO         0.0371
     13 N         -31.2750  -22.9580  -49.3800 N.am      1 PRO        -0.2498
     14 CA        -31.1610  -23.2130  -50.8240 C.3       1 PRO         0.1338
     15 C         -29.8450  -23.8890  -51.1020 C.2       1 PRO         0.2041
     16 O         -28.8640  -23.6360  -50.3930 O.2       1 PRO        -0.3944
     17 CB        -31.1820  -21.8140  -51.4670 C.3       1 PRO        -0.0104
     18 CG        -31.6480  -20.8770  -50.3560 C.3       1 PRO        -0.0281
     19 CD        -31.1930  -21.5140  -49.0750 C.3       1 PRO         0.0369
     20 N         -29.8080  -24.7320  -52.1150 N.am      1 LEU        -0.2637
     21 CA        -28.5790  -25.4250  -52.4320 C.3       1 LEU         0.1314
     22 C         -27.6350  -24.4890  -53.1590 C.2       1 LEU         0.2064
     23 O         -28.0460  -23.5760  -53.8780 O.2       1 LEU        -0.3942
     24 CB        -28.8710  -26.6570  -53.2770 C.3       1 LEU        -0.0101
     25 CG        -29.8140  -27.6290  -52.5900 C.3       1 LEU        -0.0425
     26 CD1       -30.2130  -28.7650  -53.5770 C.3       1 LEU        -0.0625
     27 CD2       -29.1360  -28.1750  -51.3440 C.3       1 LEU        -0.0625
     28 N         -26.3450  -24.6940  -52.9620 N.am      1 PRO        -0.2498
     29 CA        -25.3830  -23.8240  -53.6370 C.3       1 PRO         0.1340
     30 C         -25.1660  -24.2580  -55.0860 C.2       1 PRO         0.2066
     31 O         -25.4760  -25.4060  -55.4580 O.2       1 PRO        -0.3942
     32 CB        -24.1020  -23.9950  -52.8060 C.3       1 PRO        -0.0104
     33 CG        -24.2490  -25.3130  -52.1110 C.3       1 PRO        -0.0281
     34 CD        -25.7030  -25.6920  -52.0990 C.3       1 PRO         0.0369
     35 N         -24.6230  -23.3500  -55.9020 N.am      1 PRO        -0.2498
     36 CA        -24.2930  -23.7030  -57.2820 C.3       1 PRO         0.1338
     37 C         -23.4240  -24.9770  -57.3750 C.2       1 PRO         0.2041
     38 O         -22.4950  -25.1810  -56.5930 O.2       1 PRO        -0.3944
     39 CB        -23.5090  -22.4810  -57.7760 C.3       1 PRO        -0.0104
     40 CG        -23.9820  -21.3260  -56.8990 C.3       1 PRO        -0.0281
     41 CD        -24.2870  -21.9510  -55.5670 C.3       1 PRO         0.0369
     42 N         -23.7110  -25.8170  -58.3590 N.am      1 ARG        -0.2637
     43 CA        -22.9430  -27.0310  -58.5540 C.3       1 ARG         0.1311
     44 C         -21.4990  -26.6990  -58.9460 C.2       1 ARG         0.2040
     45 O         -21.2050  -25.6000  -59.4380 O.2       1 ARG        -0.3944
     46 CB        -23.6360  -27.9130  -59.5980 C.3       1 ARG        -0.0092
     47 CG        -24.8860  -28.6060  -59.0520 C.3       1 ARG        -0.0156
     48 CD        -24.5110  -29.8330  -58.2180 C.3       1 ARG         0.0627
     49 NE        -25.6540  -30.3970  -57.4920 N.pl3     1 ARG        -0.2723
     50 CZ        -25.6360  -31.5570  -56.8350 C.cat     1 ARG         0.2882
     51 NH1       -24.5490  -32.3210  -56.8320 N.pl3     1 ARG        -0.2849
     52 NH2       -26.7210  -31.9740  -56.2100 N.pl3     1 ARG        -0.2849
     53 N         -20.5900  -27.6280  -58.6660 N.am      1 ASN        -0.2616
     54 CA        -19.1980  -27.5340  -59.0770 C.3       1 ASN         0.1476
     55 C         -19.1270  -27.6260  -60.5970 C.2       1 ASN         0.2063
     56 O         -19.9770  -28.2800  -61.2230 O.2       1 ASN        -0.3942
     57 CB        -18.3340  -28.6630  -58.4930 C.3       1 ASN         0.0773
     58 CG        -18.3220  -28.7060  -56.9640 C.2       1 ASN         0.1780
     59 OD1       -18.7840  -27.7900  -56.2720 O.2       1 ASN        -0.3970
     60 ND2       -17.7780  -29.7820  -56.4390 N.am      1 ASN        -0.3007
     61 N         -18.0910  -27.0330  -61.1800 N.am      1 ARG        -0.2636
     62 CA        -17.8790  -27.1230  -62.6200 C.3       1 ARG         0.1312
     63 C         -17.6490  -28.5690  -63.0140 C.2       1 ARG         0.2058
     64 O         -16.9320  -29.2790  -62.3020 O.2       1 ARG        -0.3942
     65 CB        -16.6600  -26.3350  -63.0420 C.3       1 ARG        -0.0092
     66 CG        -16.7950  -24.8290  -62.9940 C.3       1 ARG        -0.0156
     67 CD        -15.5380  -24.2390  -63.6150 C.3       1 ARG         0.0627
     68 NE        -15.3090  -24.7710  -64.9560 N.pl3     1 ARG        -0.2723
     69 CZ        -14.1330  -24.7840  -65.5700 C.cat     1 ARG         0.2882
     70 NH1       -13.0470  -24.3130  -64.9680 N.pl3     1 ARG        -0.2849
     71 NH2       -14.0470  -25.2880  -66.7840 N.pl3     1 ARG        -0.2849
     72 N         -18.2300  -29.0070  -64.1500 N.am      1 PRO        -0.2556
     73 CA        -17.9800  -30.3630  -64.6590 C.3       1 PRO         0.0972
     74 C         -16.4950  -30.6110  -64.9540 C.2       1 PRO         0.0603
     75 O         -15.8770  -29.7560  -65.5990 O.co2     1 PRO        -0.5666
     76 CB        -18.7980  -30.4080  -65.9620 C.3       1 PRO        -0.0159
     77 CG        -19.8630  -29.3870  -65.7680 C.3       1 PRO        -0.0288
     78 CD        -19.2100  -28.2910  -64.9890 C.3       1 PRO         0.0362
     79 OXT       -15.9820  -31.6550  -64.5340 O.co2     1 PRO        -0.5666
     80 H1        -34.6270  -26.4692  -43.5708 H         1 ALA         0.2015
     81 H2        -35.1862  -25.4205  -44.7097 H         1 ALA         0.2015
     82 H3        -33.9863  -24.9571  -43.6826 H         1 ALA         0.2015
     83 H4        -32.4504  -26.5436  -44.6116 H         1 ALA         0.1095
     84 H5        -33.0744  -27.7778  -46.6553 H         1 ALA         0.0310
     85 H6        -34.7527  -27.1519  -46.5219 H         1 ALA         0.0310
     86 H7        -34.1007  -28.2501  -45.2588 H         1 ALA         0.0310
     87 H8        -32.0086  -22.7399  -46.8443 H         1 PRO         0.0802
     88 H9        -29.8363  -22.1603  -46.2886 H         1 PRO         0.0313
     89 H10       -29.1697  -23.4898  -47.2961 H         1 PRO         0.0313
     90 H11       -29.8714  -23.4372  -44.3966 H         1 PRO         0.0287
     91 H12       -28.6003  -24.3627  -45.2653 H         1 PRO         0.0287
     92 H13       -30.0607  -26.0543  -45.8656 H         1 PRO         0.0524
     93 H14       -30.8666  -25.5209  -44.3515 H         1 PRO         0.0524
     94 H15       -31.9935  -23.8320  -51.1898 H         1 PRO         0.0802
     95 H16       -31.8831  -21.7881  -52.3142 H         1 PRO         0.0313
     96 H17       -30.1768  -21.5326  -51.8141 H         1 PRO         0.0313
     97 H18       -32.7437  -20.7806  -50.3691 H         1 PRO         0.0287
     98 H19       -31.1910  -19.8835  -50.4744 H         1 PRO         0.0287
     99 H20       -30.1621  -21.2187  -48.8301 H         1 PRO         0.0524
    100 H21       -31.8589  -21.2467  -48.2413 H         1 PRO         0.0524
    101 H22       -30.6288  -24.8920  -52.6634 H         1 LEU         0.1883
    102 H23       -28.1027  -25.7477  -51.4945 H         1 LEU         0.0800
    103 H24       -27.9226  -27.1742  -53.4846 H         1 LEU         0.0315
    104 H25       -29.3275  -26.3339  -54.2242 H         1 LEU         0.0315
    105 H26       -30.7258  -27.0928  -52.2884 H         1 LEU         0.0298
    106 H27       -30.8957  -29.4652  -53.0734 H         1 LEU         0.0232
    107 H28       -29.3100  -29.3028  -53.9014 H         1 LEU         0.0232
    108 H29       -30.7153  -28.3296  -54.4534 H         1 LEU         0.0232
    109 H30       -28.8715  -27.3422  -50.6758 H         1 LEU         0.0232
    110 H31       -28.2238  -28.7186  -51.6312 H         1 LEU         0.0232
    111 H32       -29.8220  -28.8592  -50.8232 H         1 LEU         0.0232
    112 H33       -25.7230  -22.7780  -53.6189 H         1 PRO         0.0802
    113 H34       -24.0087  -23.1815  -52.0715 H         1 PRO         0.0313
    114 H35       -23.2175  -24.0018  -53.4600 H         1 PRO         0.0313
    115 H36       -23.8797  -25.2301  -51.0782 H         1 PRO         0.0287
    116 H37       -23.6709  -26.0804  -52.6467 H         1 PRO         0.0287
    117 H38       -25.8448  -26.7053  -52.5028 H         1 PRO         0.0524
    118 H39       -26.1098  -25.6438  -51.0781 H         1 PRO         0.0524
    119 H40       -25.2092  -23.8481  -57.8731 H         1 PRO         0.0802
    120 H41       -23.7333  -22.2798  -58.8339 H         1 PRO         0.0313
    121 H42       -22.4275  -22.6407  -57.6544 H         1 PRO         0.0313
    122 H43       -24.8840  -20.8616  -57.3241 H         1 PRO         0.0287
    123 H44       -23.1917  -20.5676  -56.7986 H         1 PRO         0.0287
    124 H45       -23.4107  -21.9066  -54.9037 H         1 PRO         0.0524
    125 H46       -25.1381  -21.4485  -55.0843 H         1 PRO         0.0524
    126 H47       -24.4695  -25.6101  -58.9769 H         1 ARG         0.1883
    127 H48       -22.9171  -27.5827  -57.6027 H         1 ARG         0.0800
    128 H49       -22.9261  -28.6828  -59.9349 H         1 ARG         0.0313
    129 H50       -23.9275  -27.2840  -60.4520 H         1 ARG         0.0313
    130 H51       -25.5188  -28.9229  -59.8941 H         1 ARG         0.0301
    131 H52       -25.4432  -27.8983  -58.4206 H         1 ARG         0.0301
    132 H53       -23.7410  -29.5406  -57.4889 H         1 ARG         0.0689
    133 H54       -24.1059  -30.6042  -58.8897 H         1 ARG         0.0689
    134 H55       -26.5323  -29.8590  -57.4896 H         1 ARG         0.2642
    135 H56       -24.5492  -33.2148  -56.3202 H         1 ARG         0.2615
    136 H57       -23.7062  -32.0195  -57.3415 H         1 ARG         0.2615
    137 H58       -27.5694  -31.3900  -56.2058 H         1 ARG         0.2615
    138 H59       -26.7194  -32.8834  -55.7264 H         1 ARG         0.2615
    139 H60       -20.8781  -28.4324  -58.1463 H         1 ASN         0.1885
    140 H61       -18.7945  -26.5663  -58.7443 H         1 ASN         0.0826
    141 H62       -17.3006  -28.5252  -58.8438 H         1 ASN         0.0551
    142 H63       -18.7221  -29.6233  -58.8635 H         1 ASN         0.0551
    143 H64       -17.7320  -29.8850  -55.4454 H         1 ASN         0.1814
    144 H65       -17.4103  -30.4972  -57.0334 H         1 ASN         0.1814
    145 H66       -17.4440  -26.5149  -60.6206 H         1 ARG         0.1883
    146 H67       -18.7665  -26.7322  -63.1392 H         1 ARG         0.0800
    147 H68       -16.4176  -26.6184  -64.0769 H         1 ARG         0.0313
    148 H69       -15.8292  -26.6197  -62.3797 H         1 ARG         0.0313
    149 H70       -16.8920  -24.4934  -61.9510 H         1 ARG         0.0301
    150 H71       -17.6804  -24.5126  -63.5649 H         1 ARG         0.0301
    151 H72       -14.6747  -24.4854  -62.9795 H         1 ARG         0.0689
    152 H73       -15.6478  -23.1463  -63.6769 H         1 ARG         0.0689
    153 H74       -16.1170  -25.1634  -65.4601 H         1 ARG         0.2642
    154 H75       -12.1400  -24.3289  -65.4558 H         1 ARG         0.2615
    155 H76       -13.1118  -23.9318  -64.0133 H         1 ARG         0.2615
    156 H77       -14.8893  -25.6533  -67.2508 H         1 ARG         0.2615
    157 H78       -13.1374  -25.3168  -67.2664 H         1 ARG         0.2615
    158 H79       -18.3376  -31.1171  -63.9425 H         1 PRO         0.0728
    159 H80       -19.2378  -31.4052  -66.1109 H         1 PRO         0.0306
    160 H81       -18.1672  -30.1526  -66.8262 H         1 PRO         0.0306
    161 H82       -20.7076  -29.8112  -65.2052 H         1 PRO         0.0286
    162 H83       -20.2204  -29.0118  -66.7383 H         1 PRO         0.0286
    163 H84       -18.7082  -27.5770  -65.6585 H         1 PRO         0.0524
    164 H85       -19.9447  -27.7574  -64.3682 H         1 PRO         0.0524
@<TRIPOS>BOND
     1    1    2 1  
     2    2    3 1  
     3    2    5 1  
     4    3    4 2  
     5    3    6 am 
     6    6    7 1  
     7    6   12 1  
     8    7    8 1  
     9    7   10 1  
    10    8    9 2  
    11    8   13 am 
    12   10   11 1  
    13   11   12 1  
    14   13   14 1  
    15   13   19 1  
    16   14   15 1  
    17   14   17 1  
    18   15   16 2  
    19   15   20 am 
    20   17   18 1  
    21   18   19 1  
    22   20   21 1  
    23   21   22 1  
    24   21   24 1  
    25   22   23 2  
    26   22   28 am 
    27   24   25 1  
    28   25   26 1  
    29   25   27 1  
    30   28   29 1  
    31   28   34 1  
    32   29   30 1  
    33   29   32 1  
    34   30   31 2  
    35   30   35 am 
    36   32   33 1  
    37   33   34 1  
    38   35   36 1  
    39   35   41 1  
    40   36   37 1  
    41   36   39 1  
    42   37   38 2  
    43   37   42 am 
    44   39   40 1  
    45   40   41 1  
    46   42   43 1  
    47   43   44 1  
    48   43   46 1  
    49   44   45 2  
    50   44   53 am 
    51   46   47 1  
    52   47   48 1  
    53   48   49 1  
    54   49   50 ar 
    55   50   51 ar 
    56   50   52 ar 
    57   53   54 1  
    58   54   55 1  
    59   54   57 1  
    60   55   56 2  
    61   55   61 am 
    62   57   58 1  
    63   58   59 2  
    64   58   60 am 
    65   61   62 1  
    66   62   63 1  
    67   62   65 1  
    68   63   64 2  
    69   63   72 am 
    70   65   66 1  
    71   66   67 1  
    72   67   68 1  
    73   68   69 ar 
    74   69   70 ar 
    75   69   71 ar 
    76   72   73 1  
    77   72   78 1  
    78   73   74 1  
    79   73   76 1  
    80   74   75 ar 
    81   74   79 ar 
    82   76   77 1  
    83   77   78 1  
    84    1   80 1  
    85    1   81 1  
    86    1   82 1  
    87    2   83 1  
    88    5   84 1  
    89    5   85 1  
    90    5   86 1  
    91    7   87 1  
    92   10   88 1  
    93   10   89 1  
    94   11   90 1  
    95   11   91 1  
    96   12   92 1  
    97   12   93 1  
    98   14   94 1  
    99   17   95 1  
   100   17   96 1  
   101   18   97 1  
   102   18   98 1  
   103   19   99 1  
   104   19  100 1  
   105   20  101 1  
   106   21  102 1  
   107   24  103 1  
   108   24  104 1  
   109   25  105 1  
   110   26  106 1  
   111   26  107 1  
   112   26  108 1  
   113   27  109 1  
   114   27  110 1  
   115   27  111 1  
   116   29  112 1  
   117   32  113 1  
   118   32  114 1  
   119   33  115 1  
   120   33  116 1  
   121   34  117 1  
   122   34  118 1  
   123   36  119 1  
   124   39  120 1  
   125   39  121 1  
   126   40  122 1  
   127   40  123 1  
   128   41  124 1  
   129   41  125 1  
   130   42  126 1  
   131   43  127 1  
   132   46  128 1  
   133   46  129 1  
   134   47  130 1  
   135   47  131 1  
   136   48  132 1  
   137   48  133 1  
   138   49  134 1  
   139   51  135 1  
   140   51  136 1  
   141   52  137 1  
   142   52  138 1  
   143   53  139 1  
   144   54  140 1  
   145   57  141 1  
   146   57  142 1  
   147   60  143 1  
   148   60  144 1  
   149   61  145 1  
   150   62  146 1  
   151   65  147 1  
   152   65  148 1  
   153   66  149 1  
   154   66  150 1  
   155   67  151 1  
   156   67  152 1  
   157   68  153 1  
   158   70  154 1  
   159   70  155 1  
   160   71  156 1  
   161   71  157 1  
   162   73  158 1  
   163   76  159 1  
   164   76  160 1  
   165   77  161 1  
   166   77  162 1  
   167   78  163 1  
   168   78  164 1  
@<TRIPOS>SUBSTRUCTURE
     1 ALA         1

