### 
### Created by X-TOOL on Mon Sep 10 21:13:31 2018
### 

@<TRIPOS>MOLECULE
6axl_ligand
  165   167     1     0     0
SMALL
GAST_HUCK


@<TRIPOS>ATOM
      1 C          -2.2170   19.0830  -53.1840 C.2       1 ACE         0.1752
      2 O          -3.4410   19.0890  -53.3030 O.2       1 ACE        -0.3972
      3 CH3        -1.2980   19.2270  -54.3600 C.3       1 ACE         0.0258
      4 N          -1.6190   18.9530  -52.0040 N.am      1 ASN        -0.2637
      5 CA         -2.3800   18.8020  -50.7700 C.3       1 ASN         0.1477
      6 C          -1.6740   19.4840  -49.6050 C.2       1 ASN         0.2087
      7 O          -0.9610   18.8360  -48.8390 O.2       1 ASN        -0.3940
      8 CB         -2.6010   17.3230  -50.4510 C.3       1 ASN         0.0773
      9 CG         -3.5750   16.6610  -51.4020 C.2       1 ASN         0.1780
     10 OD1        -3.3110   15.5760  -51.9200 O.2       1 ASN        -0.3970
     11 ND2        -4.7110   17.3070  -51.6360 N.am      1 ASN        -0.3007
     12 N          -1.8710   20.7970  -49.4710 N.am      1 PRO        -0.2497
     13 CA         -1.2760   21.5080  -48.3290 C.3       1 PRO         0.1338
     14 C          -1.8070   21.0410  -46.9870 C.2       1 PRO         0.2042
     15 O          -1.1330   21.2390  -45.9690 O.2       1 PRO        -0.3944
     16 CB         -1.6410   22.9770  -48.5940 C.3       1 PRO        -0.0104
     17 CG         -2.0480   23.0410  -50.0330 C.3       1 PRO        -0.0281
     18 CD         -2.6090   21.7010  -50.3680 C.3       1 PRO         0.0369
     19 N          -2.9880   20.4220  -46.9530 N.am      1 ASN        -0.2616
     20 CA         -3.6030   19.9980  -45.7010 C.3       1 ASN         0.1476
     21 C          -3.1030   18.6430  -45.2150 C.2       1 ASN         0.2062
     22 O          -3.4830   18.2240  -44.1150 O.2       1 ASN        -0.3942
     23 CB         -5.1260   19.9450  -45.8580 C.3       1 ASN         0.0773
     24 CG         -5.5620   19.0740  -47.0240 C.2       1 ASN         0.1780
     25 OD1        -4.8770   18.9950  -48.0460 O.2       1 ASN        -0.3970
     26 ND2        -6.7050   18.4160  -46.8780 N.am      1 ASN        -0.3007
     27 N          -2.2730   17.9520  -45.9920 N.am      1 ALA        -0.2639
     28 CA         -1.7950   16.6270  -45.6220 C.3       1 ALA         0.1282
     29 C          -0.5200   16.7450  -44.7950 C.2       1 ALA         0.2037
     30 O           0.4490   17.3810  -45.2210 O.2       1 ALA        -0.3944
     31 CB         -1.5390   15.7770  -46.8660 C.3       1 ALA        -0.0244
     32 N          -0.5280   16.1290  -43.6140 N.am      1 ASN        -0.2616
     33 CA          0.6440   16.1150  -42.7500 C.3       1 ASN         0.1478
     34 C           1.4360   14.8430  -43.0230 C.2       1 ASN         0.2088
     35 O           0.9840   13.7530  -42.6350 O.2       1 ASN        -0.3940
     36 CB          0.2340   16.1760  -41.2860 C.3       1 ASN         0.0773
     37 CG          1.4290   16.2000  -40.3460 C.2       1 ASN         0.1780
     38 OD1         2.5740   16.2600  -40.7870 O.2       1 ASN        -0.3970
     39 ND2         1.1660   16.1540  -39.0460 N.am      1 ASN        -0.3007
     40 N           2.6030   14.9150  -43.6730 N.am      1 PRO        -0.2497
     41 CA          3.3630   13.6840  -43.9400 C.3       1 PRO         0.1338
     42 C           3.8970   13.0130  -42.6880 C.2       1 PRO         0.2042
     43 O           4.2980   11.8450  -42.7640 O.2       1 PRO        -0.3944
     44 CB          4.5030   14.1620  -44.8480 C.3       1 PRO        -0.0104
     45 CG          4.6700   15.5940  -44.5270 C.3       1 PRO        -0.0281
     46 CD          3.3030   16.1100  -44.1760 C.3       1 PRO         0.0369
     47 N           3.9190   13.7060  -41.5470 N.am      1 ASN        -0.2616
     48 CA          4.2820   13.0790  -40.2840 C.3       1 ASN         0.1476
     49 C           3.1400   12.2760  -39.6800 C.2       1 ASN         0.2062
     50 O           3.3500   11.6030  -38.6650 O.2       1 ASN        -0.3942
     51 CB          4.7340   14.1340  -39.2720 C.3       1 ASN         0.0773
     52 CG          5.8030   15.0500  -39.8250 C.2       1 ASN         0.1780
     53 OD1         6.9640   14.6630  -39.9500 O.2       1 ASN        -0.3970
     54 ND2         5.4170   16.2780  -40.1540 N.am      1 ASN        -0.3007
     55 N           1.9420   12.3380  -40.2660 N.am      1 ALA        -0.2639
     56 CA          0.7790   11.6300  -39.7430 C.3       1 ALA         0.1282
     57 C           0.1340   10.7620  -40.8170 C.2       1 ALA         0.2037
     58 O          -1.0720   10.5100  -40.7770 O.2       1 ALA        -0.3944
     59 CB         -0.2420   12.6100  -39.1680 C.3       1 ALA        -0.0244
     60 N           0.9220   10.2950  -41.7830 N.am      1 ASN        -0.2616
     61 CA          0.4180    9.3910  -42.8060 C.3       1 ASN         0.1478
     62 C           0.5280    7.9660  -42.2820 C.2       1 ASN         0.2088
     63 O           1.6460    7.4360  -42.1980 O.2       1 ASN        -0.3940
     64 CB          1.2060    9.5450  -44.0990 C.3       1 ASN         0.0773
     65 CG          0.6730    8.6680  -45.2140 C.2       1 ASN         0.1780
     66 OD1        -0.0590    7.7070  -44.9690 O.2       1 ASN        -0.3970
     67 ND2         1.0400    8.9940  -46.4530 N.am      1 ASN        -0.3007
     68 N          -0.5780    7.3060  -41.9230 N.am      1 PRO        -0.2497
     69 CA         -0.4700    5.9450  -41.3740 C.3       1 PRO         0.1338
     70 C          -0.0050    4.9130  -42.3850 C.2       1 PRO         0.2042
     71 O           0.3580    3.8020  -41.9760 O.2       1 PRO        -0.3944
     72 CB         -1.8950    5.6490  -40.8910 C.3       1 PRO        -0.0104
     73 CG         -2.7600    6.4830  -41.7580 C.3       1 PRO        -0.0281
     74 CD         -1.9810    7.7360  -42.0510 C.3       1 PRO         0.0369
     75 N          -0.0040    5.2340  -43.6790 N.am      1 ASN        -0.2616
     76 CA          0.5150    4.3200  -44.6890 C.3       1 ASN         0.1476
     77 C           2.0350    4.2490  -44.7000 C.2       1 ASN         0.2062
     78 O           2.5910    3.3780  -45.3770 O.2       1 ASN        -0.3942
     79 CB          0.0220    4.7300  -46.0770 C.3       1 ASN         0.0773
     80 CG         -1.4740    4.5740  -46.2290 C.2       1 ASN         0.1780
     81 OD1        -2.0810    3.6950  -45.6190 O.2       1 ASN        -0.3970
     82 ND2        -2.0790    5.4240  -47.0470 N.am      1 ASN        -0.3007
     83 N           2.7130    5.1360  -43.9790 N.am      1 ALA        -0.2639
     84 CA          4.1650    5.0950  -43.8790 C.3       1 ALA         0.1279
     85 C           4.5770    4.2930  -42.6520 C.2       1 ALA         0.1989
     86 O           4.0250    4.4770  -41.5660 O.2       1 ALA        -0.3947
     87 CB          4.7340    6.5050  -43.8150 C.3       1 ALA        -0.0244
     88 N           5.5450    3.4010  -42.8300 N.am      1 NH2        -0.2990
     89 H1         -0.2538   19.1934  -54.0156 H         1 ACE         0.0467
     90 H2         -1.4887   20.1886  -54.8588 H         1 ACE         0.0467
     91 H3         -1.4771   18.4046  -55.0682 H         1 ACE         0.0467
     92 H4         -0.6199   18.9590  -51.9617 H         1 ASN         0.1884
     93 H5         -3.3612   19.2793  -50.9093 H         1 ASN         0.0826
     94 H6         -2.9955   17.2385  -49.4277 H         1 ASN         0.0551
     95 H7         -1.6352   16.8005  -50.5160 H         1 ASN         0.0551
     96 H8         -5.3904   16.9151  -52.2563 H         1 ASN         0.1814
     97 H9         -4.8872   18.1855  -51.1920 H         1 ASN         0.1814
     98 H10        -0.1837   21.3783  -48.3343 H         1 PRO         0.0802
     99 H11        -0.7722   23.6267  -48.4121 H         1 PRO         0.0313
    100 H12        -2.4736   23.2881  -47.9460 H         1 PRO         0.0313
    101 H13        -1.1754   23.2580  -50.6666 H         1 PRO         0.0287
    102 H14        -2.8102   23.8205  -50.1792 H         1 PRO         0.0287
    103 H15        -3.6895   21.6633  -50.1652 H         1 PRO         0.0524
    104 H16        -2.4248   21.4481  -51.4226 H         1 PRO         0.0524
    105 H17        -3.4663   20.2432  -47.8128 H         1 ASN         0.1885
    106 H18        -3.3549   20.7463  -44.9339 H         1 ASN         0.0826
    107 H19        -5.4992   20.9666  -46.0223 H         1 ASN         0.0551
    108 H20        -5.5619   19.5397  -44.9330 H         1 ASN         0.0551
    109 H21        -7.0407   17.8276  -47.6136 H         1 ASN         0.1814
    110 H22        -7.2307   18.5085  -46.0323 H         1 ASN         0.1814
    111 H23        -1.9684   18.3542  -46.8554 H         1 ALA         0.1883
    112 H24        -2.5664   16.1331  -45.0130 H         1 ALA         0.0797
    113 H25        -1.1794   14.7826  -46.5630 H         1 ALA         0.0277
    114 H26        -0.7797   16.2657  -47.4942 H         1 ALA         0.0277
    115 H27        -2.4736   15.6708  -47.4362 H         1 ALA         0.0277
    116 H28        -1.3606   15.6641  -43.3129 H         1 ASN         0.1885
    117 H29         1.2716   16.9888  -42.9794 H         1 ASN         0.0826
    118 H30        -0.3790   15.2925  -41.0544 H         1 ASN         0.0551
    119 H31        -0.3603   17.0873  -41.1240 H         1 ASN         0.0551
    120 H32         1.9150   16.1671  -38.3836 H         1 ASN         0.1814
    121 H33         0.2188   16.1063  -38.7289 H         1 ASN         0.1814
    122 H34         2.7275   12.9619  -44.4736 H         1 PRO         0.0802
    123 H35         4.2350   14.0315  -45.9068 H         1 PRO         0.0313
    124 H36         5.4279   13.6068  -44.6327 H         1 PRO         0.0313
    125 H37         5.0695   16.1353  -45.3973 H         1 PRO         0.0287
    126 H38         5.3536   15.7159  -43.6739 H         1 PRO         0.0287
    127 H39         3.3634   16.8864  -43.3992 H         1 PRO         0.0524
    128 H40         2.7969   16.5177  -45.0634 H         1 PRO         0.0524
    129 H41         3.6809   14.6772  -41.5601 H         1 ASN         0.1885
    130 H42         5.1207   12.3936  -40.4756 H         1 ASN         0.0826
    131 H43         5.1335   13.6221  -38.3841 H         1 ASN         0.0551
    132 H44         3.8636   14.7419  -38.9842 H         1 ASN         0.0551
    133 H45         6.0802   16.9281  -40.5248 H         1 ASN         0.1814
    134 H46         4.4632   16.5522  -40.0308 H         1 ASN         0.1814
    135 H47         1.8383   12.8898  -41.0935 H         1 ALA         0.1883
    136 H48         1.1187   10.9719  -38.9297 H         1 ALA         0.0797
    137 H49        -1.1077   12.0525  -38.7809 H         1 ALA         0.0277
    138 H50        -0.5736   13.2997  -39.9581 H         1 ALA         0.0277
    139 H51         0.2200   13.1834  -38.3508 H         1 ALA         0.0277
    140 H52         1.8826   10.5718  -41.8062 H         1 ASN         0.1885
    141 H53        -0.6384    9.6236  -43.0056 H         1 ASN         0.0826
    142 H54         2.2544    9.2728  -43.9073 H         1 ASN         0.0551
    143 H55         1.1529   10.5954  -44.4210 H         1 ASN         0.0551
    144 H56         0.7187    8.4510  -47.2288 H         1 ASN         0.1814
    145 H57         1.6367    9.7816  -46.6068 H         1 ASN         0.1814
    146 H58         0.2310    5.9383  -40.5263 H         1 PRO         0.0802
    147 H59        -2.0145    5.9320  -39.8348 H         1 PRO         0.0313
    148 H60        -2.1338    4.5823  -41.0141 H         1 PRO         0.0313
    149 H61        -3.6967    6.7300  -41.2369 H         1 PRO         0.0287
    150 H62        -2.9897    5.9501  -42.6925 H         1 PRO         0.0287
    151 H63        -2.1896    8.0999  -43.0679 H         1 PRO         0.0524
    152 H64        -2.2182    8.5258  -41.3230 H         1 PRO         0.0524
    153 H65        -0.3673    6.1213  -43.9630 H         1 ASN         0.1885
    154 H66         0.1291    3.3150  -44.4632 H         1 ASN         0.0826
    155 H67         0.5205    4.1004  -46.8287 H         1 ASN         0.0551
    156 H68         0.2860    5.7840  -46.2481 H         1 ASN         0.0551
    157 H69        -3.0677    5.3668  -47.1855 H         1 ASN         0.1814
    158 H70        -1.5466    6.1223  -47.5255 H         1 ASN         0.1814
    159 H71         2.2121    5.8513  -43.4917 H         1 ALA         0.1883
    160 H72         4.5655    4.5974  -44.7745 H         1 ALA         0.0797
    161 H73         5.8303    6.4549  -43.7398 H         1 ALA         0.0277
    162 H74         4.3294    7.0240  -42.9336 H         1 ALA         0.0277
    163 H75         4.4537    7.0552  -44.7253 H         1 ALA         0.0277
    164 H76         5.8590    2.8438  -42.0613 H         1 NH2         0.1815
    165 H77         5.9598    3.2867  -43.7327 H         1 NH2         0.1815
@<TRIPOS>BOND
     1    1    2 2  
     2    1    3 1  
     3    1    4 am 
     4    4    5 1  
     5    5    6 1  
     6    5    8 1  
     7    6    7 2  
     8    6   12 am 
     9    8    9 1  
    10    9   10 2  
    11    9   11 am 
    12   12   13 1  
    13   12   18 1  
    14   13   14 1  
    15   13   16 1  
    16   14   15 2  
    17   14   19 am 
    18   16   17 1  
    19   17   18 1  
    20   19   20 1  
    21   20   21 1  
    22   20   23 1  
    23   21   22 2  
    24   21   27 am 
    25   23   24 1  
    26   24   25 2  
    27   24   26 am 
    28   27   28 1  
    29   28   29 1  
    30   28   31 1  
    31   29   30 2  
    32   29   32 am 
    33   32   33 1  
    34   33   34 1  
    35   33   36 1  
    36   34   35 2  
    37   34   40 am 
    38   36   37 1  
    39   37   38 2  
    40   37   39 am 
    41   40   41 1  
    42   40   46 1  
    43   41   42 1  
    44   41   44 1  
    45   42   43 2  
    46   42   47 am 
    47   44   45 1  
    48   45   46 1  
    49   47   48 1  
    50   48   49 1  
    51   48   51 1  
    52   49   50 2  
    53   49   55 am 
    54   51   52 1  
    55   52   53 2  
    56   52   54 am 
    57   55   56 1  
    58   56   57 1  
    59   56   59 1  
    60   57   58 2  
    61   57   60 am 
    62   60   61 1  
    63   61   62 1  
    64   61   64 1  
    65   62   63 2  
    66   62   68 am 
    67   64   65 1  
    68   65   66 2  
    69   65   67 am 
    70   68   69 1  
    71   68   74 1  
    72   69   70 1  
    73   69   72 1  
    74   70   71 2  
    75   70   75 am 
    76   72   73 1  
    77   73   74 1  
    78   75   76 1  
    79   76   77 1  
    80   76   79 1  
    81   77   78 2  
    82   77   83 am 
    83   79   80 1  
    84   80   81 2  
    85   80   82 am 
    86   83   84 1  
    87   84   85 1  
    88   84   87 1  
    89   85   86 2  
    90   85   88 am 
    91    3   89 1  
    92    3   90 1  
    93    3   91 1  
    94    4   92 1  
    95    5   93 1  
    96    8   94 1  
    97    8   95 1  
    98   11   96 1  
    99   11   97 1  
   100   13   98 1  
   101   16   99 1  
   102   16  100 1  
   103   17  101 1  
   104   17  102 1  
   105   18  103 1  
   106   18  104 1  
   107   19  105 1  
   108   20  106 1  
   109   23  107 1  
   110   23  108 1  
   111   26  109 1  
   112   26  110 1  
   113   27  111 1  
   114   28  112 1  
   115   31  113 1  
   116   31  114 1  
   117   31  115 1  
   118   32  116 1  
   119   33  117 1  
   120   36  118 1  
   121   36  119 1  
   122   39  120 1  
   123   39  121 1  
   124   41  122 1  
   125   44  123 1  
   126   44  124 1  
   127   45  125 1  
   128   45  126 1  
   129   46  127 1  
   130   46  128 1  
   131   47  129 1  
   132   48  130 1  
   133   51  131 1  
   134   51  132 1  
   135   54  133 1  
   136   54  134 1  
   137   55  135 1  
   138   56  136 1  
   139   59  137 1  
   140   59  138 1  
   141   59  139 1  
   142   60  140 1  
   143   61  141 1  
   144   64  142 1  
   145   64  143 1  
   146   67  144 1  
   147   67  145 1  
   148   69  146 1  
   149   72  147 1  
   150   72  148 1  
   151   73  149 1  
   152   73  150 1  
   153   74  151 1  
   154   74  152 1  
   155   75  153 1  
   156   76  154 1  
   157   79  155 1  
   158   79  156 1  
   159   82  157 1  
   160   82  158 1  
   161   83  159 1  
   162   84  160 1  
   163   87  161 1  
   164   87  162 1  
   165   87  163 1  
   166   88  164 1  
   167   88  165 1  
@<TRIPOS>SUBSTRUCTURE
     1 ACE         1

