6axl_ligand
  -I-interpret- 

165167  0  0  0  0  0  0  0  0999 V2000
   -2.2170   19.0830  -53.1840 C   0  0  0  0  0
   -3.4410   19.0890  -53.3030 O   0  0  0  0  0
   -1.2980   19.2270  -54.3600 C   0  0  0  0  0
   -1.6190   18.9530  -52.0040 N   0  0  0  0  0
   -2.3800   18.8020  -50.7700 C   0  0  0  0  0
   -1.6740   19.4840  -49.6050 C   0  0  0  0  0
   -0.9610   18.8360  -48.8390 O   0  0  0  0  0
   -2.6010   17.3230  -50.4510 C   0  0  0  0  0
   -3.5750   16.6610  -51.4020 C   0  0  0  0  0
   -3.3110   15.5760  -51.9200 O   0  0  0  0  0
   -4.7110   17.3070  -51.6360 N   0  0  0  0  0
   -1.8710   20.7970  -49.4710 N   0  0  0  0  0
   -1.2760   21.5080  -48.3290 C   0  0  0  0  0
   -1.8070   21.0410  -46.9870 C   0  0  0  0  0
   -1.1330   21.2390  -45.9690 O   0  0  0  0  0
   -1.6410   22.9770  -48.5940 C   0  0  0  0  0
   -2.0480   23.0410  -50.0330 C   0  0  0  0  0
   -2.6090   21.7010  -50.3680 C   0  0  0  0  0
   -2.9880   20.4220  -46.9530 N   0  0  0  0  0
   -3.6030   19.9980  -45.7010 C   0  0  0  0  0
   -3.1030   18.6430  -45.2150 C   0  0  0  0  0
   -3.4830   18.2240  -44.1150 O   0  0  0  0  0
   -5.1260   19.9450  -45.8580 C   0  0  0  0  0
   -5.5620   19.0740  -47.0240 C   0  0  0  0  0
   -4.8770   18.9950  -48.0460 O   0  0  0  0  0
   -6.7050   18.4160  -46.8780 N   0  0  0  0  0
   -2.2730   17.9520  -45.9920 N   0  0  0  0  0
   -1.7950   16.6270  -45.6220 C   0  0  0  0  0
   -0.5200   16.7450  -44.7950 C   0  0  0  0  0
    0.4490   17.3810  -45.2210 O   0  0  0  0  0
   -1.5390   15.7770  -46.8660 C   0  0  0  0  0
   -0.5280   16.1290  -43.6140 N   0  0  0  0  0
    0.6440   16.1150  -42.7500 C   0  0  0  0  0
    1.4360   14.8430  -43.0230 C   0  0  0  0  0
    0.9840   13.7530  -42.6350 O   0  0  0  0  0
    0.2340   16.1760  -41.2860 C   0  0  0  0  0
    1.4290   16.2000  -40.3460 C   0  0  0  0  0
    2.5740   16.2600  -40.7870 O   0  0  0  0  0
    1.1660   16.1540  -39.0460 N   0  0  0  0  0
    2.6030   14.9150  -43.6730 N   0  0  0  0  0
    3.3630   13.6840  -43.9400 C   0  0  0  0  0
    3.8970   13.0130  -42.6880 C   0  0  0  0  0
    4.2980   11.8450  -42.7640 O   0  0  0  0  0
    4.5030   14.1620  -44.8480 C   0  0  0  0  0
    4.6700   15.5940  -44.5270 C   0  0  0  0  0
    3.3030   16.1100  -44.1760 C   0  0  0  0  0
    3.9190   13.7060  -41.5470 N   0  0  0  0  0
    4.2820   13.0790  -40.2840 C   0  0  0  0  0
    3.1400   12.2760  -39.6800 C   0  0  0  0  0
    3.3500   11.6030  -38.6650 O   0  0  0  0  0
    4.7340   14.1340  -39.2720 C   0  0  0  0  0
    5.8030   15.0500  -39.8250 C   0  0  0  0  0
    6.9640   14.6630  -39.9500 O   0  0  0  0  0
    5.4170   16.2780  -40.1540 N   0  0  0  0  0
    1.9420   12.3380  -40.2660 N   0  0  0  0  0
    0.7790   11.6300  -39.7430 C   0  0  0  0  0
    0.1340   10.7620  -40.8170 C   0  0  0  0  0
   -1.0720   10.5100  -40.7770 O   0  0  0  0  0
   -0.2420   12.6100  -39.1680 C   0  0  0  0  0
    0.9220   10.2950  -41.7830 N   0  0  0  0  0
    0.4180    9.3910  -42.8060 C   0  0  0  0  0
    0.5280    7.9660  -42.2820 C   0  0  0  0  0
    1.6460    7.4360  -42.1980 O   0  0  0  0  0
    1.2060    9.5450  -44.0990 C   0  0  0  0  0
    0.6730    8.6680  -45.2140 C   0  0  0  0  0
   -0.0590    7.7070  -44.9690 O   0  0  0  0  0
    1.0400    8.9940  -46.4530 N   0  0  0  0  0
   -0.5780    7.3060  -41.9230 N   0  0  0  0  0
   -0.4700    5.9450  -41.3740 C   0  0  0  0  0
   -0.0050    4.9130  -42.3850 C   0  0  0  0  0
    0.3580    3.8020  -41.9760 O   0  0  0  0  0
   -1.8950    5.6490  -40.8910 C   0  0  0  0  0
   -2.7600    6.4830  -41.7580 C   0  0  0  0  0
   -1.9810    7.7360  -42.0510 C   0  0  0  0  0
   -0.0040    5.2340  -43.6790 N   0  0  0  0  0
    0.5150    4.3200  -44.6890 C   0  0  0  0  0
    2.0350    4.2490  -44.7000 C   0  0  0  0  0
    2.5910    3.3780  -45.3770 O   0  0  0  0  0
    0.0220    4.7300  -46.0770 C   0  0  0  0  0
   -1.4740    4.5740  -46.2290 C   0  0  0  0  0
   -2.0810    3.6950  -45.6190 O   0  0  0  0  0
   -2.0790    5.4240  -47.0470 N   0  0  0  0  0
    2.7130    5.1360  -43.9790 N   0  0  0  0  0
    4.1650    5.0950  -43.8790 C   0  0  0  0  0
    4.5770    4.2930  -42.6520 C   0  0  0  0  0
    4.0250    4.4770  -41.5660 O   0  0  0  0  0
    4.7340    6.5050  -43.8150 C   0  0  0  0  0
    5.5450    3.4010  -42.8300 N   0  0  0  0  0
   -1.4765   18.4116  -55.0610 H   0  0  0  0  0
   -1.4880   20.1802  -54.8534 H   0  0  0  0  0
   -0.2638   19.1935  -54.0175 H   0  0  0  0  0
   -0.5999   18.9591  -51.9609 H   0  0  0  0  0
   -3.3482   19.2809  -50.9160 H   0  0  0  0  0
   -3.0160   17.2554  -49.4454 H   0  0  0  0  0
   -1.6422   16.8130  -50.5444 H   0  0  0  0  0
   -5.4053   16.9058  -52.2664 H   0  0  0  0  0
   -4.8895   18.2045  -51.1854 H   0  0  0  0  0
   -0.2029   21.3298  -48.2596 H   0  0  0  0  0
   -0.7992   23.6385  -48.3896 H   0  0  0  0  0
   -2.4454   23.3109  -47.9385 H   0  0  0  0  0
   -1.1975   23.2811  -50.6711 H   0  0  0  0  0
   -2.7847   23.8273  -50.1979 H   0  0  0  0  0
   -3.6883   21.6481  -50.2251 H   0  0  0  0  0
   -2.4864   21.4436  -51.4201 H   0  0  0  0  0
   -3.4759   20.2397  -47.8300 H   0  0  0  0  0
   -3.3181   20.7365  -44.9516 H   0  0  0  0  0
   -5.4798   20.9588  -46.0454 H   0  0  0  0  0
   -5.5430   19.5184  -44.9458 H   0  0  0  0  0
   -7.0477   17.8163  -47.6286 H   0  0  0  0  0
   -7.2409   18.5099  -46.0152 H   0  0  0  0  0
   -1.9623   18.3623  -46.8727 H   0  0  0  0  0
   -2.5635   16.1368  -45.0243 H   0  0  0  0  0
   -2.4658   15.6726  -47.4301 H   0  0  0  0  0
   -0.7865   16.2623  -47.4876 H   0  0  0  0  0
   -1.1827   14.7920  -46.5644 H   0  0  0  0  0
   -1.3772   15.6548  -43.3069 H   0  0  0  0  0
    1.2606   16.9887  -42.9609 H   0  0  0  0  0
   -0.3506   15.2834  -41.0634 H   0  0  0  0  0
   -0.3317   17.0951  -41.1336 H   0  0  0  0  0
    1.9300   16.1680  -38.3703 H   0  0  0  0  0
    0.1999   16.1047  -38.7225 H   0  0  0  0  0
    2.7341   12.9162  -44.3906 H   0  0  0  0  0
    4.2725   14.0078  -45.9021 H   0  0  0  0  0
    5.4204   13.5991  -44.6760 H   0  0  0  0  0
    5.0894   16.1389  -45.3727 H   0  0  0  0  0
    5.3654   15.7316  -43.6990 H   0  0  0  0  0
    3.3361   16.9148  -43.4417 H   0  0  0  0  0
    2.7962   16.5635  -45.0278 H   0  0  0  0  0
    3.6761   14.6966  -41.5604 H   0  0  0  0  0
    5.0991   12.3924  -40.5055 H   0  0  0  0  0
    5.1509   13.6144  -38.4093 H   0  0  0  0  0
    3.8686   14.7450  -39.0153 H   0  0  0  0  0
    6.0946   16.9428  -40.5272 H   0  0  0  0  0
    4.4430   16.5560  -40.0334 H   0  0  0  0  0
    1.8362   12.9009  -41.1100 H   0  0  0  0  0
    1.1230   10.9782  -38.9399 H   0  0  0  0  0
    0.2170   13.1776  -38.3585 H   0  0  0  0  0
   -0.5697   13.2928  -39.9519 H   0  0  0  0  0
   -1.0992   12.0564  -38.7848 H   0  0  0  0  0
    1.9018   10.5774  -41.8067 H   0  0  0  0  0
   -0.6229    9.6286  -43.0257 H   0  0  0  0  0
    2.2360    9.2478  -43.9016 H   0  0  0  0  0
    1.1238   10.5833  -44.4204 H   0  0  0  0  0
    0.7133    8.4394  -47.2443 H   0  0  0  0  0
    1.6476    9.7981  -46.6100 H   0  0  0  0  0
    0.2844    5.8888  -40.5893 H   0  0  0  0  0
   -2.0260    5.8844  -39.8348 H   0  0  0  0  0
   -2.1405    4.5897  -40.9661 H   0  0  0  0  0
   -3.7037    6.7145  -41.2640 H   0  0  0  0  0
   -3.0171    5.9571  -42.6775 H   0  0  0  0  0
   -2.2042    8.1462  -43.0359 H   0  0  0  0  0
   -2.2315    8.5520  -41.3731 H   0  0  0  0  0
   -0.3746    6.1391  -43.9686 H   0  0  0  0  0
    0.1410    3.3296  -44.4297 H   0  0  0  0  0
    0.5039    4.0829  -46.8099 H   0  0  0  0  0
    0.2672    5.7818  -46.2240 H   0  0  0  0  0
   -3.0871    5.3640  -47.1903 H   0  0  0  0  0
   -1.5364    6.1380  -47.5330 H   0  0  0  0  0
    2.2021    5.8656  -43.4820 H   0  0  0  0  0
    4.5670    4.6073  -44.7670 H   0  0  0  0  0
    4.4555    7.0491  -44.7175 H   0  0  0  0  0
    4.3323    7.0182  -42.9413 H   0  0  0  0  0
    5.8203    6.4540  -43.7405 H   0  0  0  0  0
    5.8630    2.8303  -42.0467 H   0  0  0  0  0
    5.9703    3.2867  -43.7500 H   0  0  0  0  0
  1  2  2  0  0  0
  1  3  1  0  0  0
  1  4  1  0  0  0
  4  5  1  0  0  0
  5  6  1  0  0  0
  5  8  1  0  0  0
  6  7  2  0  0  0
  6 12  1  0  0  0
  8  9  1  0  0  0
  9 10  2  0  0  0
  9 11  1  0  0  0
 12 13  1  0  0  0
 12 18  1  0  0  0
 13 14  1  0  0  0
 13 16  1  0  0  0
 14 15  2  0  0  0
 14 19  1  0  0  0
 16 17  1  0  0  0
 17 18  1  0  0  0
 19 20  1  0  0  0
 20 21  1  0  0  0
 20 23  1  0  0  0
 21 22  2  0  0  0
 21 27  1  0  0  0
 23 24  1  0  0  0
 24 25  2  0  0  0
 24 26  1  0  0  0
 27 28  1  0  0  0
 28 29  1  0  0  0
 28 31  1  0  0  0
 29 30  2  0  0  0
 29 32  1  0  0  0
 32 33  1  0  0  0
 33 34  1  0  0  0
 33 36  1  0  0  0
 34 35  2  0  0  0
 34 40  1  0  0  0
 36 37  1  0  0  0
 37 38  2  0  0  0
 37 39  1  0  0  0
 40 41  1  0  0  0
 40 46  1  0  0  0
 41 42  1  0  0  0
 41 44  1  0  0  0
 42 43  2  0  0  0
 42 47  1  0  0  0
 44 45  1  0  0  0
 45 46  1  0  0  0
 47 48  1  0  0  0
 48 49  1  0  0  0
 48 51  1  0  0  0
 49 50  2  0  0  0
 49 55  1  0  0  0
 51 52  1  0  0  0
 52 53  2  0  0  0
 52 54  1  0  0  0
 55 56  1  0  0  0
 56 57  1  0  0  0
 56 59  1  0  0  0
 57 58  2  0  0  0
 57 60  1  0  0  0
 60 61  1  0  0  0
 61 62  1  0  0  0
 61 64  1  0  0  0
 62 63  2  0  0  0
 62 68  1  0  0  0
 64 65  1  0  0  0
 65 66  2  0  0  0
 65 67  1  0  0  0
 68 69  1  0  0  0
 68 74  1  0  0  0
 69 70  1  0  0  0
 69 72  1  0  0  0
 70 71  2  0  0  0
 70 75  1  0  0  0
 72 73  1  0  0  0
 73 74  1  0  0  0
 75 76  1  0  0  0
 76 77  1  0  0  0
 76 79  1  0  0  0
 77 78  2  0  0  0
 77 83  1  0  0  0
 79 80  1  0  0  0
 80 81  2  0  0  0
 80 82  1  0  0  0
 83 84  1  0  0  0
 84 85  1  0  0  0
 84 87  1  0  0  0
 85 86  2  0  0  0
 85 88  1  0  0  0
  3 89  1  0  0  0
  3 90  1  0  0  0
  3 91  1  0  0  0
  4 92  1  0  0  0
  5 93  1  0  0  0
  8 94  1  0  0  0
  8 95  1  0  0  0
 11 96  1  0  0  0
 11 97  1  0  0  0
 13 98  1  0  0  0
 16 99  1  0  0  0
 16100  1  0  0  0
 17101  1  0  0  0
 17102  1  0  0  0
 18103  1  0  0  0
 18104  1  0  0  0
 19105  1  0  0  0
 20106  1  0  0  0
 23107  1  0  0  0
 23108  1  0  0  0
 26109  1  0  0  0
 26110  1  0  0  0
 27111  1  0  0  0
 28112  1  0  0  0
 31113  1  0  0  0
 31114  1  0  0  0
 31115  1  0  0  0
 32116  1  0  0  0
 33117  1  0  0  0
 36118  1  0  0  0
 36119  1  0  0  0
 39120  1  0  0  0
 39121  1  0  0  0
 41122  1  0  0  0
 44123  1  0  0  0
 44124  1  0  0  0
 45125  1  0  0  0
 45126  1  0  0  0
 46127  1  0  0  0
 46128  1  0  0  0
 47129  1  0  0  0
 48130  1  0  0  0
 51131  1  0  0  0
 51132  1  0  0  0
 54133  1  0  0  0
 54134  1  0  0  0
 55135  1  0  0  0
 56136  1  0  0  0
 59137  1  0  0  0
 59138  1  0  0  0
 59139  1  0  0  0
 60140  1  0  0  0
 61141  1  0  0  0
 64142  1  0  0  0
 64143  1  0  0  0
 67144  1  0  0  0
 67145  1  0  0  0
 69146  1  0  0  0
 72147  1  0  0  0
 72148  1  0  0  0
 73149  1  0  0  0
 73150  1  0  0  0
 74151  1  0  0  0
 74152  1  0  0  0
 75153  1  0  0  0
 76154  1  0  0  0
 79155  1  0  0  0
 79156  1  0  0  0
 82157  1  0  0  0
 82158  1  0  0  0
 83159  1  0  0  0
 84160  1  0  0  0
 87161  1  0  0  0
 87162  1  0  0  0
 87163  1  0  0  0
 88164  1  0  0  0
 88165  1  0  0  0
M  END
$$$$
