5wbf_ligand
  -I-interpret- 

 12 11  0  0  0  0  0  0  0  0999 V2000
   36.2840   55.5150   13.9600 C   0  0  0  0  0
   36.3090   57.0190   13.9780 C   0  0  0  0  0
   37.4600   57.5990   14.7040 C   0  0  0  0  0
   35.3030   55.1160   13.3640 O   0  0  0  0  0
   36.3000   57.5350   12.6780 O   0  0  0  0  0
   37.1420   54.7970   14.5150 O   0  0  0  0  0
   35.4057   57.3047   14.5171 H   0  0  0  0  0
   38.3837   57.3323   14.1904 H   0  0  0  0  0
   37.3597   58.6840   14.7340 H   0  0  0  0  0
   37.4818   57.2066   15.7207 H   0  0  0  0  0
   35.5572   57.1669   12.1940 H   0  0  0  0  0
   37.8141   55.3542   14.9143 H   0  0  0  0  0
  1  2  1  0  0  0
  1  4  2  0  0  0
  1  6  1  0  0  0
  2  3  1  0  0  0
  2  5  1  0  0  0
  2  7  1  0  0  0
  3  8  1  0  0  0
  3  9  1  0  0  0
  3 10  1  0  0  0
  5 11  1  0  0  0
  6 12  1  0  0  0
M  END
$$$$
