5avi_ligand
  -I-interpret- 

 54 55  0  0  0  0  0  0  0  0999 V2000
  136.7300   24.4150   65.3770 C   0  0  0  0  0
  136.9460   23.1000   65.0310 C   0  0  0  0  0
  140.3280   17.3430   65.8300 C   0  0  0  0  0
  139.1740   17.3200   63.7610 C   0  0  0  0  0
  140.0430   18.6690   65.9920 C   0  0  0  0  0
  138.8670   18.6580   63.9110 C   0  0  0  0  0
  139.0360   24.8480   65.0220 C   0  0  0  0  0
  139.2570   23.5360   64.6700 C   0  0  0  0  0
  137.7870   25.2930   65.3740 C   0  0  0  0  0
  138.1930   22.6360   64.6730 C   0  0  0  0  0
  139.9180   16.6470   64.7120 C   0  0  0  0  0
  139.3100   19.3170   65.0370 C   0  0  0  0  0
  140.6920   23.3640   64.3490 C   0  0  0  0  0
  141.3930   14.5850   64.2630 C   0  0  0  0  0
  142.6770   15.3350   64.0620 C   0  0  0  0  0
  142.5270   20.9560   64.4520 C   0  0  0  0  0
  141.6340   20.5740   62.2370 C   0  0  0  0  0
  143.2270   22.3460   62.5700 C   0  0  0  0  0
  139.0630   14.4190   64.8390 C   0  0  0  0  0
  138.2210   21.1840   64.3460 C   0  0  0  0  0
  137.5900   26.7110   65.7450 C   0  0  0  0  0
  142.0570   21.6510   63.1950 C   0  0  0  0  0
  140.2030   15.2600   64.5590 N   0  0  0  0  0
  141.4770   24.0700   64.9680 O   0  0  0  0  0
  141.4290   13.3660   64.1550 O   0  0  0  0  0
  139.0880   20.6460   65.3140 O   0  0  0  0  0
  140.9380   22.5510   63.2680 O   0  0  0  0  0
  136.5360   27.2520   65.0870 F   0  0  0  0  0
  137.3650   26.8640   67.0750 F   0  0  0  0  0
  138.6660   27.4980   65.4860 F   0  0  0  0  0
  135.7314   24.7559   65.6503 H   0  0  0  0  0
  136.1059   22.4056   65.0406 H   0  0  0  0  0
  140.8931   16.8222   66.6030 H   0  0  0  0  0
  138.8238   16.7856   62.8779 H   0  0  0  0  0
  140.3961   19.2047   66.8731 H   0  0  0  0  0
  138.2853   19.1827   63.1531 H   0  0  0  0  0
  139.8712   25.5484   65.0211 H   0  0  0  0  0
  143.4102   15.0009   64.7961 H   0  0  0  0  0
  143.0541   15.1444   63.0572 H   0  0  0  0  0
  142.4961   16.4026   64.1872 H   0  0  0  0  0
  141.7094   20.3668   64.8672 H   0  0  0  0  0
  143.3637   20.3001   64.2118 H   0  0  0  0  0
  142.8457   21.7016   65.1804 H   0  0  0  0  0
  142.4826   19.9232   62.0262 H   0  0  0  0  0
  140.8282   19.9899   62.6817 H   0  0  0  0  0
  141.2853   21.0301   61.3105 H   0  0  0  0  0
  143.6307   23.0767   63.2708 H   0  0  0  0  0
  143.9952   21.6126   62.3250 H   0  0  0  0  0
  142.9036   22.8528   61.6608 H   0  0  0  0  0
  138.7374   14.5808   65.8666 H   0  0  0  0  0
  138.2516   14.6697   64.1557 H   0  0  0  0  0
  139.3425   13.3740   64.7053 H   0  0  0  0  0
  138.5603   20.9915   63.3282 H   0  0  0  0  0
  137.2303   20.7303   64.3742 H   0  0  0  0  0
  2  1  4  0  0  0
  9  1  4  0  0  0
 10  2  4  0  0  0
  5  3  4  0  0  0
  3 11  4  0  0  0
  6  4  4  0  0  0
  4 11  4  0  0  0
 12  5  4  0  0  0
 12  6  4  0  0  0
  8  7  4  0  0  0
  7  9  4  0  0  0
  8 10  4  0  0  0
 13  8  1  0  0  0
  9 21  1  0  0  0
 10 20  1  0  0  0
 11 23  1  0  0  0
 26 12  1  0  0  0
 13 24  2  0  0  0
 27 13  1  0  0  0
 14 15  1  0  0  0
 23 14  1  0  0  0
 14 25  2  0  0  0
 22 16  1  0  0  0
 22 17  1  0  0  0
 22 18  1  0  0  0
 23 19  1  0  0  0
 20 26  1  0  0  0
 21 28  1  0  0  0
 21 29  1  0  0  0
 21 30  1  0  0  0
 22 27  1  0  0  0
  1 31  1  0  0  0
  2 32  1  0  0  0
  3 33  1  0  0  0
  4 34  1  0  0  0
  5 35  1  0  0  0
  6 36  1  0  0  0
  7 37  1  0  0  0
 15 38  1  0  0  0
 15 39  1  0  0  0
 15 40  1  0  0  0
 16 41  1  0  0  0
 16 42  1  0  0  0
 16 43  1  0  0  0
 17 44  1  0  0  0
 17 45  1  0  0  0
 17 46  1  0  0  0
 18 47  1  0  0  0
 18 48  1  0  0  0
 18 49  1  0  0  0
 19 50  1  0  0  0
 19 51  1  0  0  0
 19 52  1  0  0  0
 20 53  1  0  0  0
 20 54  1  0  0  0
M  END
$$$$
