3db8_ligand
  -I-interpret- 

 51 54  0  0  0  0  0  0  0  0999 V2000
  118.7340   57.0660   42.6340 C   0  0  0  0  0
  119.0730   58.3360   43.1060 C   0  0  0  0  0
  119.8180   58.4830   44.2760 C   0  0  0  0  0
  119.8760   56.0900   44.5140 C   0  0  0  0  0
  119.1340   55.9260   43.3380 C   0  0  0  0  0
  118.8000   54.5410   42.8860 C   0  0  0  0  0
  117.7010   58.7540   47.1490 C   0  0  0  0  0
  115.7900   57.7220   45.8320 C   0  0  0  0  0
  114.2060   57.6080   48.1150 C   0  0  0  0  0
  115.4990   58.1240   48.1880 C   0  0  0  0  0
  116.2980   58.1870   47.0470 C   0  0  0  0  0
  113.6970   57.1510   46.9020 C   0  0  0  0  0
  114.4930   57.2010   45.7580 C   0  0  0  0  0
  113.9500   56.7110   44.4570 C   0  0  0  0  0
  114.7160   55.9710   43.4040 C   0  0  0  0  0
  113.8300   55.7250   42.3920 C   0  0  0  0  0
  114.2100   55.0470   41.2380 C   0  0  0  0  0
  116.0270   55.5400   43.3050 C   0  0  0  0  0
  116.4010   54.8600   42.1390 C   0  0  0  0  0
  113.1970   57.5350   49.5950 Cl  0  0  0  0  0
  117.7890   60.1280   46.4830 C   0  0  0  0  0
  117.3250   61.2490   47.4050 C   0  0  0  0  0
  116.1840   61.9040   46.8310 O   0  0  0  0  0
  112.5670   56.2490   42.7240 O   0  0  0  0  0
  112.6620   56.8650   44.0230 N   0  0  0  0  0
  115.4890   54.6320   41.1470 N   0  0  0  0  0
  117.6750   54.4160   41.9540 N   0  0  0  0  0
  120.0120   53.9160   42.2000 C   0  0  0  0  0
  120.2210   57.3570   44.9880 C   0  0  0  0  0
  118.1566   56.9633   41.7152 H   0  0  0  0  0
  118.7525   59.2202   42.5551 H   0  0  0  0  0
  120.0842   59.4782   44.6322 H   0  0  0  0  0
  120.1914   55.2084   45.0721 H   0  0  0  0  0
  118.5062   54.0338   43.8050 H   0  0  0  0  0
  118.3888   58.0764   46.6432 H   0  0  0  0  0
  117.9588   58.8599   48.2028 H   0  0  0  0  0
  116.4079   57.7651   44.9351 H   0  0  0  0  0
  115.8875   58.4801   49.1421 H   0  0  0  0  0
  112.6824   56.7565   46.8470 H   0  0  0  0  0
  113.4976   54.8579   40.4350 H   0  0  0  0  0
  116.7433   55.7231   44.1059 H   0  0  0  0  0
  117.1407   60.1210   45.6067 H   0  0  0  0  0
  118.8319   60.3124   46.2251 H   0  0  0  0  0
  118.1316   61.9712   47.5311 H   0  0  0  0  0
  117.0530   60.8312   48.3743 H   0  0  0  0  0
  115.8944   62.6094   47.4142 H   0  0  0  0  0
  117.8678   53.9448   41.0701 H   0  0  0  0  0
  119.8042   52.8686   41.9815 H   0  0  0  0  0
  120.2170   54.4485   41.2713 H   0  0  0  0  0
  120.8773   53.9862   42.8591 H   0  0  0  0  0
  120.7996   57.4633   45.9056 H   0  0  0  0  0
  1  2  4  0  0  0
  5  1  4  0  0  0
  2  3  4  0  0  0
 29  3  4  0  0  0
  5  4  4  0  0  0
  4 29  4  0  0  0
  6  5  1  0  0  0
 27  6  1  0  0  0
  6 28  1  0  0  0
 11  7  1  0  0  0
  7 21  1  0  0  0
  8 11  4  0  0  0
 13  8  4  0  0  0
  9 10  4  0  0  0
 12  9  4  0  0  0
  9 20  1  0  0  0
 11 10  4  0  0  0
 13 12  4  0  0  0
 14 13  1  0  0  0
 15 14  4  0  0  0
 14 25  4  0  0  0
 15 16  4  0  0  0
 18 15  4  0  0  0
 17 16  4  0  0  0
 16 24  4  0  0  0
 26 17  4  0  0  0
 19 18  4  0  0  0
 19 26  4  0  0  0
 19 27  1  0  0  0
 21 22  1  0  0  0
 22 23  1  0  0  0
 24 25  4  0  0  0
  1 30  1  0  0  0
  2 31  1  0  0  0
  3 32  1  0  0  0
  4 33  1  0  0  0
  6 34  1  0  0  0
  7 35  1  0  0  0
  7 36  1  0  0  0
  8 37  1  0  0  0
 10 38  1  0  0  0
 12 39  1  0  0  0
 17 40  1  0  0  0
 18 41  1  0  0  0
 21 42  1  0  0  0
 21 43  1  0  0  0
 22 44  1  0  0  0
 22 45  1  0  0  0
 23 46  1  0  0  0
 27 47  1  0  0  0
 28 48  1  0  0  0
 28 49  1  0  0  0
 28 50  1  0  0  0
 29 51  1  0  0  0
M  END
$$$$
