### 
### Created by X-TOOL on Mon Sep 10 21:13:27 2018
### 

@<TRIPOS>MOLECULE
5foo_ligand
   29    29     1     0     0
SMALL
GAST_HUCK


@<TRIPOS>ATOM
      1 C2         23.6760   -4.2210    6.5880 C.3       1 JAZ         0.0910
      2 C3         23.2250   -3.1180    5.6070 C.3       1 JAZ         0.1073
      3 C4         21.8640   -3.4550    5.0080 C.3       1 JAZ         0.0858
      4 C5         21.8610   -4.7920    4.2800 C.3       1 JAZ         0.0022
      5 C6         22.4100   -5.8840    5.1720 C.3       1 JAZ         0.0653
      6 C7         23.7600   -5.5160    5.7880 C.3       1 JAZ         0.0414
      7 C8         24.3800   -6.6750    6.5640 C.3       1 JAZ         0.0860
      8 O9         23.5060   -6.9730    7.6490 O.3       1 JAZ        -0.2756
      9 P10        24.1200   -7.5430    8.9990 P.3       1 JAZ         0.2007
     10 O11        22.9390   -7.6760    9.8940 O.co2     1 JAZ        -0.5537
     11 O12        25.2850   -6.7570    9.4360 O.co2     1 JAZ        -0.5537
     12 O13        24.6850   -8.8510    8.6540 O.co2     1 JAZ        -0.5537
     13 O14        21.4410   -6.2220    6.1730 O.3       1 JAZ        -0.3913
     14 O15        24.9840   -3.9440    7.1000 O.3       1 JAZ        -0.3887
     15 O16        23.1170   -1.9310    6.3520 O.3       1 JAZ        -0.3867
     16 O17        21.4480   -2.4190    4.1350 O.3       1 JAZ        -0.3891
     17 H1         22.9567   -4.3144    7.4150 H         1 JAZ         0.0624
     18 H2         23.9656   -3.0009    4.8022 H         1 JAZ         0.0645
     19 H3         21.1402   -3.5211    5.8337 H         1 JAZ         0.0621
     20 H4         22.4853   -4.7140    3.3777 H         1 JAZ         0.0316
     21 H5         20.8299   -5.0446    3.9918 H         1 JAZ         0.0316
     22 H6         22.5705   -6.7747    4.5468 H         1 JAZ         0.0598
     23 H7         24.4409   -5.3141    4.9480 H         1 JAZ         0.0377
     24 H8         25.3699   -6.3854    6.9465 H         1 JAZ         0.0617
     25 H9         24.4822   -7.5539    5.9105 H         1 JAZ         0.0617
     26 H10        21.7524   -6.9658    6.6753 H         1 JAZ         0.2098
     27 H11        24.9615   -3.1394    7.6047 H         1 JAZ         0.2099
     28 H12        22.8340   -1.2255    5.7823 H         1 JAZ         0.2100
     29 H13        22.0426   -2.3716    3.3956 H         1 JAZ         0.2099
@<TRIPOS>BOND
     1    1    2 1  
     2    1    6 1  
     3    1   14 1  
     4    2    3 1  
     5    2   15 1  
     6    3    4 1  
     7    3   16 1  
     8    4    5 1  
     9    5    6 1  
    10    5   13 1  
    11    6    7 1  
    12    7    8 1  
    13    8    9 1  
    14    9   10 ar 
    15    9   11 ar 
    16    9   12 ar 
    17    1   17 1  
    18    2   18 1  
    19    3   19 1  
    20    4   20 1  
    21    4   21 1  
    22    5   22 1  
    23    6   23 1  
    24    7   24 1  
    25    7   25 1  
    26   13   26 1  
    27   14   27 1  
    28   15   28 1  
    29   16   29 1  
@<TRIPOS>SUBSTRUCTURE
     1 JAZ         1

