5foo_ligand
  -I-interpret- 

 31 31  0  0  0  0  0  0  0  0999 V2000
   23.6760   -4.2210    6.5880 C   0  0  0  0  0
   23.2250   -3.1180    5.6070 C   0  0  0  0  0
   21.8640   -3.4550    5.0080 C   0  0  0  0  0
   21.8610   -4.7920    4.2800 C   0  0  0  0  0
   22.4100   -5.8840    5.1720 C   0  0  0  0  0
   23.7600   -5.5160    5.7880 C   0  0  0  0  0
   24.3800   -6.6750    6.5640 C   0  0  0  0  0
   23.5060   -6.9730    7.6490 O   0  0  0  0  0
   24.1200   -7.5430    8.9990 P   0  0  0  0  0
   22.9390   -7.6760    9.8940 O   0  0  0  0  0
   25.2850   -6.7570    9.4360 O   0  0  0  0  0
   24.6850   -8.8510    8.6540 O   0  0  0  0  0
   21.4410   -6.2220    6.1730 O   0  0  0  0  0
   24.9840   -3.9440    7.1000 O   0  0  0  0  0
   23.1170   -1.9310    6.3520 O   0  0  0  0  0
   21.4480   -2.4190    4.1350 O   0  0  0  0  0
   22.9747   -4.2818    7.4202 H   0  0  0  0  0
   23.9406   -3.0217    4.7905 H   0  0  0  0  0
   21.1596   -3.5420    5.8353 H   0  0  0  0  0
   22.4878   -4.7124    3.3918 H   0  0  0  0  0
   20.8365   -5.0422    4.0044 H   0  0  0  0  0
   22.5981   -6.7618    4.5539 H   0  0  0  0  0
   24.4516   -5.3203    4.9686 H   0  0  0  0  0
   25.3694   -6.4039    6.9322 H   0  0  0  0  0
   24.5020   -7.5458    5.9198 H   0  0  0  0  0
   22.5948   -6.8037   10.0996 H   0  0  0  0  0
   24.9996   -5.8744    9.6834 H   0  0  0  0  0
   20.6095   -6.4464    5.7490 H   0  0  0  0  0
   24.9612   -3.1310    7.6100 H   0  0  0  0  0
   23.9716   -1.7139    6.7317 H   0  0  0  0  0
   21.4546   -1.5828    4.6065 H   0  0  0  0  0
  1  2  1  0  0  0
  1  6  1  0  0  0
  1 14  1  0  0  0
  2  3  1  0  0  0
  2 15  1  0  0  0
  3  4  1  0  0  0
  3 16  1  0  0  0
  4  5  1  0  0  0
  5  6  1  0  0  0
  5 13  1  0  0  0
  6  7  1  0  0  0
  7  8  1  0  0  0
  8  9  1  0  0  0
  9 10  1  0  0  0
  9 11  1  0  0  0
  9 12  2  0  0  0
  1 17  1  0  0  0
  2 18  1  0  0  0
  3 19  1  0  0  0
  4 20  1  0  0  0
  4 21  1  0  0  0
  5 22  1  0  0  0
  6 23  1  0  0  0
  7 24  1  0  0  0
  7 25  1  0  0  0
 10 26  1  0  0  0
 11 27  1  0  0  0
 13 28  1  0  0  0
 14 29  1  0  0  0
 15 30  1  0  0  0
 16 31  1  0  0  0
M  END
$$$$
