1ayu_ligand
  -I-interpret- 

 86 87  0  0  0  0  0  0  0  0999 V2000
  -28.2820   -9.3100   55.9360 C   0  0  0  0  0
  -28.0700   -9.0330   57.3050 C   0  0  0  0  0
  -27.1110   -9.7750   58.0320 C   0  0  0  0  0
  -26.3680  -10.7820   57.4040 C   0  0  0  0  0
  -26.5940  -11.0480   56.0460 C   0  0  0  0  0
  -27.5420  -10.3210   55.3100 C   0  0  0  0  0
  -25.3120  -11.5370   58.1580 C   0  0  0  0  0
  -24.1910  -11.6800   57.2390 O   0  0  0  0  0
  -23.2880  -12.7900   57.2000 C   0  0  0  0  0
  -22.4970  -12.9940   58.1330 O   0  0  0  0  0
  -22.4530  -14.7080   55.8770 C   0  0  0  0  0
  -21.0470  -14.4730   56.4770 C   0  0  0  0  0
  -20.1070  -13.3840   55.9210 C   0  0  0  0  0
  -19.1460  -12.9150   57.0060 C   0  0  0  0  0
  -20.8270  -12.1730   55.2290 C   0  0  0  0  0
  -23.0030  -16.0560   56.3450 C   0  0  0  0  0
  -24.1580  -16.1470   56.7540 O   0  0  0  0  0
  -22.1920  -17.1740   56.3040 N   0  0  0  0  0
  -22.6240  -18.5340   56.7420 N   0  3  0  0  0
  -23.3360  -13.5520   56.1020 N   0  0  0  0  0
  -22.0890  -18.8520   58.1360 C   0  0  0  0  0
  -22.1020  -17.8040   58.7500 O   0  0  0  0  0
  -12.7780  -27.3050   59.7650 C   0  0  0  0  0
  -13.7500  -26.7990   60.6230 C   0  0  0  0  0
  -14.6140  -25.7910   60.1720 C   0  0  0  0  0
  -14.5160  -25.2870   58.8790 C   0  0  0  0  0
  -13.5360  -25.8050   58.0310 C   0  0  0  0  0
  -12.6670  -26.8090   58.4710 C   0  0  0  0  0
  -15.4520  -24.2110   58.4000 C   0  0  0  0  0
  -16.5230  -24.5800   57.4870 O   0  0  0  0  0
  -17.5580  -23.6630   57.0520 C   0  0  0  0  0
  -17.3200  -22.7410   56.2670 O   0  0  0  0  0
  -19.9480  -23.0860   57.1840 C   0  0  0  0  0
  -21.2310  -23.9020   57.3480 C   0  0  0  0  0
  -21.1050  -25.2520   58.0350 C   0  0  0  0  0
  -22.3150  -25.5920   58.8880 C   0  0  0  0  0
  -20.8400  -26.3110   56.9880 C   0  0  0  0  0
  -20.0660  -21.8310   58.0300 C   0  0  0  0  0
  -19.7360  -21.8580   59.2160 O   0  0  0  0  0
  -20.5580  -20.7030   57.4300 N   0  0  0  0  0
  -20.7040  -19.4360   58.2090 N   0  3  0  0  0
  -18.7790  -23.8960   57.5410 N   0  0  0  0  0
  -29.0181   -8.7395   55.3696 H   0  0  0  0  0
  -28.6442   -8.2494   57.7994 H   0  0  0  0  0
  -26.9489   -9.5617   59.0886 H   0  0  0  0  0
  -26.0225  -11.8343   55.5528 H   0  0  0  0  0
  -27.7019  -10.5423   54.2548 H   0  0  0  0  0
  -25.6797  -12.5086   58.4880 H   0  0  0  0  0
  -25.0165  -11.0066   59.0632 H   0  0  0  0  0
  -22.3883  -14.7796   54.7913 H   0  0  0  0  0
  -20.5175  -15.4036   56.2729 H   0  0  0  0  0
  -21.2500  -14.1464   57.4969 H   0  0  0  0  0
  -19.5490  -13.8603   55.1148 H   0  0  0  0  0
  -19.7145  -12.5045   57.8405 H   0  0  0  0  0
  -18.5498  -13.7596   57.3514 H   0  0  0  0  0
  -18.4884  -12.1465   56.5997 H   0  0  0  0  0
  -21.4169  -12.5355   54.3871 H   0  0  0  0  0
  -21.4821  -11.6820   55.9486 H   0  0  0  0  0
  -20.0803  -11.4635   54.8724 H   0  0  0  0  0
  -21.2406  -17.0632   55.9532 H   0  0  0  0  0
  -22.2574  -19.2225   56.0847 H   0  0  0  0  0
  -23.6433  -18.5624   56.7672 H   0  0  0  0  0
  -24.0207  -13.3198   55.3825 H   0  0  0  0  0
  -22.7286  -19.6332   58.5468 H   0  0  0  0  0
  -21.7722  -17.9514   59.6395 H   0  0  0  0  0
  -12.1039  -28.0901   60.1075 H   0  0  0  0  0
  -13.8390  -27.1838   61.6389 H   0  0  0  0  0
  -15.3747  -25.3959   60.8453 H   0  0  0  0  0
  -13.4467  -25.4228   57.0141 H   0  0  0  0  0
  -11.9034  -27.2021   57.7998 H   0  0  0  0  0
  -14.8258  -23.5168   57.8396 H   0  0  0  0  0
  -15.9540  -23.8492   59.2973 H   0  0  0  0  0
  -19.8112  -22.7891   56.1442 H   0  0  0  0  0
  -21.5814  -24.1131   56.3377 H   0  0  0  0  0
  -21.8854  -23.3044   57.9826 H   0  0  0  0  0
  -20.2658  -25.2094   58.7292 H   0  0  0  0  0
  -22.4374  -24.8337   59.6613 H   0  0  0  0  0
  -23.2051  -25.6187   58.2594 H   0  0  0  0  0
  -22.1677  -26.5667   59.3532 H   0  0  0  0  0
  -21.6671  -26.3335   56.2784 H   0  0  0  0  0
  -19.9146  -26.0765   56.4620 H   0  0  0  0  0
  -20.7481  -27.2834   57.4718 H   0  0  0  0  0
  -20.8263  -20.7275   56.4462 H   0  0  0  0  0
  -20.5099  -19.6503   59.1872 H   0  0  0  0  0
  -20.0590  -18.7528   57.8120 H   0  0  0  0  0
  -18.9037  -24.6717   58.1915 H   0  0  0  0  0
  2  1  4  0  0  0
  6  1  4  0  0  0
  3  2  4  0  0  0
  4  3  4  0  0  0
  4  5  4  0  0  0
  7  4  1  0  0  0
  5  6  4  0  0  0
  8  7  1  0  0  0
  9  8  1  0  0  0
  9 10  2  0  0  0
 20  9  1  0  0  0
 11 12  1  0  0  0
 16 11  1  0  0  0
 11 20  1  0  0  0
 12 13  1  0  0  0
 13 14  1  0  0  0
 13 15  1  0  0  0
 16 17  2  0  0  0
 18 16  1  0  0  0
 19 18  1  0  0  0
 21 19  1  0  0  0
 21 22  1  0  0  0
 41 21  1  0  0  0
 24 23  4  0  0  0
 28 23  4  0  0  0
 25 24  4  0  0  0
 26 25  4  0  0  0
 26 27  4  0  0  0
 29 26  1  0  0  0
 27 28  4  0  0  0
 30 29  1  0  0  0
 31 30  1  0  0  0
 31 32  2  0  0  0
 42 31  1  0  0  0
 33 34  1  0  0  0
 38 33  1  0  0  0
 33 42  1  0  0  0
 34 35  1  0  0  0
 35 36  1  0  0  0
 35 37  1  0  0  0
 38 39  2  0  0  0
 40 38  1  0  0  0
 40 41  1  0  0  0
  1 43  1  0  0  0
  2 44  1  0  0  0
  3 45  1  0  0  0
  5 46  1  0  0  0
  6 47  1  0  0  0
  7 48  1  0  0  0
  7 49  1  0  0  0
 11 50  1  0  0  0
 12 51  1  0  0  0
 12 52  1  0  0  0
 13 53  1  0  0  0
 14 54  1  0  0  0
 14 55  1  0  0  0
 14 56  1  0  0  0
 15 57  1  0  0  0
 15 58  1  0  0  0
 15 59  1  0  0  0
 18 60  1  0  0  0
 19 61  1  0  0  0
 19 62  1  0  0  0
 20 63  1  0  0  0
 21 64  1  0  0  0
 22 65  1  0  0  0
 23 66  1  0  0  0
 24 67  1  0  0  0
 25 68  1  0  0  0
 27 69  1  0  0  0
 28 70  1  0  0  0
 29 71  1  0  0  0
 29 72  1  0  0  0
 33 73  1  0  0  0
 34 74  1  0  0  0
 34 75  1  0  0  0
 35 76  1  0  0  0
 36 77  1  0  0  0
 36 78  1  0  0  0
 36 79  1  0  0  0
 37 80  1  0  0  0
 37 81  1  0  0  0
 37 82  1  0  0  0
 40 83  1  0  0  0
 41 84  1  0  0  0
 41 85  1  0  0  0
 42 86  1  0  0  0
M  END
$$$$
