4hej_ligand
  -I-interpret- 

 58 61  0  0  0  0  0  0  0  0999 V2000
   12.0210   -3.6210    1.0730 C   0  0  0  0  0
   11.4890   -2.2390    0.9260 C   0  0  0  0  0
   11.0490   -1.5350    1.9670 C   0  0  0  0  0
   10.5530   -0.2600    1.8270 N   0  0  0  0  0
   10.5260    0.3780    0.5950 C   0  0  0  0  0
   10.1830    1.5530    0.4900 O   0  0  0  0  0
   10.9020   -0.3320   -0.4830 N   0  0  0  0  0
   11.4090   -1.5830   -0.4140 C   0  0  0  0  0
   11.8020   -2.1860   -1.4120 O   0  0  0  0  0
   10.0680    0.4530    3.0050 C   0  0  0  0  0
    9.1670   -0.3900    3.9170 C   0  0  0  0  0
    8.6640    0.4130    5.1000 C   0  0  0  0  0
    9.8360    0.9590    5.8930 C   0  0  0  0  0
   10.6450    1.8310    4.9800 N   0  3  0  0  0
   11.1830    1.1650    3.7490 C   0  0  0  0  0
   11.6260    2.7310    5.6730 C   0  0  0  0  0
   12.8470    2.0370    6.1960 C   0  0  0  0  0
   12.8810    1.5860    7.5050 C   0  0  0  0  0
   13.9880    0.9260    7.9930 C   0  0  0  0  0
   15.0850    0.7290    7.1740 C   0  0  0  0  0
   15.0440    1.1660    5.8640 C   0  0  0  0  0
   13.9390    1.8300    5.3730 C   0  0  0  0  0
   16.1520    0.9850    5.0490 O   0  0  0  0  0
   16.2060   -0.1230    4.2200 C   0  0  0  0  0
   15.3830   -1.2350    4.3050 C   0  0  0  0  0
   15.5570   -2.2880    3.4220 C   0  0  0  0  0
   16.5470   -2.2310    2.4610 C   0  0  0  0  0
   17.3530   -1.1050    2.3780 C   0  0  0  0  0
   17.1860   -0.0580    3.2580 C   0  0  0  0  0
   18.4270   -1.0130    1.3580 C   0  0  0  0  0
   17.9990   -1.3290    0.1160 F   0  0  0  0  0
   19.4430   -1.8510    1.6600 F   0  0  0  0  0
   18.9860    0.2180    1.2090 F   0  0  0  0  0
   12.8836   -3.6079    1.7392 H   0  0  0  0  0
   11.2469   -4.2643    1.4913 H   0  0  0  0  0
   12.3208   -3.9994    0.0957 H   0  0  0  0  0
   11.0830   -1.9828    2.9602 H   0  0  0  0  0
   10.7991    0.0967   -1.4028 H   0  0  0  0  0
    9.4097    1.2337    2.6239 H   0  0  0  0  0
    9.7487   -1.2312    4.2939 H   0  0  0  0  0
    8.3069   -0.7251    3.3373 H   0  0  0  0  0
    8.0658   -0.2325    5.7430 H   0  0  0  0  0
    8.0582    1.2436    4.7378 H   0  0  0  0  0
   10.4478    0.1410    6.2734 H   0  0  0  0  0
    9.4783    1.5355    6.7462 H   0  0  0  0  0
    9.9395    2.4666    4.6076 H   0  0  0  0  0
   11.6192    1.9217    3.0969 H   0  0  0  0  0
   11.9386    0.4355    4.0405 H   0  0  0  0  0
   11.1115    3.1608    6.5324 H   0  0  0  0  0
   11.9649    3.4595    4.9365 H   0  0  0  0  0
   12.0232    1.7548    8.1560 H   0  0  0  0  0
   13.9990    0.5608    9.0199 H   0  0  0  0  0
   15.9756    0.2325    7.5594 H   0  0  0  0  0
   13.9266    2.1889    4.3439 H   0  0  0  0  0
   14.6018   -1.2807    5.0638 H   0  0  0  0  0
   14.9110   -3.1636    3.4859 H   0  0  0  0  0
   16.6939   -3.0639    1.7733 H   0  0  0  0  0
   17.8292    0.8195    3.1916 H   0  0  0  0  0
  1  2  1  0  0  0
  2  3  2  0  0  0
  2  8  1  0  0  0
  3  4  1  0  0  0
  4  5  1  0  0  0
  4 10  1  0  0  0
  5  6  2  0  0  0
  5  7  1  0  0  0
  7  8  1  0  0  0
  8  9  2  0  0  0
 10 11  1  0  0  0
 10 15  1  0  0  0
 11 12  1  0  0  0
 12 13  1  0  0  0
 13 14  1  0  0  0
 14 15  1  0  0  0
 14 16  1  0  0  0
 16 17  1  0  0  0
 17 18  4  0  0  0
 17 22  4  0  0  0
 18 19  4  0  0  0
 19 20  4  0  0  0
 20 21  4  0  0  0
 21 22  4  0  0  0
 21 23  1  0  0  0
 23 24  1  0  0  0
 24 25  4  0  0  0
 24 29  4  0  0  0
 25 26  4  0  0  0
 26 27  4  0  0  0
 27 28  4  0  0  0
 28 29  4  0  0  0
 28 30  1  0  0  0
 30 31  1  0  0  0
 30 32  1  0  0  0
 30 33  1  0  0  0
  1 34  1  0  0  0
  1 35  1  0  0  0
  1 36  1  0  0  0
  3 37  1  0  0  0
  7 38  1  0  0  0
 10 39  1  0  0  0
 11 40  1  0  0  0
 11 41  1  0  0  0
 12 42  1  0  0  0
 12 43  1  0  0  0
 13 44  1  0  0  0
 13 45  1  0  0  0
 14 46  1  0  0  0
 15 47  1  0  0  0
 15 48  1  0  0  0
 16 49  1  0  0  0
 16 50  1  0  0  0
 18 51  1  0  0  0
 19 52  1  0  0  0
 20 53  1  0  0  0
 22 54  1  0  0  0
 25 55  1  0  0  0
 26 56  1  0  0  0
 27 57  1  0  0  0
 29 58  1  0  0  0
M  END
$$$$
