2w1g_ligand
  -I-interpret- 

 50 54  0  0  0  0  0  0  0  0999 V2000
    6.1710   28.2030    7.2540 O   0  0  0  0  0
    5.9150   28.8070    6.2220 C   0  0  0  0  0
    6.2340   28.3340    5.0000 N   0  0  0  0  0
    5.6380   28.8640    3.8120 C   0  0  0  0  0
    6.4730   29.7030    2.8950 C   0  0  0  0  0
    6.0620   28.3200    2.4850 C   0  0  0  0  0
    5.2900   29.9990    6.2240 N   0  0  0  0  0
    4.8420   30.5410    7.3690 C   0  0  0  0  0
    5.1010   30.1370    8.6050 C   0  0  0  0  0
    4.4400   30.9690    9.4420 N   0  0  0  0  0
    3.7580   31.9090    8.7630 N   0  0  0  0  0
    4.0170   31.6160    7.4790 C   0  0  0  0  0
    3.4550   32.4060    6.4220 C   0  0  0  0  0
    2.9470   33.6180    6.6010 N   0  0  0  0  0
    2.5130   34.0850    5.4340 C   0  0  0  0  0
    1.9200   35.2810    5.1510 C   0  0  0  0  0
    1.5350   35.5880    3.8730 C   0  0  0  0  0
    0.9010   36.9170    3.5910 C   0  0  0  0  0
    0.4350   37.0110    2.1890 N   0  3  0  0  0
   -0.7750   36.2040    2.0400 C   0  0  0  0  0
   -1.3030   36.2860    0.6220 C   0  0  0  0  0
   -1.5110   37.6530    0.2250 O   0  0  0  0  0
   -0.2940   38.4080    0.3470 C   0  0  0  0  0
    0.1910   38.4160    1.7750 C   0  0  0  0  0
    1.7620   34.6530    2.8600 C   0  0  0  0  0
    2.3690   33.4300    3.1590 C   0  0  0  0  0
    2.7500   33.1470    4.4710 C   0  0  0  0  0
    3.3590   32.0560    5.1010 N   0  0  0  0  0
    6.9166   27.5802    4.9207 H   0  0  0  0  0
    4.6829   28.9960    4.3204 H   0  0  0  0  0
    7.3777   30.3095    2.9370 H   0  0  0  0  0
    6.4748   30.7123    2.4834 H   0  0  0  0  0
    5.6149   27.8210    1.6252 H   0  0  0  0  0
    6.5194   27.4175    2.0797 H   0  0  0  0  0
    5.1546   30.4976    5.3445 H   0  0  0  0  0
    5.7284   29.2933    8.8925 H   0  0  0  0  0
    1.7507   36.0008    5.9518 H   0  0  0  0  0
    1.6441   37.6963    3.7602 H   0  0  0  0  0
    0.0401   37.0348    4.2490 H   0  0  0  0  0
    1.1677   36.6532    1.5762 H   0  0  0  0  0
   -1.5367   36.5822    2.7218 H   0  0  0  0  0
   -0.5356   35.1651    2.2671 H   0  0  0  0  0
   -2.2564   35.7599    0.5739 H   0  0  0  0  0
   -0.5718   35.8353   -0.0491 H   0  0  0  0  0
   -0.4849   39.4348    0.0351 H   0  0  0  0  0
    0.4692   37.9479   -0.2806 H   0  0  0  0  0
    1.1105   38.9958    1.8556 H   0  0  0  0  0
   -0.5570   38.8733    2.4226 H   0  0  0  0  0
    1.4654   34.8775    1.8354 H   0  0  0  0  0
    2.5442   32.6993    2.3694 H   0  0  0  0  0
  1  2  2  0  0  0
  2  3  1  0  0  0
  2  7  1  0  0  0
  3  4  1  0  0  0
  4  5  1  0  0  0
  4  6  1  0  0  0
  5  6  1  0  0  0
  7  8  1  0  0  0
  8  9  4  0  0  0
  8 12  4  0  0  0
  9 10  4  0  0  0
 10 11  4  0  0  0
 11 12  4  0  0  0
 12 13  1  0  0  0
 13 14  4  0  0  0
 13 28  4  0  0  0
 14 15  4  0  0  0
 15 16  4  0  0  0
 15 27  4  0  0  0
 16 17  4  0  0  0
 17 18  1  0  0  0
 17 25  4  0  0  0
 18 19  1  0  0  0
 19 20  1  0  0  0
 19 24  1  0  0  0
 20 21  1  0  0  0
 21 22  1  0  0  0
 22 23  1  0  0  0
 23 24  1  0  0  0
 25 26  4  0  0  0
 26 27  4  0  0  0
 27 28  4  0  0  0
  3 29  1  0  0  0
  4 30  1  0  0  0
  5 31  1  0  0  0
  5 32  1  0  0  0
  6 33  1  0  0  0
  6 34  1  0  0  0
  7 35  1  0  0  0
  9 36  1  0  0  0
 16 37  1  0  0  0
 18 38  1  0  0  0
 18 39  1  0  0  0
 19 40  1  0  0  0
 20 41  1  0  0  0
 20 42  1  0  0  0
 21 43  1  0  0  0
 21 44  1  0  0  0
 23 45  1  0  0  0
 23 46  1  0  0  0
 24 47  1  0  0  0
 24 48  1  0  0  0
 25 49  1  0  0  0
 26 50  1  0  0  0
M  END
$$$$
