3rbq_ligand
  -I-interpret- 

109108  0  0  0  0  0  0  0  0999 V2000
   39.5390  -21.1040  -23.3000 O   0  0  0  0  0
   40.1830  -20.2730  -22.6280 C   0  0  0  0  0
   39.6150  -19.2410  -21.6310 C   0  0  0  0  0
   38.2340  -18.6840  -21.9820 C   0  0  0  0  0
   37.9390  -17.4160  -21.1330 C   0  0  0  0  0
   36.5190  -16.9510  -21.2900 C   0  0  0  0  0
   36.1970  -15.8460  -20.2940 C   0  0  0  0  0
   36.8760  -14.5720  -20.7560 C   0  0  0  0  0
   36.3790  -13.3770  -20.0380 C   0  0  0  0  0
   37.3330  -12.2000  -20.1660 C   0  0  0  0  0
   37.2380  -11.4530  -21.4790 C   0  0  0  0  0
   37.9040  -10.1020  -21.2260 C   0  0  0  0  0
   37.6320   -9.1670  -22.3930 C   0  0  0  0  0
   41.6250  -20.2390  -22.6840 N   0  0  0  0  0
   42.3050  -21.2680  -23.4580 C   0  0  0  0  0
   42.1630  -22.6680  -22.8930 C   0  0  0  0  0
   42.3260  -23.5850  -23.6700 O   0  0  0  0  0
   41.7980  -22.8160  -21.6010 N   0  0  0  0  0
   41.4580  -24.1240  -20.9500 C   0  0  0  0  0
   40.3230  -24.8750  -21.6900 C   0  0  0  0  0
   40.2530  -26.1070  -21.6400 O   0  0  0  0  0
   41.0500  -23.9310  -19.4250 C   0  0  0  0  0
   39.4770  -24.1260  -22.4040 N   0  0  0  0  0
   38.4580  -24.7580  -23.2400 C   0  0  0  0  0
   39.0000  -25.5750  -24.4530 C   0  0  0  0  0
   38.2530  -26.3200  -25.0250 O   0  0  0  0  0
   40.2440  -25.3490  -24.8770 N   0  0  0  0  0
   40.8560  -26.0210  -26.0510 C   0  0  0  0  0
   41.1000  -27.4830  -25.7370 C   0  0  0  0  0
   40.8700  -28.3430  -26.5730 O   0  0  0  0  0
   42.1880  -25.3990  -26.4140 C   0  0  0  0  0
   41.5780  -27.7160  -24.5180 N   0  0  0  0  0
   42.1670  -28.9770  -24.0940 C   0  0  0  0  0
   40.9790  -29.8480  -23.8000 C   0  0  0  0  0
   40.9420  -31.0120  -24.2260 O   0  0  0  0  0
   43.0120  -28.7350  -22.8370 C   0  0  0  0  0
   43.7740  -29.8580  -22.3740 O   0  0  0  0  0
   39.9880  -29.2390  -23.1220 N   0  0  0  0  0
   38.7500  -29.9210  -22.7170 C   0  0  0  0  0
   37.9330  -30.4790  -23.9290 C   0  0  0  0  0
   36.9990  -31.2660  -23.7430 O   0  0  0  0  0
   37.9140  -29.0040  -21.7810 C   0  0  0  0  0
   38.3140  -30.0610  -25.1480 N   0  0  0  0  0
   37.9530  -30.7260  -26.4330 C   0  0  0  0  0
   39.1970  -31.3780  -27.0770 C   0  0  0  0  0
   39.1500  -32.5170  -27.5940 O   0  0  0  0  0
   37.3690  -29.7030  -27.4150 C   0  0  0  0  0
   36.8990  -30.2600  -28.7810 C   0  0  0  0  0
   35.3900  -30.6250  -28.8490 C   0  0  0  0  0
   34.7880  -31.0350  -27.8300 O   0  0  0  0  0
   34.8030  -30.5120  -29.9470 O   0  0  0  0  0
   40.2874  -30.7466  -27.0819 O   0  0  0  0  0
   40.3022  -18.3949  -21.6322 H   0  0  0  0  0
   39.5105  -19.7550  -20.6755 H   0  0  0  0  0
   37.4784  -19.4405  -21.7702 H   0  0  0  0  0
   38.2126  -18.4199  -23.0393 H   0  0  0  0  0
   38.5986  -16.6175  -21.4727 H   0  0  0  0  0
   38.1028  -17.6626  -20.0840 H   0  0  0  0  0
   35.8518  -17.7933  -21.1073 H   0  0  0  0  0
   36.3866  -16.5626  -22.2998 H   0  0  0  0  0
   36.5563  -16.1215  -19.3025 H   0  0  0  0  0
   35.1188  -15.6953  -20.2400 H   0  0  0  0  0
   36.6630  -14.4414  -21.8170 H   0  0  0  0  0
   37.9433  -14.6665  -20.5560 H   0  0  0  0  0
   36.2859  -13.6277  -18.9813 H   0  0  0  0  0
   35.4222  -13.0900  -20.4741 H   0  0  0  0  0
   38.3443  -12.6012  -20.1003 H   0  0  0  0  0
   37.0740  -11.4930  -19.3779 H   0  0  0  0  0
   36.2026  -11.3353  -21.7986 H   0  0  0  0  0
   37.7297  -11.9969  -22.2855 H   0  0  0  0  0
   38.9796  -10.2445  -21.1216 H   0  0  0  0  0
   37.4988   -9.6659  -20.3129 H   0  0  0  0  0
   38.0350   -9.6025  -23.3074 H   0  0  0  0  0
   36.5566   -9.0249  -22.5000 H   0  0  0  0  0
   38.1100   -8.2055  -22.2056 H   0  0  0  0  0
   42.1523  -19.5152  -22.1956 H   0  0  0  0  0
   43.3676  -21.0252  -23.4515 H   0  0  0  0  0
   41.8535  -21.2747  -24.4501 H   0  0  0  0  0
   41.7500  -21.9756  -21.0250 H   0  0  0  0  0
   42.3637  -24.7279  -21.0061 H   0  0  0  0  0
   41.8814  -23.4817  -18.8818 H   0  0  0  0  0
   40.1790  -23.2787  -19.3630 H   0  0  0  0  0
   40.8110  -24.9008  -18.9886 H   0  0  0  0  0
   39.5427  -23.1089  -22.3653 H   0  0  0  0  0
   37.8513  -23.9524  -23.6536 H   0  0  0  0  0
   37.9261  -25.4639  -22.6021 H   0  0  0  0  0
   40.8096  -24.6732  -24.3634 H   0  0  0  0  0
   40.1641  -25.9092  -26.8858 H   0  0  0  0  0
   42.0421  -24.3461  -26.6554 H   0  0  0  0  0
   42.8714  -25.4881  -25.5695 H   0  0  0  0  0
   42.6060  -25.9166  -27.2774 H   0  0  0  0  0
   41.5284  -26.9603  -23.8348 H   0  0  0  0  0
   42.8260  -29.4315  -24.8338 H   0  0  0  0  0
   42.3130  -28.4861  -22.0385 H   0  0  0  0  0
   43.7322  -27.9583  -23.0942 H   0  0  0  0  0
   44.2654  -29.6077  -21.5882 H   0  0  0  0  0
   40.1017  -28.2554  -22.8771 H   0  0  0  0  0
   39.0274  -30.8078  -22.1472 H   0  0  0  0  0
   38.4979  -28.7653  -20.8921 H   0  0  0  0  0
   37.6596  -28.0844  -22.3079 H   0  0  0  0  0
   37.0003  -29.5215  -21.4889 H   0  0  0  0  0
   38.8950  -29.2242  -25.1982 H   0  0  0  0  0
   37.2116  -31.4948  -26.2156 H   0  0  0  0  0
   38.1708  -28.9975  -27.6330 H   0  0  0  0  0
   36.4831  -29.2893  -26.9333 H   0  0  0  0  0
   37.4562  -31.1801  -28.9571 H   0  0  0  0  0
   37.0693  -29.4760  -29.5189 H   0  0  0  0  0
   35.3958  -31.0554  -27.0872 H   0  0  0  0  0
   40.1655  -29.8964  -26.6530 H   0  0  0  0  0
  1  2  2  0  0  0
  2  3  1  0  0  0
  2 14  1  0  0  0
  3  4  1  0  0  0
  4  5  1  0  0  0
  5  6  1  0  0  0
  6  7  1  0  0  0
  7  8  1  0  0  0
  8  9  1  0  0  0
  9 10  1  0  0  0
 10 11  1  0  0  0
 11 12  1  0  0  0
 12 13  1  0  0  0
 14 15  1  0  0  0
 15 16  1  0  0  0
 16 17  2  0  0  0
 16 18  1  0  0  0
 18 19  1  0  0  0
 19 20  1  0  0  0
 19 22  1  0  0  0
 20 21  2  0  0  0
 20 23  1  0  0  0
 23 24  1  0  0  0
 24 25  1  0  0  0
 25 26  2  0  0  0
 25 27  1  0  0  0
 27 28  1  0  0  0
 28 29  1  0  0  0
 28 31  1  0  0  0
 29 30  2  0  0  0
 29 32  1  0  0  0
 32 33  1  0  0  0
 33 34  1  0  0  0
 33 36  1  0  0  0
 34 35  2  0  0  0
 34 38  1  0  0  0
 36 37  1  0  0  0
 38 39  1  0  0  0
 39 40  1  0  0  0
 39 42  1  0  0  0
 40 41  2  0  0  0
 40 43  1  0  0  0
 43 44  1  0  0  0
 44 45  1  0  0  0
 44 47  1  0  0  0
 45 46  2  0  0  0
 47 48  1  0  0  0
 48 49  1  0  0  0
 49 50  1  0  0  0
 49 51  2  0  0  0
 45 52  1  0  0  0
  3 53  1  0  0  0
  3 54  1  0  0  0
  4 55  1  0  0  0
  4 56  1  0  0  0
  5 57  1  0  0  0
  5 58  1  0  0  0
  6 59  1  0  0  0
  6 60  1  0  0  0
  7 61  1  0  0  0
  7 62  1  0  0  0
  8 63  1  0  0  0
  8 64  1  0  0  0
  9 65  1  0  0  0
  9 66  1  0  0  0
 10 67  1  0  0  0
 10 68  1  0  0  0
 11 69  1  0  0  0
 11 70  1  0  0  0
 12 71  1  0  0  0
 12 72  1  0  0  0
 13 73  1  0  0  0
 13 74  1  0  0  0
 13 75  1  0  0  0
 14 76  1  0  0  0
 15 77  1  0  0  0
 15 78  1  0  0  0
 18 79  1  0  0  0
 19 80  1  0  0  0
 22 81  1  0  0  0
 22 82  1  0  0  0
 22 83  1  0  0  0
 23 84  1  0  0  0
 24 85  1  0  0  0
 24 86  1  0  0  0
 27 87  1  0  0  0
 28 88  1  0  0  0
 31 89  1  0  0  0
 31 90  1  0  0  0
 31 91  1  0  0  0
 32 92  1  0  0  0
 33 93  1  0  0  0
 36 94  1  0  0  0
 36 95  1  0  0  0
 37 96  1  0  0  0
 38 97  1  0  0  0
 39 98  1  0  0  0
 42 99  1  0  0  0
 42100  1  0  0  0
 42101  1  0  0  0
 43102  1  0  0  0
 44103  1  0  0  0
 47104  1  0  0  0
 47105  1  0  0  0
 48106  1  0  0  0
 48107  1  0  0  0
 50108  1  0  0  0
 52109  1  0  0  0
M  END
$$$$
