### 
### Created by X-TOOL on Mon Sep 10 21:13:06 2018
### 

@<TRIPOS>MOLECULE
3rbq_ligand
  107   106     1     0     0
SMALL
GAST_HUCK


@<TRIPOS>ATOM
      1 O1         39.5390  -21.1040  -23.3000 O.2       1 DAO        -0.3969
      2 C1         40.1830  -20.2730  -22.6280 C.2       1 DAO         0.1780
      3 C2         39.6150  -19.2410  -21.6310 C.3       1 DAO         0.0374
      4 C3         38.2340  -18.6840  -21.9820 C.3       1 DAO        -0.0361
      5 C4         37.9390  -17.4160  -21.1330 C.3       1 DAO        -0.0510
      6 C5         36.5190  -16.9510  -21.2900 C.3       1 DAO        -0.0529
      7 C6         36.1970  -15.8460  -20.2940 C.3       1 DAO        -0.0531
      8 C7         36.8760  -14.5720  -20.7560 C.3       1 DAO        -0.0531
      9 C8         36.3790  -13.3770  -20.0380 C.3       1 DAO        -0.0531
     10 C9         37.3330  -12.2000  -20.1660 C.3       1 DAO        -0.0531
     11 C10        37.2380  -11.4530  -21.4790 C.3       1 DAO        -0.0533
     12 C11        37.9040  -10.1020  -21.2260 C.3       1 DAO        -0.0559
     13 C12        37.6320   -9.1670  -22.3930 C.3       1 DAO        -0.0653
     14 N          41.6250  -20.2390  -22.6840 N.am      1 GLY        -0.2683
     15 CA         42.3050  -21.2680  -23.4580 C.3       1 GLY         0.1201
     16 C          42.1630  -22.6680  -22.8930 C.2       1 GLY         0.2007
     17 O          42.3260  -23.5850  -23.6700 O.2       1 GLY        -0.3947
     18 N          41.7980  -22.8160  -21.6010 N.am      1 ALA        -0.2642
     19 CA         41.4580  -24.1240  -20.9500 C.3       1 ALA         0.1282
     20 C          40.3230  -24.8750  -21.6900 C.2       1 ALA         0.2034
     21 O          40.2530  -26.1070  -21.6400 O.2       1 ALA        -0.3944
     22 CB         41.0500  -23.9310  -19.4250 C.3       1 ALA        -0.0244
     23 N          39.4770  -24.1260  -22.4040 N.am      1 GLY        -0.2664
     24 CA         38.4580  -24.7580  -23.2400 C.3       1 GLY         0.1201
     25 C          39.0000  -25.5750  -24.4530 C.2       1 GLY         0.2007
     26 O          38.2530  -26.3200  -25.0250 O.2       1 GLY        -0.3947
     27 N          40.2440  -25.3490  -24.8770 N.am      1 ALA        -0.2642
     28 CA         40.8560  -26.0210  -26.0510 C.3       1 ALA         0.1282
     29 C          41.1000  -27.4830  -25.7370 C.2       1 ALA         0.2037
     30 O          40.8700  -28.3430  -26.5730 O.2       1 ALA        -0.3944
     31 CB         42.1880  -25.3990  -26.4140 C.3       1 ALA        -0.0244
     32 N          41.5780  -27.7160  -24.5180 N.am      1 SER        -0.2616
     33 CA         42.1670  -28.9770  -24.0940 C.3       1 SER         0.1539
     34 C          40.9790  -29.8480  -23.8000 C.2       1 SER         0.2062
     35 O          40.9420  -31.0120  -24.2260 O.2       1 SER        -0.3943
     36 CB         43.0120  -28.7350  -22.8370 C.3       1 SER         0.0843
     37 OG         43.7740  -29.8580  -22.3740 O.3       1 SER        -0.3903
     38 N          39.9880  -29.2390  -23.1220 N.am      1 ALA        -0.2639
     39 CA         38.7500  -29.9210  -22.7170 C.3       1 ALA         0.1282
     40 C          37.9330  -30.4790  -23.9290 C.2       1 ALA         0.2031
     41 O          36.9990  -31.2660  -23.7430 O.2       1 ALA        -0.3944
     42 CB         37.9140  -29.0040  -21.7810 C.3       1 ALA        -0.0244
     43 N          38.3140  -30.0610  -25.1480 N.am      1 GLU        -0.2694
     44 CA         37.9530  -30.7260  -26.4330 C.3       1 GLU         0.0959
     45 C          39.1970  -31.3780  -27.0770 C.2       1 GLU         0.0602
     46 O          39.1500  -32.5170  -27.5940 O.co2     1 GLU        -0.5666
     47 CB         37.3690  -29.7030  -27.4150 C.3       1 GLU        -0.0064
     48 CG         36.8990  -30.2600  -28.7810 C.3       1 GLU         0.0038
     49 CD         35.3900  -30.6250  -28.8490 C.2       1 GLU         0.0350
     50 OE1        34.7880  -31.0350  -27.8300 O.co2     1 GLU        -0.5690
     51 OE2        34.8030  -30.5120  -29.9470 O.co2     1 GLU        -0.5690
     52 H          40.3022  -18.3949  -21.6322 H         1 DAO         0.0502
     53 H          39.5105  -19.7550  -20.6755 H         1 DAO         0.0502
     54 H          37.4784  -19.4405  -21.7702 H         1 DAO         0.0290
     55 H          38.2126  -18.4199  -23.0393 H         1 DAO         0.0290
     56 H          38.5986  -16.6175  -21.4727 H         1 DAO         0.0267
     57 H          38.1028  -17.6626  -20.0840 H         1 DAO         0.0267
     58 H          35.8518  -17.7933  -21.1073 H         1 DAO         0.0265
     59 H          36.3866  -16.5626  -22.2998 H         1 DAO         0.0265
     60 H          36.5563  -16.1215  -19.3025 H         1 DAO         0.0265
     61 H          35.1188  -15.6953  -20.2400 H         1 DAO         0.0265
     62 H          36.6630  -14.4414  -21.8170 H         1 DAO         0.0265
     63 H          37.9433  -14.6665  -20.5560 H         1 DAO         0.0265
     64 H          36.2859  -13.6277  -18.9813 H         1 DAO         0.0265
     65 H          35.4222  -13.0900  -20.4741 H         1 DAO         0.0265
     66 H          38.3443  -12.6012  -20.1003 H         1 DAO         0.0265
     67 H          37.0740  -11.4930  -19.3779 H         1 DAO         0.0265
     68 H          36.2026  -11.3353  -21.7986 H         1 DAO         0.0265
     69 H          37.7297  -11.9969  -22.2855 H         1 DAO         0.0265
     70 H          38.9796  -10.2445  -21.1216 H         1 DAO         0.0263
     71 H          37.4988   -9.6659  -20.3129 H         1 DAO         0.0263
     72 H          38.0350   -9.6025  -23.3074 H         1 DAO         0.0230
     73 H          36.5566   -9.0249  -22.5000 H         1 DAO         0.0230
     74 H          38.1100   -8.2055  -22.2056 H         1 DAO         0.0230
     75 H          42.1523  -19.5152  -22.1956 H         1 GLY         0.1880
     76 H          43.3676  -21.0252  -23.4515 H         1 GLY         0.0763
     77 H          41.8535  -21.2747  -24.4501 H         1 GLY         0.0763
     78 H          41.7500  -21.9756  -21.0250 H         1 ALA         0.1883
     79 H          42.3637  -24.7279  -21.0061 H         1 ALA         0.0797
     80 H          41.8814  -23.4817  -18.8818 H         1 ALA         0.0277
     81 H          40.1790  -23.2787  -19.3630 H         1 ALA         0.0277
     82 H          40.8110  -24.9008  -18.9886 H         1 ALA         0.0277
     83 H          39.5427  -23.1089  -22.3653 H         1 GLY         0.1881
     84 H          37.8513  -23.9524  -23.6536 H         1 GLY         0.0763
     85 H          37.9261  -25.4639  -22.6021 H         1 GLY         0.0763
     86 H          40.8096  -24.6732  -24.3634 H         1 ALA         0.1883
     87 H          40.1641  -25.9092  -26.8858 H         1 ALA         0.0797
     88 H          42.0421  -24.3461  -26.6554 H         1 ALA         0.0277
     89 H          42.8714  -25.4881  -25.5695 H         1 ALA         0.0277
     90 H          42.6060  -25.9166  -27.2774 H         1 ALA         0.0277
     91 H          41.5284  -26.9603  -23.8348 H         1 SER         0.1884
     92 H          42.8260  -29.4315  -24.8338 H         1 SER         0.0823
     93 H          42.3130  -28.4861  -22.0385 H         1 SER         0.0606
     94 H          43.7322  -27.9583  -23.0942 H         1 SER         0.0606
     95 H          44.2654  -29.6077  -21.5882 H         1 SER         0.2097
     96 H          40.1017  -28.2554  -22.8771 H         1 ALA         0.1883
     97 H          39.0274  -30.8078  -22.1472 H         1 ALA         0.0797
     98 H          38.4979  -28.7653  -20.8921 H         1 ALA         0.0277
     99 H          37.6596  -28.0844  -22.3079 H         1 ALA         0.0277
    100 H          37.0003  -29.5215  -21.4889 H         1 ALA         0.0277
    101 H          38.8950  -29.2242  -25.1982 H         1 GLU         0.1875
    102 H          37.2116  -31.4948  -26.2156 H         1 GLU         0.0727
    103 O          40.2874  -30.7466  -27.0819 O.co2     1 GLU        -0.5666
    104 H          38.1708  -28.9975  -27.6330 H         1 GLU         0.0323
    105 H          36.4831  -29.2893  -26.9333 H         1 GLU         0.0323
    106 H          37.4562  -31.1801  -28.9571 H         1 GLU         0.0432
    107 H          37.0693  -29.4760  -29.5189 H         1 GLU         0.0432
@<TRIPOS>BOND
     1    1    2 2  
     2    2    3 1  
     3    2   14 am 
     4    3    4 1  
     5    4    5 1  
     6    5    6 1  
     7    6    7 1  
     8    7    8 1  
     9    8    9 1  
    10    9   10 1  
    11   10   11 1  
    12   11   12 1  
    13   12   13 1  
    14   14   15 1  
    15   15   16 1  
    16   16   17 2  
    17   16   18 am 
    18   18   19 1  
    19   19   20 1  
    20   19   22 1  
    21   20   21 2  
    22   20   23 am 
    23   23   24 1  
    24   24   25 1  
    25   25   26 2  
    26   25   27 am 
    27   27   28 1  
    28   28   29 1  
    29   28   31 1  
    30   29   30 2  
    31   29   32 am 
    32   32   33 1  
    33   33   34 1  
    34   33   36 1  
    35   34   35 2  
    36   34   38 am 
    37   36   37 1  
    38   38   39 1  
    39   39   40 1  
    40   39   42 1  
    41   40   41 2  
    42   40   43 am 
    43   43   44 1  
    44   44   45 1  
    45   44   47 1  
    46   45   46 ar 
    47   47   48 1  
    48   48   49 1  
    49   49   50 ar 
    50   49   51 ar 
    51    3   52 1  
    52    3   53 1  
    53    4   54 1  
    54    4   55 1  
    55    5   56 1  
    56    5   57 1  
    57    6   58 1  
    58    6   59 1  
    59    7   60 1  
    60    7   61 1  
    61    8   62 1  
    62    8   63 1  
    63    9   64 1  
    64    9   65 1  
    65   10   66 1  
    66   10   67 1  
    67   11   68 1  
    68   11   69 1  
    69   12   70 1  
    70   12   71 1  
    71   13   72 1  
    72   13   73 1  
    73   13   74 1  
    74   14   75 1  
    75   15   76 1  
    76   15   77 1  
    77   18   78 1  
    78   19   79 1  
    79   22   80 1  
    80   22   81 1  
    81   22   82 1  
    82   23   83 1  
    83   24   84 1  
    84   24   85 1  
    85   27   86 1  
    86   28   87 1  
    87   31   88 1  
    88   31   89 1  
    89   31   90 1  
    90   32   91 1  
    91   33   92 1  
    92   36   93 1  
    93   36   94 1  
    94   37   95 1  
    95   38   96 1  
    96   39   97 1  
    97   42   98 1  
    98   42   99 1  
    99   42  100 1  
   100   43  101 1  
   101   44  102 1  
   102   45  103 ar 
   103   47  104 1  
   104   47  105 1  
   105   48  106 1  
   106   48  107 1  
@<TRIPOS>SUBSTRUCTURE
     1 DAO         1

