5w88_ligand
  -I-interpret- 

 27 28  0  0  0  0  0  0  0  0999 V2000
    4.9260    0.4790    3.9800 C   0  0  0  0  0
    2.8620   -2.2390   -2.1870 C   0  0  0  0  0
    2.9590   -0.8550   -2.0970 C   0  0  0  0  0
    2.2090   -2.9580   -1.1920 C   0  0  0  0  0
    1.4930   -0.6600    4.6470 C   0  0  0  0  0
    2.8190   -0.3020    4.8550 C   0  0  0  0  0
    2.4100   -0.1890   -1.0070 C   0  0  0  0  0
    1.6600   -2.2900   -0.1030 C   0  0  0  0  0
    0.9620   -0.6440    3.3630 C   0  0  0  0  0
    3.0850    0.0830    2.4930 C   0  0  0  0  0
    3.6130    0.0770    3.7790 C   0  0  0  0  0
    1.7610   -0.9080   -0.0100 C   0  0  0  0  0
    1.7600   -0.2750    2.2850 C   0  0  0  0  0
    1.2610   -0.2880    1.0530 N   0  0  0  0  0
    4.9416    1.3511    4.6337 H   0  0  0  0  0
    5.4866   -0.3334    4.4425 H   0  0  0  0  0
    5.3774    0.7339    3.0212 H   0  0  0  0  0
    3.2984   -2.7610   -3.0386 H   0  0  0  0  0
    3.4655   -0.2921   -2.8810 H   0  0  0  0  0
    2.1277   -4.0425   -1.2655 H   0  0  0  0  0
    0.8690   -0.9535    5.4911 H   0  0  0  0  0
    3.2366   -0.3183    5.8617 H   0  0  0  0  0
    2.4884    0.8957   -0.9343 H   0  0  0  0  0
    1.1495   -2.8520    0.6790 H   0  0  0  0  0
   -0.0797   -0.9206    3.2005 H   0  0  0  0  0
    3.7114    0.3688    1.6480 H   0  0  0  0  0
    0.3983    0.2364    0.9078 H   0  0  0  0  0
 11  1  1  0  0  0
  3  2  4  0  0  0
  4  2  4  0  0  0
  7  3  4  0  0  0
  8  4  4  0  0  0
  5  6  4  0  0  0
  9  5  4  0  0  0
 11  6  4  0  0  0
 12  7  4  0  0  0
 12  8  4  0  0  0
 13  9  4  0  0  0
 10 11  4  0  0  0
 13 10  4  0  0  0
 14 12  1  0  0  0
 13 14  1  0  0  0
  1 15  1  0  0  0
  1 16  1  0  0  0
  1 17  1  0  0  0
  2 18  1  0  0  0
  3 19  1  0  0  0
  4 20  1  0  0  0
  5 21  1  0  0  0
  6 22  1  0  0  0
  7 23  1  0  0  0
  8 24  1  0  0  0
  9 25  1  0  0  0
 10 26  1  0  0  0
 14 27  1  0  0  0
M  END
$$$$
