4byi_ligand
  -I-interpret- 

 48 51  0  0  0  0  0  0  0  0999 V2000
    5.0170  -28.3700   -8.7670 Cl  0  0  0  0  0
    4.0520  -29.7170   -8.1660 C   0  0  0  0  0
    3.3230  -30.5020   -9.0990 C   0  0  0  0  0
    2.5640  -31.5480   -8.6710 N   0  0  0  0  0
    2.4860  -31.8830   -7.3330 C   0  0  0  0  0
    1.7910  -32.8910   -6.6870 N   0  0  0  0  0
    2.0470  -32.7980   -5.3210 C   0  0  0  0  0
    1.4880  -33.7110   -4.1920 C   0  0  0  0  0
    1.8250  -33.6230   -2.8560 C   0  0  0  0  0
    1.1440  -34.5530   -2.2120 N   0  0  0  0  0
    1.2120  -34.8040   -0.7730 C   0  0  0  0  0
    0.3750  -35.2440   -3.0650 N   0  0  0  0  0
    0.5770  -34.7280   -4.3030 C   0  0  0  0  0
   -0.1080  -35.2250   -5.5700 C   0  0  0  0  0
    2.8920  -31.7460   -5.1280 N   0  0  0  0  0
    3.1880  -31.1510   -6.3620 C   0  0  0  0  0
    3.9980  -30.0250   -6.7780 C   0  0  0  0  0
    4.7600  -29.2310   -5.8260 N   0  0  0  0  0
    6.1110  -28.8520   -5.5610 C   0  0  0  0  0
    6.1960  -28.6550   -4.1120 C   0  0  0  0  0
    6.5610  -29.9260   -3.4580 C   0  0  0  0  0
    7.3630  -29.8680   -2.2480 N   0  0  0  0  0
    6.6970  -29.8160   -0.9050 C   0  0  0  0  0
    7.5220  -29.7600    0.3100 C   0  0  0  0  0
    5.5280  -29.8170   -0.8260 O   0  0  0  0  0
    4.8740  -28.2590   -3.6770 C   0  0  0  0  0
    3.9310  -28.7700   -4.7010 C   0  0  0  0  0
    3.3716  -30.2658  -10.1620 H   0  0  0  0  0
    2.5256  -32.9148   -2.4135 H   0  0  0  0  0
    2.2346  -35.0632   -0.4986 H   0  0  0  0  0
    0.9060  -33.9072   -0.2342 H   0  0  0  0  0
    0.5459  -35.6280   -0.5173 H   0  0  0  0  0
   -0.6802  -34.4111   -6.0153 H   0  0  0  0  0
    0.6458  -35.5704   -6.2775 H   0  0  0  0  0
   -0.7779  -36.0478   -5.3204 H   0  0  0  0  0
    6.3801  -27.9437   -6.1002 H   0  0  0  0  0
    6.8099  -29.6176   -5.8978 H   0  0  0  0  0
    6.9465  -27.9065   -3.8578 H   0  0  0  0  0
    7.1744  -30.4583   -4.1850 H   0  0  0  0  0
    5.6155  -30.3763   -3.1556 H   0  0  0  0  0
    8.3810  -29.8626   -2.3119 H   0  0  0  0  0
    7.2964  -28.8457    0.8590 H   0  0  0  0  0
    7.3032  -30.6248    0.9364 H   0  0  0  0  0
    8.5761  -29.7681    0.0326 H   0  0  0  0  0
    4.8002  -27.1758   -3.5806 H   0  0  0  0  0
    4.6451  -28.6683   -2.6930 H   0  0  0  0  0
    3.3201  -29.5807   -4.3040 H   0  0  0  0  0
    3.2347  -27.9934   -5.0174 H   0  0  0  0  0
  1  2  1  0  0  0
  2  3  4  0  0  0
  2 17  4  0  0  0
  3  4  4  0  0  0
  4  5  4  0  0  0
  5  6  4  0  0  0
  5 16  4  0  0  0
  6  7  4  0  0  0
  7  8  1  0  0  0
  7 15  4  0  0  0
  8  9  4  0  0  0
  8 13  4  0  0  0
  9 10  4  0  0  0
 10 11  1  0  0  0
 10 12  4  0  0  0
 12 13  4  0  0  0
 13 14  1  0  0  0
 15 16  4  0  0  0
 16 17  4  0  0  0
 17 18  1  0  0  0
 18 19  1  0  0  0
 18 27  1  0  0  0
 19 20  1  0  0  0
 20 21  1  0  0  0
 20 26  1  0  0  0
 21 22  1  0  0  0
 22 23  1  0  0  0
 23 24  1  0  0  0
 23 25  2  0  0  0
 26 27  1  0  0  0
  3 28  1  0  0  0
  9 29  1  0  0  0
 11 30  1  0  0  0
 11 31  1  0  0  0
 11 32  1  0  0  0
 14 33  1  0  0  0
 14 34  1  0  0  0
 14 35  1  0  0  0
 19 36  1  0  0  0
 19 37  1  0  0  0
 20 38  1  0  0  0
 21 39  1  0  0  0
 21 40  1  0  0  0
 22 41  1  0  0  0
 24 42  1  0  0  0
 24 43  1  0  0  0
 24 44  1  0  0  0
 26 45  1  0  0  0
 26 46  1  0  0  0
 27 47  1  0  0  0
 27 48  1  0  0  0
M  END
$$$$
