5icx_ligand
  -I-interpret- 

193194  0  0  0  0  0  0  0  0999 V2000
   16.7870   34.4660   28.2040 C   0  0  0  0  0
   17.2080   32.0310   27.7980 C   0  0  0  0  0
   16.1380   33.0940   28.0470 C   0  0  0  0  0
   15.1620   33.0980   26.9640 N   0  3  0  0  0
   16.6630   35.3230   27.3290 O   0  0  0  0  0
   17.4220   30.8600   29.1570 S   0  0  0  0  0
   17.4770   34.6700   29.3220 N   0  0  0  0  0
   18.1340   35.9450   29.5850 C   0  0  0  0  0
   19.6420   35.7720   29.7130 C   0  0  0  0  0
   20.1220   34.9460   30.4890 O   0  0  0  0  0
   17.5630   36.6040   30.8430 C   0  0  0  0  0
   16.2240   37.2950   30.6310 C   0  0  0  0  0
   16.3350   38.8070   30.6650 C   0  0  0  0  0
   17.0930   39.3670   31.4580 O   0  0  0  0  0
   15.5800   39.4750   29.8010 N   0  0  0  0  0
   20.3820   36.5500   28.9320 N   0  0  0  0  0
   21.8350   36.5440   28.9890 C   0  0  0  0  0
   22.3140   37.2050   30.2790 C   0  0  0  0  0
   21.7980   38.2470   30.6810 O   0  0  0  0  0
   22.4040   37.2720   27.7710 C   0  0  0  0  0
   23.9010   37.3540   27.7530 C   0  0  0  0  0
   24.6670   36.2300   27.4840 C   0  0  0  0  0
   24.5430   38.5590   27.9840 C   0  0  0  0  0
   26.0450   36.3040   27.4590 C   0  0  0  0  0
   25.9230   38.6420   27.9570 C   0  0  0  0  0
   26.6740   37.5120   27.6950 C   0  0  0  0  0
   23.2970   36.5860   30.9260 N   0  0  0  0  0
   23.8630   37.1130   32.1610 C   0  0  0  0  0
   25.1970   37.7850   31.8560 C   0  0  0  0  0
   26.1160   37.1470   31.3460 O   0  0  0  0  0
   24.0600   35.9800   33.1720 C   0  0  0  0  0
   24.3600   36.4820   34.5770 C   0  0  0  0  0
   24.8480   37.6210   34.7280 O   0  0  0  0  0
   24.1100   35.7240   35.5380 O   0  0  0  0  0
   25.3010   39.0720   32.1740 N   0  0  0  0  0
   26.5110   39.8370   31.8860 C   0  0  0  0  0
   27.6830   39.4260   32.7730 C   0  0  0  0  0
   28.8430   39.6490   32.4270 O   0  0  0  0  0
   26.2440   41.3350   32.0370 C   0  0  0  0  0
   25.2690   41.9530   31.0360 C   0  0  0  0  0
   24.9280   43.3780   31.4360 C   0  0  0  0  0
   25.8580   41.9170   29.6360 C   0  0  0  0  0
   27.3740   38.8220   33.9160 N   0  0  0  0  0
   28.4030   38.4300   34.8730 C   0  0  0  0  0
   29.1310   37.1530   34.4600 C   0  0  0  0  0
   30.3590   37.0900   34.5000 O   0  0  0  0  0
   27.7970   38.2610   36.2670 C   0  0  0  0  0
   27.2400   39.4780   36.7300 O   0  0  0  0  0
   28.3680   36.1380   34.0620 N   0  0  0  0  0
   28.9350   34.8330   33.7380 C   0  0  0  0  0
   29.0510   34.6000   32.2360 C   0  0  0  0  0
   29.6410   33.6090   31.8020 O   0  0  0  0  0
   28.0950   33.6900   34.3450 C   0  0  0  0  0
   26.7790   33.7020   33.7750 O   0  0  0  0  0
   27.9930   33.8440   35.8540 C   0  0  0  0  0
   28.4860   35.5170   31.4540 N   0  0  0  0  0
   28.4220   35.3830   29.9980 C   0  0  0  0  0
   27.7090   34.1030   29.5750 C   0  0  0  0  0
   28.0550   33.4870   28.5670 O   0  0  0  0  0
   29.8150   35.4560   29.3680 C   0  0  0  0  0
   30.5390   36.7570   29.6380 C   0  0  0  0  0
   31.6820   36.9550   28.6660 C   0  0  0  0  0
   32.3980   38.2000   28.9200 N   0  0  0  0  0
   33.4170   38.6340   28.1880 C   0  0  0  0  0
   33.8380   37.9230   27.1520 N   0  0  0  0  0
   34.0120   39.7790   28.4900 N   0  0  0  0  0
   26.7090   33.7130   30.3560 N   0  0  0  0  0
   25.9450   32.5060   30.0820 C   0  0  0  0  0
   24.4550   32.8080   30.0900 C   0  0  0  0  0
   24.0220   33.8280   30.6290 O   0  0  0  0  0
   26.2640   31.4340   31.1240 C   0  0  0  0  0
   27.6880   30.9160   31.0610 C   0  0  0  0  0
   27.9480   30.2170   29.7380 C   0  0  0  0  0
   26.8870   29.2670   29.4190 N   0  0  0  0  0
   26.8010   28.0440   29.9290 C   0  0  0  0  0
   27.7150   27.6160   30.7900 N   0  0  0  0  0
   25.7990   27.2480   29.5810 N   0  0  0  0  0
   23.6730   31.9200   29.4870 N   0  0  0  0  0
   22.2240   32.0550   29.4990 C   0  0  0  0  0
   21.6630   31.5980   30.8380 C   0  0  0  0  0
   22.0440   30.5470   31.3530 O   0  0  0  0  0
   21.5950   31.2400   28.3680 C   0  0  0  0  0
   21.8520   31.7150   26.9380 C   0  0  0  0  0
   21.2030   30.7640   25.9480 C   0  0  0  0  0
   21.3420   33.1340   26.7420 C   0  0  0  0  0
   20.7640   32.3980   31.4000 N   0  0  0  0  0
   20.0790   32.0360   32.6340 C   0  0  0  0  0
   18.5960   31.8430   32.3500 C   0  0  0  0  0
   17.8920   32.7940   32.0070 O   0  0  0  0  0
   20.2820   33.1090   33.7070 C   0  0  0  0  0
   18.1210   30.6110   32.5010 N   0  0  0  0  0
   16.7270   30.2910   32.2190 C   0  0  0  0  0
   15.9060   30.1750   33.4990 C   0  0  0  0  0
   16.4410   30.2770   34.6030 O   0  0  0  0  0
   16.6320   28.9950   31.4140 C   0  0  0  0  0
   17.6300   28.9840   29.9050 S   0  0  0  0  0
   14.6920   29.9770   33.4540 O   0  0  0  0  0
   18.1563   32.5535   27.6722 H   0  0  0  0  0
   16.8935   31.4571   26.9263 H   0  0  0  0  0
   15.6128   32.8560   28.9720 H   0  0  0  0  0
   14.4567   33.8120   27.1462 H   0  0  0  0  0
   15.6342   33.3018   26.0831 H   0  0  0  0  0
   14.7147   32.1831   26.9077 H   0  0  0  0  0
   17.5482   33.9198   30.0094 H   0  0  0  0  0
   17.9390   36.5983   28.7346 H   0  0  0  0  0
   18.2737   37.3685   31.1568 H   0  0  0  0  0
   17.4048   35.8138   31.5769 H   0  0  0  0  0
   15.5580   36.9897   31.4380 H   0  0  0  0  0
   15.8511   37.0085   29.6477 H   0  0  0  0  0
   15.6135   40.4941   29.7759 H   0  0  0  0  0
   14.9664   38.9691   29.1623 H   0  0  0  0  0
   19.9164   37.1718   28.2709 H   0  0  0  0  0
   22.1886   35.5130   28.9787 H   0  0  0  0  0
   22.0248   38.2935   27.7989 H   0  0  0  0  0
   22.1006   36.7099   26.8878 H   0  0  0  0  0
   24.1752   35.2768   27.2900 H   0  0  0  0  0
   23.9536   39.4526   28.1895 H   0  0  0  0  0
   26.6361   35.4115   27.2535 H   0  0  0  0  0
   26.4170   39.5959   28.1418 H   0  0  0  0  0
   27.7621   37.5732   27.6744 H   0  0  0  0  0
   23.6666   35.7147   30.5458 H   0  0  0  0  0
   23.1804   37.8461   32.5907 H   0  0  0  0  0
   24.9124   35.3857   32.8427 H   0  0  0  0  0
   23.1330   35.4082   33.2146 H   0  0  0  0  0
   23.7419   34.9012   35.2077 H   0  0  0  0  0
   24.5159   39.5364   32.6305 H   0  0  0  0  0
   26.7877   39.6178   30.8547 H   0  0  0  0  0
   27.2007   41.8317   31.8752 H   0  0  0  0  0
   25.7926   41.4653   33.0205 H   0  0  0  0  0
   24.3495   41.3677   31.0394 H   0  0  0  0  0
   24.4682   43.3765   32.4243 H   0  0  0  0  0
   25.8393   43.9756   31.4587 H   0  0  0  0  0
   24.2326   43.8010   30.7110 H   0  0  0  0  0
   26.7903   42.4815   29.6208 H   0  0  0  0  0
   26.0532   40.8830   29.3518 H   0  0  0  0  0
   25.1516   42.3608   28.9345 H   0  0  0  0  0
   26.3954   38.6282   34.1288 H   0  0  0  0  0
   29.1414   39.2316   34.8907 H   0  0  0  0  0
   28.5841   37.9528   36.9552 H   0  0  0  0  0
   27.0067   37.5121   36.2160 H   0  0  0  0  0
   26.8671   39.3457   37.6047 H   0  0  0  0  0
   27.3606   36.2758   33.9813 H   0  0  0  0  0
   29.9358   34.8323   34.1700 H   0  0  0  0  0
   28.5853   32.7428   34.1203 H   0  0  0  0  0
   26.2602   32.9895   34.1555 H   0  0  0  0  0
   28.9921   33.8182   36.2889 H   0  0  0  0  0
   27.5174   34.7961   36.0894 H   0  0  0  0  0
   27.3966   33.0278   36.2617 H   0  0  0  0  0
   28.0811   36.3470   31.8871 H   0  0  0  0  0
   27.8367   36.2256   29.6299 H   0  0  0  0  0
   29.6887   35.3719   28.2886 H   0  0  0  0  0
   30.4118   34.6550   29.8042 H   0  0  0  0  0
   30.9423   36.7286   30.6502 H   0  0  0  0  0
   29.8340   37.5799   29.5203 H   0  0  0  0  0
   31.2713   36.9952   27.6571 H   0  0  0  0  0
   32.3808   36.1270   28.7850 H   0  0  0  0  0
   32.0973   38.7726   29.7087 H   0  0  0  0  0
   33.3792   37.0428   26.9173 H   0  0  0  0  0
   34.7933   40.1123   27.9252 H   0  0  0  0  0
   33.6887   40.3270   29.2872 H   0  0  0  0  0
   26.4694   34.2761   31.1720 H   0  0  0  0  0
   26.2226   32.1369   29.0947 H   0  0  0  0  0
   25.6038   30.5886   30.9304 H   0  0  0  0  0
   26.1282   31.8873   32.1059 H   0  0  0  0  0
   27.8394   30.2031   31.8715 H   0  0  0  0  0
   28.3734   31.7583   31.1547 H   0  0  0  0  0
   28.8889   29.6719   29.8140 H   0  0  0  0  0
   27.9862   30.9699   28.9508 H   0  0  0  0  0
   26.1648   29.5616   28.7617 H   0  0  0  0  0
   27.6459   26.6770   31.1824 H   0  0  0  0  0
   28.4868   28.2259   31.0596 H   0  0  0  0  0
   25.0934   27.5750   28.9210 H   0  0  0  0  0
   24.0967   31.1269   29.0055 H   0  0  0  0  0
   21.9790   33.1065   29.3491 H   0  0  0  0  0
   20.5174   31.3127   28.5148 H   0  0  0  0  0
   22.0411   30.2477   28.4349 H   0  0  0  0  0
   22.9273   31.7194   26.7594 H   0  0  0  0  0
   21.6234   29.7664   26.0753 H   0  0  0  0  0
   20.1283   30.7324   26.1275 H   0  0  0  0  0
   21.3930   31.1129   24.9330 H   0  0  0  0  0
   20.2698   33.1634   26.9359 H   0  0  0  0  0
   21.8559   33.8021   27.4331 H   0  0  0  0  0
   21.5360   33.4501   25.7170 H   0  0  0  0  0
   20.5472   33.2901   30.9556 H   0  0  0  0  0
   20.5000   31.1039   33.0109 H   0  0  0  0  0
   21.3466   33.2161   33.9151 H   0  0  0  0  0
   19.8830   34.0583   33.3497 H   0  0  0  0  0
   19.7604   32.8138   34.6175 H   0  0  0  0  0
   18.7465   29.8719   32.8218 H   0  0  0  0  0
   16.3134   31.1100   31.6305 H   0  0  0  0  0
   17.3820   30.4285   34.4885 H   0  0  0  0  0
   15.5911   28.8798   31.1119 H   0  0  0  0  0
   17.0039   28.1927   32.0513 H   0  0  0  0  0
  1  3  1  0  0  0
  1  5  2  0  0  0
  1  7  1  0  0  0
  3  2  1  0  0  0
  2  6  1  0  0  0
  3  4  1  0  0  0
  6 96  1  0  0  0
  7  8  1  0  0  0
  8  9  1  0  0  0
  8 11  1  0  0  0
  9 10  2  0  0  0
  9 16  1  0  0  0
 11 12  1  0  0  0
 12 13  1  0  0  0
 13 14  2  0  0  0
 13 15  1  0  0  0
 16 17  1  0  0  0
 17 18  1  0  0  0
 17 20  1  0  0  0
 18 19  2  0  0  0
 18 27  1  0  0  0
 20 21  1  0  0  0
 21 22  4  0  0  0
 21 23  4  0  0  0
 22 24  4  0  0  0
 23 25  4  0  0  0
 24 26  4  0  0  0
 25 26  4  0  0  0
 27 28  1  0  0  0
 28 29  1  0  0  0
 28 31  1  0  0  0
 29 30  2  0  0  0
 29 35  1  0  0  0
 31 32  1  0  0  0
 32 33  2  0  0  0
 32 34  1  0  0  0
 35 36  1  0  0  0
 36 37  1  0  0  0
 36 39  1  0  0  0
 37 38  2  0  0  0
 37 43  1  0  0  0
 39 40  1  0  0  0
 40 41  1  0  0  0
 40 42  1  0  0  0
 43 44  1  0  0  0
 44 45  1  0  0  0
 44 47  1  0  0  0
 45 46  2  0  0  0
 45 49  1  0  0  0
 47 48  1  0  0  0
 49 50  1  0  0  0
 50 51  1  0  0  0
 50 53  1  0  0  0
 51 52  2  0  0  0
 51 56  1  0  0  0
 53 54  1  0  0  0
 53 55  1  0  0  0
 56 57  1  0  0  0
 57 58  1  0  0  0
 57 60  1  0  0  0
 58 59  2  0  0  0
 58 67  1  0  0  0
 60 61  1  0  0  0
 61 62  1  0  0  0
 62 63  1  0  0  0
 63 64  1  0  0  0
 64 65  2  0  0  0
 64 66  1  0  0  0
 67 68  1  0  0  0
 68 69  1  0  0  0
 68 71  1  0  0  0
 69 70  2  0  0  0
 69 78  1  0  0  0
 71 72  1  0  0  0
 72 73  1  0  0  0
 73 74  1  0  0  0
 74 75  1  0  0  0
 75 76  1  0  0  0
 75 77  2  0  0  0
 78 79  1  0  0  0
 79 80  1  0  0  0
 79 82  1  0  0  0
 80 81  2  0  0  0
 80 86  1  0  0  0
 82 83  1  0  0  0
 83 84  1  0  0  0
 83 85  1  0  0  0
 86 87  1  0  0  0
 87 88  1  0  0  0
 87 90  1  0  0  0
 88 89  2  0  0  0
 88 91  1  0  0  0
 91 92  1  0  0  0
 92 93  1  0  0  0
 92 95  1  0  0  0
 93 94  1  0  0  0
 93 97  2  0  0  0
 95 96  1  0  0  0
  2 98  1  0  0  0
  2 99  1  0  0  0
  3100  1  0  0  0
  4101  1  0  0  0
  4102  1  0  0  0
  4103  1  0  0  0
  7104  1  0  0  0
  8105  1  0  0  0
 11106  1  0  0  0
 11107  1  0  0  0
 12108  1  0  0  0
 12109  1  0  0  0
 15110  1  0  0  0
 15111  1  0  0  0
 16112  1  0  0  0
 17113  1  0  0  0
 20114  1  0  0  0
 20115  1  0  0  0
 22116  1  0  0  0
 23117  1  0  0  0
 24118  1  0  0  0
 25119  1  0  0  0
 26120  1  0  0  0
 27121  1  0  0  0
 28122  1  0  0  0
 31123  1  0  0  0
 31124  1  0  0  0
 34125  1  0  0  0
 35126  1  0  0  0
 36127  1  0  0  0
 39128  1  0  0  0
 39129  1  0  0  0
 40130  1  0  0  0
 41131  1  0  0  0
 41132  1  0  0  0
 41133  1  0  0  0
 42134  1  0  0  0
 42135  1  0  0  0
 42136  1  0  0  0
 43137  1  0  0  0
 44138  1  0  0  0
 47139  1  0  0  0
 47140  1  0  0  0
 48141  1  0  0  0
 49142  1  0  0  0
 50143  1  0  0  0
 53144  1  0  0  0
 54145  1  0  0  0
 55146  1  0  0  0
 55147  1  0  0  0
 55148  1  0  0  0
 56149  1  0  0  0
 57150  1  0  0  0
 60151  1  0  0  0
 60152  1  0  0  0
 61153  1  0  0  0
 61154  1  0  0  0
 62155  1  0  0  0
 62156  1  0  0  0
 63157  1  0  0  0
 65158  1  0  0  0
 66159  1  0  0  0
 66160  1  0  0  0
 67161  1  0  0  0
 68162  1  0  0  0
 71163  1  0  0  0
 71164  1  0  0  0
 72165  1  0  0  0
 72166  1  0  0  0
 73167  1  0  0  0
 73168  1  0  0  0
 74169  1  0  0  0
 76170  1  0  0  0
 76171  1  0  0  0
 77172  1  0  0  0
 78173  1  0  0  0
 79174  1  0  0  0
 82175  1  0  0  0
 82176  1  0  0  0
 83177  1  0  0  0
 84178  1  0  0  0
 84179  1  0  0  0
 84180  1  0  0  0
 85181  1  0  0  0
 85182  1  0  0  0
 85183  1  0  0  0
 86184  1  0  0  0
 87185  1  0  0  0
 90186  1  0  0  0
 90187  1  0  0  0
 90188  1  0  0  0
 91189  1  0  0  0
 92190  1  0  0  0
 94191  1  0  0  0
 95192  1  0  0  0
 95193  1  0  0  0
M  END
$$$$
