### 
### Created by X-TOOL on Mon Sep 10 21:13:27 2018
### 

@<TRIPOS>MOLECULE
5icx_ligand
  193   194     1     0     0
SMALL
GAST_HUCK


@<TRIPOS>ATOM
      1 C          16.7870   34.4660   28.2040 C.2       1 SC2         0.2275
      2 CB         17.2080   32.0310   27.7980 C.3       1 SC2         0.0643
      3 CA         16.1380   33.0940   28.0470 C.3       1 SC2         0.0749
      4 N          15.1620   33.0980   26.9640 N.4       1 SC2         0.2385
      5 O          16.6630   35.3230   27.3290 O.2       1 SC2        -0.3907
      6 SG         17.4220   30.8600   29.1570 S.3       1 SC2        -0.0848
      7 N          17.4770   34.6700   29.3220 N.am      1 GLN        -0.2608
      8 CA         18.1340   35.9450   29.5850 C.3       1 GLN         0.1331
      9 C          19.6420   35.7720   29.7130 C.2       1 GLN         0.2042
     10 O          20.1220   34.9460   30.4890 O.2       1 GLN        -0.3944
     11 CB         17.5630   36.6040   30.8430 C.3       1 GLN         0.0045
     12 CG         16.2240   37.2950   30.6310 C.3       1 GLN         0.0412
     13 CD         16.3350   38.8070   30.6650 C.2       1 GLN         0.1737
     14 OE1        17.0930   39.3670   31.4580 O.2       1 GLN        -0.3973
     15 NE2        15.5800   39.4750   29.8010 N.am      1 GLN        -0.3009
     16 N          20.3820   36.5500   28.9320 N.am      1 PHE        -0.2619
     17 CA         21.8350   36.5440   28.9890 C.3       1 PHE         0.1404
     18 C          22.3140   37.2050   30.2790 C.2       1 PHE         0.2060
     19 O          21.7980   38.2470   30.6810 O.2       1 PHE        -0.3942
     20 CB         22.4040   37.2720   27.7710 C.3       1 PHE         0.0214
     21 CG         23.9010   37.3540   27.7530 C.ar      1 PHE        -0.0386
     22 CD1        24.6670   36.2300   27.4840 C.ar      1 PHE        -0.0601
     23 CD2        24.5430   38.5590   27.9840 C.ar      1 PHE        -0.0601
     24 CE1        26.0450   36.3040   27.4590 C.ar      1 PHE        -0.0686
     25 CE2        25.9230   38.6420   27.9570 C.ar      1 PHE        -0.0686
     26 CZ         26.6740   37.5120   27.6950 C.ar      1 PHE        -0.0687
     27 N          23.2970   36.5860   30.9260 N.am      1 ASP        -0.2620
     28 CA         23.8630   37.1130   32.1610 C.3       1 ASP         0.1423
     29 C          25.1970   37.7850   31.8560 C.2       1 ASP         0.2056
     30 O          26.1160   37.1470   31.3460 O.2       1 ASP        -0.3943
     31 CB         24.0600   35.9800   33.1720 C.3       1 ASP         0.0406
     32 CG         24.3600   36.4820   34.5770 C.2       1 ASP         0.0393
     33 OD1        24.8480   37.6210   34.7280 O.co2     1 ASP        -0.5688
     34 OD2        24.1100   35.7240   35.5380 O.co2     1 ASP        -0.5688
     35 N          25.3010   39.0720   32.1740 N.am      1 LEU        -0.2636
     36 CA         26.5110   39.8370   31.8860 C.3       1 LEU         0.1312
     37 C          27.6830   39.4260   32.7730 C.2       1 LEU         0.2040
     38 O          28.8430   39.6490   32.4270 O.2       1 LEU        -0.3944
     39 CB         26.2440   41.3350   32.0370 C.3       1 LEU        -0.0101
     40 CG         25.2690   41.9530   31.0360 C.3       1 LEU        -0.0425
     41 CD1        24.9280   43.3780   31.4360 C.3       1 LEU        -0.0625
     42 CD2        25.8580   41.9170   29.6360 C.3       1 LEU        -0.0625
     43 N          27.3740   38.8220   33.9160 N.am      1 SER        -0.2616
     44 CA         28.4030   38.4300   34.8730 C.3       1 SER         0.1539
     45 C          29.1310   37.1530   34.4600 C.2       1 SER         0.2063
     46 O          30.3590   37.0900   34.5000 O.2       1 SER        -0.3943
     47 CB         27.7970   38.2610   36.2670 C.3       1 SER         0.0843
     48 OG         27.2400   39.4780   36.7300 O.3       1 SER        -0.3903
     49 N          28.3680   36.1380   34.0620 N.am      1 THR        -0.2613
     50 CA         28.9350   34.8330   33.7380 C.3       1 THR         0.1565
     51 C          29.0510   34.6000   32.2360 C.2       1 THR         0.2065
     52 O          29.6410   33.6090   31.8020 O.2       1 THR        -0.3943
     53 CB         28.0950   33.6900   34.3450 C.3       1 THR         0.0924
     54 OG1        26.7790   33.7020   33.7750 O.3       1 THR        -0.3874
     55 CG2        27.9930   33.8440   35.8540 C.3       1 THR        -0.0346
     56 N          28.4860   35.5170   31.4540 N.am      1 ARG        -0.2636
     57 CA         28.4220   35.3830   29.9980 C.3       1 ARG         0.1311
     58 C          27.7090   34.1030   29.5750 C.2       1 ARG         0.2039
     59 O          28.0550   33.4870   28.5670 O.2       1 ARG        -0.3944
     60 CB         29.8150   35.4560   29.3680 C.3       1 ARG        -0.0092
     61 CG         30.5390   36.7570   29.6380 C.3       1 ARG        -0.0156
     62 CD         31.6820   36.9550   28.6660 C.3       1 ARG         0.0627
     63 NE         32.3980   38.2000   28.9200 N.pl3     1 ARG        -0.2723
     64 CZ         33.4170   38.6340   28.1880 C.cat     1 ARG         0.2882
     65 NH1        33.8380   37.9230   27.1520 N.pl3     1 ARG        -0.2849
     66 NH2        34.0120   39.7790   28.4900 N.pl3     1 ARG        -0.2849
     67 N          26.7090   33.7130   30.3560 N.am      1 ARG        -0.2637
     68 CA         25.9450   32.5060   30.0820 C.3       1 ARG         0.1311
     69 C          24.4550   32.8080   30.0900 C.2       1 ARG         0.2039
     70 O          24.0220   33.8280   30.6290 O.2       1 ARG        -0.3944
     71 CB         26.2640   31.4340   31.1240 C.3       1 ARG        -0.0092
     72 CG         27.6880   30.9160   31.0610 C.3       1 ARG        -0.0156
     73 CD         27.9480   30.2170   29.7380 C.3       1 ARG         0.0627
     74 NE         26.8870   29.2670   29.4190 N.pl3     1 ARG        -0.2723
     75 CZ         26.8010   28.0440   29.9290 C.cat     1 ARG         0.2882
     76 NH1        27.7150   27.6160   30.7900 N.pl3     1 ARG        -0.2849
     77 NH2        25.7990   27.2480   29.5810 N.pl3     1 ARG        -0.2849
     78 N          23.6730   31.9200   29.4870 N.am      1 LEU        -0.2637
     79 CA         22.2240   32.0550   29.4990 C.3       1 LEU         0.1312
     80 C          21.6630   31.5980   30.8380 C.2       1 LEU         0.2039
     81 O          22.0440   30.5470   31.3530 O.2       1 LEU        -0.3944
     82 CB         21.5950   31.2400   28.3680 C.3       1 LEU        -0.0101
     83 CG         21.8520   31.7150   26.9380 C.3       1 LEU        -0.0425
     84 CD1        21.2030   30.7640   25.9480 C.3       1 LEU        -0.0625
     85 CD2        21.3420   33.1340   26.7420 C.3       1 LEU        -0.0625
     86 N          20.7640   32.3980   31.4000 N.am      1 ARG        -0.2640
     87 CA         20.0790   32.0360   32.6340 C.3       1 ARG         0.1282
     88 C          18.5960   31.8430   32.3500 C.2       1 ARG         0.2031
     89 O          17.8920   32.7940   32.0070 O.2       1 ARG        -0.3944
     90 CB         20.2820   33.1090   33.7070 C.3       1 ARG        -0.0244
     91 N          18.1210   30.6110   32.5010 N.am      1 CYS        -0.2687
     92 CA         16.7270   30.2910   32.2190 C.3       1 CYS         0.1041
     93 C          15.9060   30.1750   33.4990 C.2       1 CYS         0.0609
     94 O          16.4410   30.2770   34.6030 O.co2     1 CYS        -0.5666
     95 CB         16.6320   28.9950   31.4140 C.3       1 CYS         0.0388
     96 SG         17.6300   28.9840   29.9050 S.3       1 CYS        -0.0887
     97 OXT        14.6920   29.9770   33.4540 O.co2     1 CYS        -0.5666
     98 H1         18.1677   32.5411   27.6284 H         1 SC2         0.0466
     99 H2         16.9289   31.4656   26.8967 H         1 SC2         0.0466
    100 H3         15.6144   32.8491   28.9829 H         1 SC2         0.1107
    101 H4         14.4644   33.8033   27.1430 H         1 SC2         0.2015
    102 H5         14.7192   32.1943   26.9074 H         1 SC2         0.2015
    103 H6         15.6275   33.2993   26.0929 H         1 SC2         0.2015
    104 H7         17.5468   33.9345   29.9959 H         1 GLN         0.1885
    105 H8         17.9382   36.6103   28.7312 H         1 GLN         0.0801
    106 H9         18.2856   37.3533   31.1984 H         1 GLN         0.0337
    107 H10        17.4327   35.8272   31.6108 H         1 GLN         0.0337
    108 H11        15.5330   36.9748   31.4247 H         1 GLN         0.0504
    109 H12        15.8232   36.9934   29.6521 H         1 GLN         0.0504
    110 H13        15.6115   40.4742   29.7777 H         1 GLN         0.1814
    111 H14        14.9798   38.9789   29.1735 H         1 GLN         0.1814
    112 H15        19.9255   37.1596   28.2839 H         1 PHE         0.1885
    113 H16        22.1868   35.5019   28.9749 H         1 PHE         0.0823
    114 H17        22.0016   38.2957   27.7608 H         1 PHE         0.0474
    115 H18        22.0760   36.7400   26.8658 H         1 PHE         0.0474
    116 H19        24.1779   35.2821   27.2911 H         1 PHE         0.0557
    117 H20        23.9568   39.4477   28.1884 H         1 PHE         0.0557
    118 H21        26.6329   35.4165   27.2547 H         1 PHE         0.0599
    119 H22        26.4142   39.5907   28.1408 H         1 PHE         0.0599
    120 H23        27.7561   37.5729   27.6746 H         1 PHE         0.0559
    121 H24        23.6593   35.7317   30.5532 H         1 ASP         0.1884
    122 H25        23.1732   37.8567   32.5865 H         1 ASP         0.0819
    123 H26        24.8997   35.3534   32.8370 H         1 ASP         0.0478
    124 H27        23.1415   35.3756   33.2045 H         1 ASP         0.0478
    125 H28        24.5313   39.5273   32.6216 H         1 LEU         0.1883
    126 H29        26.7925   39.6402   30.8410 H         1 LEU         0.0800
    127 H30        27.2059   41.8589   31.9351 H         1 LEU         0.0315
    128 H31        25.8399   41.5034   33.0461 H         1 LEU         0.0315
    129 H32        24.3427   41.3598   31.0396 H         1 LEU         0.0298
    130 H33        24.2262   43.8060   30.7051 H         1 LEU         0.0232
    131 H34        25.8469   43.9822   31.4593 H         1 LEU         0.0232
    132 H35        24.4639   43.3778   32.4333 H         1 LEU         0.0232
    133 H36        26.0977   40.8780   29.3657 H         1 LEU         0.0232
    134 H37        26.7750   42.5239   29.6082 H         1 LEU         0.0232
    135 H38        25.1278   42.3229   28.9204 H         1 LEU         0.0232
    136 H39        26.4146   38.6320   34.1246 H         1 SER         0.1884
    137 H40        29.1454   39.2405   34.9170 H         1 SER         0.0823
    138 H41        28.5838   37.9374   36.9643 H         1 SER         0.0606
    139 H42        27.0069   37.4968   36.2254 H         1 SER         0.0606
    140 H43        27.9196   40.1406   36.7712 H         1 SER         0.2097
    141 H44        27.3803   36.2731   33.9829 H         1 THR         0.1884
    142 H45        29.9451   34.7914   34.1714 H         1 THR         0.0826
    143 H46        28.5797   32.7297   34.1151 H         1 THR         0.0639
    144 H47        26.2656   32.9969   34.1515 H         1 THR         0.2101
    145 H48        27.3913   33.0208   36.2667 H         1 THR         0.0257
    146 H49        27.5131   34.8045   36.0930 H         1 THR         0.0257
    147 H50        29.0007   33.8181   36.2942 H         1 THR         0.0257
    148 H51        28.0890   36.3307   31.8787 H         1 ARG         0.1883
    149 H52        27.8369   36.2318   29.6145 H         1 ARG         0.0800
    150 H53        29.7102   35.3367   28.2795 H         1 ARG         0.0313
    151 H54        30.4216   34.6314   29.7706 H         1 ARG         0.0313
    152 H55        30.9377   36.7405   30.6631 H         1 ARG         0.0301
    153 H56        29.8299   37.5914   29.5337 H         1 ARG         0.0301
    154 H57        31.2795   36.9780   27.6426 H         1 ARG         0.0689
    155 H58        32.3838   36.1138   28.7652 H         1 ARG         0.0689
    156 H59        32.0943   38.7782   29.7165 H         1 ARG         0.2642
    157 H60        34.6285   38.2592   26.5837 H         1 ARG         0.2615
    158 H61        33.3747   37.0341   26.9150 H         1 ARG         0.2615
    159 H62        33.6855   40.3324   29.2950 H         1 ARG         0.2615
    160 H63        34.8009   40.1155   27.9197 H         1 ARG         0.2615
    161 H64        26.4741   34.2651   31.1560 H         1 ARG         0.1883
    162 H65        26.2247   32.1289   29.0872 H         1 ARG         0.0800
    163 H66        25.5805   30.5863   30.9684 H         1 ARG         0.0313
    164 H67        26.0957   31.8621   32.1232 H         1 ARG         0.0313
    165 H68        27.8496   30.2036   31.8834 H         1 ARG         0.0301
    166 H69        28.3844   31.7610   31.1656 H         1 ARG         0.0301
    167 H70        28.9044   29.6773   29.8005 H         1 ARG         0.0689
    168 H71        28.0043   30.9717   28.9397 H         1 ARG         0.0689
    169 H72        26.1577   29.5645   28.7553 H         1 ARG         0.2642
    170 H73        27.6465   26.6670   31.1845 H         1 ARG         0.2615
    171 H74        28.4931   28.2327   31.0640 H         1 ARG         0.2615
    172 H75        25.0878   27.5774   28.9127 H         1 ARG         0.2615
    173 H76        25.7320   26.3004   29.9790 H         1 ARG         0.2615
    174 H77        24.0884   31.1425   29.0149 H         1 LEU         0.1883
    175 H78        21.9697   33.1151   29.3523 H         1 LEU         0.0800
    176 H79        20.5064   31.2399   28.5260 H         1 LEU         0.0315
    177 H80        21.9773   30.2118   28.4488 H         1 LEU         0.0315
    178 H81        22.9376   31.7119   26.7609 H         1 LEU         0.0298
    179 H82        21.3941   31.1151   24.9232 H         1 LEU         0.0232
    180 H83        20.1183   30.7312   26.1281 H         1 LEU         0.0232
    181 H84        21.6265   29.7568   26.0755 H         1 LEU         0.0232
    182 H85        21.8266   33.8015   27.4697 H         1 LEU         0.0232
    183 H86        20.2526   33.1562   26.8928 H         1 LEU         0.0232
    184 H87        21.5779   33.4708   25.7218 H         1 LEU         0.0232
    185 H88        20.5515   33.2727   30.9643 H         1 ARG         0.1883
    186 H89        20.4960   31.0880   33.0046 H         1 ARG         0.0797
    187 H90        19.7561   32.8122   34.6264 H         1 ARG         0.0277
    188 H91        19.8797   34.0676   33.3477 H         1 ARG         0.0277
    189 H92        21.3560   33.2180   33.9180 H         1 ARG         0.0277
    190 H93        18.7343   29.8864   32.8155 H         1 CYS         0.1876
    191 H94        16.3048   31.1070   31.6142 H         1 CYS         0.0734
    192 H95        15.5799   28.8399   31.1328 H         1 CYS         0.0425
    193 H96        16.9664   28.1657   32.0547 H         1 CYS         0.0425
@<TRIPOS>BOND
     1    1    3 1  
     2    1    5 2  
     3    1    7 am 
     4    3    2 1  
     5    2    6 1  
     6    3    4 1  
     7    6   96 1  
     8    7    8 1  
     9    8    9 1  
    10    8   11 1  
    11    9   10 2  
    12    9   16 am 
    13   11   12 1  
    14   12   13 1  
    15   13   14 2  
    16   13   15 am 
    17   16   17 1  
    18   17   18 1  
    19   17   20 1  
    20   18   19 2  
    21   18   27 am 
    22   20   21 1  
    23   21   22 ar 
    24   21   23 ar 
    25   22   24 ar 
    26   23   25 ar 
    27   24   26 ar 
    28   25   26 ar 
    29   27   28 1  
    30   28   29 1  
    31   28   31 1  
    32   29   30 2  
    33   29   35 am 
    34   31   32 1  
    35   32   33 ar 
    36   32   34 ar 
    37   35   36 1  
    38   36   37 1  
    39   36   39 1  
    40   37   38 2  
    41   37   43 am 
    42   39   40 1  
    43   40   41 1  
    44   40   42 1  
    45   43   44 1  
    46   44   45 1  
    47   44   47 1  
    48   45   46 2  
    49   45   49 am 
    50   47   48 1  
    51   49   50 1  
    52   50   51 1  
    53   50   53 1  
    54   51   52 2  
    55   51   56 am 
    56   53   54 1  
    57   53   55 1  
    58   56   57 1  
    59   57   58 1  
    60   57   60 1  
    61   58   59 2  
    62   58   67 am 
    63   60   61 1  
    64   61   62 1  
    65   62   63 1  
    66   63   64 ar 
    67   64   65 ar 
    68   64   66 ar 
    69   67   68 1  
    70   68   69 1  
    71   68   71 1  
    72   69   70 2  
    73   69   78 am 
    74   71   72 1  
    75   72   73 1  
    76   73   74 1  
    77   74   75 ar 
    78   75   76 ar 
    79   75   77 ar 
    80   78   79 1  
    81   79   80 1  
    82   79   82 1  
    83   80   81 2  
    84   80   86 am 
    85   82   83 1  
    86   83   84 1  
    87   83   85 1  
    88   86   87 1  
    89   87   88 1  
    90   87   90 1  
    91   88   89 2  
    92   88   91 am 
    93   91   92 1  
    94   92   93 1  
    95   92   95 1  
    96   93   94 ar 
    97   93   97 ar 
    98   95   96 1  
    99    2   98 1  
   100    2   99 1  
   101    3  100 1  
   102    4  101 1  
   103    4  102 1  
   104    4  103 1  
   105    7  104 1  
   106    8  105 1  
   107   11  106 1  
   108   11  107 1  
   109   12  108 1  
   110   12  109 1  
   111   15  110 1  
   112   15  111 1  
   113   16  112 1  
   114   17  113 1  
   115   20  114 1  
   116   20  115 1  
   117   22  116 1  
   118   23  117 1  
   119   24  118 1  
   120   25  119 1  
   121   26  120 1  
   122   27  121 1  
   123   28  122 1  
   124   31  123 1  
   125   31  124 1  
   126   35  125 1  
   127   36  126 1  
   128   39  127 1  
   129   39  128 1  
   130   40  129 1  
   131   41  130 1  
   132   41  131 1  
   133   41  132 1  
   134   42  133 1  
   135   42  134 1  
   136   42  135 1  
   137   43  136 1  
   138   44  137 1  
   139   47  138 1  
   140   47  139 1  
   141   48  140 1  
   142   49  141 1  
   143   50  142 1  
   144   53  143 1  
   145   54  144 1  
   146   55  145 1  
   147   55  146 1  
   148   55  147 1  
   149   56  148 1  
   150   57  149 1  
   151   60  150 1  
   152   60  151 1  
   153   61  152 1  
   154   61  153 1  
   155   62  154 1  
   156   62  155 1  
   157   63  156 1  
   158   65  157 1  
   159   65  158 1  
   160   66  159 1  
   161   66  160 1  
   162   67  161 1  
   163   68  162 1  
   164   71  163 1  
   165   71  164 1  
   166   72  165 1  
   167   72  166 1  
   168   73  167 1  
   169   73  168 1  
   170   74  169 1  
   171   76  170 1  
   172   76  171 1  
   173   77  172 1  
   174   77  173 1  
   175   78  174 1  
   176   79  175 1  
   177   82  176 1  
   178   82  177 1  
   179   83  178 1  
   180   84  179 1  
   181   84  180 1  
   182   84  181 1  
   183   85  182 1  
   184   85  183 1  
   185   85  184 1  
   186   86  185 1  
   187   87  186 1  
   188   90  187 1  
   189   90  188 1  
   190   90  189 1  
   191   91  190 1  
   192   92  191 1  
   193   95  192 1  
   194   95  193 1  
@<TRIPOS>SUBSTRUCTURE
     1 SC2         1

