5joh_ligand
  -I-interpret- 

 44 47  0  0  0  0  0  0  0  0999 V2000
   28.4840  -28.6140   18.7060 C   0  0  0  0  0
   27.8600  -27.7630   16.8460 C   0  0  0  0  0
   29.1890  -29.9740   12.9210 C   0  0  0  0  0
   29.2590  -30.1520   14.2980 C   0  0  0  0  0
   29.1060  -31.5450   14.8620 C   0  0  0  0  0
   29.3370  -28.6290   10.8830 C   0  0  0  0  0
   27.8680  -31.9580   15.3940 C   0  0  0  0  0
   27.6390  -33.2670   15.8480 C   0  0  0  0  0
   28.6610  -34.2150   15.6810 C   0  0  0  0  0
   29.8740  -33.8390   15.0620 C   0  0  0  0  0
   30.0990  -32.5140   14.6220 C   0  0  0  0  0
   29.2600  -29.3770   19.7740 C   0  0  0  0  0
   30.7840  -29.0700   19.7970 C   0  0  0  0  0
   31.5590  -29.6100   18.5490 C   0  0  0  0  0
   31.2680  -28.8990   17.1800 C   0  0  0  0  0
   28.7510  -28.5590   17.4060 N   0  0  0  0  0
   27.0490  -27.3020   17.6690 N   0  0  0  0  0
   27.4160  -27.8110   18.9930 C   0  0  0  0  0
   29.8310  -29.2650   16.6670 C   0  0  0  0  0
   29.7210  -29.1000   15.1250 C   0  0  0  0  0
   30.0080  -27.8390   14.4830 C   0  0  0  0  0
   29.9130  -27.6660   13.0820 C   0  0  0  0  0
   29.4980  -28.7700   12.2990 C   0  0  0  0  0
   29.2080  -28.5150    9.7430 N   0  0  0  0  0
   31.3060  -27.4550   17.3210 O   0  0  0  0  0
   26.6650  -30.7840   15.6910 Cl  0  0  0  0  0
   27.8371  -27.5347   15.7804 H   0  0  0  0  0
   28.8781  -30.8156   12.3019 H   0  0  0  0  0
   26.6937  -33.5396   16.3172 H   0  0  0  0  0
   28.5190  -35.2385   16.0280 H   0  0  0  0  0
   30.6540  -34.5870   14.9204 H   0  0  0  0  0
   31.0224  -32.2482   14.1075 H   0  0  0  0  0
   29.1494  -30.4389   19.5545 H   0  0  0  0  0
   28.8569  -29.0757   20.7409 H   0  0  0  0  0
   31.2006  -29.5629   20.6754 H   0  0  0  0  0
   30.8961  -27.9858   19.8039 H   0  0  0  0  0
   31.2436  -30.6458   18.4235 H   0  0  0  0  0
   32.6162  -29.4440   18.7559 H   0  0  0  0  0
   32.0342  -29.2349   16.4813 H   0  0  0  0  0
   26.9555  -27.6027   19.9588 H   0  0  0  0  0
   29.6769  -30.3218   16.8849 H   0  0  0  0  0
   30.3082  -26.9912   15.0988 H   0  0  0  0  0
   30.1527  -26.7091   12.6183 H   0  0  0  0  0
   31.1252  -27.0468   16.4712 H   0  0  0  0  0
  1 12  1  0  0  0
 16  1  4  0  0  0
  1 18  4  0  0  0
 16  2  4  0  0  0
  2 17  4  0  0  0
  4  3  4  0  0  0
  3 23  4  0  0  0
  4  5  1  0  0  0
 20  4  4  0  0  0
  5  7  4  0  0  0
  5 11  4  0  0  0
 23  6  1  0  0  0
  6 24  3  0  0  0
  7  8  4  0  0  0
  7 26  1  0  0  0
  8  9  4  0  0  0
 10  9  4  0  0  0
 11 10  4  0  0  0
 12 13  1  0  0  0
 14 13  1  0  0  0
 15 14  1  0  0  0
 19 15  1  0  0  0
 15 25  1  0  0  0
 19 16  1  0  0  0
 17 18  4  0  0  0
 19 20  1  0  0  0
 20 21  4  0  0  0
 21 22  4  0  0  0
 22 23  4  0  0  0
  2 27  1  0  0  0
  3 28  1  0  0  0
  8 29  1  0  0  0
  9 30  1  0  0  0
 10 31  1  0  0  0
 11 32  1  0  0  0
 12 33  1  0  0  0
 12 34  1  0  0  0
 13 35  1  0  0  0
 13 36  1  0  0  0
 14 37  1  0  0  0
 14 38  1  0  0  0
 15 39  1  0  0  0
 18 40  1  0  0  0
 19 41  1  0  0  0
 21 42  1  0  0  0
 22 43  1  0  0  0
 25 44  1  0  0  0
M  END
$$$$
