2y5g_ligand
  -I-interpret- 

 60 64  0  0  0  0  0  0  0  0999 V2000
   -0.4510    5.6420   27.6220 Cl  0  0  0  0  0
   -1.2230    7.2390   27.3000 C   0  0  0  0  0
   -2.2330    7.8110   28.0290 C   0  0  0  0  0
   -2.6050    9.0380   27.4390 C   0  0  0  0  0
   -0.7000    8.1000   25.9230 S   0  0  0  0  0
   -1.8540    9.3260   26.2850 C   0  0  0  0  0
   -2.0420   10.4240   25.4060 C   0  0  0  0  0
   -1.3070   10.5260   24.2520 O   0  0  0  0  0
   -3.0100   11.3560   25.4360 C   0  0  0  0  0
   -2.8130   12.1590   24.3020 N   0  0  0  0  0
   -1.8160   11.6500   23.6460 C   0  0  0  0  0
   -1.2060   12.0260   22.3440 C   0  0  0  0  0
   -1.8090   13.2360   21.7630 N   0  3  0  0  0
   -1.6000   13.1700   20.3040 C   0  0  0  0  0
   -0.3550   13.9830   19.9730 C   0  0  0  0  0
   -0.1830   14.9330   21.1510 C   0  0  0  0  0
   -1.1790   14.4890   22.2220 C   0  0  0  0  0
   -1.4780   11.7020   19.9530 C   0  0  0  0  0
   -1.4440   10.9530   21.2830 C   0  0  0  0  0
   -2.7820   10.2440   21.2700 C   0  0  0  0  0
   -3.3370    9.7070   22.2140 O   0  0  0  0  0
   -2.7270   11.2620   19.2540 C   0  0  0  0  0
   -3.2000   11.7490   18.2270 O   0  0  0  0  0
   -3.3260   10.2090   19.9540 N   0  0  0  0  0
   -4.7540    9.9570   19.7680 C   0  0  0  0  0
   -4.7070    8.6830   18.9160 C   0  0  0  0  0
   -6.0590    7.9940   18.8240 C   0  0  0  0  0
   -6.1600    6.9530   17.7870 N   0  3  0  0  0
   -5.8360    7.5000   16.4520 C   0  0  0  0  0
   -7.5650    6.5400   17.7640 C   0  0  0  0  0
   -5.3390    5.7690   18.1070 C   0  0  0  0  0
   -2.6802    7.3839   28.9266 H   0  0  0  0  0
   -3.3857    9.6887   27.8329 H   0  0  0  0  0
   -3.7904   11.4659   26.1890 H   0  0  0  0  0
   -0.1505   12.1699   22.5747 H   0  0  0  0  0
   -2.7887   13.2539   22.0464 H   0  0  0  0  0
   -2.4177   13.5928   19.7203 H   0  0  0  0  0
   -0.4614   14.5211   19.0311 H   0  0  0  0  0
    0.5192   13.3467   19.8350 H   0  0  0  0  0
   -0.3704   15.9636   20.8495 H   0  0  0  0  0
    0.8378   14.8989   21.5317 H   0  0  0  0  0
   -0.6670   14.3288   23.1708 H   0  0  0  0  0
   -1.9359   15.2580   22.3760 H   0  0  0  0  0
   -0.6028   11.5206   19.3292 H   0  0  0  0  0
   -0.6722   10.2072   21.4735 H   0  0  0  0  0
   -5.2946   10.7823   19.3045 H   0  0  0  0  0
   -5.3115    9.8495   20.6984 H   0  0  0  0  0
   -4.0079    7.9905   19.3848 H   0  0  0  0  0
   -4.4034    8.9639   17.9075 H   0  0  0  0  0
   -6.7869    8.7639   18.5680 H   0  0  0  0  0
   -6.2257    7.5005   19.7815 H   0  0  0  0  0
   -6.5328    8.3027   16.2108 H   0  0  0  0  0
   -4.8182    7.8902   16.4579 H   0  0  0  0  0
   -5.9189    6.7089   15.7067 H   0  0  0  0  0
   -7.8437    6.1496   18.7428 H   0  0  0  0  0
   -8.1910    7.3990   17.5224 H   0  0  0  0  0
   -7.7023    5.7651   17.0098 H   0  0  0  0  0
   -4.2934    6.0653   18.1907 H   0  0  0  0  0
   -5.6735    5.3412   19.0521 H   0  0  0  0  0
   -5.4459    5.0292   17.3137 H   0  0  0  0  0
  1  2  1  0  0  0
  2  3  4  0  0  0
  2  5  4  0  0  0
  3  4  4  0  0  0
  4  6  4  0  0  0
  5  6  4  0  0  0
  6  7  1  0  0  0
  7  8  4  0  0  0
  7  9  4  0  0  0
  8 11  4  0  0  0
  9 10  4  0  0  0
 10 11  4  0  0  0
 11 12  1  0  0  0
 12 13  1  0  0  0
 12 19  1  0  0  0
 13 14  1  0  0  0
 13 17  1  0  0  0
 14 15  1  0  0  0
 14 18  1  0  0  0
 15 16  1  0  0  0
 16 17  1  0  0  0
 18 19  1  0  0  0
 18 22  1  0  0  0
 19 20  1  0  0  0
 20 21  2  0  0  0
 20 24  1  0  0  0
 22 23  2  0  0  0
 22 24  1  0  0  0
 24 25  1  0  0  0
 25 26  1  0  0  0
 26 27  1  0  0  0
 27 28  1  0  0  0
 28 29  1  0  0  0
 28 30  1  0  0  0
 28 31  1  0  0  0
  3 32  1  0  0  0
  4 33  1  0  0  0
  9 34  1  0  0  0
 12 35  1  0  0  0
 13 36  1  0  0  0
 14 37  1  0  0  0
 15 38  1  0  0  0
 15 39  1  0  0  0
 16 40  1  0  0  0
 16 41  1  0  0  0
 17 42  1  0  0  0
 17 43  1  0  0  0
 18 44  1  0  0  0
 19 45  1  0  0  0
 25 46  1  0  0  0
 25 47  1  0  0  0
 26 48  1  0  0  0
 26 49  1  0  0  0
 27 50  1  0  0  0
 27 51  1  0  0  0
 29 52  1  0  0  0
 29 53  1  0  0  0
 29 54  1  0  0  0
 30 55  1  0  0  0
 30 56  1  0  0  0
 30 57  1  0  0  0
 31 58  1  0  0  0
 31 59  1  0  0  0
 31 60  1  0  0  0
M  END
$$$$
